MODEL 1
REMARK VINA RESULT:     -13.0      0.000      0.000
REMARK SMILES Cc1ccc(C(=O)NCCCCCCNC(=O)c2ccc(-c3c4nc(c(-c5c(F)c(F)c(F)c(F)c5F)c5ccc([nH]5)c(-c5c(F)c(F)c(F)c(F)c5F)c5nc(c(-c6c(F)c(F)c(F)c(F)c6F)c6ccc3[nH]6)C=C5)C=C4)cc2)cc1NC(=O)c1ccc(Br)o1
REMARK SMILES IDX 11 1 10 2 9 3 8 4 6 5 7 6 5 8 1 9 2 10 3 11 82 12 4 13 81 14
REMARK SMILES IDX 83 15 84 16 85 18 86 19 87 20 91 21 88 22 89 23 90 24 12 25
REMARK SMILES IDX 13 26 14 27 15 28 16 29 17 31 18 32 19 33 80 34 20 35 79 36
REMARK SMILES IDX 21 37 22 38 23 39 73 40 24 41 78 42 72 43 74 44 25 45 77 46
REMARK SMILES IDX 71 47 70 48 26 50 58 51 38 52 57 53 39 54 42 55 56 56 75 57
REMARK SMILES IDX 40 58 41 59 55 61 76 62 43 63 27 64 28 65 36 66 29 67 30 68
REMARK SMILES IDX 34 69 37 70 31 71 32 72 35 73 33 74 59 75 60 76 68 77 61 78
REMARK SMILES IDX 62 79 66 80 69 81 63 82 64 83 67 84 65 85 44 86 45 87 53 88
REMARK SMILES IDX 46 89 47 90 51 91 54 92 48 93 49 94 52 95 50 96
REMARK H PARENT 8 7 83 17 15 30 74 49 42 60
REMARK Flexibility Score: inf
ROOT
ATOM      1  C   UNL A   1      35.931  21.236  25.360  1.00  0.00     0.002 C 
ENDROOT
BRANCH   1   2
ATOM      2  C   UNL A   1      34.534  21.370  25.989  1.00  0.00     0.021 C 
BRANCH   2   3
ATOM      3  C   UNL A   1      34.365  22.361  27.149  1.00  0.00     0.116 C 
BRANCH   3   4
ATOM      4  N   UNL A   1      32.985  22.752  27.351  1.00  0.00    -0.352 N 
ATOM      5  C   UNL A   1      32.170  23.781  26.952  1.00  0.00     0.251 C 
ATOM      6  O   UNL A   1      30.987  23.636  27.285  1.00  0.00    -0.269 OA
ATOM      7  H   UNL A   1      32.506  22.110  27.924  1.00  0.00     0.163 HD
BRANCH   5   8
ATOM      8  C   UNL A   1      32.527  25.020  26.171  1.00  0.00     0.041 A 
ATOM      9  C   UNL A   1      33.878  28.125  23.421  1.00  0.00     0.046 C 
ATOM     10  C   UNL A   1      33.378  27.127  24.440  1.00  0.00    -0.027 A 
ATOM     11  C   UNL A   1      33.967  25.860  24.378  1.00  0.00     0.006 A 
ATOM     12  C   UNL A   1      32.383  27.369  25.415  1.00  0.00     0.045 A 
ATOM     13  C   UNL A   1      33.563  24.841  25.237  1.00  0.00     0.014 A 
ATOM     14  C   UNL A   1      31.936  26.295  26.228  1.00  0.00     0.040 A 
BRANCH  12  15
ATOM     15  N   UNL A   1      31.893  28.690  25.507  1.00  0.00    -0.319 N 
ATOM     16  C   UNL A   1      32.272  29.856  26.114  1.00  0.00     0.291 C 
ATOM     17  H   UNL A   1      31.055  28.800  25.001  1.00  0.00     0.170 HD
ATOM     18  O   UNL A   1      31.524  30.825  25.960  1.00  0.00    -0.265 OA
BRANCH  16  19
ATOM     19  C   UNL A   1      33.475  29.952  26.879  1.00  0.00     0.193 A 
ATOM     20  C   UNL A   1      34.379  29.013  27.338  1.00  0.00     0.057 A 
ATOM     21  O   UNL A   1      33.923  31.205  27.157  1.00  0.00    -0.444 OA
ATOM     22  C   UNL A   1      35.450  29.746  27.912  1.00  0.00     0.059 A 
ATOM     23  C   UNL A   1      35.117  31.074  27.775  1.00  0.00     0.170 A 
ATOM     24  Br  UNL A   1      36.120  32.528  28.332  1.00  0.00    -0.008 Br
ENDBRANCH  16  19
ENDBRANCH  12  15
ENDBRANCH   5   8
ENDBRANCH   3   4
ENDBRANCH   2   3
ENDBRANCH   1   2
BRANCH   1  25
ATOM     25  C   UNL A   1      36.376  22.294  24.336  1.00  0.00     0.002 C 
BRANCH  25  26
ATOM     26  C   UNL A   1      37.232  23.459  24.845  1.00  0.00     0.021 C 
BRANCH  26  27
ATOM     27  C   UNL A   1      37.839  23.266  26.238  1.00  0.00     0.116 C 
BRANCH  27  28
ATOM     28  N   UNL A   1      39.297  23.122  26.229  1.00  0.00    -0.352 N 
ATOM     29  C   UNL A   1      40.256  23.978  26.751  1.00  0.00     0.251 C 
ATOM     30  H   UNL A   1      39.643  22.310  25.794  1.00  0.00     0.163 HD
ATOM     31  O   UNL A   1      41.435  23.666  26.788  1.00  0.00    -0.269 OA
BRANCH  29  32
ATOM     32  C   UNL A   1      39.803  25.252  27.349  1.00  0.00     0.039 A 
ATOM     33  C   UNL A   1      40.064  26.445  26.670  1.00  0.00     0.014 A 
ATOM     34  C   UNL A   1      39.319  25.266  28.652  1.00  0.00     0.014 A 
ATOM     35  C   UNL A   1      40.098  27.638  27.391  1.00  0.00     0.010 A 
ATOM     36  C   UNL A   1      39.396  26.445  29.374  1.00  0.00     0.010 A 
ATOM     37  C   UNL A   1      39.885  27.606  28.771  1.00  0.00    -0.014 A 
BRANCH  37  38
ATOM     38  C   UNL A   1      40.344  28.669  29.662  1.00  0.00     0.031 A 
ATOM     39  C   UNL A   1      39.437  29.717  30.165  1.00  0.00     0.074 A 
ATOM     40  C   UNL A   1      41.639  28.714  30.055  1.00  0.00     0.049 A 
ATOM     41  N   UNL A   1      39.810  30.942  30.346  1.00  0.00    -0.248 NA
ATOM     42  C   UNL A   1      38.040  29.473  30.504  1.00  0.00     0.031 C 
ATOM     43  C   UNL A   1      42.226  29.598  31.060  1.00  0.00     0.029 A 
ATOM     44  N   UNL A   1      42.746  28.101  29.445  1.00  0.00    -0.354 N 
ATOM     45  C   UNL A   1      38.821  31.564  31.063  1.00  0.00     0.074 A 
ATOM     46  C   UNL A   1      37.706  30.640  31.065  1.00  0.00     0.031 C 
ATOM     47  C   UNL A   1      43.533  29.741  30.797  1.00  0.00     0.029 A 
ATOM     48  C   UNL A   1      43.804  29.032  29.561  1.00  0.00     0.049 A 
ATOM     49  H   UNL A   1      42.779  27.211  29.023  1.00  0.00     0.167 HD
ATOM     50  C   UNL A   1      39.071  32.729  31.720  1.00  0.00     0.037 A 
ATOM     51  C   UNL A   1      44.446  29.543  28.476  1.00  0.00     0.037 A 
ATOM     52  C   UNL A   1      40.458  33.159  31.602  1.00  0.00     0.049 A 
ATOM     53  C   UNL A   1      44.462  31.050  28.410  1.00  0.00     0.074 A 
ATOM     54  C   UNL A   1      41.545  33.064  32.456  1.00  0.00     0.029 A 
ATOM     55  N   UNL A   1      40.969  33.525  30.362  1.00  0.00    -0.354 N 
ATOM     56  N   UNL A   1      43.659  31.819  29.086  1.00  0.00    -0.248 NA
ATOM     57  C   UNL A   1      45.352  31.805  27.536  1.00  0.00     0.031 C 
ATOM     58  C   UNL A   1      42.712  33.404  31.736  1.00  0.00     0.029 A 
ATOM     59  C   UNL A   1      42.339  33.698  30.438  1.00  0.00     0.049 A 
ATOM     60  H   UNL A   1      40.433  33.643  29.546  1.00  0.00     0.167 HD
ATOM     61  C   UNL A   1      43.877  33.134  28.743  1.00  0.00     0.074 A 
ATOM     62  C   UNL A   1      44.968  33.068  27.792  1.00  0.00     0.031 C 
ATOM     63  C   UNL A   1      43.114  34.135  29.284  1.00  0.00     0.037 A 
BRANCH  50  64
ATOM     64  C   UNL A   1      38.084  33.288  32.708  1.00  0.00     0.064 A 
ATOM     65  C   UNL A   1      38.127  32.958  34.077  1.00  0.00     0.173 A 
ATOM     66  C   UNL A   1      37.028  34.132  32.318  1.00  0.00     0.173 A 
ATOM     67  F   UNL A   1      39.115  32.219  34.592  1.00  0.00    -0.203 F 
ATOM     68  C   UNL A   1      37.127  33.355  34.967  1.00  0.00     0.198 A 
ATOM     69  C   UNL A   1      36.003  34.490  33.199  1.00  0.00     0.198 A 
ATOM     70  F   UNL A   1      36.964  34.611  31.067  1.00  0.00    -0.203 F 
ATOM     71  F   UNL A   1      37.204  32.994  36.256  1.00  0.00    -0.200 F 
ATOM     72  C   UNL A   1      36.047  34.091  34.521  1.00  0.00     0.200 A 
ATOM     73  F   UNL A   1      34.962  35.205  32.752  1.00  0.00    -0.200 F 
ATOM     74  F   UNL A   1      35.057  34.416  35.363  1.00  0.00    -0.200 F 
ENDBRANCH  50  64
BRANCH  51  75
ATOM     75  C   UNL A   1      44.431  28.641  27.298  1.00  0.00     0.064 A 
ATOM     76  C   UNL A   1      45.203  27.462  27.346  1.00  0.00     0.173 A 
ATOM     77  C   UNL A   1      43.432  28.723  26.323  1.00  0.00     0.173 A 
ATOM     78  F   UNL A   1      46.170  27.331  28.267  1.00  0.00    -0.203 F 
ATOM     79  C   UNL A   1      44.908  26.371  26.532  1.00  0.00     0.198 A 
ATOM     80  C   UNL A   1      43.153  27.634  25.496  1.00  0.00     0.198 A 
ATOM     81  F   UNL A   1      42.649  29.808  26.244  1.00  0.00    -0.203 F 
ATOM     82  F   UNL A   1      45.582  25.222  26.687  1.00  0.00    -0.200 F 
ATOM     83  C   UNL A   1      43.867  26.450  25.625  1.00  0.00     0.200 A 
ATOM     84  F   UNL A   1      42.125  27.696  24.638  1.00  0.00    -0.200 F 
ATOM     85  F   UNL A   1      43.520  25.373  24.907  1.00  0.00    -0.200 F 
ENDBRANCH  51  75
BRANCH  63  86
ATOM     86  C   UNL A   1      43.061  35.613  28.912  1.00  0.00     0.064 A 
ATOM     87  C   UNL A   1      42.350  36.159  27.831  1.00  0.00     0.173 A 
ATOM     88  C   UNL A   1      43.690  36.582  29.747  1.00  0.00     0.173 A 
ATOM     89  F   UNL A   1      41.613  35.400  27.016  1.00  0.00    -0.203 F 
ATOM     90  C   UNL A   1      42.316  37.536  27.572  1.00  0.00     0.198 A 
ATOM     91  C   UNL A   1      43.608  37.956  29.518  1.00  0.00     0.198 A 
ATOM     92  F   UNL A   1      44.387  36.235  30.838  1.00  0.00    -0.203 F 
ATOM     93  F   UNL A   1      41.651  37.991  26.501  1.00  0.00    -0.200 F 
ATOM     94  C   UNL A   1      42.934  38.435  28.420  1.00  0.00     0.200 A 
ATOM     95  F   UNL A   1      44.176  38.808  30.383  1.00  0.00    -0.200 F 
ATOM     96  F   UNL A   1      42.859  39.753  28.192  1.00  0.00    -0.200 F 
ENDBRANCH  63  86
ENDBRANCH  37  38
ENDBRANCH  29  32
ENDBRANCH  27  28
ENDBRANCH  26  27
ENDBRANCH  25  26
ENDBRANCH   1  25
TORSDOF 15
ENDMDL
MODEL 2
REMARK VINA RESULT:     -12.8      3.876     10.075
REMARK SMILES Cc1ccc(C(=O)NCCCCCCNC(=O)c2ccc(-c3c4nc(c(-c5c(F)c(F)c(F)c(F)c5F)c5ccc([nH]5)c(-c5c(F)c(F)c(F)c(F)c5F)c5nc(c(-c6c(F)c(F)c(F)c(F)c6F)c6ccc3[nH]6)C=C5)C=C4)cc2)cc1NC(=O)c1ccc(Br)o1
REMARK SMILES IDX 11 1 10 2 9 3 8 4 6 5 7 6 5 8 1 9 2 10 3 11 82 12 4 13 81 14
REMARK SMILES IDX 83 15 84 16 85 18 86 19 87 20 91 21 88 22 89 23 90 24 12 25
REMARK SMILES IDX 13 26 14 27 15 28 16 29 17 31 18 32 19 33 80 34 20 35 79 36
REMARK SMILES IDX 21 37 22 38 23 39 73 40 24 41 78 42 72 43 74 44 25 45 77 46
REMARK SMILES IDX 71 47 70 48 26 50 58 51 38 52 57 53 39 54 42 55 56 56 75 57
REMARK SMILES IDX 40 58 41 59 55 61 76 62 43 63 27 64 28 65 36 66 29 67 30 68
REMARK SMILES IDX 34 69 37 70 31 71 32 72 35 73 33 74 59 75 60 76 68 77 61 78
REMARK SMILES IDX 62 79 66 80 69 81 63 82 64 83 67 84 65 85 44 86 45 87 53 88
REMARK SMILES IDX 46 89 47 90 51 91 54 92 48 93 49 94 52 95 50 96
REMARK H PARENT 8 7 83 17 15 30 74 49 42 60
REMARK Flexibility Score: inf
ROOT
ATOM      1  C   UNL A   1      34.020  27.893  26.176  1.00  0.00     0.002 C 
ENDROOT
BRANCH   1   2
ATOM      2  C   UNL A   1      33.859  27.847  24.647  1.00  0.00     0.021 C 
BRANCH   2   3
ATOM      3  C   UNL A   1      33.074  28.984  23.978  1.00  0.00     0.116 C 
BRANCH   3   4
ATOM      4  N   UNL A   1      32.118  28.499  23.003  1.00  0.00    -0.352 N 
ATOM      5  C   UNL A   1      31.253  27.440  22.894  1.00  0.00     0.251 C 
ATOM      6  O   UNL A   1      30.521  27.495  21.898  1.00  0.00    -0.269 OA
ATOM      7  H   UNL A   1      32.077  29.084  22.212  1.00  0.00     0.163 HD
BRANCH   5   8
ATOM      8  C   UNL A   1      31.084  26.260  23.818  1.00  0.00     0.041 A 
ATOM      9  C   UNL A   1      30.105  23.292  26.862  1.00  0.00     0.046 C 
ATOM     10  C   UNL A   1      30.518  24.252  25.770  1.00  0.00    -0.027 A 
ATOM     11  C   UNL A   1      30.246  25.601  26.021  1.00  0.00     0.006 A 
ATOM     12  C   UNL A   1      31.130  23.898  24.545  1.00  0.00     0.045 A 
ATOM     13  C   UNL A   1      30.541  26.579  25.075  1.00  0.00     0.014 A 
ATOM     14  C   UNL A   1      31.353  24.902  23.568  1.00  0.00     0.040 A 
BRANCH  12  15
ATOM     15  N   UNL A   1      31.479  22.540  24.380  1.00  0.00    -0.319 N 
ATOM     16  C   UNL A   1      32.619  21.825  24.127  1.00  0.00     0.291 C 
ATOM     17  H   UNL A   1      30.695  21.952  24.470  1.00  0.00     0.170 HD
ATOM     18  O   UNL A   1      32.490  20.602  24.031  1.00  0.00    -0.265 OA
BRANCH  16  19
ATOM     19  C   UNL A   1      33.892  22.458  23.991  1.00  0.00     0.193 A 
ATOM     20  C   UNL A   1      34.510  23.122  22.947  1.00  0.00     0.057 A 
ATOM     21  O   UNL A   1      34.656  22.541  25.113  1.00  0.00    -0.444 OA
ATOM     22  C   UNL A   1      35.713  23.656  23.478  1.00  0.00     0.059 A 
ATOM     23  C   UNL A   1      35.748  23.270  24.798  1.00  0.00     0.170 A 
ATOM     24  Br  UNL A   1      37.077  23.662  26.028  1.00  0.00    -0.008 Br
ENDBRANCH  16  19
ENDBRANCH  12  15
ENDBRANCH   5   8
ENDBRANCH   3   4
ENDBRANCH   2   3
ENDBRANCH   1   2
BRANCH   1  25
ATOM     25  C   UNL A   1      32.849  28.424  27.019  1.00  0.00     0.002 C 
BRANCH  25  26
ATOM     26  C   UNL A   1      32.903  29.887  27.470  1.00  0.00     0.021 C 
BRANCH  26  27
ATOM     27  C   UNL A   1      34.273  30.561  27.344  1.00  0.00     0.116 C 
BRANCH  27  28
ATOM     28  N   UNL A   1      34.668  31.318  28.535  1.00  0.00    -0.352 N 
ATOM     29  C   UNL A   1      35.772  31.132  29.354  1.00  0.00     0.251 C 
ATOM     30  H   UNL A   1      34.070  32.057  28.787  1.00  0.00     0.163 HD
ATOM     31  O   UNL A   1      36.048  31.924  30.239  1.00  0.00    -0.269 OA
BRANCH  29  32
ATOM     32  C   UNL A   1      36.666  29.989  29.070  1.00  0.00     0.039 A 
ATOM     33  C   UNL A   1      37.011  29.128  30.115  1.00  0.00     0.014 A 
ATOM     34  C   UNL A   1      37.309  29.908  27.840  1.00  0.00     0.014 A 
ATOM     35  C   UNL A   1      38.179  28.374  30.011  1.00  0.00     0.010 A 
ATOM     36  C   UNL A   1      38.491  29.192  27.756  1.00  0.00     0.010 A 
ATOM     37  C   UNL A   1      38.979  28.512  28.874  1.00  0.00    -0.014 A 
BRANCH  37  38
ATOM     38  C   UNL A   1      40.396  28.154  28.862  1.00  0.00     0.031 A 
ATOM     39  C   UNL A   1      40.877  26.874  28.313  1.00  0.00     0.074 A 
ATOM     40  C   UNL A   1      41.317  29.012  29.363  1.00  0.00     0.049 A 
ATOM     41  N   UNL A   1      41.871  26.220  28.820  1.00  0.00    -0.248 NA
ATOM     42  C   UNL A   1      40.280  26.226  27.151  1.00  0.00     0.031 C 
ATOM     43  C   UNL A   1      42.771  28.889  29.283  1.00  0.00     0.029 A 
ATOM     44  N   UNL A   1      41.107  30.074  30.258  1.00  0.00    -0.354 N 
ATOM     45  C   UNL A   1      42.213  25.244  27.921  1.00  0.00     0.074 A 
ATOM     46  C   UNL A   1      41.148  25.230  26.940  1.00  0.00     0.031 C 
ATOM     47  C   UNL A   1      43.317  29.569  30.302  1.00  0.00     0.029 A 
ATOM     48  C   UNL A   1      42.228  30.066  31.121  1.00  0.00     0.049 A 
ATOM     49  H   UNL A   1      40.342  30.693  30.281  1.00  0.00     0.167 HD
ATOM     50  C   UNL A   1      43.429  24.636  27.989  1.00  0.00     0.037 A 
ATOM     51  C   UNL A   1      42.108  29.906  32.467  1.00  0.00     0.037 A 
ATOM     52  C   UNL A   1      44.272  25.175  29.048  1.00  0.00     0.049 A 
ATOM     53  C   UNL A   1      42.921  28.771  33.038  1.00  0.00     0.074 A 
ATOM     54  C   UNL A   1      45.319  26.082  29.043  1.00  0.00     0.029 A 
ATOM     55  N   UNL A   1      43.904  25.015  30.379  1.00  0.00    -0.354 N 
ATOM     56  N   UNL A   1      43.410  27.795  32.329  1.00  0.00    -0.248 NA
ATOM     57  C   UNL A   1      43.200  28.621  34.461  1.00  0.00     0.031 C 
ATOM     58  C   UNL A   1      45.604  26.448  30.378  1.00  0.00     0.029 A 
ATOM     59  C   UNL A   1      44.723  25.769  31.200  1.00  0.00     0.049 A 
ATOM     60  H   UNL A   1      43.164  24.447  30.694  1.00  0.00     0.167 HD
ATOM     61  C   UNL A   1      44.031  26.886  33.157  1.00  0.00     0.074 A 
ATOM     62  C   UNL A   1      43.895  27.469  34.477  1.00  0.00     0.031 C 
ATOM     63  C   UNL A   1      44.580  25.738  32.649  1.00  0.00     0.037 A 
BRANCH  50  64
ATOM     64  C   UNL A   1      43.918  23.755  26.873  1.00  0.00     0.064 A 
ATOM     65  C   UNL A   1      43.520  22.409  26.753  1.00  0.00     0.173 A 
ATOM     66  C   UNL A   1      44.843  24.203  25.913  1.00  0.00     0.173 A 
ATOM     67  F   UNL A   1      42.597  21.874  27.559  1.00  0.00    -0.203 F 
ATOM     68  C   UNL A   1      44.085  21.550  25.809  1.00  0.00     0.198 A 
ATOM     69  C   UNL A   1      45.443  23.332  24.999  1.00  0.00     0.198 A 
ATOM     70  F   UNL A   1      45.194  25.497  25.856  1.00  0.00    -0.203 F 
ATOM     71  F   UNL A   1      43.687  20.270  25.752  1.00  0.00    -0.200 F 
ATOM     72  C   UNL A   1      45.072  22.002  24.956  1.00  0.00     0.200 A 
ATOM     73  F   UNL A   1      46.399  23.785  24.177  1.00  0.00    -0.200 F 
ATOM     74  F   UNL A   1      45.659  21.159  24.095  1.00  0.00    -0.200 F 
ENDBRANCH  50  64
BRANCH  51  75
ATOM     75  C   UNL A   1      40.809  30.377  33.008  1.00  0.00     0.064 A 
ATOM     76  C   UNL A   1      40.539  31.760  32.996  1.00  0.00     0.173 A 
ATOM     77  C   UNL A   1      39.728  29.506  33.184  1.00  0.00     0.173 A 
ATOM     78  F   UNL A   1      41.540  32.637  32.825  1.00  0.00    -0.203 F 
ATOM     79  C   UNL A   1      39.234  32.243  33.040  1.00  0.00     0.198 A 
ATOM     80  C   UNL A   1      38.423  29.996  33.247  1.00  0.00     0.198 A 
ATOM     81  F   UNL A   1      39.918  28.179  33.178  1.00  0.00    -0.203 F 
ATOM     82  F   UNL A   1      39.003  33.556  32.905  1.00  0.00    -0.200 F 
ATOM     83  C   UNL A   1      38.175  31.357  33.141  1.00  0.00     0.200 A 
ATOM     84  F   UNL A   1      37.393  29.139  33.313  1.00  0.00    -0.200 F 
ATOM     85  F   UNL A   1      36.915  31.811  33.089  1.00  0.00    -0.200 F 
ENDBRANCH  51  75
BRANCH  63  86
ATOM     86  C   UNL A   1      45.139  24.529  33.391  1.00  0.00     0.064 A 
ATOM     87  C   UNL A   1      44.454  23.326  33.629  1.00  0.00     0.173 A 
ATOM     88  C   UNL A   1      46.497  24.523  33.824  1.00  0.00     0.173 A 
ATOM     89  F   UNL A   1      43.209  23.125  33.188  1.00  0.00    -0.203 F 
ATOM     90  C   UNL A   1      45.047  22.240  34.287  1.00  0.00     0.198 A 
ATOM     91  C   UNL A   1      47.101  23.420  34.430  1.00  0.00     0.198 A 
ATOM     92  F   UNL A   1      47.304  25.579  33.651  1.00  0.00    -0.203 F 
ATOM     93  F   UNL A   1      44.327  21.134  34.518  1.00  0.00    -0.200 F 
ATOM     94  C   UNL A   1      46.371  22.281  34.676  1.00  0.00     0.200 A 
ATOM     95  F   UNL A   1      48.401  23.470  34.754  1.00  0.00    -0.200 F 
ATOM     96  F   UNL A   1      46.945  21.223  35.264  1.00  0.00    -0.200 F 
ENDBRANCH  63  86
ENDBRANCH  37  38
ENDBRANCH  29  32
ENDBRANCH  27  28
ENDBRANCH  26  27
ENDBRANCH  25  26
ENDBRANCH   1  25
TORSDOF 15
ENDMDL
MODEL 3
REMARK VINA RESULT:     -12.8      2.032      3.101
REMARK SMILES Cc1ccc(C(=O)NCCCCCCNC(=O)c2ccc(-c3c4nc(c(-c5c(F)c(F)c(F)c(F)c5F)c5ccc([nH]5)c(-c5c(F)c(F)c(F)c(F)c5F)c5nc(c(-c6c(F)c(F)c(F)c(F)c6F)c6ccc3[nH]6)C=C5)C=C4)cc2)cc1NC(=O)c1ccc(Br)o1
REMARK SMILES IDX 11 1 10 2 9 3 8 4 6 5 7 6 5 8 1 9 2 10 3 11 82 12 4 13 81 14
REMARK SMILES IDX 83 15 84 16 85 18 86 19 87 20 91 21 88 22 89 23 90 24 12 25
REMARK SMILES IDX 13 26 14 27 15 28 16 29 17 31 18 32 19 33 80 34 20 35 79 36
REMARK SMILES IDX 21 37 22 38 23 39 73 40 24 41 78 42 72 43 74 44 25 45 77 46
REMARK SMILES IDX 71 47 70 48 26 50 58 51 38 52 57 53 39 54 42 55 56 56 75 57
REMARK SMILES IDX 40 58 41 59 55 61 76 62 43 63 27 64 28 65 36 66 29 67 30 68
REMARK SMILES IDX 34 69 37 70 31 71 32 72 35 73 33 74 59 75 60 76 68 77 61 78
REMARK SMILES IDX 62 79 66 80 69 81 63 82 64 83 67 84 65 85 44 86 45 87 53 88
REMARK SMILES IDX 46 89 47 90 51 91 54 92 48 93 49 94 52 95 50 96
REMARK H PARENT 8 7 83 17 15 30 74 49 42 60
REMARK Flexibility Score: inf
ROOT
ATOM      1  C   UNL A   1      35.900  23.314  26.252  1.00  0.00     0.002 C 
ENDROOT
BRANCH   1   2
ATOM      2  C   UNL A   1      35.446  21.847  26.346  1.00  0.00     0.021 C 
BRANCH   2   3
ATOM      3  C   UNL A   1      34.192  21.540  27.175  1.00  0.00     0.116 C 
BRANCH   3   4
ATOM      4  N   UNL A   1      33.224  20.748  26.445  1.00  0.00    -0.352 N 
ATOM      5  C   UNL A   1      32.434  20.911  25.335  1.00  0.00     0.251 C 
ATOM      6  O   UNL A   1      31.826  19.886  25.001  1.00  0.00    -0.269 OA
ATOM      7  H   UNL A   1      33.100  19.859  26.850  1.00  0.00     0.163 HD
BRANCH   5   8
ATOM      8  C   UNL A   1      32.231  22.146  24.493  1.00  0.00     0.041 A 
ATOM      9  C   UNL A   1      32.194  25.428  21.619  1.00  0.00     0.046 C 
ATOM     10  C   UNL A   1      32.137  24.346  22.674  1.00  0.00    -0.027 A 
ATOM     11  C   UNL A   1      33.255  23.508  22.736  1.00  0.00     0.006 A 
ATOM     12  C   UNL A   1      31.065  24.119  23.568  1.00  0.00     0.045 A 
ATOM     13  C   UNL A   1      33.305  22.448  23.637  1.00  0.00     0.014 A 
ATOM     14  C   UNL A   1      31.107  22.989  24.425  1.00  0.00     0.040 A 
BRANCH  12  15
ATOM     15  N   UNL A   1      30.006  25.051  23.538  1.00  0.00    -0.319 N 
ATOM     16  C   UNL A   1      29.674  26.207  24.192  1.00  0.00     0.291 C 
ATOM     17  H   UNL A   1      29.325  24.804  22.871  1.00  0.00     0.170 HD
ATOM     18  O   UNL A   1      28.603  26.730  23.874  1.00  0.00    -0.265 OA
BRANCH  16  19
ATOM     19  C   UNL A   1      30.525  26.784  25.183  1.00  0.00     0.193 A 
ATOM     20  C   UNL A   1      31.168  26.268  26.292  1.00  0.00     0.057 A 
ATOM     21  O   UNL A   1      30.890  28.081  24.994  1.00  0.00    -0.444 OA
ATOM     22  C   UNL A   1      31.988  27.313  26.793  1.00  0.00     0.059 A 
ATOM     23  C   UNL A   1      31.777  28.390  25.964  1.00  0.00     0.170 A 
ATOM     24  Br  UNL A   1      32.568  30.060  26.100  1.00  0.00    -0.008 Br
ENDBRANCH  16  19
ENDBRANCH  12  15
ENDBRANCH   5   8
ENDBRANCH   3   4
ENDBRANCH   2   3
ENDBRANCH   1   2
BRANCH   1  25
ATOM     25  C   UNL A   1      37.088  23.655  25.338  1.00  0.00     0.002 C 
BRANCH  25  26
ATOM     26  C   UNL A   1      38.210  22.618  25.215  1.00  0.00     0.021 C 
BRANCH  26  27
ATOM     27  C   UNL A   1      39.003  22.356  26.499  1.00  0.00     0.116 C 
BRANCH  27  28
ATOM     28  N   UNL A   1      40.433  22.651  26.377  1.00  0.00    -0.352 N 
ATOM     29  C   UNL A   1      41.091  23.854  26.589  1.00  0.00     0.251 C 
ATOM     30  H   UNL A   1      41.003  21.895  26.109  1.00  0.00     0.163 HD
ATOM     31  O   UNL A   1      42.309  23.923  26.579  1.00  0.00    -0.269 OA
BRANCH  29  32
ATOM     32  C   UNL A   1      40.279  25.044  26.918  1.00  0.00     0.039 A 
ATOM     33  C   UNL A   1      40.552  26.248  26.264  1.00  0.00     0.014 A 
ATOM     34  C   UNL A   1      39.412  25.006  28.004  1.00  0.00     0.014 A 
ATOM     35  C   UNL A   1      40.169  27.446  26.866  1.00  0.00     0.010 A 
ATOM     36  C   UNL A   1      39.071  26.197  28.622  1.00  0.00     0.010 A 
ATOM     37  C   UNL A   1      39.538  27.410  28.112  1.00  0.00    -0.014 A 
BRANCH  37  38
ATOM     38  C   UNL A   1      39.520  28.557  29.017  1.00  0.00     0.031 A 
ATOM     39  C   UNL A   1      38.523  29.636  28.896  1.00  0.00     0.074 A 
ATOM     40  C   UNL A   1      40.437  28.654  30.009  1.00  0.00     0.049 A 
ATOM     41  N   UNL A   1      38.797  30.877  29.135  1.00  0.00    -0.248 NA
ATOM     42  C   UNL A   1      37.140  29.407  28.496  1.00  0.00     0.031 C 
ATOM     43  C   UNL A   1      40.464  29.635  31.092  1.00  0.00     0.029 A 
ATOM     44  N   UNL A   1      41.677  28.001  30.102  1.00  0.00    -0.354 N 
ATOM     45  C   UNL A   1      37.604  31.550  29.192  1.00  0.00     0.074 A 
ATOM     46  C   UNL A   1      36.609  30.617  28.706  1.00  0.00     0.031 C 
ATOM     47  C   UNL A   1      41.728  29.769  31.520  1.00  0.00     0.029 A 
ATOM     48  C   UNL A   1      42.563  28.952  30.660  1.00  0.00     0.049 A 
ATOM     49  H   UNL A   1      41.886  27.076  29.835  1.00  0.00     0.167 HD
ATOM     50  C   UNL A   1      37.529  32.775  29.781  1.00  0.00     0.037 A 
ATOM     51  C   UNL A   1      43.685  29.368  30.013  1.00  0.00     0.037 A 
ATOM     52  C   UNL A   1      38.798  33.209  30.349  1.00  0.00     0.049 A 
ATOM     53  C   UNL A   1      43.788  30.862  29.835  1.00  0.00     0.074 A 
ATOM     54  C   UNL A   1      39.296  33.207  31.642  1.00  0.00     0.029 A 
ATOM     55  N   UNL A   1      39.881  33.464  29.516  1.00  0.00    -0.354 N 
ATOM     56  N   UNL A   1      42.781  31.680  29.939  1.00  0.00    -0.248 NA
ATOM     57  C   UNL A   1      45.025  31.543  29.474  1.00  0.00     0.031 C 
ATOM     58  C   UNL A   1      40.679  33.493  31.590  1.00  0.00     0.029 A 
ATOM     59  C   UNL A   1      41.028  33.661  30.263  1.00  0.00     0.049 A 
ATOM     60  H   UNL A   1      39.839  33.499  28.533  1.00  0.00     0.167 HD
ATOM     61  C   UNL A   1      43.192  32.961  29.643  1.00  0.00     0.074 A 
ATOM     62  C   UNL A   1      44.612  32.820  29.389  1.00  0.00     0.031 C 
ATOM     63  C   UNL A   1      42.297  33.998  29.631  1.00  0.00     0.037 A 
BRANCH  50  64
ATOM     64  C   UNL A   1      36.198  33.411  30.077  1.00  0.00     0.064 A 
ATOM     65  C   UNL A   1      35.423  34.025  29.074  1.00  0.00     0.173 A 
ATOM     66  C   UNL A   1      35.672  33.479  31.380  1.00  0.00     0.173 A 
ATOM     67  F   UNL A   1      35.774  33.977  27.785  1.00  0.00    -0.203 F 
ATOM     68  C   UNL A   1      34.263  34.744  29.369  1.00  0.00     0.198 A 
ATOM     69  C   UNL A   1      34.537  34.238  31.682  1.00  0.00     0.198 A 
ATOM     70  F   UNL A   1      36.262  32.821  32.389  1.00  0.00    -0.203 F 
ATOM     71  F   UNL A   1      33.574  35.330  28.379  1.00  0.00    -0.200 F 
ATOM     72  C   UNL A   1      33.840  34.881  30.676  1.00  0.00     0.200 A 
ATOM     73  F   UNL A   1      34.138  34.361  32.955  1.00  0.00    -0.200 F 
ATOM     74  F   UNL A   1      32.764  35.625  30.964  1.00  0.00    -0.200 F 
ENDBRANCH  50  64
BRANCH  51  75
ATOM     75  C   UNL A   1      44.237  28.359  29.075  1.00  0.00     0.064 A 
ATOM     76  C   UNL A   1      43.900  28.456  27.710  1.00  0.00     0.173 A 
ATOM     77  C   UNL A   1      45.335  27.563  29.417  1.00  0.00     0.173 A 
ATOM     78  F   UNL A   1      42.859  29.213  27.329  1.00  0.00    -0.203 F 
ATOM     79  C   UNL A   1      44.697  27.879  26.725  1.00  0.00     0.198 A 
ATOM     80  C   UNL A   1      46.119  26.969  28.427  1.00  0.00     0.198 A 
ATOM     81  F   UNL A   1      45.720  27.452  30.696  1.00  0.00    -0.203 F 
ATOM     82  F   UNL A   1      44.418  28.092  25.431  1.00  0.00    -0.200 F 
ATOM     83  C   UNL A   1      45.820  27.156  27.085  1.00  0.00     0.200 A 
ATOM     84  F   UNL A   1      47.226  26.294  28.771  1.00  0.00    -0.200 F 
ATOM     85  F   UNL A   1      46.640  26.678  26.138  1.00  0.00    -0.200 F 
ENDBRANCH  51  75
BRANCH  63  86
ATOM     86  C   UNL A   1      42.494  35.434  29.158  1.00  0.00     0.064 A 
ATOM     87  C   UNL A   1      41.898  36.012  28.025  1.00  0.00     0.173 A 
ATOM     88  C   UNL A   1      43.265  36.343  29.939  1.00  0.00     0.173 A 
ATOM     89  F   UNL A   1      41.055  35.328  27.246  1.00  0.00    -0.203 F 
ATOM     90  C   UNL A   1      42.096  37.353  27.672  1.00  0.00     0.198 A 
ATOM     91  C   UNL A   1      43.415  37.692  29.615  1.00  0.00     0.198 A 
ATOM     92  F   UNL A   1      43.881  35.966  31.068  1.00  0.00    -0.203 F 
ATOM     93  F   UNL A   1      41.530  37.834  26.556  1.00  0.00    -0.200 F 
ATOM     94  C   UNL A   1      42.843  38.196  28.471  1.00  0.00     0.200 A 
ATOM     95  F   UNL A   1      44.106  38.499  30.434  1.00  0.00    -0.200 F 
ATOM     96  F   UNL A   1      42.991  39.488  28.152  1.00  0.00    -0.200 F 
ENDBRANCH  63  86
ENDBRANCH  37  38
ENDBRANCH  29  32
ENDBRANCH  27  28
ENDBRANCH  26  27
ENDBRANCH  25  26
ENDBRANCH   1  25
TORSDOF 15
ENDMDL
