MODEL 1
REMARK VINA RESULT:     -11.3      0.000      0.000
REMARK SMILES C[C@@H](NC(=O)NCCC(=O)NC1CC1)C(=O)NCCCCCCNC(=O)c1ccc(-c2c3nc(c(-c4c(F)c(F)c(F)c(F)c4F)c4ccc([nH]4)c(-c4c(F)c(F)c(F)c(F)c4F)c4nc(c(-c5c(F)c(F)c(F)c(F)c5F)c5ccc2[nH]5)C=C4)C=C3)cc1
REMARK SMILES IDX 19 1 18 2 17 3 15 4 16 5 2 7 1 8 3 9 4 10 5 12 6 13 7 15
REMARK SMILES IDX 8 16 9 17 10 18 11 19 12 21 13 22 14 23 20 24 21 25 22 26
REMARK SMILES IDX 23 27 24 28 25 29 26 31 27 32 28 33 89 34 29 35 88 36 30 37
REMARK SMILES IDX 31 38 32 39 82 40 33 41 87 42 81 43 83 44 34 45 86 46 80 47
REMARK SMILES IDX 79 48 35 50 67 51 47 52 66 53 48 54 51 55 65 56 84 57 49 58
REMARK SMILES IDX 50 59 64 61 85 62 52 63 36 64 37 65 45 66 38 67 39 68 43 69
REMARK SMILES IDX 46 70 40 71 41 72 44 73 42 74 68 75 69 76 77 77 70 78 71 79
REMARK SMILES IDX 75 80 78 81 72 82 73 83 76 84 74 85 53 86 54 87 62 88 55 89
REMARK SMILES IDX 56 90 60 91 63 92 57 93 58 94 61 95 59 96
REMARK H PARENT 17 6 3 11 6 14 11 20 24 30 83 49 51 60
REMARK Flexibility Score: inf
ROOT
ATOM      1  C   UNL A   1      31.572  28.248  27.288  1.00  0.00     0.021 C 
ENDROOT
BRANCH   1   2
ATOM      2  C   UNL A   1      31.970  26.967  26.567  1.00  0.00     0.116 C 
BRANCH   2   3
ATOM      3  N   UNL A   1      31.035  25.902  26.863  1.00  0.00    -0.354 N 
ATOM      4  C   UNL A   1      31.074  24.595  26.497  1.00  0.00     0.242 C 
ATOM      5  O   UNL A   1      30.110  23.889  26.816  1.00  0.00    -0.273 OA
ATOM      6  H   UNL A   1      30.258  26.164  27.409  1.00  0.00     0.163 HD
BRANCH   4   7
ATOM      7  C   UNL A   1      32.184  24.027  25.592  1.00  0.00     0.170 C 
ATOM      8  C   UNL A   1      33.151  23.273  26.515  1.00  0.00     0.041 C 
BRANCH   7   9
ATOM      9  N   UNL A   1      31.792  23.138  24.503  1.00  0.00    -0.327 N 
ATOM     10  C   UNL A   1      32.318  22.817  23.323  1.00  0.00     0.315 C 
ATOM     11  H   UNL A   1      30.946  22.668  24.683  1.00  0.00     0.166 HD
ATOM     12  O   UNL A   1      31.770  21.917  22.682  1.00  0.00    -0.249 OA
ATOM     13  N   UNL A   1      33.330  23.458  22.742  1.00  0.00    -0.338 N 
ATOM     14  H   UNL A   1      33.456  23.172  21.809  1.00  0.00     0.165 HD
BRANCH  13  15
ATOM     15  C   UNL A   1      34.298  24.469  23.129  1.00  0.00     0.127 C 
BRANCH  15  16
ATOM     16  C   UNL A   1      33.820  25.888  22.841  1.00  0.00     0.121 C 
BRANCH  16  17
ATOM     17  C   UNL A   1      32.784  25.961  21.740  1.00  0.00     0.221 C 
ATOM     18  O   UNL A   1      33.062  25.650  20.581  1.00  0.00    -0.275 OA
ATOM     19  N   UNL A   1      31.512  26.381  22.028  1.00  0.00    -0.353 N 
ATOM     20  H   UNL A   1      30.861  26.291  21.294  1.00  0.00     0.163 HD
BRANCH  19  21
ATOM     21  C   UNL A   1      30.996  26.930  23.239  1.00  0.00     0.082 C 
ATOM     22  C   UNL A   1      30.234  28.231  23.151  1.00  0.00     0.027 C 
ATOM     23  C   UNL A   1      29.528  26.970  23.547  1.00  0.00     0.027 C 
ENDBRANCH  19  21
ENDBRANCH  16  17
ENDBRANCH  15  16
ENDBRANCH  13  15
ENDBRANCH   7   9
ENDBRANCH   4   7
ENDBRANCH   2   3
ENDBRANCH   1   2
BRANCH   1  24
ATOM     24  C   UNL A   1      32.546  29.408  27.043  1.00  0.00     0.002 C 
BRANCH  24  25
ATOM     25  C   UNL A   1      32.011  30.534  26.149  1.00  0.00     0.002 C 
BRANCH  25  26
ATOM     26  C   UNL A   1      31.624  31.824  26.873  1.00  0.00     0.021 C 
BRANCH  26  27
ATOM     27  C   UNL A   1      32.791  32.678  27.353  1.00  0.00     0.116 C 
BRANCH  27  28
ATOM     28  N   UNL A   1      32.415  34.051  27.648  1.00  0.00    -0.352 N 
ATOM     29  C   UNL A   1      32.973  34.908  28.564  1.00  0.00     0.251 C 
ATOM     30  H   UNL A   1      31.664  34.412  27.122  1.00  0.00     0.163 HD
ATOM     31  O   UNL A   1      32.483  36.013  28.774  1.00  0.00    -0.269 OA
BRANCH  29  32
ATOM     32  C   UNL A   1      34.155  34.466  29.331  1.00  0.00     0.039 A 
ATOM     33  C   UNL A   1      33.959  33.860  30.574  1.00  0.00     0.014 A 
ATOM     34  C   UNL A   1      35.442  34.602  28.802  1.00  0.00     0.014 A 
ATOM     35  C   UNL A   1      35.053  33.325  31.258  1.00  0.00     0.010 A 
ATOM     36  C   UNL A   1      36.519  34.007  29.452  1.00  0.00     0.010 A 
ATOM     37  C   UNL A   1      36.334  33.359  30.683  1.00  0.00    -0.014 A 
BRANCH  37  38
ATOM     38  C   UNL A   1      37.490  32.706  31.349  1.00  0.00     0.031 A 
ATOM     39  C   UNL A   1      38.181  31.546  30.694  1.00  0.00     0.074 A 
ATOM     40  C   UNL A   1      37.867  33.114  32.575  1.00  0.00     0.049 A 
ATOM     41  N   UNL A   1      39.157  30.800  31.147  1.00  0.00    -0.248 NA
ATOM     42  C   UNL A   1      37.691  31.152  29.365  1.00  0.00     0.031 C 
ATOM     43  C   UNL A   1      37.238  34.194  33.338  1.00  0.00     0.029 A 
ATOM     44  N   UNL A   1      38.861  32.658  33.406  1.00  0.00    -0.354 N 
ATOM     45  C   UNL A   1      39.389  29.846  30.165  1.00  0.00     0.074 A 
ATOM     46  C   UNL A   1      38.415  30.070  29.119  1.00  0.00     0.031 C 
ATOM     47  C   UNL A   1      37.867  34.324  34.517  1.00  0.00     0.029 A 
ATOM     48  C   UNL A   1      38.917  33.314  34.610  1.00  0.00     0.049 A 
ATOM     49  H   UNL A   1      39.474  31.927  33.161  1.00  0.00     0.167 HD
ATOM     50  C   UNL A   1      40.343  28.885  30.131  1.00  0.00     0.037 A 
ATOM     51  C   UNL A   1      39.716  33.117  35.676  1.00  0.00     0.037 A 
ATOM     52  C   UNL A   1      41.319  28.678  31.167  1.00  0.00     0.049 A 
ATOM     53  C   UNL A   1      40.763  32.038  35.617  1.00  0.00     0.074 A 
ATOM     54  C   UNL A   1      42.369  27.776  31.197  1.00  0.00     0.029 A 
ATOM     55  N   UNL A   1      41.360  29.378  32.365  1.00  0.00    -0.354 N 
ATOM     56  N   UNL A   1      41.026  31.193  34.650  1.00  0.00    -0.248 NA
ATOM     57  C   UNL A   1      41.630  31.889  36.795  1.00  0.00     0.031 C 
ATOM     58  C   UNL A   1      43.012  27.894  32.434  1.00  0.00     0.029 A 
ATOM     59  C   UNL A   1      42.399  28.908  33.153  1.00  0.00     0.049 A 
ATOM     60  H   UNL A   1      40.742  30.102  32.617  1.00  0.00     0.167 HD
ATOM     61  C   UNL A   1      42.098  30.428  35.091  1.00  0.00     0.074 A 
ATOM     62  C   UNL A   1      42.449  30.922  36.406  1.00  0.00     0.031 C 
ATOM     63  C   UNL A   1      42.733  29.408  34.463  1.00  0.00     0.037 A 
BRANCH  50  64
ATOM     64  C   UNL A   1      40.373  27.984  28.929  1.00  0.00     0.064 A 
ATOM     65  C   UNL A   1      41.117  28.306  27.784  1.00  0.00     0.173 A 
ATOM     66  C   UNL A   1      39.665  26.772  28.930  1.00  0.00     0.173 A 
ATOM     67  F   UNL A   1      41.804  29.457  27.726  1.00  0.00    -0.203 F 
ATOM     68  C   UNL A   1      41.122  27.467  26.672  1.00  0.00     0.198 A 
ATOM     69  C   UNL A   1      39.699  25.921  27.829  1.00  0.00     0.198 A 
ATOM     70  F   UNL A   1      38.941  26.412  30.001  1.00  0.00    -0.203 F 
ATOM     71  F   UNL A   1      41.794  27.825  25.568  1.00  0.00    -0.200 F 
ATOM     72  C   UNL A   1      40.418  26.273  26.698  1.00  0.00     0.200 A 
ATOM     73  F   UNL A   1      39.029  24.759  27.860  1.00  0.00    -0.200 F 
ATOM     74  F   UNL A   1      40.427  25.466  25.627  1.00  0.00    -0.200 F 
ENDBRANCH  50  64
BRANCH  51  75
ATOM     75  C   UNL A   1      39.559  33.968  36.884  1.00  0.00     0.064 A 
ATOM     76  C   UNL A   1      40.177  35.223  36.967  1.00  0.00     0.173 A 
ATOM     77  C   UNL A   1      38.781  33.550  37.973  1.00  0.00     0.173 A 
ATOM     78  F   UNL A   1      40.948  35.660  35.960  1.00  0.00    -0.203 F 
ATOM     79  C   UNL A   1      40.036  36.021  38.102  1.00  0.00     0.198 A 
ATOM     80  C   UNL A   1      38.617  34.360  39.095  1.00  0.00     0.198 A 
ATOM     81  F   UNL A   1      38.165  32.359  37.941  1.00  0.00    -0.203 F 
ATOM     82  F   UNL A   1      40.672  37.198  38.173  1.00  0.00    -0.200 F 
ATOM     83  C   UNL A   1      39.251  35.592  39.161  1.00  0.00     0.200 A 
ATOM     84  F   UNL A   1      37.845  33.948  40.110  1.00  0.00    -0.200 F 
ATOM     85  F   UNL A   1      39.109  36.362  40.249  1.00  0.00    -0.200 F 
ENDBRANCH  51  75
BRANCH  63  86
ATOM     86  C   UNL A   1      43.888  28.770  35.180  1.00  0.00     0.064 A 
ATOM     87  C   UNL A   1      43.706  27.678  36.041  1.00  0.00     0.173 A 
ATOM     88  C   UNL A   1      45.197  29.228  34.967  1.00  0.00     0.173 A 
ATOM     89  F   UNL A   1      42.472  27.214  36.291  1.00  0.00    -0.203 F 
ATOM     90  C   UNL A   1      44.790  27.082  36.679  1.00  0.00     0.198 A 
ATOM     91  C   UNL A   1      46.282  28.609  35.582  1.00  0.00     0.198 A 
ATOM     92  F   UNL A   1      45.426  30.265  34.147  1.00  0.00    -0.203 F 
ATOM     93  F   UNL A   1      44.588  26.069  37.533  1.00  0.00    -0.200 F 
ATOM     94  C   UNL A   1      46.077  27.542  36.443  1.00  0.00     0.200 A 
ATOM     95  F   UNL A   1      47.526  29.046  35.341  1.00  0.00    -0.200 F 
ATOM     96  F   UNL A   1      47.120  26.959  37.050  1.00  0.00    -0.200 F 
ENDBRANCH  63  86
ENDBRANCH  37  38
ENDBRANCH  29  32
ENDBRANCH  27  28
ENDBRANCH  26  27
ENDBRANCH  25  26
ENDBRANCH  24  25
ENDBRANCH   1  24
TORSDOF 18
ENDMDL
MODEL 2
REMARK VINA RESULT:     -11.0      6.499     10.993
REMARK SMILES C[C@@H](NC(=O)NCCC(=O)NC1CC1)C(=O)NCCCCCCNC(=O)c1ccc(-c2c3nc(c(-c4c(F)c(F)c(F)c(F)c4F)c4ccc([nH]4)c(-c4c(F)c(F)c(F)c(F)c4F)c4nc(c(-c5c(F)c(F)c(F)c(F)c5F)c5ccc2[nH]5)C=C4)C=C3)cc1
REMARK SMILES IDX 19 1 18 2 17 3 15 4 16 5 2 7 1 8 3 9 4 10 5 12 6 13 7 15
REMARK SMILES IDX 8 16 9 17 10 18 11 19 12 21 13 22 14 23 20 24 21 25 22 26
REMARK SMILES IDX 23 27 24 28 25 29 26 31 27 32 28 33 89 34 29 35 88 36 30 37
REMARK SMILES IDX 31 38 32 39 82 40 33 41 87 42 81 43 83 44 34 45 86 46 80 47
REMARK SMILES IDX 79 48 35 50 67 51 47 52 66 53 48 54 51 55 65 56 84 57 49 58
REMARK SMILES IDX 50 59 64 61 85 62 52 63 36 64 37 65 45 66 38 67 39 68 43 69
REMARK SMILES IDX 46 70 40 71 41 72 44 73 42 74 68 75 69 76 77 77 70 78 71 79
REMARK SMILES IDX 75 80 78 81 72 82 73 83 76 84 74 85 53 86 54 87 62 88 55 89
REMARK SMILES IDX 56 90 60 91 63 92 57 93 58 94 61 95 59 96
REMARK H PARENT 17 6 3 11 6 14 11 20 24 30 83 49 51 60
REMARK Flexibility Score: inf
ROOT
ATOM      1  C   UNL A   1      39.659  23.333  26.771  1.00  0.00     0.021 C 
ENDROOT
BRANCH   1   2
ATOM      2  C   UNL A   1      38.292  22.980  26.201  1.00  0.00     0.116 C 
BRANCH   2   3
ATOM      3  N   UNL A   1      38.307  21.654  25.621  1.00  0.00    -0.354 N 
ATOM      4  C   UNL A   1      37.275  20.911  25.143  1.00  0.00     0.242 C 
ATOM      5  O   UNL A   1      37.534  19.764  24.759  1.00  0.00    -0.273 OA
ATOM      6  H   UNL A   1      39.193  21.228  25.566  1.00  0.00     0.163 HD
BRANCH   4   7
ATOM      7  C   UNL A   1      35.815  21.395  25.206  1.00  0.00     0.170 C 
ATOM      8  C   UNL A   1      35.610  22.313  23.993  1.00  0.00     0.041 C 
BRANCH   7   9
ATOM      9  N   UNL A   1      34.758  20.388  25.210  1.00  0.00    -0.327 N 
ATOM     10  C   UNL A   1      33.555  20.297  25.772  1.00  0.00     0.315 C 
ATOM     11  H   UNL A   1      34.988  19.595  24.673  1.00  0.00     0.166 HD
ATOM     12  O   UNL A   1      32.855  19.328  25.464  1.00  0.00    -0.249 OA
ATOM     13  N   UNL A   1      33.090  21.119  26.710  1.00  0.00    -0.338 N 
ATOM     14  H   UNL A   1      32.255  20.784  27.109  1.00  0.00     0.165 HD
BRANCH  13  15
ATOM     15  C   UNL A   1      33.495  22.384  27.298  1.00  0.00     0.127 C 
BRANCH  15  16
ATOM     16  C   UNL A   1      33.015  23.590  26.497  1.00  0.00     0.121 C 
BRANCH  16  17
ATOM     17  C   UNL A   1      31.630  24.058  26.887  1.00  0.00     0.221 C 
ATOM     18  O   UNL A   1      30.832  23.298  27.437  1.00  0.00    -0.275 OA
ATOM     19  N   UNL A   1      31.249  25.348  26.628  1.00  0.00    -0.353 N 
ATOM     20  H   UNL A   1      30.384  25.619  27.013  1.00  0.00     0.163 HD
BRANCH  19  21
ATOM     21  C   UNL A   1      31.926  26.355  25.877  1.00  0.00     0.082 C 
ATOM     22  C   UNL A   1      31.559  27.795  26.145  1.00  0.00     0.027 C 
ATOM     23  C   UNL A   1      32.924  27.289  26.496  1.00  0.00     0.027 C 
ENDBRANCH  19  21
ENDBRANCH  16  17
ENDBRANCH  15  16
ENDBRANCH  13  15
ENDBRANCH   7   9
ENDBRANCH   4   7
ENDBRANCH   2   3
ENDBRANCH   1   2
BRANCH   1  24
ATOM     24  C   UNL A   1      40.445  22.111  27.264  1.00  0.00     0.002 C 
BRANCH  24  25
ATOM     25  C   UNL A   1      41.600  21.666  26.357  1.00  0.00     0.002 C 
BRANCH  25  26
ATOM     26  C   UNL A   1      41.599  20.187  25.967  1.00  0.00     0.021 C 
BRANCH  26  27
ATOM     27  C   UNL A   1      42.866  19.418  26.323  1.00  0.00     0.116 C 
BRANCH  27  28
ATOM     28  N   UNL A   1      43.585  18.925  25.159  1.00  0.00    -0.352 N 
ATOM     29  C   UNL A   1      44.475  19.600  24.361  1.00  0.00     0.251 C 
ATOM     30  H   UNL A   1      43.411  17.988  24.913  1.00  0.00     0.163 HD
ATOM     31  O   UNL A   1      44.931  19.081  23.347  1.00  0.00    -0.269 OA
BRANCH  29  32
ATOM     32  C   UNL A   1      44.849  20.984  24.715  1.00  0.00     0.039 A 
ATOM     33  C   UNL A   1      44.470  22.021  23.859  1.00  0.00     0.014 A 
ATOM     34  C   UNL A   1      45.521  21.259  25.909  1.00  0.00     0.014 A 
ATOM     35  C   UNL A   1      44.705  23.344  24.236  1.00  0.00     0.010 A 
ATOM     36  C   UNL A   1      45.691  22.580  26.314  1.00  0.00     0.010 A 
ATOM     37  C   UNL A   1      45.281  23.634  25.483  1.00  0.00    -0.014 A 
BRANCH  37  38
ATOM     38  C   UNL A   1      45.446  25.036  25.944  1.00  0.00     0.031 A 
ATOM     39  C   UNL A   1      46.798  25.687  25.913  1.00  0.00     0.074 A 
ATOM     40  C   UNL A   1      44.390  25.694  26.459  1.00  0.00     0.049 A 
ATOM     41  N   UNL A   1      47.157  26.872  26.339  1.00  0.00    -0.248 NA
ATOM     42  C   UNL A   1      47.900  24.889  25.355  1.00  0.00     0.031 C 
ATOM     43  C   UNL A   1      43.038  25.149  26.594  1.00  0.00     0.029 A 
ATOM     44  N   UNL A   1      44.290  26.960  26.981  1.00  0.00    -0.354 N 
ATOM     45  C   UNL A   1      48.524  26.956  26.110  1.00  0.00     0.074 A 
ATOM     46  C   UNL A   1      48.940  25.683  25.562  1.00  0.00     0.031 C 
ATOM     47  C   UNL A   1      42.243  26.077  27.150  1.00  0.00     0.029 A 
ATOM     48  C   UNL A   1      43.035  27.268  27.445  1.00  0.00     0.049 A 
ATOM     49  H   UNL A   1      45.048  27.588  27.019  1.00  0.00     0.167 HD
ATOM     50  C   UNL A   1      49.351  28.009  26.317  1.00  0.00     0.037 A 
ATOM     51  C   UNL A   1      42.576  28.378  28.053  1.00  0.00     0.037 A 
ATOM     52  C   UNL A   1      48.928  29.277  26.847  1.00  0.00     0.049 A 
ATOM     53  C   UNL A   1      43.516  29.531  28.280  1.00  0.00     0.074 A 
ATOM     54  C   UNL A   1      49.673  30.429  27.032  1.00  0.00     0.029 A 
ATOM     55  N   UNL A   1      47.642  29.560  27.286  1.00  0.00    -0.354 N 
ATOM     56  N   UNL A   1      44.790  29.629  27.986  1.00  0.00    -0.248 NA
ATOM     57  C   UNL A   1      42.954  30.731  28.916  1.00  0.00     0.031 C 
ATOM     58  C   UNL A   1      48.853  31.390  27.632  1.00  0.00     0.029 A 
ATOM     59  C   UNL A   1      47.581  30.858  27.769  1.00  0.00     0.049 A 
ATOM     60  H   UNL A   1      46.884  28.931  27.258  1.00  0.00     0.167 HD
ATOM     61  C   UNL A   1      45.176  30.903  28.381  1.00  0.00     0.074 A 
ATOM     62  C   UNL A   1      43.996  31.549  28.918  1.00  0.00     0.031 C 
ATOM     63  C   UNL A   1      46.399  31.485  28.305  1.00  0.00     0.037 A 
BRANCH  50  64
ATOM     64  C   UNL A   1      50.801  27.826  25.969  1.00  0.00     0.064 A 
ATOM     65  C   UNL A   1      51.275  28.013  24.661  1.00  0.00     0.173 A 
ATOM     66  C   UNL A   1      51.733  27.482  26.960  1.00  0.00     0.173 A 
ATOM     67  F   UNL A   1      50.425  28.333  23.674  1.00  0.00    -0.203 F 
ATOM     68  C   UNL A   1      52.619  27.826  24.352  1.00  0.00     0.198 A 
ATOM     69  C   UNL A   1      53.083  27.328  26.652  1.00  0.00     0.198 A 
ATOM     70  F   UNL A   1      51.337  27.297  28.228  1.00  0.00    -0.203 F 
ATOM     71  F   UNL A   1      53.038  27.952  23.083  1.00  0.00    -0.200 F 
ATOM     72  C   UNL A   1      53.523  27.488  25.348  1.00  0.00     0.200 A 
ATOM     73  F   UNL A   1      53.958  27.016  27.619  1.00  0.00    -0.200 F 
ATOM     74  F   UNL A   1      54.818  27.312  25.048  1.00  0.00    -0.200 F 
ENDBRANCH  50  64
BRANCH  51  75
ATOM     75  C   UNL A   1      41.155  28.452  28.480  1.00  0.00     0.064 A 
ATOM     76  C   UNL A   1      40.168  28.953  27.620  1.00  0.00     0.173 A 
ATOM     77  C   UNL A   1      40.752  28.015  29.750  1.00  0.00     0.173 A 
ATOM     78  F   UNL A   1      40.505  29.402  26.402  1.00  0.00    -0.203 F 
ATOM     79  C   UNL A   1      38.835  29.029  28.021  1.00  0.00     0.198 A 
ATOM     80  C   UNL A   1      39.416  28.064  30.140  1.00  0.00     0.198 A 
ATOM     81  F   UNL A   1      41.657  27.522  30.609  1.00  0.00    -0.203 F 
ATOM     82  F   UNL A   1      37.918  29.551  27.194  1.00  0.00    -0.200 F 
ATOM     83  C   UNL A   1      38.459  28.578  29.277  1.00  0.00     0.200 A 
ATOM     84  F   UNL A   1      39.055  27.613  31.349  1.00  0.00    -0.200 F 
ATOM     85  F   UNL A   1      37.176  28.644  29.659  1.00  0.00    -0.200 F 
ENDBRANCH  51  75
BRANCH  63  86
ATOM     86  C   UNL A   1      46.519  32.899  28.795  1.00  0.00     0.064 A 
ATOM     87  C   UNL A   1      46.879  33.190  30.119  1.00  0.00     0.173 A 
ATOM     88  C   UNL A   1      46.319  33.975  27.918  1.00  0.00     0.173 A 
ATOM     89  F   UNL A   1      47.066  32.197  31.002  1.00  0.00    -0.203 F 
ATOM     90  C   UNL A   1      47.012  34.506  30.552  1.00  0.00     0.198 A 
ATOM     91  C   UNL A   1      46.484  35.289  28.345  1.00  0.00     0.198 A 
ATOM     92  F   UNL A   1      45.980  33.751  26.638  1.00  0.00    -0.203 F 
ATOM     93  F   UNL A   1      47.312  34.762  31.833  1.00  0.00    -0.200 F 
ATOM     94  C   UNL A   1      46.822  35.554  29.663  1.00  0.00     0.200 A 
ATOM     95  F   UNL A   1      46.314  36.300  27.481  1.00  0.00    -0.200 F 
ATOM     96  F   UNL A   1      46.961  36.821  30.079  1.00  0.00    -0.200 F 
ENDBRANCH  63  86
ENDBRANCH  37  38
ENDBRANCH  29  32
ENDBRANCH  27  28
ENDBRANCH  26  27
ENDBRANCH  25  26
ENDBRANCH  24  25
ENDBRANCH   1  24
TORSDOF 18
ENDMDL
MODEL 3
REMARK VINA RESULT:     -10.8      6.577     11.209
REMARK SMILES C[C@@H](NC(=O)NCCC(=O)NC1CC1)C(=O)NCCCCCCNC(=O)c1ccc(-c2c3nc(c(-c4c(F)c(F)c(F)c(F)c4F)c4ccc([nH]4)c(-c4c(F)c(F)c(F)c(F)c4F)c4nc(c(-c5c(F)c(F)c(F)c(F)c5F)c5ccc2[nH]5)C=C4)C=C3)cc1
REMARK SMILES IDX 19 1 18 2 17 3 15 4 16 5 2 7 1 8 3 9 4 10 5 12 6 13 7 15
REMARK SMILES IDX 8 16 9 17 10 18 11 19 12 21 13 22 14 23 20 24 21 25 22 26
REMARK SMILES IDX 23 27 24 28 25 29 26 31 27 32 28 33 89 34 29 35 88 36 30 37
REMARK SMILES IDX 31 38 32 39 82 40 33 41 87 42 81 43 83 44 34 45 86 46 80 47
REMARK SMILES IDX 79 48 35 50 67 51 47 52 66 53 48 54 51 55 65 56 84 57 49 58
REMARK SMILES IDX 50 59 64 61 85 62 52 63 36 64 37 65 45 66 38 67 39 68 43 69
REMARK SMILES IDX 46 70 40 71 41 72 44 73 42 74 68 75 69 76 77 77 70 78 71 79
REMARK SMILES IDX 75 80 78 81 72 82 73 83 76 84 74 85 53 86 54 87 62 88 55 89
REMARK SMILES IDX 56 90 60 91 63 92 57 93 58 94 61 95 59 96
REMARK H PARENT 17 6 3 11 6 14 11 20 24 30 83 49 51 60
REMARK Flexibility Score: inf
ROOT
ATOM      1  C   UNL A   1      39.058  22.875  26.365  1.00  0.00     0.021 C 
ENDROOT
BRANCH   1   2
ATOM      2  C   UNL A   1      38.048  21.931  25.727  1.00  0.00     0.116 C 
BRANCH   2   3
ATOM      3  N   UNL A   1      37.761  22.333  24.366  1.00  0.00    -0.354 N 
ATOM      4  C   UNL A   1      36.598  22.783  23.827  1.00  0.00     0.242 C 
ATOM      5  O   UNL A   1      36.584  22.997  22.610  1.00  0.00    -0.273 OA
ATOM      6  H   UNL A   1      38.519  22.271  23.740  1.00  0.00     0.163 HD
BRANCH   4   7
ATOM      7  C   UNL A   1      35.298  22.885  24.646  1.00  0.00     0.170 C 
ATOM      8  C   UNL A   1      35.435  24.137  25.523  1.00  0.00     0.041 C 
BRANCH   7   9
ATOM      9  N   UNL A   1      34.035  22.964  23.919  1.00  0.00    -0.327 N 
ATOM     10  C   UNL A   1      32.944  22.202  23.853  1.00  0.00     0.315 C 
ATOM     11  H   UNL A   1      33.975  23.764  23.348  1.00  0.00     0.166 HD
ATOM     12  O   UNL A   1      31.986  22.636  23.209  1.00  0.00    -0.249 OA
ATOM     13  N   UNL A   1      32.847  20.970  24.347  1.00  0.00    -0.338 N 
ATOM     14  H   UNL A   1      32.023  20.521  24.050  1.00  0.00     0.165 HD
BRANCH  13  15
ATOM     15  C   UNL A   1      33.640  20.117  25.214  1.00  0.00     0.127 C 
BRANCH  15  16
ATOM     16  C   UNL A   1      34.059  18.814  24.541  1.00  0.00     0.121 C 
BRANCH  16  17
ATOM     17  C   UNL A   1      32.920  18.108  23.837  1.00  0.00     0.221 C 
ATOM     18  O   UNL A   1      32.331  18.635  22.893  1.00  0.00    -0.275 OA
ATOM     19  N   UNL A   1      32.532  16.861  24.251  1.00  0.00    -0.353 N 
ATOM     20  H   UNL A   1      31.870  16.412  23.677  1.00  0.00     0.163 HD
BRANCH  19  21
ATOM     21  C   UNL A   1      32.950  16.121  25.397  1.00  0.00     0.082 C 
ATOM     22  C   UNL A   1      31.927  15.241  26.075  1.00  0.00     0.027 C 
ATOM     23  C   UNL A   1      33.105  14.628  25.381  1.00  0.00     0.027 C 
ENDBRANCH  19  21
ENDBRANCH  16  17
ENDBRANCH  15  16
ENDBRANCH  13  15
ENDBRANCH   7   9
ENDBRANCH   4   7
ENDBRANCH   2   3
ENDBRANCH   1   2
BRANCH   1  24
ATOM     24  C   UNL A   1      40.111  22.151  27.215  1.00  0.00     0.002 C 
BRANCH  24  25
ATOM     25  C   UNL A   1      41.323  21.617  26.440  1.00  0.00     0.002 C 
BRANCH  25  26
ATOM     26  C   UNL A   1      41.310  20.116  26.148  1.00  0.00     0.021 C 
BRANCH  26  27
ATOM     27  C   UNL A   1      42.573  19.363  26.549  1.00  0.00     0.116 C 
BRANCH  27  28
ATOM     28  N   UNL A   1      43.306  18.825  25.415  1.00  0.00    -0.352 N 
ATOM     29  C   UNL A   1      44.213  19.464  24.608  1.00  0.00     0.251 C 
ATOM     30  H   UNL A   1      43.127  17.881  25.199  1.00  0.00     0.163 HD
ATOM     31  O   UNL A   1      44.680  18.906  23.620  1.00  0.00    -0.269 OA
BRANCH  29  32
ATOM     32  C   UNL A   1      44.594  20.857  24.919  1.00  0.00     0.039 A 
ATOM     33  C   UNL A   1      44.221  21.868  24.031  1.00  0.00     0.014 A 
ATOM     34  C   UNL A   1      45.266  21.165  26.105  1.00  0.00     0.014 A 
ATOM     35  C   UNL A   1      44.462  23.201  24.367  1.00  0.00     0.010 A 
ATOM     36  C   UNL A   1      45.442  22.497  26.469  1.00  0.00     0.010 A 
ATOM     37  C   UNL A   1      45.038  23.527  25.605  1.00  0.00    -0.014 A 
BRANCH  37  38
ATOM     38  C   UNL A   1      45.209  24.942  26.023  1.00  0.00     0.031 A 
ATOM     39  C   UNL A   1      46.560  25.591  25.955  1.00  0.00     0.074 A 
ATOM     40  C   UNL A   1      44.160  25.616  26.532  1.00  0.00     0.049 A 
ATOM     41  N   UNL A   1      46.926  26.788  26.341  1.00  0.00    -0.248 NA
ATOM     42  C   UNL A   1      47.655  24.777  25.407  1.00  0.00     0.031 C 
ATOM     43  C   UNL A   1      42.809  25.076  26.700  1.00  0.00     0.029 A 
ATOM     44  N   UNL A   1      44.067  26.897  27.017  1.00  0.00    -0.354 N 
ATOM     45  C   UNL A   1      48.289  26.864  26.092  1.00  0.00     0.074 A 
ATOM     46  C   UNL A   1      48.698  25.576  25.577  1.00  0.00     0.031 C 
ATOM     47  C   UNL A   1      42.022  26.020  27.239  1.00  0.00     0.029 A 
ATOM     48  C   UNL A   1      42.818  27.218  27.488  1.00  0.00     0.049 A 
ATOM     49  H   UNL A   1      44.825  27.525  27.027  1.00  0.00     0.167 HD
ATOM     50  C   UNL A   1      49.119  27.922  26.258  1.00  0.00     0.037 A 
ATOM     51  C   UNL A   1      42.367  28.347  28.069  1.00  0.00     0.037 A 
ATOM     52  C   UNL A   1      48.703  29.206  26.756  1.00  0.00     0.049 A 
ATOM     53  C   UNL A   1      43.310  29.505  28.250  1.00  0.00     0.074 A 
ATOM     54  C   UNL A   1      49.451  30.362  26.898  1.00  0.00     0.029 A 
ATOM     55  N   UNL A   1      47.422  29.502  27.203  1.00  0.00    -0.354 N 
ATOM     56  N   UNL A   1      44.580  29.594  27.937  1.00  0.00    -0.248 NA
ATOM     57  C   UNL A   1      42.756  30.723  28.857  1.00  0.00     0.031 C 
ATOM     58  C   UNL A   1      48.639  31.341  27.480  1.00  0.00     0.029 A 
ATOM     59  C   UNL A   1      47.369  30.814  27.649  1.00  0.00     0.049 A 
ATOM     60  H   UNL A   1      46.665  28.873  27.203  1.00  0.00     0.167 HD
ATOM     61  C   UNL A   1      44.971  30.879  28.289  1.00  0.00     0.074 A 
ATOM     62  C   UNL A   1      43.799  31.540  28.822  1.00  0.00     0.031 C 
ATOM     63  C   UNL A   1      46.193  31.457  28.181  1.00  0.00     0.037 A 
BRANCH  50  64
ATOM     64  C   UNL A   1      50.564  27.729  25.897  1.00  0.00     0.064 A 
ATOM     65  C   UNL A   1      51.529  27.405  26.863  1.00  0.00     0.173 A 
ATOM     66  C   UNL A   1      50.987  27.848  24.564  1.00  0.00     0.173 A 
ATOM     67  F   UNL A   1      51.180  27.289  28.153  1.00  0.00    -0.203 F 
ATOM     68  C   UNL A   1      52.867  27.243  26.515  1.00  0.00     0.198 A 
ATOM     69  C   UNL A   1      52.322  27.653  24.215  1.00  0.00     0.198 A 
ATOM     70  F   UNL A   1      50.107  28.151  23.598  1.00  0.00    -0.203 F 
ATOM     71  F   UNL A   1      53.780  26.992  27.465  1.00  0.00    -0.200 F 
ATOM     72  C   UNL A   1      53.262  27.363  25.191  1.00  0.00     0.200 A 
ATOM     73  F   UNL A   1      52.699  27.755  22.932  1.00  0.00    -0.200 F 
ATOM     74  F   UNL A   1      54.551  27.204  24.857  1.00  0.00    -0.200 F 
ENDBRANCH  50  64
BRANCH  51  75
ATOM     75  C   UNL A   1      40.952  28.434  28.512  1.00  0.00     0.064 A 
ATOM     76  C   UNL A   1      39.954  28.914  27.652  1.00  0.00     0.173 A 
ATOM     77  C   UNL A   1      40.564  28.029  29.798  1.00  0.00     0.173 A 
ATOM     78  F   UNL A   1      40.277  29.332  26.419  1.00  0.00    -0.203 F 
ATOM     79  C   UNL A   1      38.627  29.003  28.067  1.00  0.00     0.198 A 
ATOM     80  C   UNL A   1      39.233  28.091  30.202  1.00  0.00     0.198 A 
ATOM     81  F   UNL A   1      41.479  27.557  30.657  1.00  0.00    -0.203 F 
ATOM     82  F   UNL A   1      37.700  29.506  27.240  1.00  0.00    -0.200 F 
ATOM     83  C   UNL A   1      38.266  28.585  29.339  1.00  0.00     0.200 A 
ATOM     84  F   UNL A   1      38.886  27.671  31.427  1.00  0.00    -0.200 F 
ATOM     85  F   UNL A   1      36.988  28.662  29.736  1.00  0.00    -0.200 F 
ENDBRANCH  51  75
BRANCH  63  86
ATOM     86  C   UNL A   1      46.320  32.885  28.628  1.00  0.00     0.064 A 
ATOM     87  C   UNL A   1      46.082  33.953  27.751  1.00  0.00     0.173 A 
ATOM     88  C   UNL A   1      46.639  33.187  29.960  1.00  0.00     0.173 A 
ATOM     89  F   UNL A   1      45.790  33.718  26.463  1.00  0.00    -0.203 F 
ATOM     90  C   UNL A   1      46.179  35.272  28.187  1.00  0.00     0.198 A 
ATOM     91  C   UNL A   1      46.704  34.506  30.400  1.00  0.00     0.198 A 
ATOM     92  F   UNL A   1      46.870  32.201  30.841  1.00  0.00    -0.203 F 
ATOM     93  F   UNL A   1      45.992  36.277  27.322  1.00  0.00    -0.200 F 
ATOM     94  C   UNL A   1      46.482  35.546  29.513  1.00  0.00     0.200 A 
ATOM     95  F   UNL A   1      46.983  34.769  31.685  1.00  0.00    -0.200 F 
ATOM     96  F   UNL A   1      46.564  36.817  29.933  1.00  0.00    -0.200 F 
ENDBRANCH  63  86
ENDBRANCH  37  38
ENDBRANCH  29  32
ENDBRANCH  27  28
ENDBRANCH  26  27
ENDBRANCH  25  26
ENDBRANCH  24  25
ENDBRANCH   1  24
TORSDOF 18
ENDMDL
