MODEL 1
REMARK VINA RESULT:     -13.2      0.000      0.000
REMARK SMILES CC(C)(C)OC(=O)N1CCN(C(=O)c2ccc3c(c2)OCO3)[C@H](C(=O)NCCCCCCNC(=O)c2ccc(-c3c4nc(c(-c5c(F)c(F)c(F)c(F)c5F)c5ccc([nH]5)c(-c5c(F)c(F)c(F)c(F)c5F)c5nc(c(-c6c(F)c(F)c(F)c(F)c6F)c6ccc3[nH]6)C=C5)C=C4)cc2)C1
REMARK SMILES IDX 29 1 28 2 27 3 26 4 24 5 25 6 23 8 8 9 9 10 99 11 10 12
REMARK SMILES IDX 11 13 6 14 7 15 5 16 2 17 1 18 3 19 4 20 12 21 13 22 14 23
REMARK SMILES IDX 15 24 19 25 16 26 18 27 17 28 20 29 22 30 21 31 30 32 31 33
REMARK SMILES IDX 32 34 33 35 34 36 35 38 36 39 37 40 98 41 38 42 97 43 39 44
REMARK SMILES IDX 40 45 41 46 91 47 42 48 96 49 90 50 92 51 43 52 95 53 89 54
REMARK SMILES IDX 88 55 44 57 76 58 56 59 75 60 57 61 60 62 74 63 93 64 58 65
REMARK SMILES IDX 59 66 73 68 94 69 61 70 45 71 46 72 54 73 47 74 48 75 52 76
REMARK SMILES IDX 55 77 49 78 50 79 53 80 51 81 77 82 78 83 86 84 79 85 80 86
REMARK SMILES IDX 84 87 87 88 81 89 82 90 85 91 83 92 62 93 63 94 71 95 64 96
REMARK SMILES IDX 65 97 69 98 72 99 66 100 67 101 70 102 68 103
REMARK H PARENT 26 7 33 37 92 56 60 67
REMARK Flexibility Score: inf
ROOT
ATOM      1  C   UNL A   1      32.711  30.157  27.248  1.00  0.00     0.002 C 
ENDROOT
BRANCH   1   2
ATOM      2  C   UNL A   1      32.541  28.633  27.317  1.00  0.00     0.021 C 
BRANCH   2   3
ATOM      3  C   UNL A   1      31.523  28.087  26.313  1.00  0.00     0.116 C 
BRANCH   3   4
ATOM      4  N   UNL A   1      31.191  26.718  26.660  1.00  0.00    -0.354 N 
ATOM      5  C   UNL A   1      30.414  25.900  25.886  1.00  0.00     0.244 C 
ATOM      6  O   UNL A   1      29.517  25.248  26.416  1.00  0.00    -0.273 OA
ATOM      7  H   UNL A   1      31.545  26.357  27.505  1.00  0.00     0.163 HD
BRANCH   5   8
ATOM      8  C   UNL A   1      30.770  25.801  24.398  1.00  0.00     0.194 C 
ATOM      9  N   UNL A   1      32.856  25.483  23.074  1.00  0.00    -0.304 N 
ATOM     10  C   UNL A   1      32.480  26.526  22.126  1.00  0.00     0.144 C 
ATOM     11  C   UNL A   1      32.305  25.636  24.414  1.00  0.00     0.158 C 
ATOM     12  C   UNL A   1      30.959  26.722  22.108  1.00  0.00     0.142 C 
ATOM     13  N   UNL A   1      30.374  26.890  23.452  1.00  0.00    -0.323 N 
BRANCH   9  14
ATOM     14  C   UNL A   1      33.800  24.538  22.747  1.00  0.00     0.410 C 
ATOM     15  O   UNL A   1      33.684  23.773  21.797  1.00  0.00    -0.224 OA
BRANCH  14  16
ATOM     16  O   UNL A   1      34.830  24.528  23.631  1.00  0.00    -0.444 OA
BRANCH  16  17
ATOM     17  C   UNL A   1      35.340  23.293  24.200  1.00  0.00     0.106 C 
ATOM     18  C   UNL A   1      35.689  23.643  25.656  1.00  0.00     0.056 C 
ATOM     19  C   UNL A   1      36.616  22.896  23.457  1.00  0.00     0.056 C 
ATOM     20  C   UNL A   1      34.314  22.153  24.225  1.00  0.00     0.056 C 
ENDBRANCH  16  17
ENDBRANCH  14  16
ENDBRANCH   9  14
BRANCH  13  21
ATOM     21  C   UNL A   1      29.129  27.537  23.468  1.00  0.00     0.254 C 
ATOM     22  O   UNL A   1      28.078  26.963  23.749  1.00  0.00    -0.269 OA
BRANCH  21  23
ATOM     23  C   UNL A   1      29.021  28.956  23.069  1.00  0.00     0.044 A 
ATOM     24  C   UNL A   1      29.614  29.964  23.856  1.00  0.00     0.018 A 
ATOM     25  C   UNL A   1      28.370  29.275  21.871  1.00  0.00     0.064 A 
ATOM     26  C   UNL A   1      29.456  31.312  23.516  1.00  0.00     0.051 A 
ATOM     27  C   UNL A   1      28.248  30.611  21.556  1.00  0.00     0.166 A 
ATOM     28  C   UNL A   1      28.758  31.602  22.364  1.00  0.00     0.165 A 
ATOM     29  O   UNL A   1      27.613  31.115  20.462  1.00  0.00    -0.454 OA
ATOM     30  O   UNL A   1      28.487  32.848  21.893  1.00  0.00    -0.454 OA
ATOM     31  C   UNL A   1      27.783  32.532  20.676  1.00  0.00     0.468 C 
ENDBRANCH  21  23
ENDBRANCH  13  21
ENDBRANCH   5   8
ENDBRANCH   3   4
ENDBRANCH   2   3
ENDBRANCH   1   2
BRANCH   1  32
ATOM     32  C   UNL A   1      31.657  30.872  26.397  1.00  0.00     0.002 C 
BRANCH  32  33
ATOM     33  C   UNL A   1      31.489  32.357  26.718  1.00  0.00     0.021 C 
BRANCH  33  34
ATOM     34  C   UNL A   1      32.703  32.986  27.390  1.00  0.00     0.116 C 
BRANCH  34  35
ATOM     35  N   UNL A   1      32.470  34.380  27.731  1.00  0.00    -0.352 N 
ATOM     36  C   UNL A   1      33.042  35.131  28.726  1.00  0.00     0.251 C 
ATOM     37  H   UNL A   1      31.812  34.851  27.169  1.00  0.00     0.163 HD
ATOM     38  O   UNL A   1      32.583  36.229  29.020  1.00  0.00    -0.269 OA
BRANCH  36  39
ATOM     39  C   UNL A   1      34.205  34.592  29.461  1.00  0.00     0.039 A 
ATOM     40  C   UNL A   1      34.011  34.056  30.734  1.00  0.00     0.014 A 
ATOM     41  C   UNL A   1      35.479  34.608  28.886  1.00  0.00     0.014 A 
ATOM     42  C   UNL A   1      35.088  33.482  31.411  1.00  0.00     0.010 A 
ATOM     43  C   UNL A   1      36.532  33.962  29.524  1.00  0.00     0.010 A 
ATOM     44  C   UNL A   1      36.349  33.399  30.796  1.00  0.00    -0.014 A 
BRANCH  44  45
ATOM     45  C   UNL A   1      37.488  32.726  31.470  1.00  0.00     0.031 A 
ATOM     46  C   UNL A   1      38.168  31.555  30.816  1.00  0.00     0.074 A 
ATOM     47  C   UNL A   1      37.869  33.132  32.697  1.00  0.00     0.049 A 
ATOM     48  N   UNL A   1      39.136  30.799  31.271  1.00  0.00    -0.248 NA
ATOM     49  C   UNL A   1      37.678  31.164  29.485  1.00  0.00     0.031 C 
ATOM     50  C   UNL A   1      37.259  34.226  33.453  1.00  0.00     0.029 A 
ATOM     51  N   UNL A   1      38.858  32.666  33.528  1.00  0.00    -0.354 N 
ATOM     52  C   UNL A   1      39.361  29.843  30.290  1.00  0.00     0.074 A 
ATOM     53  C   UNL A   1      38.390  30.074  29.243  1.00  0.00     0.031 C 
ATOM     54  C   UNL A   1      37.902  34.364  34.623  1.00  0.00     0.029 A 
ATOM     55  C   UNL A   1      38.939  33.342  34.721  1.00  0.00     0.049 A 
ATOM     56  H   UNL A   1      39.454  31.918  33.291  1.00  0.00     0.167 HD
ATOM     57  C   UNL A   1      40.309  28.876  30.255  1.00  0.00     0.037 A 
ATOM     58  C   UNL A   1      39.749  33.150  35.779  1.00  0.00     0.037 A 
ATOM     59  C   UNL A   1      41.284  28.663  31.292  1.00  0.00     0.049 A 
ATOM     60  C   UNL A   1      40.778  32.051  35.724  1.00  0.00     0.074 A 
ATOM     61  C   UNL A   1      42.319  27.745  31.328  1.00  0.00     0.029 A 
ATOM     62  N   UNL A   1      41.337  29.372  32.484  1.00  0.00    -0.354 N 
ATOM     63  N   UNL A   1      41.028  31.198  34.761  1.00  0.00    -0.248 NA
ATOM     64  C   UNL A   1      41.641  31.895  36.902  1.00  0.00     0.031 C 
ATOM     65  C   UNL A   1      42.960  27.857  32.565  1.00  0.00     0.029 A 
ATOM     66  C   UNL A   1      42.372  28.891  33.273  1.00  0.00     0.049 A 
ATOM     67  H   UNL A   1      40.732  30.108  32.732  1.00  0.00     0.167 HD
ATOM     68  C   UNL A   1      42.098  30.429  35.199  1.00  0.00     0.074 A 
ATOM     69  C   UNL A   1      42.457  30.926  36.511  1.00  0.00     0.031 C 
ATOM     70  C   UNL A   1      42.726  29.404  34.573  1.00  0.00     0.037 A 
BRANCH  57  71
ATOM     71  C   UNL A   1      40.339  27.973  29.055  1.00  0.00     0.064 A 
ATOM     72  C   UNL A   1      39.630  26.760  29.025  1.00  0.00     0.173 A 
ATOM     73  C   UNL A   1      41.051  28.341  27.903  1.00  0.00     0.173 A 
ATOM     74  F   UNL A   1      38.941  26.354  30.102  1.00  0.00    -0.203 F 
ATOM     75  C   UNL A   1      39.660  25.939  27.900  1.00  0.00     0.198 A 
ATOM     76  C   UNL A   1      41.048  27.535  26.768  1.00  0.00     0.198 A 
ATOM     77  F   UNL A   1      41.740  29.491  27.873  1.00  0.00    -0.203 F 
ATOM     78  F   UNL A   1      39.019  24.762  27.917  1.00  0.00    -0.200 F 
ATOM     79  C   UNL A   1      40.361  26.331  26.770  1.00  0.00     0.200 A 
ATOM     80  F   UNL A   1      41.713  27.923  25.671  1.00  0.00    -0.200 F 
ATOM     81  F   UNL A   1      40.379  25.544  25.686  1.00  0.00    -0.200 F 
ENDBRANCH  57  71
BRANCH  58  82
ATOM     82  C   UNL A   1      39.634  34.027  36.976  1.00  0.00     0.064 A 
ATOM     83  C   UNL A   1      40.324  35.245  37.047  1.00  0.00     0.173 A 
ATOM     84  C   UNL A   1      38.846  33.660  38.077  1.00  0.00     0.173 A 
ATOM     85  F   UNL A   1      41.106  35.632  36.028  1.00  0.00    -0.203 F 
ATOM     86  C   UNL A   1      40.254  36.048  38.184  1.00  0.00     0.198 A 
ATOM     87  C   UNL A   1      38.748  34.479  39.199  1.00  0.00     0.198 A 
ATOM     88  F   UNL A   1      38.159  32.508  38.058  1.00  0.00    -0.203 F 
ATOM     89  F   UNL A   1      40.968  37.180  38.247  1.00  0.00    -0.200 F 
ATOM     90  C   UNL A   1      39.462  35.667  39.257  1.00  0.00     0.200 A 
ATOM     91  F   UNL A   1      37.968  34.116  40.226  1.00  0.00    -0.200 F 
ATOM     92  F   UNL A   1      39.392  36.440  40.349  1.00  0.00    -0.200 F 
ENDBRANCH  58  82
BRANCH  70  93
ATOM     93  C   UNL A   1      43.900  28.780  35.273  1.00  0.00     0.064 A 
ATOM     94  C   UNL A   1      45.199  29.294  35.146  1.00  0.00     0.173 A 
ATOM     95  C   UNL A   1      43.712  27.674  36.117  1.00  0.00     0.173 A 
ATOM     96  F   UNL A   1      45.435  30.341  34.340  1.00  0.00    -0.203 F 
ATOM     97  C   UNL A   1      46.269  28.707  35.816  1.00  0.00     0.198 A 
ATOM     98  C   UNL A   1      44.779  27.113  36.814  1.00  0.00     0.198 A 
ATOM     99  F   UNL A   1      42.490  27.147  36.281  1.00  0.00    -0.203 F 
ATOM    100  F   UNL A   1      47.509  29.183  35.637  1.00  0.00    -0.200 F 
ATOM    101  C   UNL A   1      46.058  27.624  36.655  1.00  0.00     0.200 A 
ATOM    102  F   UNL A   1      44.568  26.078  37.638  1.00  0.00    -0.200 F 
ATOM    103  F   UNL A   1      47.088  27.067  37.307  1.00  0.00    -0.200 F 
ENDBRANCH  70  93
ENDBRANCH  44  45
ENDBRANCH  36  39
ENDBRANCH  34  35
ENDBRANCH  33  34
ENDBRANCH  32  33
ENDBRANCH   1  32
TORSDOF 18
ENDMDL
MODEL 2
REMARK VINA RESULT:     -13.2      1.321      8.273
REMARK SMILES CC(C)(C)OC(=O)N1CCN(C(=O)c2ccc3c(c2)OCO3)[C@H](C(=O)NCCCCCCNC(=O)c2ccc(-c3c4nc(c(-c5c(F)c(F)c(F)c(F)c5F)c5ccc([nH]5)c(-c5c(F)c(F)c(F)c(F)c5F)c5nc(c(-c6c(F)c(F)c(F)c(F)c6F)c6ccc3[nH]6)C=C5)C=C4)cc2)C1
REMARK SMILES IDX 29 1 28 2 27 3 26 4 24 5 25 6 23 8 8 9 9 10 99 11 10 12
REMARK SMILES IDX 11 13 6 14 7 15 5 16 2 17 1 18 3 19 4 20 12 21 13 22 14 23
REMARK SMILES IDX 15 24 19 25 16 26 18 27 17 28 20 29 22 30 21 31 30 32 31 33
REMARK SMILES IDX 32 34 33 35 34 36 35 38 36 39 37 40 98 41 38 42 97 43 39 44
REMARK SMILES IDX 40 45 41 46 91 47 42 48 96 49 90 50 92 51 43 52 95 53 89 54
REMARK SMILES IDX 88 55 44 57 76 58 56 59 75 60 57 61 60 62 74 63 93 64 58 65
REMARK SMILES IDX 59 66 73 68 94 69 61 70 45 71 46 72 54 73 47 74 48 75 52 76
REMARK SMILES IDX 55 77 49 78 50 79 53 80 51 81 77 82 78 83 86 84 79 85 80 86
REMARK SMILES IDX 84 87 87 88 81 89 82 90 85 91 83 92 62 93 63 94 71 95 64 96
REMARK SMILES IDX 65 97 69 98 72 99 66 100 67 101 70 102 68 103
REMARK H PARENT 26 7 33 37 92 56 60 67
REMARK Flexibility Score: inf
ROOT
ATOM      1  C   UNL A   1      32.811  30.123  26.451  1.00  0.00     0.002 C 
ENDROOT
BRANCH   1   2
ATOM      2  C   UNL A   1      32.834  28.819  27.260  1.00  0.00     0.021 C 
BRANCH   2   3
ATOM      3  C   UNL A   1      31.440  28.249  27.536  1.00  0.00     0.116 C 
BRANCH   3   4
ATOM      4  N   UNL A   1      31.459  26.812  27.333  1.00  0.00    -0.354 N 
ATOM      5  C   UNL A   1      31.058  26.198  26.178  1.00  0.00     0.244 C 
ATOM      6  O   UNL A   1      30.314  25.222  26.246  1.00  0.00    -0.273 OA
ATOM      7  H   UNL A   1      31.779  26.246  28.072  1.00  0.00     0.163 HD
BRANCH   5   8
ATOM      8  C   UNL A   1      31.631  26.739  24.863  1.00  0.00     0.194 C 
ATOM      9  N   UNL A   1      30.722  27.907  22.860  1.00  0.00    -0.304 N 
ATOM     10  C   UNL A   1      31.482  27.057  21.951  1.00  0.00     0.144 C 
ATOM     11  C   UNL A   1      30.387  27.299  24.141  1.00  0.00     0.158 C 
ATOM     12  C   UNL A   1      32.714  26.473  22.653  1.00  0.00     0.142 C 
ATOM     13  N   UNL A   1      32.403  25.841  23.950  1.00  0.00    -0.323 N 
BRANCH   9  14
ATOM     14  C   UNL A   1      30.222  29.119  22.444  1.00  0.00     0.410 C 
ATOM     15  O   UNL A   1      30.611  29.694  21.435  1.00  0.00    -0.224 OA
BRANCH  14  16
ATOM     16  O   UNL A   1      29.301  29.609  23.311  1.00  0.00    -0.444 OA
BRANCH  16  17
ATOM     17  C   UNL A   1      27.969  29.995  22.879  1.00  0.00     0.106 C 
ATOM     18  C   UNL A   1      27.638  31.254  23.697  1.00  0.00     0.056 C 
ATOM     19  C   UNL A   1      26.987  28.882  23.246  1.00  0.00     0.056 C 
ATOM     20  C   UNL A   1      27.885  30.366  21.393  1.00  0.00     0.056 C 
ENDBRANCH  16  17
ENDBRANCH  14  16
ENDBRANCH   9  14
BRANCH  13  21
ATOM     21  C   UNL A   1      33.352  24.901  24.381  1.00  0.00     0.254 C 
ATOM     22  O   UNL A   1      34.449  25.217  24.841  1.00  0.00    -0.269 OA
BRANCH  21  23
ATOM     23  C   UNL A   1      33.089  23.455  24.231  1.00  0.00     0.044 A 
ATOM     24  C   UNL A   1      32.465  22.962  23.067  1.00  0.00     0.018 A 
ATOM     25  C   UNL A   1      33.521  22.580  25.236  1.00  0.00     0.064 A 
ATOM     26  C   UNL A   1      32.155  21.602  22.952  1.00  0.00     0.051 A 
ATOM     27  C   UNL A   1      33.216  21.244  25.083  1.00  0.00     0.166 A 
ATOM     28  C   UNL A   1      32.536  20.771  23.984  1.00  0.00     0.165 A 
ATOM     29  O   UNL A   1      33.512  20.255  25.970  1.00  0.00    -0.454 OA
ATOM     30  O   UNL A   1      32.299  19.434  24.054  1.00  0.00    -0.454 OA
ATOM     31  C   UNL A   1      32.941  19.110  25.304  1.00  0.00     0.468 C 
ENDBRANCH  21  23
ENDBRANCH  13  21
ENDBRANCH   5   8
ENDBRANCH   3   4
ENDBRANCH   2   3
ENDBRANCH   1   2
BRANCH   1  32
ATOM     32  C   UNL A   1      31.419  30.740  26.284  1.00  0.00     0.002 C 
BRANCH  32  33
ATOM     33  C   UNL A   1      31.368  32.249  26.515  1.00  0.00     0.021 C 
BRANCH  33  34
ATOM     34  C   UNL A   1      32.614  32.817  27.182  1.00  0.00     0.116 C 
BRANCH  34  35
ATOM     35  N   UNL A   1      32.429  34.201  27.585  1.00  0.00    -0.352 N 
ATOM     36  C   UNL A   1      33.038  34.892  28.601  1.00  0.00     0.251 C 
ATOM     37  H   UNL A   1      31.776  34.715  27.055  1.00  0.00     0.163 HD
ATOM     38  O   UNL A   1      32.617  35.989  28.949  1.00  0.00    -0.269 OA
BRANCH  36  39
ATOM     39  C   UNL A   1      34.196  34.289  29.293  1.00  0.00     0.039 A 
ATOM     40  C   UNL A   1      33.969  33.419  30.360  1.00  0.00     0.014 A 
ATOM     41  C   UNL A   1      35.501  34.574  28.877  1.00  0.00     0.014 A 
ATOM     42  C   UNL A   1      35.051  32.789  30.977  1.00  0.00     0.010 A 
ATOM     43  C   UNL A   1      36.570  33.883  29.437  1.00  0.00     0.010 A 
ATOM     44  C   UNL A   1      36.356  32.989  30.497  1.00  0.00    -0.014 A 
BRANCH  44  45
ATOM     45  C   UNL A   1      37.511  32.271  31.093  1.00  0.00     0.031 A 
ATOM     46  C   UNL A   1      38.011  32.650  32.459  1.00  0.00     0.074 A 
ATOM     47  C   UNL A   1      38.144  31.320  30.380  1.00  0.00     0.049 A 
ATOM     48  N   UNL A   1      39.040  32.185  33.124  1.00  0.00    -0.248 NA
ATOM     49  C   UNL A   1      37.275  33.711  33.163  1.00  0.00     0.031 C 
ATOM     50  C   UNL A   1      37.781  30.895  29.027  1.00  0.00     0.029 A 
ATOM     51  N   UNL A   1      39.233  30.542  30.690  1.00  0.00    -0.354 N 
ATOM     52  C   UNL A   1      39.078  32.901  34.312  1.00  0.00     0.074 A 
ATOM     53  C   UNL A   1      38.008  33.874  34.254  1.00  0.00     0.031 C 
ATOM     54  C   UNL A   1      38.614  29.918  28.635  1.00  0.00     0.029 A 
ATOM     55  C   UNL A   1      39.597  29.678  29.687  1.00  0.00     0.049 A 
ATOM     56  H   UNL A   1      39.708  30.599  31.551  1.00  0.00     0.167 HD
ATOM     57  C   UNL A   1      39.912  32.744  35.367  1.00  0.00     0.037 A 
ATOM     58  C   UNL A   1      40.614  28.800  29.619  1.00  0.00     0.037 A 
ATOM     59  C   UNL A   1      40.963  31.762  35.426  1.00  0.00     0.049 A 
ATOM     60  C   UNL A   1      41.544  28.663  30.796  1.00  0.00     0.074 A 
ATOM     61  C   UNL A   1      41.829  31.487  36.469  1.00  0.00     0.029 A 
ATOM     62  N   UNL A   1      41.297  30.899  34.391  1.00  0.00    -0.354 N 
ATOM     63  N   UNL A   1      41.526  29.297  31.943  1.00  0.00    -0.248 NA
ATOM     64  C   UNL A   1      42.630  27.682  30.670  1.00  0.00     0.031 C 
ATOM     65  C   UNL A   1      42.726  30.502  36.045  1.00  0.00     0.029 A 
ATOM     66  C   UNL A   1      42.376  30.111  34.764  1.00  0.00     0.049 A 
ATOM     67  H   UNL A   1      40.836  30.854  33.523  1.00  0.00     0.167 HD
ATOM     68  C   UNL A   1      42.572  28.768  32.688  1.00  0.00     0.074 A 
ATOM     69  C   UNL A   1      43.196  27.752  31.866  1.00  0.00     0.031 C 
ATOM     70  C   UNL A   1      42.980  29.095  33.939  1.00  0.00     0.037 A 
BRANCH  57  71
ATOM     71  C   UNL A   1      39.725  33.656  36.546  1.00  0.00     0.064 A 
ATOM     72  C   UNL A   1      40.368  34.902  36.627  1.00  0.00     0.173 A 
ATOM     73  C   UNL A   1      38.859  33.300  37.592  1.00  0.00     0.173 A 
ATOM     74  F   UNL A   1      41.215  35.288  35.661  1.00  0.00    -0.203 F 
ATOM     75  C   UNL A   1      40.175  35.740  37.722  1.00  0.00     0.198 A 
ATOM     76  C   UNL A   1      38.640  34.156  38.667  1.00  0.00     0.198 A 
ATOM     77  F   UNL A   1      38.213  32.125  37.564  1.00  0.00    -0.203 F 
ATOM     78  F   UNL A   1      40.842  36.900  37.801  1.00  0.00    -0.200 F 
ATOM     79  C   UNL A   1      39.305  35.371  38.737  1.00  0.00     0.200 A 
ATOM     80  F   UNL A   1      37.786  33.805  39.639  1.00  0.00    -0.200 F 
ATOM     81  F   UNL A   1      39.112  36.184  39.784  1.00  0.00    -0.200 F 
ENDBRANCH  57  71
BRANCH  58  82
ATOM     82  C   UNL A   1      40.802  27.968  28.399  1.00  0.00     0.064 A 
ATOM     83  C   UNL A   1      40.201  26.707  28.286  1.00  0.00     0.173 A 
ATOM     84  C   UNL A   1      41.597  28.408  27.330  1.00  0.00     0.173 A 
ATOM     85  F   UNL A   1      39.447  26.232  29.289  1.00  0.00    -0.203 F 
ATOM     86  C   UNL A   1      40.410  25.906  27.165  1.00  0.00     0.198 A 
ATOM     87  C   UNL A   1      41.777  27.622  26.194  1.00  0.00     0.198 A 
ATOM     88  F   UNL A   1      42.189  29.610  27.384  1.00  0.00    -0.203 F 
ATOM     89  F   UNL A   1      39.868  24.682  27.108  1.00  0.00    -0.200 F 
ATOM     90  C   UNL A   1      41.194  26.367  26.118  1.00  0.00     0.200 A 
ATOM     91  F   UNL A   1      42.521  28.079  25.177  1.00  0.00    -0.200 F 
ATOM     92  F   UNL A   1      41.392  25.599  25.038  1.00  0.00    -0.200 F 
ENDBRANCH  58  82
BRANCH  70  93
ATOM     93  C   UNL A   1      44.124  28.314  34.521  1.00  0.00     0.064 A 
ATOM     94  C   UNL A   1      45.452  28.755  34.419  1.00  0.00     0.173 A 
ATOM     95  C   UNL A   1      43.881  27.125  35.228  1.00  0.00     0.173 A 
ATOM     96  F   UNL A   1      45.740  29.877  33.742  1.00  0.00    -0.203 F 
ATOM     97  C   UNL A   1      46.494  28.021  34.978  1.00  0.00     0.198 A 
ATOM     98  C   UNL A   1      44.922  26.414  35.817  1.00  0.00     0.198 A 
ATOM     99  F   UNL A   1      42.629  26.663  35.363  1.00  0.00    -0.203 F 
ATOM    100  F   UNL A   1      47.760  28.434  34.821  1.00  0.00    -0.200 F 
ATOM    101  C   UNL A   1      46.229  26.857  35.683  1.00  0.00     0.200 A 
ATOM    102  F   UNL A   1      44.660  25.300  36.513  1.00  0.00    -0.200 F 
ATOM    103  F   UNL A   1      47.234  26.158  36.230  1.00  0.00    -0.200 F 
ENDBRANCH  70  93
ENDBRANCH  44  45
ENDBRANCH  36  39
ENDBRANCH  34  35
ENDBRANCH  33  34
ENDBRANCH  32  33
ENDBRANCH   1  32
TORSDOF 18
ENDMDL
MODEL 3
REMARK VINA RESULT:     -13.0      0.905      1.996
REMARK SMILES CC(C)(C)OC(=O)N1CCN(C(=O)c2ccc3c(c2)OCO3)[C@H](C(=O)NCCCCCCNC(=O)c2ccc(-c3c4nc(c(-c5c(F)c(F)c(F)c(F)c5F)c5ccc([nH]5)c(-c5c(F)c(F)c(F)c(F)c5F)c5nc(c(-c6c(F)c(F)c(F)c(F)c6F)c6ccc3[nH]6)C=C5)C=C4)cc2)C1
REMARK SMILES IDX 29 1 28 2 27 3 26 4 24 5 25 6 23 8 8 9 9 10 99 11 10 12
REMARK SMILES IDX 11 13 6 14 7 15 5 16 2 17 1 18 3 19 4 20 12 21 13 22 14 23
REMARK SMILES IDX 15 24 19 25 16 26 18 27 17 28 20 29 22 30 21 31 30 32 31 33
REMARK SMILES IDX 32 34 33 35 34 36 35 38 36 39 37 40 98 41 38 42 97 43 39 44
REMARK SMILES IDX 40 45 41 46 91 47 42 48 96 49 90 50 92 51 43 52 95 53 89 54
REMARK SMILES IDX 88 55 44 57 76 58 56 59 75 60 57 61 60 62 74 63 93 64 58 65
REMARK SMILES IDX 59 66 73 68 94 69 61 70 45 71 46 72 54 73 47 74 48 75 52 76
REMARK SMILES IDX 55 77 49 78 50 79 53 80 51 81 77 82 78 83 86 84 79 85 80 86
REMARK SMILES IDX 84 87 87 88 81 89 82 90 85 91 83 92 62 93 63 94 71 95 64 96
REMARK SMILES IDX 65 97 69 98 72 99 66 100 67 101 70 102 68 103
REMARK H PARENT 26 7 33 37 92 56 60 67
REMARK Flexibility Score: inf
ROOT
ATOM      1  C   UNL A   1      32.905  29.932  26.569  1.00  0.00     0.002 C 
ENDROOT
BRANCH   1   2
ATOM      2  C   UNL A   1      32.531  28.594  27.222  1.00  0.00     0.021 C 
BRANCH   2   3
ATOM      3  C   UNL A   1      31.590  27.741  26.368  1.00  0.00     0.116 C 
BRANCH   3   4
ATOM      4  N   UNL A   1      31.305  26.498  27.060  1.00  0.00    -0.354 N 
ATOM      5  C   UNL A   1      30.932  25.342  26.432  1.00  0.00     0.244 C 
ATOM      6  O   UNL A   1      29.982  24.699  26.875  1.00  0.00    -0.273 OA
ATOM      7  H   UNL A   1      31.385  26.487  28.041  1.00  0.00     0.163 HD
BRANCH   5   8
ATOM      8  C   UNL A   1      31.785  24.885  25.242  1.00  0.00     0.194 C 
ATOM      9  N   UNL A   1      34.218  24.630  24.778  1.00  0.00    -0.304 N 
ATOM     10  C   UNL A   1      34.088  25.247  23.462  1.00  0.00     0.144 C 
ATOM     11  C   UNL A   1      33.229  25.054  25.760  1.00  0.00     0.158 C 
ATOM     12  C   UNL A   1      32.655  25.110  22.936  1.00  0.00     0.142 C 
ATOM     13  N   UNL A   1      31.630  25.541  23.907  1.00  0.00    -0.323 N 
BRANCH   9  14
ATOM     14  C   UNL A   1      35.307  23.849  25.087  1.00  0.00     0.410 C 
ATOM     15  O   UNL A   1      36.264  24.256  25.734  1.00  0.00    -0.224 OA
BRANCH  14  16
ATOM     16  O   UNL A   1      35.208  22.609  24.543  1.00  0.00    -0.444 OA
BRANCH  16  17
ATOM     17  C   UNL A   1      34.508  21.530  25.217  1.00  0.00     0.106 C 
ATOM     18  C   UNL A   1      35.395  20.291  25.004  1.00  0.00     0.056 C 
ATOM     19  C   UNL A   1      33.160  21.309  24.530  1.00  0.00     0.056 C 
ATOM     20  C   UNL A   1      34.353  21.741  26.728  1.00  0.00     0.056 C 
ENDBRANCH  16  17
ENDBRANCH  14  16
ENDBRANCH   9  14
BRANCH  13  21
ATOM     21  C   UNL A   1      30.397  25.891  23.336  1.00  0.00     0.254 C 
ATOM     22  O   UNL A   1      29.561  25.061  22.984  1.00  0.00    -0.269 OA
BRANCH  21  23
ATOM     23  C   UNL A   1      30.078  27.308  23.063  1.00  0.00     0.044 A 
ATOM     24  C   UNL A   1      31.074  28.182  22.583  1.00  0.00     0.018 A 
ATOM     25  C   UNL A   1      28.761  27.751  23.237  1.00  0.00     0.064 A 
ATOM     26  C   UNL A   1      30.791  29.539  22.388  1.00  0.00     0.051 A 
ATOM     27  C   UNL A   1      28.511  29.089  23.019  1.00  0.00     0.166 A 
ATOM     28  C   UNL A   1      29.501  29.961  22.625  1.00  0.00     0.165 A 
ATOM     29  O   UNL A   1      27.311  29.710  23.179  1.00  0.00    -0.454 OA
ATOM     30  O   UNL A   1      29.052  31.240  22.512  1.00  0.00    -0.454 OA
ATOM     31  C   UNL A   1      27.659  31.069  22.841  1.00  0.00     0.468 C 
ENDBRANCH  21  23
ENDBRANCH  13  21
ENDBRANCH   5   8
ENDBRANCH   3   4
ENDBRANCH   2   3
ENDBRANCH   1   2
BRANCH   1  32
ATOM     32  C   UNL A   1      31.729  30.667  25.917  1.00  0.00     0.002 C 
BRANCH  32  33
ATOM     33  C   UNL A   1      31.438  32.043  26.514  1.00  0.00     0.021 C 
BRANCH  33  34
ATOM     34  C   UNL A   1      32.617  32.659  27.257  1.00  0.00     0.116 C 
BRANCH  34  35
ATOM     35  N   UNL A   1      32.396  34.065  27.551  1.00  0.00    -0.352 N 
ATOM     36  C   UNL A   1      32.977  34.844  28.518  1.00  0.00     0.251 C 
ATOM     37  H   UNL A   1      31.739  34.522  26.977  1.00  0.00     0.163 HD
ATOM     38  O   UNL A   1      32.528  35.955  28.777  1.00  0.00    -0.269 OA
BRANCH  36  39
ATOM     39  C   UNL A   1      34.140  34.322  29.266  1.00  0.00     0.039 A 
ATOM     40  C   UNL A   1      33.925  33.672  30.481  1.00  0.00     0.014 A 
ATOM     41  C   UNL A   1      35.435  34.466  28.759  1.00  0.00     0.014 A 
ATOM     42  C   UNL A   1      35.007  33.113  31.164  1.00  0.00     0.010 A 
ATOM     43  C   UNL A   1      36.499  33.837  29.396  1.00  0.00     0.010 A 
ATOM     44  C   UNL A   1      36.297  33.161  30.608  1.00  0.00    -0.014 A 
BRANCH  44  45
ATOM     45  C   UNL A   1      37.447  32.509  31.284  1.00  0.00     0.031 A 
ATOM     46  C   UNL A   1      38.153  31.356  30.628  1.00  0.00     0.074 A 
ATOM     47  C   UNL A   1      37.815  32.917  32.514  1.00  0.00     0.049 A 
ATOM     48  N   UNL A   1      39.135  30.617  31.082  1.00  0.00    -0.248 NA
ATOM     49  C   UNL A   1      37.677  30.961  29.293  1.00  0.00     0.031 C 
ATOM     50  C   UNL A   1      37.179  33.995  33.273  1.00  0.00     0.029 A 
ATOM     51  N   UNL A   1      38.810  32.468  33.347  1.00  0.00    -0.354 N 
ATOM     52  C   UNL A   1      39.384  29.671  30.098  1.00  0.00     0.074 A 
ATOM     53  C   UNL A   1      38.412  29.887  29.049  1.00  0.00     0.031 C 
ATOM     54  C   UNL A   1      37.815  34.141  34.447  1.00  0.00     0.029 A 
ATOM     55  C   UNL A   1      38.872  33.139  34.544  1.00  0.00     0.049 A 
ATOM     56  H   UNL A   1      39.422  31.733  33.109  1.00  0.00     0.167 HD
ATOM     57  C   UNL A   1      40.352  28.724  30.062  1.00  0.00     0.037 A 
ATOM     58  C   UNL A   1      39.682  32.959  35.604  1.00  0.00     0.037 A 
ATOM     59  C   UNL A   1      41.326  28.526  31.102  1.00  0.00     0.049 A 
ATOM     60  C   UNL A   1      40.734  31.882  35.548  1.00  0.00     0.074 A 
ATOM     61  C   UNL A   1      42.380  27.629  31.138  1.00  0.00     0.029 A 
ATOM     62  N   UNL A   1      41.361  29.231  32.298  1.00  0.00    -0.354 N 
ATOM     63  N   UNL A   1      41.005  31.039  34.582  1.00  0.00    -0.248 NA
ATOM     64  C   UNL A   1      41.596  31.738  36.728  1.00  0.00     0.031 C 
ATOM     65  C   UNL A   1      43.014  27.748  32.378  1.00  0.00     0.029 A 
ATOM     66  C   UNL A   1      42.402  28.767  33.088  1.00  0.00     0.049 A 
ATOM     67  H   UNL A   1      40.739  29.952  32.546  1.00  0.00     0.167 HD
ATOM     68  C   UNL A   1      42.089  30.290  35.021  1.00  0.00     0.074 A 
ATOM     69  C   UNL A   1      42.433  30.788  36.336  1.00  0.00     0.031 C 
ATOM     70  C   UNL A   1      42.740  29.281  34.392  1.00  0.00     0.037 A 
BRANCH  57  71
ATOM     71  C   UNL A   1      40.404  27.827  28.858  1.00  0.00     0.064 A 
ATOM     72  C   UNL A   1      39.671  26.631  28.795  1.00  0.00     0.173 A 
ATOM     73  C   UNL A   1      41.165  28.186  27.734  1.00  0.00     0.173 A 
ATOM     74  F   UNL A   1      38.935  26.234  29.844  1.00  0.00    -0.203 F 
ATOM     75  C   UNL A   1      39.723  25.815  27.667  1.00  0.00     0.198 A 
ATOM     76  C   UNL A   1      41.185  27.387  26.595  1.00  0.00     0.198 A 
ATOM     77  F   UNL A   1      41.880  29.321  27.737  1.00  0.00    -0.203 F 
ATOM     78  F   UNL A   1      39.057  24.652  27.653  1.00  0.00    -0.200 F 
ATOM     79  C   UNL A   1      40.472  26.198  26.565  1.00  0.00     0.200 A 
ATOM     80  F   UNL A   1      41.897  27.767  25.525  1.00  0.00    -0.200 F 
ATOM     81  F   UNL A   1      40.512  25.418  25.477  1.00  0.00    -0.200 F 
ENDBRANCH  57  71
BRANCH  58  82
ATOM     82  C   UNL A   1      39.544  33.828  36.804  1.00  0.00     0.064 A 
ATOM     83  C   UNL A   1      38.751  33.435  37.891  1.00  0.00     0.173 A 
ATOM     84  C   UNL A   1      40.188  35.072  36.883  1.00  0.00     0.173 A 
ATOM     85  F   UNL A   1      38.099  32.263  37.856  1.00  0.00    -0.203 F 
ATOM     86  C   UNL A   1      38.583  34.266  38.998  1.00  0.00     0.198 A 
ATOM     87  C   UNL A   1      40.048  35.886  38.005  1.00  0.00     0.198 A 
ATOM     88  F   UNL A   1      40.964  35.493  35.874  1.00  0.00    -0.203 F 
ATOM     89  F   UNL A   1      37.775  33.889  39.998  1.00  0.00    -0.200 F 
ATOM     90  C   UNL A   1      39.236  35.487  39.057  1.00  0.00     0.200 A 
ATOM     91  F   UNL A   1      40.695  37.058  38.065  1.00  0.00    -0.200 F 
ATOM     92  F   UNL A   1      39.078  36.284  40.122  1.00  0.00    -0.200 F 
ENDBRANCH  58  82
BRANCH  70  93
ATOM     93  C   UNL A   1      43.924  28.678  35.093  1.00  0.00     0.064 A 
ATOM     94  C   UNL A   1      43.799  27.565  35.938  1.00  0.00     0.173 A 
ATOM     95  C   UNL A   1      45.211  29.200  34.882  1.00  0.00     0.173 A 
ATOM     96  F   UNL A   1      42.591  27.038  36.185  1.00  0.00    -0.203 F 
ATOM     97  C   UNL A   1      44.913  27.015  36.566  1.00  0.00     0.198 A 
ATOM     98  C   UNL A   1      46.327  28.624  35.483  1.00  0.00     0.198 A 
ATOM     99  F   UNL A   1      45.388  30.258  34.077  1.00  0.00    -0.203 F 
ATOM    100  F   UNL A   1      44.762  25.986  37.411  1.00  0.00    -0.200 F 
ATOM    101  C   UNL A   1      46.176  27.538  36.332  1.00  0.00     0.200 A 
ATOM    102  F   UNL A   1      47.547  29.120  35.240  1.00  0.00    -0.200 F 
ATOM    103  F   UNL A   1      47.249  27.000  36.930  1.00  0.00    -0.200 F 
ENDBRANCH  70  93
ENDBRANCH  44  45
ENDBRANCH  36  39
ENDBRANCH  34  35
ENDBRANCH  33  34
ENDBRANCH  32  33
ENDBRANCH   1  32
TORSDOF 18
ENDMDL
