MODEL 1
REMARK VINA RESULT:     -11.8      0.000      0.000
REMARK SMILES CSc1ccc(Cl)c(C(=O)N[C@@H](CO)C(=O)NCCCCCCNC(=O)c2ccc(-c3c4nc(c(-c5c(F)c(F)c(F)c(F)c5F)c5ccc([nH]5)c(-c5c(F)c(F)c(F)c(F)c5F)c5nc(c(-c6c(F)c(F)c(F)c(F)c6F)c6ccc3[nH]6)C=C5)C=C4)cc2)c1
REMARK SMILES IDX 20 1 19 2 18 3 17 4 15 5 16 6 12 8 11 9 9 10 10 11 8 13 3 14
REMARK SMILES IDX 4 15 90 16 5 17 6 18 7 19 2 20 1 21 13 22 14 23 21 25 22 26
REMARK SMILES IDX 23 27 24 28 25 29 26 31 27 32 28 33 89 34 29 35 88 36 30 37
REMARK SMILES IDX 31 38 32 39 82 40 33 41 87 42 81 43 83 44 34 45 86 46 80 47
REMARK SMILES IDX 79 48 35 50 67 51 47 52 66 53 48 54 51 55 65 56 84 57 49 58
REMARK SMILES IDX 50 59 64 61 85 62 52 63 36 64 37 65 45 66 38 67 39 68 43 69
REMARK SMILES IDX 46 70 40 71 41 72 44 73 42 74 68 75 69 76 77 77 70 78 71 79
REMARK SMILES IDX 75 80 78 81 72 82 73 83 76 84 74 85 53 86 54 87 62 88 55 89
REMARK SMILES IDX 56 90 60 91 63 92 57 93 58 94 61 95 59 96
REMARK H PARENT 17 7 11 12 14 24 24 30 83 49 51 60
REMARK Flexibility Score: inf
ROOT
ATOM      1  C   UNL A   1      32.330  29.940  27.119  1.00  0.00     0.002 C 
ENDROOT
BRANCH   1   2
ATOM      2  C   UNL A   1      31.789  28.506  27.123  1.00  0.00     0.021 C 
BRANCH   2   3
ATOM      3  C   UNL A   1      32.279  27.646  25.966  1.00  0.00     0.116 C 
BRANCH   3   4
ATOM      4  N   UNL A   1      31.388  27.759  24.836  1.00  0.00    -0.354 N 
ATOM      5  C   UNL A   1      31.617  27.686  23.507  1.00  0.00     0.244 C 
ATOM      6  O   UNL A   1      30.637  27.851  22.769  1.00  0.00    -0.273 OA
ATOM      7  H   UNL A   1      30.446  27.917  25.077  1.00  0.00     0.163 HD
BRANCH   5   8
ATOM      8  C   UNL A   1      32.986  27.347  22.896  1.00  0.00     0.197 C 
BRANCH   8   9
ATOM      9  N   UNL A   1      32.993  26.527  21.691  1.00  0.00    -0.338 N 
ATOM     10  C   UNL A   1      33.088  25.181  21.458  1.00  0.00     0.253 C 
ATOM     11  O   UNL A   1      33.174  24.889  20.259  1.00  0.00    -0.269 OA
ATOM     12  H   UNL A   1      32.911  27.055  20.865  1.00  0.00     0.164 HD
BRANCH  10  13
ATOM     13  C   UNL A   1      33.005  24.054  22.454  1.00  0.00     0.059 A 
ATOM     14  C   UNL A   1      34.443  22.519  23.755  1.00  0.00     0.008 A 
ATOM     15  C   UNL A   1      33.323  21.865  24.246  1.00  0.00     0.016 A 
ATOM     16  C   UNL A   1      34.281  23.549  22.819  1.00  0.00     0.030 A 
ATOM     17  C   UNL A   1      32.063  22.348  23.928  1.00  0.00     0.022 A 
ATOM     18  C   UNL A   1      31.905  23.490  23.119  1.00  0.00     0.053 A 
ATOM     19  Cl  UNL A   1      30.343  24.194  23.304  1.00  0.00    -0.083 Cl
BRANCH  14  20
ATOM     20  S   UNL A   1      36.053  22.115  24.397  1.00  0.00    -0.130 SA
ATOM     21  C   UNL A   1      36.189  23.456  25.621  1.00  0.00     0.091 C 
ENDBRANCH  14  20
ENDBRANCH  10  13
ENDBRANCH   8   9
BRANCH   8  22
ATOM     22  C   UNL A   1      33.869  28.603  22.718  1.00  0.00     0.191 C 
BRANCH  22  23
ATOM     23  O   UNL A   1      33.463  29.717  23.515  1.00  0.00    -0.394 OA
ATOM     24  H   UNL A   1      33.274  29.417  24.419  1.00  0.00     0.210 HD
ENDBRANCH  22  23
ENDBRANCH   8  22
ENDBRANCH   5   8
ENDBRANCH   3   4
ENDBRANCH   2   3
ENDBRANCH   1   2
BRANCH   1  25
ATOM     25  C   UNL A   1      31.618  30.900  26.163  1.00  0.00     0.002 C 
BRANCH  25  26
ATOM     26  C   UNL A   1      31.377  32.303  26.723  1.00  0.00     0.021 C 
BRANCH  26  27
ATOM     27  C   UNL A   1      32.591  32.925  27.396  1.00  0.00     0.116 C 
BRANCH  27  28
ATOM     28  N   UNL A   1      32.391  34.334  27.688  1.00  0.00    -0.352 N 
ATOM     29  C   UNL A   1      33.002  35.106  28.639  1.00  0.00     0.251 C 
ATOM     30  H   UNL A   1      31.726  34.796  27.127  1.00  0.00     0.163 HD
ATOM     31  O   UNL A   1      32.585  36.233  28.896  1.00  0.00    -0.269 OA
BRANCH  29  32
ATOM     32  C   UNL A   1      34.160  34.561  29.373  1.00  0.00     0.039 A 
ATOM     33  C   UNL A   1      33.957  33.995  30.632  1.00  0.00     0.014 A 
ATOM     34  C   UNL A   1      35.439  34.594  28.807  1.00  0.00     0.014 A 
ATOM     35  C   UNL A   1      35.031  33.414  31.305  1.00  0.00     0.010 A 
ATOM     36  C   UNL A   1      36.489  33.941  29.441  1.00  0.00     0.010 A 
ATOM     37  C   UNL A   1      36.298  33.356  30.701  1.00  0.00    -0.014 A 
BRANCH  37  38
ATOM     38  C   UNL A   1      37.440  32.694  31.381  1.00  0.00     0.031 A 
ATOM     39  C   UNL A   1      38.141  31.542  30.721  1.00  0.00     0.074 A 
ATOM     40  C   UNL A   1      37.805  33.098  32.611  1.00  0.00     0.049 A 
ATOM     41  N   UNL A   1      39.117  30.797  31.175  1.00  0.00    -0.248 NA
ATOM     42  C   UNL A   1      37.663  31.155  29.384  1.00  0.00     0.031 C 
ATOM     43  C   UNL A   1      37.168  34.173  33.373  1.00  0.00     0.029 A 
ATOM     44  N   UNL A   1      38.797  32.644  33.444  1.00  0.00    -0.354 N 
ATOM     45  C   UNL A   1      39.364  29.856  30.184  1.00  0.00     0.074 A 
ATOM     46  C   UNL A   1      38.390  30.076  29.138  1.00  0.00     0.031 C 
ATOM     47  C   UNL A   1      37.795  34.309  34.551  1.00  0.00     0.029 A 
ATOM     48  C   UNL A   1      38.850  33.305  34.646  1.00  0.00     0.049 A 
ATOM     49  H   UNL A   1      39.412  31.914  33.202  1.00  0.00     0.167 HD
ATOM     50  C   UNL A   1      40.335  28.911  30.139  1.00  0.00     0.037 A 
ATOM     51  C   UNL A   1      39.651  33.112  35.711  1.00  0.00     0.037 A 
ATOM     52  C   UNL A   1      41.304  28.702  31.183  1.00  0.00     0.049 A 
ATOM     53  C   UNL A   1      40.706  32.041  35.649  1.00  0.00     0.074 A 
ATOM     54  C   UNL A   1      42.353  27.800  31.218  1.00  0.00     0.029 A 
ATOM     55  N   UNL A   1      41.335  29.399  32.382  1.00  0.00    -0.354 N 
ATOM     56  N   UNL A   1      40.976  31.200  34.679  1.00  0.00    -0.248 NA
ATOM     57  C   UNL A   1      41.576  31.899  36.824  1.00  0.00     0.031 C 
ATOM     58  C   UNL A   1      42.983  27.913  32.461  1.00  0.00     0.029 A 
ATOM     59  C   UNL A   1      42.370  28.931  33.175  1.00  0.00     0.049 A 
ATOM     60  H   UNL A   1      40.714  30.122  32.631  1.00  0.00     0.167 HD
ATOM     61  C   UNL A   1      42.059  30.448  35.115  1.00  0.00     0.074 A 
ATOM     62  C   UNL A   1      42.409  30.946  36.429  1.00  0.00     0.031 C 
ATOM     63  C   UNL A   1      42.706  29.438  34.482  1.00  0.00     0.037 A 
BRANCH  50  64
ATOM     64  C   UNL A   1      40.389  28.036  28.917  1.00  0.00     0.064 A 
ATOM     65  C   UNL A   1      41.154  28.388  27.793  1.00  0.00     0.173 A 
ATOM     66  C   UNL A   1      39.684  26.826  28.873  1.00  0.00     0.173 A 
ATOM     67  F   UNL A   1      41.842  29.540  27.776  1.00  0.00    -0.203 F 
ATOM     68  C   UNL A   1      41.176  27.581  26.658  1.00  0.00     0.198 A 
ATOM     69  C   UNL A   1      39.737  26.003  27.751  1.00  0.00     0.198 A 
ATOM     70  F   UNL A   1      38.941  26.435  29.922  1.00  0.00    -0.203 F 
ATOM     71  F   UNL A   1      41.861  27.970  25.575  1.00  0.00    -0.200 F 
ATOM     72  C   UNL A   1      40.473  26.386  26.641  1.00  0.00     0.200 A 
ATOM     73  F   UNL A   1      39.071  24.840  27.742  1.00  0.00    -0.200 F 
ATOM     74  F   UNL A   1      40.498  25.609  25.549  1.00  0.00    -0.200 F 
ENDBRANCH  50  64
BRANCH  51  75
ATOM     75  C   UNL A   1      39.490  33.963  36.919  1.00  0.00     0.064 A 
ATOM     76  C   UNL A   1      38.735  33.526  38.017  1.00  0.00     0.173 A 
ATOM     77  C   UNL A   1      40.094  35.226  37.005  1.00  0.00     0.173 A 
ATOM     78  F   UNL A   1      38.122  32.334  37.977  1.00  0.00    -0.203 F 
ATOM     79  C   UNL A   1      38.573  34.330  39.145  1.00  0.00     0.198 A 
ATOM     80  C   UNL A   1      39.958  36.014  38.146  1.00  0.00     0.198 A 
ATOM     81  F   UNL A   1      40.833  35.687  35.985  1.00  0.00    -0.203 F 
ATOM     82  F   UNL A   1      37.808  33.907  40.160  1.00  0.00    -0.200 F 
ATOM     83  C   UNL A   1      39.191  35.569  39.212  1.00  0.00     0.200 A 
ATOM     84  F   UNL A   1      40.572  37.204  38.213  1.00  0.00    -0.200 F 
ATOM     85  F   UNL A   1      39.042  36.337  40.299  1.00  0.00    -0.200 F 
ENDBRANCH  51  75
BRANCH  63  86
ATOM     86  C   UNL A   1      43.883  28.825  35.188  1.00  0.00     0.064 A 
ATOM     87  C   UNL A   1      43.734  27.747  36.074  1.00  0.00     0.173 A 
ATOM     88  C   UNL A   1      45.181  29.296  34.941  1.00  0.00     0.173 A 
ATOM     89  F   UNL A   1      42.514  27.268  36.356  1.00  0.00    -0.203 F 
ATOM     90  C   UNL A   1      44.839  27.184  36.707  1.00  0.00     0.198 A 
ATOM     91  C   UNL A   1      46.287  28.707  35.549  1.00  0.00     0.198 A 
ATOM     92  F   UNL A   1      45.381  30.320  34.097  1.00  0.00    -0.203 F 
ATOM     93  F   UNL A   1      44.668  26.189  37.590  1.00  0.00    -0.200 F 
ATOM     94  C   UNL A   1      46.114  27.658  36.438  1.00  0.00     0.200 A 
ATOM     95  F   UNL A   1      47.519  29.156  35.273  1.00  0.00    -0.200 F 
ATOM     96  F   UNL A   1      47.177  27.108  37.040  1.00  0.00    -0.200 F 
ENDBRANCH  63  86
ENDBRANCH  37  38
ENDBRANCH  29  32
ENDBRANCH  27  28
ENDBRANCH  26  27
ENDBRANCH  25  26
ENDBRANCH   1  25
TORSDOF 18
ENDMDL
MODEL 2
REMARK VINA RESULT:     -11.8      0.607      7.468
REMARK SMILES CSc1ccc(Cl)c(C(=O)N[C@@H](CO)C(=O)NCCCCCCNC(=O)c2ccc(-c3c4nc(c(-c5c(F)c(F)c(F)c(F)c5F)c5ccc([nH]5)c(-c5c(F)c(F)c(F)c(F)c5F)c5nc(c(-c6c(F)c(F)c(F)c(F)c6F)c6ccc3[nH]6)C=C5)C=C4)cc2)c1
REMARK SMILES IDX 20 1 19 2 18 3 17 4 15 5 16 6 12 8 11 9 9 10 10 11 8 13 3 14
REMARK SMILES IDX 4 15 90 16 5 17 6 18 7 19 2 20 1 21 13 22 14 23 21 25 22 26
REMARK SMILES IDX 23 27 24 28 25 29 26 31 27 32 28 33 89 34 29 35 88 36 30 37
REMARK SMILES IDX 31 38 32 39 82 40 33 41 87 42 81 43 83 44 34 45 86 46 80 47
REMARK SMILES IDX 79 48 35 50 67 51 47 52 66 53 48 54 51 55 65 56 84 57 49 58
REMARK SMILES IDX 50 59 64 61 85 62 52 63 36 64 37 65 45 66 38 67 39 68 43 69
REMARK SMILES IDX 46 70 40 71 41 72 44 73 42 74 68 75 69 76 77 77 70 78 71 79
REMARK SMILES IDX 75 80 78 81 72 82 73 83 76 84 74 85 53 86 54 87 62 88 55 89
REMARK SMILES IDX 56 90 60 91 63 92 57 93 58 94 61 95 59 96
REMARK H PARENT 17 7 11 12 14 24 24 30 83 49 51 60
REMARK Flexibility Score: inf
ROOT
ATOM      1  C   UNL A   1      32.294  29.915  27.078  1.00  0.00     0.002 C 
ENDROOT
BRANCH   1   2
ATOM      2  C   UNL A   1      31.767  28.476  27.130  1.00  0.00     0.021 C 
BRANCH   2   3
ATOM      3  C   UNL A   1      32.209  27.601  25.964  1.00  0.00     0.116 C 
BRANCH   3   4
ATOM      4  N   UNL A   1      31.333  27.786  24.832  1.00  0.00    -0.354 N 
ATOM      5  C   UNL A   1      31.576  27.760  23.502  1.00  0.00     0.244 C 
ATOM      6  O   UNL A   1      30.608  27.984  22.763  1.00  0.00    -0.273 OA
ATOM      7  H   UNL A   1      30.394  27.963  25.070  1.00  0.00     0.163 HD
BRANCH   5   8
ATOM      8  C   UNL A   1      32.940  27.406  22.892  1.00  0.00     0.197 C 
BRANCH   8   9
ATOM      9  N   UNL A   1      32.937  26.598  21.678  1.00  0.00    -0.338 N 
ATOM     10  C   UNL A   1      33.055  25.258  21.427  1.00  0.00     0.253 C 
ATOM     11  O   UNL A   1      33.121  24.981  20.223  1.00  0.00    -0.269 OA
ATOM     12  H   UNL A   1      32.826  27.135  20.860  1.00  0.00     0.164 HD
BRANCH  10  13
ATOM     13  C   UNL A   1      33.018  24.119  22.412  1.00  0.00     0.059 A 
ATOM     14  C   UNL A   1      34.518  22.624  23.690  1.00  0.00     0.008 A 
ATOM     15  C   UNL A   1      33.425  21.925  24.180  1.00  0.00     0.016 A 
ATOM     16  C   UNL A   1      34.314  23.657  22.767  1.00  0.00     0.030 A 
ATOM     17  C   UNL A   1      32.147  22.364  23.872  1.00  0.00     0.022 A 
ATOM     18  C   UNL A   1      31.943  23.507  23.076  1.00  0.00     0.053 A 
ATOM     19  Cl  UNL A   1      30.356  24.151  23.275  1.00  0.00    -0.083 Cl
BRANCH  14  20
ATOM     20  S   UNL A   1      36.144  22.274  24.322  1.00  0.00    -0.130 SA
ATOM     21  C   UNL A   1      35.663  21.155  25.676  1.00  0.00     0.091 C 
ENDBRANCH  14  20
ENDBRANCH  10  13
ENDBRANCH   8   9
BRANCH   8  22
ATOM     22  C   UNL A   1      33.844  28.648  22.731  1.00  0.00     0.191 C 
BRANCH  22  23
ATOM     23  O   UNL A   1      33.518  29.724  23.614  1.00  0.00    -0.394 OA
ATOM     24  H   UNL A   1      34.211  30.402  23.568  1.00  0.00     0.210 HD
ENDBRANCH  22  23
ENDBRANCH   8  22
ENDBRANCH   5   8
ENDBRANCH   3   4
ENDBRANCH   2   3
ENDBRANCH   1   2
BRANCH   1  25
ATOM     25  C   UNL A   1      31.514  30.858  26.158  1.00  0.00     0.002 C 
BRANCH  25  26
ATOM     26  C   UNL A   1      31.355  32.284  26.686  1.00  0.00     0.021 C 
BRANCH  26  27
ATOM     27  C   UNL A   1      32.632  32.889  27.250  1.00  0.00     0.116 C 
BRANCH  27  28
ATOM     28  N   UNL A   1      32.445  34.267  27.670  1.00  0.00    -0.352 N 
ATOM     29  C   UNL A   1      33.063  34.943  28.687  1.00  0.00     0.251 C 
ATOM     30  H   UNL A   1      31.784  34.784  27.155  1.00  0.00     0.163 HD
ATOM     31  O   UNL A   1      32.656  36.045  29.046  1.00  0.00    -0.269 OA
BRANCH  29  32
ATOM     32  C   UNL A   1      34.217  34.323  29.366  1.00  0.00     0.039 A 
ATOM     33  C   UNL A   1      33.987  33.474  30.449  1.00  0.00     0.014 A 
ATOM     34  C   UNL A   1      35.520  34.568  28.920  1.00  0.00     0.014 A 
ATOM     35  C   UNL A   1      35.063  32.827  31.055  1.00  0.00     0.010 A 
ATOM     36  C   UNL A   1      36.580  33.858  29.470  1.00  0.00     0.010 A 
ATOM     37  C   UNL A   1      36.364  32.990  30.550  1.00  0.00    -0.014 A 
BRANCH  37  38
ATOM     38  C   UNL A   1      37.514  32.269  31.150  1.00  0.00     0.031 A 
ATOM     39  C   UNL A   1      38.013  32.652  32.513  1.00  0.00     0.074 A 
ATOM     40  C   UNL A   1      38.137  31.308  30.444  1.00  0.00     0.049 A 
ATOM     41  N   UNL A   1      39.036  32.185  33.183  1.00  0.00    -0.248 NA
ATOM     42  C   UNL A   1      37.283  33.726  33.206  1.00  0.00     0.031 C 
ATOM     43  C   UNL A   1      37.775  30.883  29.091  1.00  0.00     0.029 A 
ATOM     44  N   UNL A   1      39.217  30.522  30.761  1.00  0.00    -0.354 N 
ATOM     45  C   UNL A   1      39.073  32.908  34.368  1.00  0.00     0.074 A 
ATOM     46  C   UNL A   1      38.017  33.893  34.296  1.00  0.00     0.031 C 
ATOM     47  C   UNL A   1      38.603  29.902  28.701  1.00  0.00     0.029 A 
ATOM     48  C   UNL A   1      39.580  29.657  29.758  1.00  0.00     0.049 A 
ATOM     49  H   UNL A   1      39.685  30.574  31.625  1.00  0.00     0.167 HD
ATOM     50  C   UNL A   1      39.896  32.744  35.432  1.00  0.00     0.037 A 
ATOM     51  C   UNL A   1      40.596  28.776  29.694  1.00  0.00     0.037 A 
ATOM     52  C   UNL A   1      40.942  31.758  35.497  1.00  0.00     0.049 A 
ATOM     53  C   UNL A   1      41.513  28.629  30.878  1.00  0.00     0.074 A 
ATOM     54  C   UNL A   1      41.805  31.483  36.543  1.00  0.00     0.029 A 
ATOM     55  N   UNL A   1      41.273  30.889  34.467  1.00  0.00    -0.354 N 
ATOM     56  N   UNL A   1      41.498  29.271  32.021  1.00  0.00    -0.248 NA
ATOM     57  C   UNL A   1      42.581  27.627  30.767  1.00  0.00     0.031 C 
ATOM     58  C   UNL A   1      42.694  30.488  36.125  1.00  0.00     0.029 A 
ATOM     59  C   UNL A   1      42.344  30.094  34.843  1.00  0.00     0.049 A 
ATOM     60  H   UNL A   1      40.813  30.843  33.597  1.00  0.00     0.167 HD
ATOM     61  C   UNL A   1      42.534  28.735  32.775  1.00  0.00     0.074 A 
ATOM     62  C   UNL A   1      43.146  27.702  31.964  1.00  0.00     0.031 C 
ATOM     63  C   UNL A   1      42.941  29.068  34.024  1.00  0.00     0.037 A 
BRANCH  50  64
ATOM     64  C   UNL A   1      39.692  33.659  36.608  1.00  0.00     0.064 A 
ATOM     65  C   UNL A   1      38.877  33.293  37.691  1.00  0.00     0.173 A 
ATOM     66  C   UNL A   1      40.329  34.906  36.663  1.00  0.00     0.173 A 
ATOM     67  F   UNL A   1      38.234  32.115  37.688  1.00  0.00    -0.203 F 
ATOM     68  C   UNL A   1      38.676  34.160  38.763  1.00  0.00     0.198 A 
ATOM     69  C   UNL A   1      40.156  35.755  37.753  1.00  0.00     0.198 A 
ATOM     70  F   UNL A   1      41.125  35.305  35.658  1.00  0.00    -0.203 F 
ATOM     71  F   UNL A   1      37.842  33.815  39.754  1.00  0.00    -0.200 F 
ATOM     72  C   UNL A   1      39.321  35.387  38.796  1.00  0.00     0.200 A 
ATOM     73  F   UNL A   1      40.792  36.934  37.791  1.00  0.00    -0.200 F 
ATOM     74  F   UNL A   1      39.129  36.218  39.830  1.00  0.00    -0.200 F 
ENDBRANCH  50  64
BRANCH  51  75
ATOM     75  C   UNL A   1      40.787  27.959  28.467  1.00  0.00     0.064 A 
ATOM     76  C   UNL A   1      41.568  28.427  27.399  1.00  0.00     0.173 A 
ATOM     77  C   UNL A   1      40.201  26.691  28.339  1.00  0.00     0.173 A 
ATOM     78  F   UNL A   1      42.134  29.640  27.466  1.00  0.00    -0.203 F 
ATOM     79  C   UNL A   1      41.737  27.666  26.244  1.00  0.00     0.198 A 
ATOM     80  C   UNL A   1      40.399  25.918  27.196  1.00  0.00     0.198 A 
ATOM     81  F   UNL A   1      39.452  26.194  29.333  1.00  0.00    -0.203 F 
ATOM     82  F   UNL A   1      42.449  28.157  25.221  1.00  0.00    -0.200 F 
ATOM     83  C   UNL A   1      41.159  26.410  26.146  1.00  0.00     0.200 A 
ATOM     84  F   UNL A   1      39.852  24.697  27.114  1.00  0.00    -0.200 F 
ATOM     85  F   UNL A   1      41.329  25.676  25.038  1.00  0.00    -0.200 F 
ENDBRANCH  51  75
BRANCH  63  86
ATOM     86  C   UNL A   1      44.082  28.284  34.610  1.00  0.00     0.064 A 
ATOM     87  C   UNL A   1      45.410  28.725  34.511  1.00  0.00     0.173 A 
ATOM     88  C   UNL A   1      43.836  27.097  35.316  1.00  0.00     0.173 A 
ATOM     89  F   UNL A   1      45.701  29.846  33.834  1.00  0.00    -0.203 F 
ATOM     90  C   UNL A   1      46.451  27.991  35.072  1.00  0.00     0.198 A 
ATOM     91  C   UNL A   1      44.876  26.384  35.906  1.00  0.00     0.198 A 
ATOM     92  F   UNL A   1      42.584  26.633  35.447  1.00  0.00    -0.203 F 
ATOM     93  F   UNL A   1      47.718  28.403  34.920  1.00  0.00    -0.200 F 
ATOM     94  C   UNL A   1      46.183  26.827  35.776  1.00  0.00     0.200 A 
ATOM     95  F   UNL A   1      44.612  25.269  36.601  1.00  0.00    -0.200 F 
ATOM     96  F   UNL A   1      47.186  26.127  36.325  1.00  0.00    -0.200 F 
ENDBRANCH  63  86
ENDBRANCH  37  38
ENDBRANCH  29  32
ENDBRANCH  27  28
ENDBRANCH  26  27
ENDBRANCH  25  26
ENDBRANCH   1  25
TORSDOF 18
ENDMDL
MODEL 3
REMARK VINA RESULT:     -11.7      1.475      7.482
REMARK SMILES CSc1ccc(Cl)c(C(=O)N[C@@H](CO)C(=O)NCCCCCCNC(=O)c2ccc(-c3c4nc(c(-c5c(F)c(F)c(F)c(F)c5F)c5ccc([nH]5)c(-c5c(F)c(F)c(F)c(F)c5F)c5nc(c(-c6c(F)c(F)c(F)c(F)c6F)c6ccc3[nH]6)C=C5)C=C4)cc2)c1
REMARK SMILES IDX 20 1 19 2 18 3 17 4 15 5 16 6 12 8 11 9 9 10 10 11 8 13 3 14
REMARK SMILES IDX 4 15 90 16 5 17 6 18 7 19 2 20 1 21 13 22 14 23 21 25 22 26
REMARK SMILES IDX 23 27 24 28 25 29 26 31 27 32 28 33 89 34 29 35 88 36 30 37
REMARK SMILES IDX 31 38 32 39 82 40 33 41 87 42 81 43 83 44 34 45 86 46 80 47
REMARK SMILES IDX 79 48 35 50 67 51 47 52 66 53 48 54 51 55 65 56 84 57 49 58
REMARK SMILES IDX 50 59 64 61 85 62 52 63 36 64 37 65 45 66 38 67 39 68 43 69
REMARK SMILES IDX 46 70 40 71 41 72 44 73 42 74 68 75 69 76 77 77 70 78 71 79
REMARK SMILES IDX 75 80 78 81 72 82 73 83 76 84 74 85 53 86 54 87 62 88 55 89
REMARK SMILES IDX 56 90 60 91 63 92 57 93 58 94 61 95 59 96
REMARK H PARENT 17 7 11 12 14 24 24 30 83 49 51 60
REMARK Flexibility Score: inf
ROOT
ATOM      1  C   UNL A   1      32.442  29.868  26.695  1.00  0.00     0.002 C 
ENDROOT
BRANCH   1   2
ATOM      2  C   UNL A   1      31.704  28.677  27.317  1.00  0.00     0.021 C 
BRANCH   2   3
ATOM      3  C   UNL A   1      31.974  27.343  26.634  1.00  0.00     0.116 C 
BRANCH   3   4
ATOM      4  N   UNL A   1      30.896  26.418  26.885  1.00  0.00    -0.354 N 
ATOM      5  C   UNL A   1      30.059  25.772  26.043  1.00  0.00     0.244 C 
ATOM      6  O   UNL A   1      29.202  25.048  26.566  1.00  0.00    -0.273 OA
ATOM      7  H   UNL A   1      30.743  26.222  27.838  1.00  0.00     0.163 HD
BRANCH   5   8
ATOM      8  C   UNL A   1      30.170  25.841  24.512  1.00  0.00     0.197 C 
BRANCH   8   9
ATOM      9  N   UNL A   1      30.363  24.584  23.801  1.00  0.00    -0.338 N 
ATOM     10  C   UNL A   1      31.451  23.793  23.545  1.00  0.00     0.253 C 
ATOM     11  O   UNL A   1      31.210  22.844  22.789  1.00  0.00    -0.269 OA
ATOM     12  H   UNL A   1      29.529  24.225  23.420  1.00  0.00     0.164 HD
BRANCH  10  13
ATOM     13  C   UNL A   1      32.833  23.890  24.137  1.00  0.00     0.059 A 
ATOM     14  C   UNL A   1      34.669  22.472  24.994  1.00  0.00     0.008 A 
ATOM     15  C   UNL A   1      35.389  23.599  25.356  1.00  0.00     0.016 A 
ATOM     16  C   UNL A   1      33.383  22.621  24.460  1.00  0.00     0.030 A 
ATOM     17  C   UNL A   1      34.892  24.853  25.034  1.00  0.00     0.022 A 
ATOM     18  C   UNL A   1      33.672  24.996  24.345  1.00  0.00     0.053 A 
ATOM     19  Cl  UNL A   1      33.535  26.545  23.602  1.00  0.00    -0.083 Cl
BRANCH  14  20
ATOM     20  S   UNL A   1      35.426  20.865  25.113  1.00  0.00    -0.130 SA
ATOM     21  C   UNL A   1      33.910  19.858  25.068  1.00  0.00     0.091 C 
ENDBRANCH  14  20
ENDBRANCH  10  13
ENDBRANCH   8   9
BRANCH   8  22
ATOM     22  C   UNL A   1      29.024  26.665  23.884  1.00  0.00     0.191 C 
BRANCH  22  23
ATOM     23  O   UNL A   1      27.758  26.002  23.892  1.00  0.00    -0.394 OA
ATOM     24  H   UNL A   1      27.420  25.938  22.984  1.00  0.00     0.210 HD
ENDBRANCH  22  23
ENDBRANCH   8  22
ENDBRANCH   5   8
ENDBRANCH   3   4
ENDBRANCH   2   3
ENDBRANCH   1   2
BRANCH   1  25
ATOM     25  C   UNL A   1      31.547  30.887  25.984  1.00  0.00     0.002 C 
BRANCH  25  26
ATOM     26  C   UNL A   1      31.356  32.206  26.732  1.00  0.00     0.021 C 
BRANCH  26  27
ATOM     27  C   UNL A   1      32.650  32.855  27.199  1.00  0.00     0.116 C 
BRANCH  27  28
ATOM     28  N   UNL A   1      32.450  34.229  27.625  1.00  0.00    -0.352 N 
ATOM     29  C   UNL A   1      33.057  34.905  28.649  1.00  0.00     0.251 C 
ATOM     30  H   UNL A   1      31.788  34.744  27.109  1.00  0.00     0.163 HD
ATOM     31  O   UNL A   1      32.640  36.002  29.012  1.00  0.00    -0.269 OA
BRANCH  29  32
ATOM     32  C   UNL A   1      34.212  34.291  29.332  1.00  0.00     0.039 A 
ATOM     33  C   UNL A   1      33.982  33.419  30.396  1.00  0.00     0.014 A 
ATOM     34  C   UNL A   1      35.516  34.562  28.906  1.00  0.00     0.014 A 
ATOM     35  C   UNL A   1      35.060  32.778  31.004  1.00  0.00     0.010 A 
ATOM     36  C   UNL A   1      36.581  33.859  29.456  1.00  0.00     0.010 A 
ATOM     37  C   UNL A   1      36.364  32.969  30.518  1.00  0.00    -0.014 A 
BRANCH  37  38
ATOM     38  C   UNL A   1      37.518  32.254  31.119  1.00  0.00     0.031 A 
ATOM     39  C   UNL A   1      38.017  32.645  32.480  1.00  0.00     0.074 A 
ATOM     40  C   UNL A   1      38.145  31.294  30.415  1.00  0.00     0.049 A 
ATOM     41  N   UNL A   1      39.043  32.183  33.150  1.00  0.00    -0.248 NA
ATOM     42  C   UNL A   1      37.284  33.718  33.170  1.00  0.00     0.031 C 
ATOM     43  C   UNL A   1      37.783  30.862  29.064  1.00  0.00     0.029 A 
ATOM     44  N   UNL A   1      39.228  30.513  30.734  1.00  0.00    -0.354 N 
ATOM     45  C   UNL A   1      39.078  32.911  34.333  1.00  0.00     0.074 A 
ATOM     46  C   UNL A   1      38.018  33.892  34.258  1.00  0.00     0.031 C 
ATOM     47  C   UNL A   1      38.614  29.883  28.678  1.00  0.00     0.029 A 
ATOM     48  C   UNL A   1      39.593  29.646  29.734  1.00  0.00     0.049 A 
ATOM     49  H   UNL A   1      39.697  30.570  31.597  1.00  0.00     0.167 HD
ATOM     50  C   UNL A   1      39.903  32.755  35.397  1.00  0.00     0.037 A 
ATOM     51  C   UNL A   1      40.613  28.769  29.672  1.00  0.00     0.037 A 
ATOM     52  C   UNL A   1      40.953  31.772  35.464  1.00  0.00     0.049 A 
ATOM     53  C   UNL A   1      41.532  28.630  30.855  1.00  0.00     0.074 A 
ATOM     54  C   UNL A   1      41.818  31.504  36.510  1.00  0.00     0.029 A 
ATOM     55  N   UNL A   1      41.287  30.901  34.436  1.00  0.00    -0.354 N 
ATOM     56  N   UNL A   1      41.515  29.276  31.996  1.00  0.00    -0.248 NA
ATOM     57  C   UNL A   1      42.604  27.632  30.747  1.00  0.00     0.031 C 
ATOM     58  C   UNL A   1      42.711  30.511  36.095  1.00  0.00     0.029 A 
ATOM     59  C   UNL A   1      42.361  30.112  34.814  1.00  0.00     0.049 A 
ATOM     60  H   UNL A   1      40.826  30.851  33.567  1.00  0.00     0.167 HD
ATOM     61  C   UNL A   1      42.554  28.747  32.750  1.00  0.00     0.074 A 
ATOM     62  C   UNL A   1      43.169  27.713  31.943  1.00  0.00     0.031 C 
ATOM     63  C   UNL A   1      42.961  29.086  33.999  1.00  0.00     0.037 A 
BRANCH  50  64
ATOM     64  C   UNL A   1      39.696  33.672  36.570  1.00  0.00     0.064 A 
ATOM     65  C   UNL A   1      38.875  33.311  37.650  1.00  0.00     0.173 A 
ATOM     66  C   UNL A   1      40.337  34.918  36.624  1.00  0.00     0.173 A 
ATOM     67  F   UNL A   1      38.229  32.135  37.647  1.00  0.00    -0.203 F 
ATOM     68  C   UNL A   1      38.672  34.181  38.719  1.00  0.00     0.198 A 
ATOM     69  C   UNL A   1      40.162  35.770  37.712  1.00  0.00     0.198 A 
ATOM     70  F   UNL A   1      41.140  35.312  35.623  1.00  0.00    -0.203 F 
ATOM     71  F   UNL A   1      37.833  33.841  39.707  1.00  0.00    -0.200 F 
ATOM     72  C   UNL A   1      39.321  35.406  38.752  1.00  0.00     0.200 A 
ATOM     73  F   UNL A   1      40.802  36.946  37.751  1.00  0.00    -0.200 F 
ATOM     74  F   UNL A   1      39.127  36.240  39.784  1.00  0.00    -0.200 F 
ENDBRANCH  50  64
BRANCH  51  75
ATOM     75  C   UNL A   1      40.806  27.949  28.447  1.00  0.00     0.064 A 
ATOM     76  C   UNL A   1      40.214  26.683  28.322  1.00  0.00     0.173 A 
ATOM     77  C   UNL A   1      41.579  28.416  27.373  1.00  0.00     0.173 A 
ATOM     78  F   UNL A   1      39.481  26.185  29.328  1.00  0.00    -0.203 F 
ATOM     79  C   UNL A   1      40.406  25.909  27.179  1.00  0.00     0.198 A 
ATOM     80  C   UNL A   1      41.742  27.654  26.219  1.00  0.00     0.198 A 
ATOM     81  F   UNL A   1      42.161  29.622  27.440  1.00  0.00    -0.203 F 
ATOM     82  F   UNL A   1      39.867  24.685  27.105  1.00  0.00    -0.200 F 
ATOM     83  C   UNL A   1      41.163  26.397  26.126  1.00  0.00     0.200 A 
ATOM     84  F   UNL A   1      42.460  28.138  25.195  1.00  0.00    -0.200 F 
ATOM     85  F   UNL A   1      41.340  25.656  25.024  1.00  0.00    -0.200 F 
ENDBRANCH  51  75
BRANCH  63  86
ATOM     86  C   UNL A   1      44.106  28.308  34.586  1.00  0.00     0.064 A 
ATOM     87  C   UNL A   1      43.904  27.108  35.284  1.00  0.00     0.173 A 
ATOM     88  C   UNL A   1      45.426  28.751  34.410  1.00  0.00     0.173 A 
ATOM     89  F   UNL A   1      42.661  26.649  35.492  1.00  0.00    -0.203 F 
ATOM     90  C   UNL A   1      44.979  26.396  35.808  1.00  0.00     0.198 A 
ATOM     91  C   UNL A   1      46.501  28.018  34.905  1.00  0.00     0.198 A 
ATOM     92  F   UNL A   1      45.676  29.888  33.745  1.00  0.00    -0.203 F 
ATOM     93  F   UNL A   1      44.760  25.279  36.517  1.00  0.00    -0.200 F 
ATOM     94  C   UNL A   1      46.276  26.846  35.612  1.00  0.00     0.200 A 
ATOM     95  F   UNL A   1      47.754  28.446  34.698  1.00  0.00    -0.200 F 
ATOM     96  F   UNL A   1      47.310  26.154  36.108  1.00  0.00    -0.200 F 
ENDBRANCH  63  86
ENDBRANCH  37  38
ENDBRANCH  29  32
ENDBRANCH  27  28
ENDBRANCH  26  27
ENDBRANCH  25  26
ENDBRANCH   1  25
TORSDOF 18
ENDMDL
