MODEL 1
REMARK VINA RESULT:     -13.4      0.000      0.000
REMARK SMILES COc1ccc([C@H]2[NH2+][C@@H](C(=O)NCCCCCCNC(=O)c3ccc(-c4c5nc(c(-c6c(F)c(F)c(F)c(F)c6F)c6ccc([nH]6)c(-c6c(F)c(F)c(F)c(F)c6F)c6nc(c(-c7c(F)c(F)c(F)c(F)c7F)c7ccc4[nH]7)C=C6)C=C5)cc3)CC3=c4ccccc4=N[C@@H]32)cc1Cn1cc([N+](=O)[O-])cn1
REMARK SMILES IDX 14 1 13 2 12 3 10 4 11 5 9 7 7 8 8 9 94 10 86 13 93 14 85 15
REMARK SMILES IDX 87 16 92 17 88 18 91 19 89 20 90 21 6 22 3 23 4 24 96 25
REMARK SMILES IDX 5 26 95 27 2 28 1 29 97 30 98 31 99 32 105 33 100 34 104 35
REMARK SMILES IDX 101 36 102 37 103 38 15 39 16 40 17 41 18 42 19 43 20 44
REMARK SMILES IDX 21 46 22 47 23 48 84 49 24 50 83 51 25 52 26 53 27 54 77 55
REMARK SMILES IDX 28 56 82 57 76 58 78 59 29 60 81 61 75 62 74 63 30 65 62 66
REMARK SMILES IDX 42 67 61 68 43 69 46 70 60 71 79 72 44 73 45 74 59 76 80 77
REMARK SMILES IDX 47 78 31 79 32 80 40 81 33 82 34 83 38 84 41 85 35 86 36 87
REMARK SMILES IDX 39 88 37 89 63 90 64 91 72 92 65 93 66 94 70 95 73 96 67 97
REMARK SMILES IDX 68 98 71 99 69 100 48 101 49 102 57 103 50 104 51 105 55 106
REMARK SMILES IDX 58 107 52 108 53 109 56 110 54 111
REMARK H PARENT 12 6 8 11 8 12 19 45 78 64 46 75
REMARK Flexibility Score: inf
ROOT
ATOM      1  C   UNL A   1      32.302  27.867  26.520  1.00  0.00     0.021 C 
ENDROOT
BRANCH   1   2
ATOM      2  C   UNL A   1      31.348  26.732  26.884  1.00  0.00     0.116 C 
BRANCH   2   3
ATOM      3  N   UNL A   1      31.179  25.760  25.826  1.00  0.00    -0.351 N 
ATOM      4  C   UNL A   1      31.542  24.442  25.795  1.00  0.00     0.278 C 
ATOM      5  O   UNL A   1      31.011  23.724  24.943  1.00  0.00    -0.268 OA
ATOM      6  H   UNL A   1      30.742  26.095  25.010  1.00  0.00     0.163 HD
BRANCH   4   7
ATOM      7  C   UNL A   1      32.570  23.903  26.816  1.00  0.00     0.277 C 
ATOM      8  C   UNL A   1      34.639  23.786  25.390  1.00  0.00     0.243 C 
ATOM      9  N   UNL A   1      33.957  24.388  26.564  1.00  0.00    -0.327 N 
ATOM     10  C   UNL A   1      34.505  22.239  25.381  1.00  0.00     0.196 C 
ATOM     11  H   UNL A   1      33.917  25.398  26.422  1.00  0.00     0.347 HD
ATOM     12  H   UNL A   1      34.504  24.111  27.380  1.00  0.00     0.347 HD
ATOM     13  C   UNL A   1      33.367  21.588  26.077  1.00  0.00    -0.024 C 
ATOM     14  N   UNL A   1      35.548  21.186  25.191  1.00  0.00    -0.270 NA
ATOM     15  C   UNL A   1      32.465  22.369  26.963  1.00  0.00     0.109 C 
ATOM     16  C   UNL A   1      33.303  20.374  25.545  1.00  0.00     0.002 A 
ATOM     17  C   UNL A   1      34.693  20.191  25.013  1.00  0.00     0.066 A 
ATOM     18  C   UNL A   1      32.273  19.415  25.367  1.00  0.00     0.010 A 
ATOM     19  C   UNL A   1      34.917  18.944  24.251  1.00  0.00     0.028 A 
ATOM     20  C   UNL A   1      32.528  18.378  24.553  1.00  0.00     0.001 A 
ATOM     21  C   UNL A   1      33.855  18.156  23.993  1.00  0.00     0.002 A 
BRANCH   8  22
ATOM     22  C   UNL A   1      34.076  24.430  24.070  1.00  0.00     0.012 A 
ATOM     23  C   UNL A   1      33.158  25.690  21.693  1.00  0.00     0.123 A 
ATOM     24  C   UNL A   1      33.244  24.293  21.791  1.00  0.00     0.047 A 
ATOM     25  C   UNL A   1      33.399  26.469  22.810  1.00  0.00     0.016 A 
ATOM     26  C   UNL A   1      33.660  23.662  22.981  1.00  0.00     0.014 A 
ATOM     27  C   UNL A   1      33.973  25.834  23.910  1.00  0.00     0.019 A 
BRANCH  23  28
ATOM     28  O   UNL A   1      32.846  26.225  20.474  1.00  0.00    -0.496 OA
ATOM     29  C   UNL A   1      32.518  25.203  19.520  1.00  0.00     0.278 C 
ENDBRANCH  23  28
BRANCH  25  30
ATOM     30  C   UNL A   1      32.983  27.910  22.989  1.00  0.00     0.183 C 
BRANCH  30  31
ATOM     31  N   UNL A   1      31.524  28.042  22.880  1.00  0.00    -0.261 N 
ATOM     32  C   UNL A   1      30.817  29.102  22.373  1.00  0.00     0.194 A 
ATOM     33  N   UNL A   1      30.726  27.028  23.289  1.00  0.00    -0.174 NA
ATOM     34  C   UNL A   1      29.486  28.796  22.566  1.00  0.00     0.307 A 
ATOM     35  C   UNL A   1      29.488  27.509  23.127  1.00  0.00     0.220 A 
BRANCH  34  36
ATOM     36  N   UNL A   1      28.352  29.611  22.256  1.00  0.00     0.066 N 
ATOM     37  O   UNL A   1      27.498  29.736  23.142  1.00  0.00    -0.258 OA
ATOM     38  O   UNL A   1      28.307  30.115  21.126  1.00  0.00    -0.258 OA
ENDBRANCH  34  36
ENDBRANCH  30  31
ENDBRANCH  25  30
ENDBRANCH   8  22
ENDBRANCH   4   7
ENDBRANCH   2   3
ENDBRANCH   1   2
BRANCH   1  39
ATOM     39  C   UNL A   1      31.960  29.220  27.152  1.00  0.00     0.002 C 
BRANCH  39  40
ATOM     40  C   UNL A   1      31.811  30.383  26.172  1.00  0.00     0.002 C 
BRANCH  40  41
ATOM     41  C   UNL A   1      31.527  31.736  26.819  1.00  0.00     0.021 C 
BRANCH  41  42
ATOM     42  C   UNL A   1      32.774  32.498  27.252  1.00  0.00     0.116 C 
BRANCH  42  43
ATOM     43  N   UNL A   1      32.493  33.899  27.522  1.00  0.00    -0.352 N 
ATOM     44  C   UNL A   1      33.018  34.705  28.498  1.00  0.00     0.251 C 
ATOM     45  H   UNL A   1      31.838  34.325  26.923  1.00  0.00     0.163 HD
ATOM     46  O   UNL A   1      32.526  35.807  28.734  1.00  0.00    -0.269 OA
BRANCH  44  47
ATOM     47  C   UNL A   1      34.170  34.226  29.287  1.00  0.00     0.039 A 
ATOM     48  C   UNL A   1      33.939  33.518  30.466  1.00  0.00     0.014 A 
ATOM     49  C   UNL A   1      35.475  34.448  28.836  1.00  0.00     0.014 A 
ATOM     50  C   UNL A   1      35.019  32.972  31.162  1.00  0.00     0.010 A 
ATOM     51  C   UNL A   1      36.540  33.831  29.483  1.00  0.00     0.010 A 
ATOM     52  C   UNL A   1      36.324  33.090  30.654  1.00  0.00    -0.014 A 
BRANCH  52  53
ATOM     53  C   UNL A   1      37.471  32.436  31.332  1.00  0.00     0.031 A 
ATOM     54  C   UNL A   1      38.171  31.275  30.682  1.00  0.00     0.074 A 
ATOM     55  C   UNL A   1      37.840  32.848  32.561  1.00  0.00     0.049 A 
ATOM     56  N   UNL A   1      39.154  30.541  31.139  1.00  0.00    -0.248 NA
ATOM     57  C   UNL A   1      37.685  30.866  29.356  1.00  0.00     0.031 C 
ATOM     58  C   UNL A   1      37.202  33.928  33.316  1.00  0.00     0.029 A 
ATOM     59  N   UNL A   1      38.835  32.403  33.395  1.00  0.00    -0.354 N 
ATOM     60  C   UNL A   1      39.393  29.582  30.164  1.00  0.00     0.074 A 
ATOM     61  C   UNL A   1      38.416  29.787  29.118  1.00  0.00     0.031 C 
ATOM     62  C   UNL A   1      37.837  34.078  34.489  1.00  0.00     0.029 A 
ATOM     63  C   UNL A   1      38.897  33.080  34.589  1.00  0.00     0.049 A 
ATOM     64  H   UNL A   1      39.447  31.669  33.160  1.00  0.00     0.167 HD
ATOM     65  C   UNL A   1      40.357  28.631  30.134  1.00  0.00     0.037 A 
ATOM     66  C   UNL A   1      39.709  32.906  35.649  1.00  0.00     0.037 A 
ATOM     67  C   UNL A   1      41.340  28.445  31.169  1.00  0.00     0.049 A 
ATOM     68  C   UNL A   1      40.764  31.834  35.594  1.00  0.00     0.074 A 
ATOM     69  C   UNL A   1      42.398  27.554  31.203  1.00  0.00     0.029 A 
ATOM     70  N   UNL A   1      41.379  29.158  32.359  1.00  0.00    -0.354 N 
ATOM     71  N   UNL A   1      41.033  30.986  34.631  1.00  0.00    -0.248 NA
ATOM     72  C   UNL A   1      41.634  31.700  36.770  1.00  0.00     0.031 C 
ATOM     73  C   UNL A   1      43.041  27.685  32.438  1.00  0.00     0.029 A 
ATOM     74  C   UNL A   1      42.424  28.704  33.147  1.00  0.00     0.049 A 
ATOM     75  H   UNL A   1      40.756  29.878  32.607  1.00  0.00     0.167 HD
ATOM     76  C   UNL A   1      42.118  30.239  35.071  1.00  0.00     0.074 A 
ATOM     77  C   UNL A   1      42.470  30.748  36.380  1.00  0.00     0.031 C 
ATOM     78  C   UNL A   1      42.764  29.223  34.448  1.00  0.00     0.037 A 
BRANCH  65  79
ATOM     79  C   UNL A   1      40.398  27.715  28.943  1.00  0.00     0.064 A 
ATOM     80  C   UNL A   1      39.646  26.531  28.895  1.00  0.00     0.173 A 
ATOM     81  C   UNL A   1      41.165  28.048  27.817  1.00  0.00     0.173 A 
ATOM     82  F   UNL A   1      38.903  26.160  29.949  1.00  0.00    -0.203 F 
ATOM     83  C   UNL A   1      39.683  25.702  27.777  1.00  0.00     0.198 A 
ATOM     84  C   UNL A   1      41.174  27.235  26.687  1.00  0.00     0.198 A 
ATOM     85  F   UNL A   1      41.900  29.171  27.806  1.00  0.00    -0.203 F 
ATOM     86  F   UNL A   1      38.996  24.552  27.775  1.00  0.00    -0.200 F 
ATOM     87  C   UNL A   1      40.440  26.058  26.671  1.00  0.00     0.200 A 
ATOM     88  F   UNL A   1      41.893  27.589  25.613  1.00  0.00    -0.200 F 
ATOM     89  F   UNL A   1      40.466  25.265  25.591  1.00  0.00    -0.200 F 
ENDBRANCH  65  79
BRANCH  66  90
ATOM     90  C   UNL A   1      39.566  33.776  36.848  1.00  0.00     0.064 A 
ATOM     91  C   UNL A   1      38.787  33.375  37.943  1.00  0.00     0.173 A 
ATOM     92  C   UNL A   1      40.192  35.029  36.919  1.00  0.00     0.173 A 
ATOM     93  F   UNL A   1      38.152  32.194  37.916  1.00  0.00    -0.203 F 
ATOM     94  C   UNL A   1      38.619  34.204  39.050  1.00  0.00     0.198 A 
ATOM     95  C   UNL A   1      40.052  35.842  38.041  1.00  0.00     0.198 A 
ATOM     96  F   UNL A   1      40.955  35.458  35.902  1.00  0.00    -0.203 F 
ATOM     97  F   UNL A   1      37.827  33.818  40.059  1.00  0.00    -0.200 F 
ATOM     98  C   UNL A   1      39.257  35.435  39.101  1.00  0.00     0.200 A 
ATOM     99  F   UNL A   1      40.685  37.022  38.093  1.00  0.00    -0.200 F 
ATOM    100  F   UNL A   1      39.098  36.230  40.167  1.00  0.00    -0.200 F 
ENDBRANCH  66  90
BRANCH  78 101
ATOM    101  C   UNL A   1      43.940  28.616  35.158  1.00  0.00     0.064 A 
ATOM    102  C   UNL A   1      43.788  27.567  36.077  1.00  0.00     0.173 A 
ATOM    103  C   UNL A   1      45.242  29.065  34.887  1.00  0.00     0.173 A 
ATOM    104  F   UNL A   1      42.564  27.110  36.384  1.00  0.00    -0.203 F 
ATOM    105  C   UNL A   1      44.892  27.011  36.719  1.00  0.00     0.198 A 
ATOM    106  C   UNL A   1      46.346  28.483  35.503  1.00  0.00     0.198 A 
ATOM    107  F   UNL A   1      45.446  30.061  34.010  1.00  0.00    -0.203 F 
ATOM    108  F   UNL A   1      44.717  26.048  37.634  1.00  0.00    -0.200 F 
ATOM    109  C   UNL A   1      46.170  27.463  36.425  1.00  0.00     0.200 A 
ATOM    110  F   UNL A   1      47.581  28.910  35.204  1.00  0.00    -0.200 F 
ATOM    111  F   UNL A   1      47.231  26.920  37.037  1.00  0.00    -0.200 F 
ENDBRANCH  78 101
ENDBRANCH  52  53
ENDBRANCH  44  47
ENDBRANCH  42  43
ENDBRANCH  41  42
ENDBRANCH  40  41
ENDBRANCH  39  40
ENDBRANCH   1  39
TORSDOF 18
ENDMDL
MODEL 2
REMARK VINA RESULT:     -13.3      5.107     10.892
REMARK SMILES COc1ccc([C@H]2[NH2+][C@@H](C(=O)NCCCCCCNC(=O)c3ccc(-c4c5nc(c(-c6c(F)c(F)c(F)c(F)c6F)c6ccc([nH]6)c(-c6c(F)c(F)c(F)c(F)c6F)c6nc(c(-c7c(F)c(F)c(F)c(F)c7F)c7ccc4[nH]7)C=C6)C=C5)cc3)CC3=c4ccccc4=N[C@@H]32)cc1Cn1cc([N+](=O)[O-])cn1
REMARK SMILES IDX 14 1 13 2 12 3 10 4 11 5 9 7 7 8 8 9 94 10 86 13 93 14 85 15
REMARK SMILES IDX 87 16 92 17 88 18 91 19 89 20 90 21 6 22 3 23 4 24 96 25
REMARK SMILES IDX 5 26 95 27 2 28 1 29 97 30 98 31 99 32 105 33 100 34 104 35
REMARK SMILES IDX 101 36 102 37 103 38 15 39 16 40 17 41 18 42 19 43 20 44
REMARK SMILES IDX 21 46 22 47 23 48 84 49 24 50 83 51 25 52 26 53 27 54 77 55
REMARK SMILES IDX 28 56 82 57 76 58 78 59 29 60 81 61 75 62 74 63 30 65 62 66
REMARK SMILES IDX 42 67 61 68 43 69 46 70 60 71 79 72 44 73 45 74 59 76 80 77
REMARK SMILES IDX 47 78 31 79 32 80 40 81 33 82 34 83 38 84 41 85 35 86 36 87
REMARK SMILES IDX 39 88 37 89 63 90 64 91 72 92 65 93 66 94 70 95 73 96 67 97
REMARK SMILES IDX 68 98 71 99 69 100 48 101 49 102 57 103 50 104 51 105 55 106
REMARK SMILES IDX 58 107 52 108 53 109 56 110 54 111
REMARK H PARENT 12 6 8 11 8 12 19 45 78 64 46 75
REMARK Flexibility Score: inf
ROOT
ATOM      1  C   UNL A   1      35.580  23.137  24.059  1.00  0.00     0.021 C 
ENDROOT
BRANCH   1   2
ATOM      2  C   UNL A   1      34.810  23.349  22.758  1.00  0.00     0.116 C 
BRANCH   2   3
ATOM      3  N   UNL A   1      33.418  23.688  22.961  1.00  0.00    -0.351 N 
ATOM      4  C   UNL A   1      32.780  24.882  22.767  1.00  0.00     0.278 C 
ATOM      5  O   UNL A   1      31.549  24.863  22.680  1.00  0.00    -0.268 OA
ATOM      6  H   UNL A   1      32.848  22.954  23.288  1.00  0.00     0.163 HD
BRANCH   4   7
ATOM      7  C   UNL A   1      33.605  26.183  22.650  1.00  0.00     0.277 C 
ATOM      8  C   UNL A   1      33.317  27.137  24.961  1.00  0.00     0.243 C 
ATOM      9  N   UNL A   1      34.243  26.592  23.935  1.00  0.00    -0.327 N 
ATOM     10  C   UNL A   1      32.368  28.212  24.363  1.00  0.00     0.196 C 
ATOM     11  H   UNL A   1      34.706  25.774  24.330  1.00  0.00     0.347 HD
ATOM     12  H   UNL A   1      34.883  27.352  23.701  1.00  0.00     0.347 HD
ATOM     13  C   UNL A   1      32.051  28.199  22.913  1.00  0.00    -0.024 C 
ATOM     14  N   UNL A   1      32.031  29.579  24.861  1.00  0.00    -0.270 NA
ATOM     15  C   UNL A   1      32.787  27.308  21.977  1.00  0.00     0.109 C 
ATOM     16  C   UNL A   1      30.946  28.924  22.808  1.00  0.00     0.002 A 
ATOM     17  C   UNL A   1      30.999  29.758  24.054  1.00  0.00     0.066 A 
ATOM     18  C   UNL A   1      29.864  28.970  21.891  1.00  0.00     0.010 A 
ATOM     19  C   UNL A   1      29.820  30.620  24.285  1.00  0.00     0.028 A 
ATOM     20  C   UNL A   1      28.782  29.680  22.246  1.00  0.00     0.001 A 
ATOM     21  C   UNL A   1      28.767  30.498  23.452  1.00  0.00     0.002 A 
BRANCH   8  22
ATOM     22  C   UNL A   1      32.519  25.956  25.626  1.00  0.00     0.012 A 
ATOM     23  C   UNL A   1      31.170  23.822  26.932  1.00  0.00     0.123 A 
ATOM     24  C   UNL A   1      30.462  24.893  26.365  1.00  0.00     0.047 A 
ATOM     25  C   UNL A   1      32.537  23.729  26.743  1.00  0.00     0.016 A 
ATOM     26  C   UNL A   1      31.124  25.934  25.682  1.00  0.00     0.014 A 
ATOM     27  C   UNL A   1      33.178  24.852  26.221  1.00  0.00     0.019 A 
BRANCH  23  28
ATOM     28  O   UNL A   1      30.463  22.910  27.665  1.00  0.00    -0.496 OA
ATOM     29  C   UNL A   1      29.227  22.562  27.024  1.00  0.00     0.278 C 
ENDBRANCH  23  28
BRANCH  25  30
ATOM     30  C   UNL A   1      33.373  22.487  26.932  1.00  0.00     0.183 C 
BRANCH  30  31
ATOM     31  N   UNL A   1      32.971  21.445  25.979  1.00  0.00    -0.261 N 
ATOM     32  C   UNL A   1      33.168  20.092  26.088  1.00  0.00     0.194 A 
ATOM     33  N   UNL A   1      32.305  21.787  24.851  1.00  0.00    -0.174 NA
ATOM     34  C   UNL A   1      32.697  19.545  24.912  1.00  0.00     0.307 A 
ATOM     35  C   UNL A   1      32.175  20.631  24.192  1.00  0.00     0.220 A 
BRANCH  34  36
ATOM     36  N   UNL A   1      32.730  18.171  24.518  1.00  0.00     0.066 N 
ATOM     37  O   UNL A   1      33.426  17.891  23.534  1.00  0.00    -0.258 OA
ATOM     38  O   UNL A   1      32.054  17.373  25.180  1.00  0.00    -0.258 OA
ENDBRANCH  34  36
ENDBRANCH  30  31
ENDBRANCH  25  30
ENDBRANCH   8  22
ENDBRANCH   4   7
ENDBRANCH   2   3
ENDBRANCH   1   2
BRANCH   1  39
ATOM     39  C   UNL A   1      36.729  22.128  23.968  1.00  0.00     0.002 C 
BRANCH  39  40
ATOM     40  C   UNL A   1      36.686  20.991  24.989  1.00  0.00     0.002 C 
BRANCH  40  41
ATOM     41  C   UNL A   1      37.845  20.001  24.896  1.00  0.00     0.021 C 
BRANCH  41  42
ATOM     42  C   UNL A   1      39.065  20.384  25.724  1.00  0.00     0.116 C 
BRANCH  42  43
ATOM     43  N   UNL A   1      39.989  19.273  25.885  1.00  0.00    -0.352 N 
ATOM     44  C   UNL A   1      41.346  19.306  26.076  1.00  0.00     0.251 C 
ATOM     45  H   UNL A   1      39.585  18.375  25.852  1.00  0.00     0.163 HD
ATOM     46  O   UNL A   1      42.019  18.282  25.981  1.00  0.00    -0.269 OA
BRANCH  44  47
ATOM     47  C   UNL A   1      42.000  20.596  26.372  1.00  0.00     0.039 A 
ATOM     48  C   UNL A   1      42.387  21.420  25.315  1.00  0.00     0.014 A 
ATOM     49  C   UNL A   1      42.194  21.001  27.697  1.00  0.00     0.014 A 
ATOM     50  C   UNL A   1      42.911  22.685  25.588  1.00  0.00     0.010 A 
ATOM     51  C   UNL A   1      42.635  22.292  27.963  1.00  0.00     0.010 A 
ATOM     52  C   UNL A   1      43.000  23.146  26.912  1.00  0.00    -0.014 A 
BRANCH  52  53
ATOM     53  C   UNL A   1      43.467  24.523  27.213  1.00  0.00     0.031 A 
ATOM     54  C   UNL A   1      42.508  25.544  27.757  1.00  0.00     0.074 A 
ATOM     55  C   UNL A   1      44.740  24.869  26.936  1.00  0.00     0.049 A 
ATOM     56  N   UNL A   1      42.713  26.808  28.031  1.00  0.00    -0.248 NA
ATOM     57  C   UNL A   1      41.129  25.095  28.001  1.00  0.00     0.031 C 
ATOM     58  C   UNL A   1      45.749  23.981  26.354  1.00  0.00     0.029 A 
ATOM     59  N   UNL A   1      45.401  26.061  27.095  1.00  0.00    -0.354 N 
ATOM     60  C   UNL A   1      41.490  27.302  28.465  1.00  0.00     0.074 A 
ATOM     61  C   UNL A   1      40.534  26.222  28.363  1.00  0.00     0.031 C 
ATOM     62  C   UNL A   1      46.905  24.651  26.231  1.00  0.00     0.029 A 
ATOM     63  C   UNL A   1      46.710  26.026  26.683  1.00  0.00     0.049 A 
ATOM     64  H   UNL A   1      44.976  26.866  27.471  1.00  0.00     0.167 HD
ATOM     65  C   UNL A   1      41.197  28.540  28.930  1.00  0.00     0.037 A 
ATOM     66  C   UNL A   1      47.644  26.995  26.660  1.00  0.00     0.037 A 
ATOM     67  C   UNL A   1      42.157  29.606  29.048  1.00  0.00     0.049 A 
ATOM     68  C   UNL A   1      47.289  28.366  27.172  1.00  0.00     0.074 A 
ATOM     69  C   UNL A   1      41.976  30.875  29.569  1.00  0.00     0.029 A 
ATOM     70  N   UNL A   1      43.479  29.529  28.632  1.00  0.00    -0.354 N 
ATOM     71  N   UNL A   1      46.151  28.798  27.657  1.00  0.00    -0.248 NA
ATOM     72  C   UNL A   1      48.351  29.380  27.141  1.00  0.00     0.031 C 
ATOM     73  C   UNL A   1      43.170  31.587  29.412  1.00  0.00     0.029 A 
ATOM     74  C   UNL A   1      44.115  30.740  28.854  1.00  0.00     0.049 A 
ATOM     75  H   UNL A   1      43.901  28.733  28.236  1.00  0.00     0.167 HD
ATOM     76  C   UNL A   1      46.366  30.123  28.014  1.00  0.00     0.074 A 
ATOM     77  C   UNL A   1      47.750  30.417  27.708  1.00  0.00     0.031 C 
ATOM     78  C   UNL A   1      45.496  31.016  28.547  1.00  0.00     0.037 A 
BRANCH  65  79
ATOM     79  C   UNL A   1      39.779  28.812  29.347  1.00  0.00     0.064 A 
ATOM     80  C   UNL A   1      38.823  29.298  28.441  1.00  0.00     0.173 A 
ATOM     81  C   UNL A   1      39.360  28.543  30.658  1.00  0.00     0.173 A 
ATOM     82  F   UNL A   1      39.173  29.582  27.177  1.00  0.00    -0.203 F 
ATOM     83  C   UNL A   1      37.509  29.529  28.840  1.00  0.00     0.198 A 
ATOM     84  C   UNL A   1      38.037  28.744  31.045  1.00  0.00     0.198 A 
ATOM     85  F   UNL A   1      40.230  28.074  31.565  1.00  0.00    -0.203 F 
ATOM     86  F   UNL A   1      36.627  30.040  27.970  1.00  0.00    -0.200 F 
ATOM     87  C   UNL A   1      37.115  29.244  30.138  1.00  0.00     0.200 A 
ATOM     88  F   UNL A   1      37.654  28.452  32.296  1.00  0.00    -0.200 F 
ATOM     89  F   UNL A   1      35.848  29.457  30.518  1.00  0.00    -0.200 F 
ENDBRANCH  65  79
BRANCH  66  90
ATOM     90  C   UNL A   1      49.010  26.703  26.146  1.00  0.00     0.064 A 
ATOM     91  C   UNL A   1      49.976  26.100  26.964  1.00  0.00     0.173 A 
ATOM     92  C   UNL A   1      49.381  27.032  24.835  1.00  0.00     0.173 A 
ATOM     93  F   UNL A   1      49.677  25.784  28.233  1.00  0.00    -0.203 F 
ATOM     94  C   UNL A   1      51.268  25.862  26.499  1.00  0.00     0.198 A 
ATOM     95  C   UNL A   1      50.663  26.762  24.359  1.00  0.00     0.198 A 
ATOM     96  F   UNL A   1      48.493  27.603  24.008  1.00  0.00    -0.203 F 
ATOM     97  F   UNL A   1      52.187  25.333  27.319  1.00  0.00    -0.200 F 
ATOM     98  C   UNL A   1      51.608  26.187  25.194  1.00  0.00     0.200 A 
ATOM     99  F   UNL A   1      50.982  27.061  23.093  1.00  0.00    -0.200 F 
ATOM    100  F   UNL A   1      52.849  25.955  24.746  1.00  0.00    -0.200 F 
ENDBRANCH  66  90
BRANCH  78 101
ATOM    101  C   UNL A   1      46.023  32.386  28.866  1.00  0.00     0.064 A 
ATOM    102  C   UNL A   1      46.595  32.686  30.111  1.00  0.00     0.173 A 
ATOM    103  C   UNL A   1      45.990  33.402  27.899  1.00  0.00     0.173 A 
ATOM    104  F   UNL A   1      46.639  31.756  31.077  1.00  0.00    -0.203 F 
ATOM    105  C   UNL A   1      47.087  33.960  30.385  1.00  0.00     0.198 A 
ATOM    106  C   UNL A   1      46.515  34.663  28.163  1.00  0.00     0.198 A 
ATOM    107  F   UNL A   1      45.460  33.166  26.688  1.00  0.00    -0.203 F 
ATOM    108  F   UNL A   1      47.578  34.239  31.600  1.00  0.00    -0.200 F 
ATOM    109  C   UNL A   1      47.054  34.944  29.409  1.00  0.00     0.200 A 
ATOM    110  F   UNL A   1      46.497  35.608  27.212  1.00  0.00    -0.200 F 
ATOM    111  F   UNL A   1      47.536  36.166  29.671  1.00  0.00    -0.200 F 
ENDBRANCH  78 101
ENDBRANCH  52  53
ENDBRANCH  44  47
ENDBRANCH  42  43
ENDBRANCH  41  42
ENDBRANCH  40  41
ENDBRANCH  39  40
ENDBRANCH   1  39
TORSDOF 18
ENDMDL
MODEL 3
REMARK VINA RESULT:     -13.3      0.531      6.835
REMARK SMILES COc1ccc([C@H]2[NH2+][C@@H](C(=O)NCCCCCCNC(=O)c3ccc(-c4c5nc(c(-c6c(F)c(F)c(F)c(F)c6F)c6ccc([nH]6)c(-c6c(F)c(F)c(F)c(F)c6F)c6nc(c(-c7c(F)c(F)c(F)c(F)c7F)c7ccc4[nH]7)C=C6)C=C5)cc3)CC3=c4ccccc4=N[C@@H]32)cc1Cn1cc([N+](=O)[O-])cn1
REMARK SMILES IDX 14 1 13 2 12 3 10 4 11 5 9 7 7 8 8 9 94 10 86 13 93 14 85 15
REMARK SMILES IDX 87 16 92 17 88 18 91 19 89 20 90 21 6 22 3 23 4 24 96 25
REMARK SMILES IDX 5 26 95 27 2 28 1 29 97 30 98 31 99 32 105 33 100 34 104 35
REMARK SMILES IDX 101 36 102 37 103 38 15 39 16 40 17 41 18 42 19 43 20 44
REMARK SMILES IDX 21 46 22 47 23 48 84 49 24 50 83 51 25 52 26 53 27 54 77 55
REMARK SMILES IDX 28 56 82 57 76 58 78 59 29 60 81 61 75 62 74 63 30 65 62 66
REMARK SMILES IDX 42 67 61 68 43 69 46 70 60 71 79 72 44 73 45 74 59 76 80 77
REMARK SMILES IDX 47 78 31 79 32 80 40 81 33 82 34 83 38 84 41 85 35 86 36 87
REMARK SMILES IDX 39 88 37 89 63 90 64 91 72 92 65 93 66 94 70 95 73 96 67 97
REMARK SMILES IDX 68 98 71 99 69 100 48 101 49 102 57 103 50 104 51 105 55 106
REMARK SMILES IDX 58 107 52 108 53 109 56 110 54 111
REMARK H PARENT 12 6 8 11 8 12 19 45 78 64 46 75
REMARK Flexibility Score: inf
ROOT
ATOM      1  C   UNL A   1      32.050  27.943  26.338  1.00  0.00     0.021 C 
ENDROOT
BRANCH   1   2
ATOM      2  C   UNL A   1      30.976  26.900  26.637  1.00  0.00     0.116 C 
BRANCH   2   3
ATOM      3  N   UNL A   1      30.892  25.857  25.638  1.00  0.00    -0.351 N 
ATOM      4  C   UNL A   1      31.293  24.552  25.712  1.00  0.00     0.278 C 
ATOM      5  O   UNL A   1      30.829  23.765  24.882  1.00  0.00    -0.268 OA
ATOM      6  H   UNL A   1      30.490  26.126  24.780  1.00  0.00     0.163 HD
BRANCH   4   7
ATOM      7  C   UNL A   1      32.278  24.113  26.818  1.00  0.00     0.277 C 
ATOM      8  C   UNL A   1      34.449  24.112  25.546  1.00  0.00     0.243 C 
ATOM      9  N   UNL A   1      33.643  24.691  26.652  1.00  0.00    -0.327 N 
ATOM     10  C   UNL A   1      34.425  22.560  25.572  1.00  0.00     0.196 C 
ATOM     11  H   UNL A   1      33.542  25.691  26.479  1.00  0.00     0.347 HD
ATOM     12  H   UNL A   1      34.147  24.473  27.512  1.00  0.00     0.347 HD
ATOM     13  C   UNL A   1      33.288  21.844  26.203  1.00  0.00    -0.024 C 
ATOM     14  N   UNL A   1      35.550  21.580  25.486  1.00  0.00    -0.270 NA
ATOM     15  C   UNL A   1      32.271  22.579  27.000  1.00  0.00     0.109 C 
ATOM     16  C   UNL A   1      33.348  20.618  25.703  1.00  0.00     0.002 A 
ATOM     17  C   UNL A   1      34.783  20.523  25.276  1.00  0.00     0.066 A 
ATOM     18  C   UNL A   1      32.404  19.582  25.479  1.00  0.00     0.010 A 
ATOM     19  C   UNL A   1      35.149  19.278  24.567  1.00  0.00     0.028 A 
ATOM     20  C   UNL A   1      32.790  18.548  24.715  1.00  0.00     0.001 A 
ATOM     21  C   UNL A   1      34.167  18.409  24.257  1.00  0.00     0.002 A 
BRANCH   8  22
ATOM     22  C   UNL A   1      33.940  24.683  24.173  1.00  0.00     0.012 A 
ATOM     23  C   UNL A   1      33.119  25.811  21.696  1.00  0.00     0.123 A 
ATOM     24  C   UNL A   1      33.194  24.422  21.874  1.00  0.00     0.047 A 
ATOM     25  C   UNL A   1      33.321  26.651  22.776  1.00  0.00     0.016 A 
ATOM     26  C   UNL A   1      33.562  23.857  23.113  1.00  0.00     0.014 A 
ATOM     27  C   UNL A   1      33.850  26.076  23.931  1.00  0.00     0.019 A 
BRANCH  23  28
ATOM     28  O   UNL A   1      32.856  26.278  20.438  1.00  0.00    -0.496 OA
ATOM     29  C   UNL A   1      32.439  25.222  19.561  1.00  0.00     0.278 C 
ENDBRANCH  23  28
BRANCH  25  30
ATOM     30  C   UNL A   1      32.906  28.100  22.859  1.00  0.00     0.183 C 
BRANCH  30  31
ATOM     31  N   UNL A   1      31.446  28.224  22.754  1.00  0.00    -0.261 N 
ATOM     32  C   UNL A   1      30.728  29.314  22.330  1.00  0.00     0.194 A 
ATOM     33  N   UNL A   1      30.657  27.172  23.075  1.00  0.00    -0.174 NA
ATOM     34  C   UNL A   1      29.400  28.978  22.491  1.00  0.00     0.307 A 
ATOM     35  C   UNL A   1      29.415  27.650  22.947  1.00  0.00     0.220 A 
BRANCH  34  36
ATOM     36  N   UNL A   1      28.259  29.803  22.242  1.00  0.00     0.066 N 
ATOM     37  O   UNL A   1      28.402  30.719  21.422  1.00  0.00    -0.258 OA
ATOM     38  O   UNL A   1      27.224  29.547  22.872  1.00  0.00    -0.258 OA
ENDBRANCH  34  36
ENDBRANCH  30  31
ENDBRANCH  25  30
ENDBRANCH   8  22
ENDBRANCH   4   7
ENDBRANCH   2   3
ENDBRANCH   1   2
BRANCH   1  39
ATOM     39  C   UNL A   1      31.810  29.314  26.979  1.00  0.00     0.002 C 
BRANCH  39  40
ATOM     40  C   UNL A   1      31.688  30.482  26.002  1.00  0.00     0.002 C 
BRANCH  40  41
ATOM     41  C   UNL A   1      31.436  31.840  26.653  1.00  0.00     0.021 C 
BRANCH  41  42
ATOM     42  C   UNL A   1      32.680  32.492  27.245  1.00  0.00     0.116 C 
BRANCH  42  43
ATOM     43  N   UNL A   1      32.468  33.897  27.551  1.00  0.00    -0.352 N 
ATOM     44  C   UNL A   1      33.067  34.664  28.517  1.00  0.00     0.251 C 
ATOM     45  H   UNL A   1      31.806  34.361  26.989  1.00  0.00     0.163 HD
ATOM     46  O   UNL A   1      32.631  35.779  28.794  1.00  0.00    -0.269 OA
BRANCH  44  47
ATOM     47  C   UNL A   1      34.232  34.124  29.246  1.00  0.00     0.039 A 
ATOM     48  C   UNL A   1      34.022  33.369  30.400  1.00  0.00     0.014 A 
ATOM     49  C   UNL A   1      35.527  34.337  28.763  1.00  0.00     0.014 A 
ATOM     50  C   UNL A   1      35.110  32.768  31.035  1.00  0.00     0.010 A 
ATOM     51  C   UNL A   1      36.597  33.669  29.346  1.00  0.00     0.010 A 
ATOM     52  C   UNL A   1      36.400  32.880  30.490  1.00  0.00    -0.014 A 
BRANCH  52  53
ATOM     53  C   UNL A   1      37.553  32.171  31.100  1.00  0.00     0.031 A 
ATOM     54  C   UNL A   1      38.037  32.555  32.471  1.00  0.00     0.074 A 
ATOM     55  C   UNL A   1      38.202  31.225  30.393  1.00  0.00     0.049 A 
ATOM     56  N   UNL A   1      39.057  32.092  33.148  1.00  0.00    -0.248 NA
ATOM     57  C   UNL A   1      37.294  33.620  33.162  1.00  0.00     0.031 C 
ATOM     58  C   UNL A   1      37.861  30.804  29.033  1.00  0.00     0.029 A 
ATOM     59  N   UNL A   1      39.290  30.453  30.715  1.00  0.00    -0.354 N 
ATOM     60  C   UNL A   1      39.083  32.816  34.333  1.00  0.00     0.074 A 
ATOM     61  C   UNL A   1      38.015  33.788  34.260  1.00  0.00     0.031 C 
ATOM     62  C   UNL A   1      38.704  29.834  28.648  1.00  0.00     0.029 A 
ATOM     63  C   UNL A   1      39.672  29.593  29.714  1.00  0.00     0.049 A 
ATOM     64  H   UNL A   1      39.753  30.509  31.582  1.00  0.00     0.167 HD
ATOM     65  C   UNL A   1      39.908  32.664  35.396  1.00  0.00     0.037 A 
ATOM     66  C   UNL A   1      40.694  28.719  29.658  1.00  0.00     0.037 A 
ATOM     67  C   UNL A   1      40.956  31.680  35.471  1.00  0.00     0.049 A 
ATOM     68  C   UNL A   1      41.603  28.579  30.850  1.00  0.00     0.074 A 
ATOM     69  C   UNL A   1      41.803  31.402  36.529  1.00  0.00     0.029 A 
ATOM     70  N   UNL A   1      41.305  30.818  34.442  1.00  0.00    -0.354 N 
ATOM     71  N   UNL A   1      41.567  29.211  31.997  1.00  0.00    -0.248 NA
ATOM     72  C   UNL A   1      42.691  27.598  30.741  1.00  0.00     0.031 C 
ATOM     73  C   UNL A   1      42.705  30.415  36.120  1.00  0.00     0.029 A 
ATOM     74  C   UNL A   1      42.377  30.030  34.830  1.00  0.00     0.049 A 
ATOM     75  H   UNL A   1      40.858  30.773  33.566  1.00  0.00     0.167 HD
ATOM     76  C   UNL A   1      42.605  28.687  32.756  1.00  0.00     0.074 A 
ATOM     77  C   UNL A   1      43.240  27.670  31.945  1.00  0.00     0.031 C 
ATOM     78  C   UNL A   1      42.997  29.018  34.011  1.00  0.00     0.037 A 
BRANCH  65  79
ATOM     79  C   UNL A   1      39.713  33.584  36.568  1.00  0.00     0.064 A 
ATOM     80  C   UNL A   1      40.335  34.842  36.632  1.00  0.00     0.173 A 
ATOM     81  C   UNL A   1      38.858  33.224  37.620  1.00  0.00     0.173 A 
ATOM     82  F   UNL A   1      41.170  35.232  35.657  1.00  0.00    -0.203 F 
ATOM     83  C   UNL A   1      40.130  35.689  37.718  1.00  0.00     0.198 A 
ATOM     84  C   UNL A   1      38.629  34.087  38.688  1.00  0.00     0.198 A 
ATOM     85  F   UNL A   1      38.234  32.036  37.609  1.00  0.00    -0.203 F 
ATOM     86  F   UNL A   1      40.775  36.862  37.780  1.00  0.00    -0.200 F 
ATOM     87  C   UNL A   1      39.272  35.315  38.740  1.00  0.00     0.200 A 
ATOM     88  F   UNL A   1      37.786  33.731  39.668  1.00  0.00    -0.200 F 
ATOM     89  F   UNL A   1      39.067  36.136  39.779  1.00  0.00    -0.200 F 
ENDBRANCH  65  79
BRANCH  66  90
ATOM     90  C   UNL A   1      40.906  27.897  28.436  1.00  0.00     0.064 A 
ATOM     91  C   UNL A   1      41.709  28.360  27.384  1.00  0.00     0.173 A 
ATOM     92  C   UNL A   1      40.300  26.641  28.288  1.00  0.00     0.173 A 
ATOM     93  F   UNL A   1      42.296  29.563  27.469  1.00  0.00    -0.203 F 
ATOM     94  C   UNL A   1      41.878  27.609  26.221  1.00  0.00     0.198 A 
ATOM     95  C   UNL A   1      40.497  25.877  27.140  1.00  0.00     0.198 A 
ATOM     96  F   UNL A   1      39.527  26.148  29.267  1.00  0.00    -0.203 F 
ATOM     97  F   UNL A   1      42.608  28.100  25.211  1.00  0.00    -0.200 F 
ATOM     98  C   UNL A   1      41.276  26.366  26.103  1.00  0.00     0.200 A 
ATOM     99  F   UNL A   1      39.928  24.667  27.037  1.00  0.00    -0.200 F 
ATOM    100  F   UNL A   1      41.441  25.644  24.986  1.00  0.00    -0.200 F 
ENDBRANCH  66  90
BRANCH  78 101
ATOM    101  C   UNL A   1      44.146  28.250  34.600  1.00  0.00     0.064 A 
ATOM    102  C   UNL A   1      43.951  27.049  35.298  1.00  0.00     0.173 A 
ATOM    103  C   UNL A   1      45.463  28.702  34.429  1.00  0.00     0.173 A 
ATOM    104  F   UNL A   1      42.712  26.578  35.503  1.00  0.00    -0.203 F 
ATOM    105  C   UNL A   1      45.031  26.346  35.828  1.00  0.00     0.198 A 
ATOM    106  C   UNL A   1      46.542  27.979  34.929  1.00  0.00     0.198 A 
ATOM    107  F   UNL A   1      45.706  29.842  33.762  1.00  0.00    -0.203 F 
ATOM    108  F   UNL A   1      44.817  25.231  36.539  1.00  0.00    -0.200 F 
ATOM    109  C   UNL A   1      46.325  26.807  35.636  1.00  0.00     0.200 A 
ATOM    110  F   UNL A   1      47.792  28.418  34.728  1.00  0.00    -0.200 F 
ATOM    111  F   UNL A   1      47.362  26.125  36.140  1.00  0.00    -0.200 F 
ENDBRANCH  78 101
ENDBRANCH  52  53
ENDBRANCH  44  47
ENDBRANCH  42  43
ENDBRANCH  41  42
ENDBRANCH  40  41
ENDBRANCH  39  40
ENDBRANCH   1  39
TORSDOF 18
ENDMDL
