MODEL 1
REMARK VINA RESULT:     -14.0      0.000      0.000
REMARK SMILES NC(=O)COc1ccc(/C=C2\SC(=S)N(CCC(=O)NCCCCCCNC(=O)c3ccc(-c4c5nc(c(-c6c(F)c(F)c(F)c(F)c6F)c6ccc([nH]6)c(-c6c(F)c(F)c(F)c(F)c6F)c6nc(c(-c7c(F)c(F)c(F)c(F)c7F)c7ccc4[nH]7)C=C6)C=C5)cc3)C2=O)cc1
REMARK SMILES IDX 21 1 20 2 18 3 19 4 17 6 16 7 15 8 10 9 11 10 12 11 93 12
REMARK SMILES IDX 13 13 94 14 14 15 9 16 6 17 7 18 96 19 8 20 95 21 5 22 4 23
REMARK SMILES IDX 2 24 1 25 3 28 22 29 23 30 24 31 25 32 26 33 27 34 28 35
REMARK SMILES IDX 29 37 30 38 31 39 92 40 32 41 91 42 33 43 34 44 35 45 85 46
REMARK SMILES IDX 36 47 90 48 84 49 86 50 37 51 89 52 83 53 82 54 38 56 70 57
REMARK SMILES IDX 50 58 69 59 51 60 54 61 68 62 87 63 52 64 53 65 67 67 88 68
REMARK SMILES IDX 55 69 39 70 40 71 48 72 41 73 42 74 46 75 49 76 43 77 44 78
REMARK SMILES IDX 47 79 45 80 71 81 72 82 80 83 73 84 74 85 78 86 81 87 75 88
REMARK SMILES IDX 76 89 79 90 77 91 56 92 57 93 65 94 58 95 59 96 63 97 66 98
REMARK SMILES IDX 60 99 61 100 64 101 62 102
REMARK H PARENT 20 5 1 26 1 27 27 36 86 55 54 66
REMARK Flexibility Score: inf
ROOT
ATOM      1  C   UNL A   1      42.267  22.750  28.543  1.00  0.00     0.116 C 
ENDROOT
BRANCH   1   2
ATOM      2  N   UNL A   1      42.285  21.824  27.422  1.00  0.00    -0.356 N 
ATOM      3  C   UNL A   1      41.229  21.261  26.766  1.00  0.00     0.221 C 
ATOM      4  O   UNL A   1      41.423  20.260  26.078  1.00  0.00    -0.275 OA
ATOM      5  H   UNL A   1      43.178  21.571  27.093  1.00  0.00     0.163 HD
BRANCH   3   6
ATOM      6  C   UNL A   1      39.862  21.896  26.852  1.00  0.00     0.122 C 
BRANCH   6   7
ATOM      7  C   UNL A   1      39.084  21.843  25.535  1.00  0.00     0.137 C 
BRANCH   7   8
ATOM      8  N   UNL A   1      37.658  22.189  25.635  1.00  0.00    -0.292 N 
ATOM      9  C   UNL A   1      35.145  24.815  25.433  1.00  0.00     0.029 C 
ATOM     10  C   UNL A   1      35.758  23.641  25.824  1.00  0.00     0.081 C 
ATOM     11  S   UNL A   1      35.168  22.005  26.047  1.00  0.00    -0.054 SA
ATOM     12  C   UNL A   1      37.254  23.482  25.996  1.00  0.00     0.266 C 
ATOM     13  C   UNL A   1      36.650  21.265  25.487  1.00  0.00     0.148 C 
ATOM     14  O   UNL A   1      37.976  24.385  26.385  1.00  0.00    -0.268 OA
ATOM     15  S   UNL A   1      36.720  19.716  24.867  1.00  0.00    -0.052 S 
BRANCH   9  16
ATOM     16  C   UNL A   1      33.637  25.163  25.054  1.00  0.00    -0.024 A 
ATOM     17  C   UNL A   1      31.713  28.202  24.986  1.00  0.00     0.120 A 
ATOM     18  C   UNL A   1      31.380  26.964  26.391  1.00  0.00     0.047 A 
ATOM     19  C   UNL A   1      32.956  27.797  23.769  1.00  0.00     0.047 A 
ATOM     20  C   UNL A   1      32.331  25.361  26.291  1.00  0.00     0.012 A 
ATOM     21  C   UNL A   1      33.807  26.322  23.774  1.00  0.00     0.012 A 
BRANCH  17  22
ATOM     22  O   UNL A   1      30.930  29.188  24.398  1.00  0.00    -0.484 OA
BRANCH  22  23
ATOM     23  C   UNL A   1      29.982  28.622  23.430  1.00  0.00     0.329 C 
BRANCH  23  24
ATOM     24  C   UNL A   1      29.763  29.447  22.169  1.00  0.00     0.255 C 
ATOM     25  N   UNL A   1      30.892  30.018  21.669  1.00  0.00    -0.367 N 
ATOM     26  H   UNL A   1      30.846  30.569  20.855  1.00  0.00     0.159 HD
ATOM     27  H   UNL A   1      31.756  29.880  22.122  1.00  0.00     0.159 HD
ATOM     28  O   UNL A   1      28.670  29.609  21.637  1.00  0.00    -0.271 OA
ENDBRANCH  23  24
ENDBRANCH  22  23
ENDBRANCH  17  22
ENDBRANCH   9  16
ENDBRANCH   7   8
ENDBRANCH   6   7
ENDBRANCH   3   6
ENDBRANCH   1   2
BRANCH   1  29
ATOM     29  C   UNL A   1      43.452  23.687  28.401  1.00  0.00     0.021 C 
BRANCH  29  30
ATOM     30  C   UNL A   1      44.679  23.360  29.225  1.00  0.00     0.002 C 
BRANCH  30  31
ATOM     31  C   UNL A   1      45.655  24.542  29.339  1.00  0.00     0.002 C 
BRANCH  31  32
ATOM     32  C   UNL A   1      46.749  24.829  28.222  1.00  0.00     0.021 C 
BRANCH  32  33
ATOM     33  C   UNL A   1      46.790  24.531  26.395  1.00  0.00     0.116 C 
BRANCH  33  34
ATOM     34  N   UNL A   1      45.312  23.649  25.174  1.00  0.00    -0.352 N 
ATOM     35  C   UNL A   1      43.651  23.929  24.928  1.00  0.00     0.251 C 
ATOM     36  H   UNL A   1      45.662  22.912  24.623  1.00  0.00     0.163 HD
ATOM     37  O   UNL A   1      43.069  23.035  24.300  1.00  0.00    -0.269 OA
BRANCH  35  38
ATOM     38  C   UNL A   1      42.696  25.374  25.302  1.00  0.00     0.039 A 
ATOM     39  C   UNL A   1      43.368  26.606  25.433  1.00  0.00     0.014 A 
ATOM     40  C   UNL A   1      41.392  25.455  25.872  1.00  0.00     0.014 A 
ATOM     41  C   UNL A   1      42.947  27.612  26.394  1.00  0.00     0.010 A 
ATOM     42  C   UNL A   1      41.090  26.305  26.946  1.00  0.00     0.010 A 
ATOM     43  C   UNL A   1      41.884  27.386  27.283  1.00  0.00    -0.014 A 
BRANCH  43  44
ATOM     44  C   UNL A   1      41.506  28.126  28.549  1.00  0.00     0.031 A 
ATOM     45  C   UNL A   1      42.142  27.823  29.904  1.00  0.00     0.074 A 
ATOM     46  C   UNL A   1      40.367  28.858  28.554  1.00  0.00     0.049 A 
ATOM     47  N   UNL A   1      41.867  28.299  31.100  1.00  0.00    -0.248 NA
ATOM     48  C   UNL A   1      43.183  26.798  29.931  1.00  0.00     0.031 C 
ATOM     49  C   UNL A   1      39.516  29.100  27.382  1.00  0.00     0.029 A 
ATOM     50  N   UNL A   1      39.680  29.470  29.575  1.00  0.00    -0.354 N 
ATOM     51  C   UNL A   1      42.709  27.634  31.999  1.00  0.00     0.074 A 
ATOM     52  C   UNL A   1      43.426  26.647  31.227  1.00  0.00     0.031 C 
ATOM     53  C   UNL A   1      38.400  29.738  27.757  1.00  0.00     0.029 A 
ATOM     54  C   UNL A   1      38.504  30.060  29.172  1.00  0.00     0.049 A 
ATOM     55  H   UNL A   1      39.999  29.486  30.506  1.00  0.00     0.167 HD
ATOM     56  C   UNL A   1      42.909  27.866  33.327  1.00  0.00     0.037 A 
ATOM     57  C   UNL A   1      37.636  30.845  29.834  1.00  0.00     0.037 A 
ATOM     58  C   UNL A   1      42.211  28.900  34.058  1.00  0.00     0.049 A 
ATOM     59  C   UNL A   1      37.978  31.253  31.235  1.00  0.00     0.074 A 
ATOM     60  C   UNL A   1      42.441  29.375  35.339  1.00  0.00     0.029 A 
ATOM     61  N   UNL A   1      41.137  29.620  33.556  1.00  0.00    -0.354 N 
ATOM     62  N   UNL A   1      38.921  30.792  32.019  1.00  0.00    -0.248 NA
ATOM     63  C   UNL A   1      37.186  32.342  31.814  1.00  0.00     0.031 C 
ATOM     64  C   UNL A   1      41.483  30.357  35.622  1.00  0.00     0.029 A 
ATOM     65  C   UNL A   1      40.692  30.533  34.499  1.00  0.00     0.049 A 
ATOM     66  H   UNL A   1      40.747  29.500  32.660  1.00  0.00     0.167 HD
ATOM     67  C   UNL A   1      38.866  31.563  33.170  1.00  0.00     0.074 A 
ATOM     68  C   UNL A   1      37.808  32.533  32.968  1.00  0.00     0.031 C 
ATOM     69  C   UNL A   1      39.625  31.479  34.290  1.00  0.00     0.037 A 
BRANCH  56  70
ATOM     70  C   UNL A   1      43.967  27.070  34.071  1.00  0.00     0.064 A 
ATOM     71  C   UNL A   1      43.652  25.877  34.746  1.00  0.00     0.173 A 
ATOM     72  C   UNL A   1      45.327  27.429  34.024  1.00  0.00     0.173 A 
ATOM     73  F   UNL A   1      42.381  25.450  34.803  1.00  0.00    -0.203 F 
ATOM     74  C   UNL A   1      44.633  25.111  35.379  1.00  0.00     0.198 A 
ATOM     75  C   UNL A   1      46.313  26.639  34.623  1.00  0.00     0.198 A 
ATOM     76  F   UNL A   1      45.715  28.535  33.370  1.00  0.00    -0.203 F 
ATOM     77  F   UNL A   1      44.286  24.005  36.052  1.00  0.00    -0.200 F 
ATOM     78  C   UNL A   1      45.963  25.488  35.311  1.00  0.00     0.200 A 
ATOM     79  F   UNL A   1      47.604  26.987  34.523  1.00  0.00    -0.200 F 
ATOM     80  F   UNL A   1      46.907  24.740  35.900  1.00  0.00    -0.200 F 
ENDBRANCH  56  70
BRANCH  57  81
ATOM     81  C   UNL A   1      36.510  31.461  29.085  1.00  0.00     0.064 A 
ATOM     82  C   UNL A   1      35.373  30.703  28.767  1.00  0.00     0.173 A 
ATOM     83  C   UNL A   1      36.495  32.826  28.766  1.00  0.00     0.173 A 
ATOM     84  F   UNL A   1      35.335  29.397  29.070  1.00  0.00    -0.203 F 
ATOM     85  C   UNL A   1      34.277  31.278  28.130  1.00  0.00     0.198 A 
ATOM     86  C   UNL A   1      35.384  33.406  28.154  1.00  0.00     0.198 A 
ATOM     87  F   UNL A   1      37.537  33.604  29.092  1.00  0.00    -0.203 F 
ATOM     88  F   UNL A   1      33.217  30.521  27.814  1.00  0.00    -0.200 F 
ATOM     89  C   UNL A   1      34.280  32.631  27.830  1.00  0.00     0.200 A 
ATOM     90  F   UNL A   1      35.374  34.722  27.897  1.00  0.00    -0.200 F 
ATOM     91  F   UNL A   1      33.217  33.188  27.235  1.00  0.00    -0.200 F 
ENDBRANCH  57  81
BRANCH  69  92
ATOM     92  C   UNL A   1      39.340  32.473  35.376  1.00  0.00     0.064 A 
ATOM     93  C   UNL A   1      39.939  33.742  35.386  1.00  0.00     0.173 A 
ATOM     94  C   UNL A   1      38.456  32.154  36.418  1.00  0.00     0.173 A 
ATOM     95  F   UNL A   1      40.803  34.089  34.420  1.00  0.00    -0.203 F 
ATOM     96  C   UNL A   1      39.699  34.638  36.423  1.00  0.00     0.198 A 
ATOM     97  C   UNL A   1      38.189  33.068  37.433  1.00  0.00     0.198 A 
ATOM     98  F   UNL A   1      37.853  30.957  36.453  1.00  0.00    -0.203 F 
ATOM     99  F   UNL A   1      40.340  35.814  36.450  1.00  0.00    -0.200 F 
ATOM    100  C   UNL A   1      38.820  34.303  37.442  1.00  0.00     0.200 A 
ATOM    101  F   UNL A   1      37.328  32.749  38.409  1.00  0.00    -0.200 F 
ATOM    102  F   UNL A   1      38.592  35.166  38.441  1.00  0.00    -0.200 F 
ENDBRANCH  69  92
ENDBRANCH  43  44
ENDBRANCH  35  38
ENDBRANCH  33  34
ENDBRANCH  32  33
ENDBRANCH  31  32
ENDBRANCH  30  31
ENDBRANCH  29  30
ENDBRANCH   1  29
TORSDOF 19
ENDMDL
MODEL 2
REMARK VINA RESULT:     -13.5      1.101      7.040
REMARK SMILES NC(=O)COc1ccc(/C=C2\SC(=S)N(CCC(=O)NCCCCCCNC(=O)c3ccc(-c4c5nc(c(-c6c(F)c(F)c(F)c(F)c6F)c6ccc([nH]6)c(-c6c(F)c(F)c(F)c(F)c6F)c6nc(c(-c7c(F)c(F)c(F)c(F)c7F)c7ccc4[nH]7)C=C6)C=C5)cc3)C2=O)cc1
REMARK SMILES IDX 21 1 20 2 18 3 19 4 17 6 16 7 15 8 10 9 11 10 12 11 93 12
REMARK SMILES IDX 13 13 94 14 14 15 9 16 6 17 7 18 96 19 8 20 95 21 5 22 4 23
REMARK SMILES IDX 2 24 1 25 3 28 22 29 23 30 24 31 25 32 26 33 27 34 28 35
REMARK SMILES IDX 29 37 30 38 31 39 92 40 32 41 91 42 33 43 34 44 35 45 85 46
REMARK SMILES IDX 36 47 90 48 84 49 86 50 37 51 89 52 83 53 82 54 38 56 70 57
REMARK SMILES IDX 50 58 69 59 51 60 54 61 68 62 87 63 52 64 53 65 67 67 88 68
REMARK SMILES IDX 55 69 39 70 40 71 48 72 41 73 42 74 46 75 49 76 43 77 44 78
REMARK SMILES IDX 47 79 45 80 71 81 72 82 80 83 73 84 74 85 78 86 81 87 75 88
REMARK SMILES IDX 76 89 79 90 77 91 56 92 57 93 65 94 58 95 59 96 63 97 66 98
REMARK SMILES IDX 60 99 61 100 64 101 62 102
REMARK H PARENT 20 5 1 26 1 27 27 36 86 55 54 66
REMARK Flexibility Score: inf
ROOT
ATOM      1  C   UNL A   1      42.315  22.654  28.952  1.00  0.00     0.116 C 
ENDROOT
BRANCH   1   2
ATOM      2  N   UNL A   1      42.424  21.801  27.780  1.00  0.00    -0.356 N 
ATOM      3  C   UNL A   1      41.423  21.227  27.050  1.00  0.00     0.221 C 
ATOM      4  O   UNL A   1      41.695  20.282  26.311  1.00  0.00    -0.275 OA
ATOM      5  H   UNL A   1      43.340  21.614  27.472  1.00  0.00     0.163 HD
BRANCH   3   6
ATOM      6  C   UNL A   1      40.022  21.786  27.120  1.00  0.00     0.122 C 
BRANCH   6   7
ATOM      7  C   UNL A   1      39.455  22.175  25.753  1.00  0.00     0.137 C 
BRANCH   7   8
ATOM      8  N   UNL A   1      37.987  22.187  25.663  1.00  0.00    -0.292 N 
ATOM      9  C   UNL A   1      34.994  24.169  25.057  1.00  0.00     0.029 C 
ATOM     10  C   UNL A   1      35.801  23.168  25.563  1.00  0.00     0.081 C 
ATOM     11  S   UNL A   1      35.572  21.442  25.771  1.00  0.00    -0.054 SA
ATOM     12  C   UNL A   1      37.259  23.356  25.924  1.00  0.00     0.266 C 
ATOM     13  C   UNL A   1      37.241  21.056  25.425  1.00  0.00     0.148 C 
ATOM     14  O   UNL A   1      37.702  24.403  26.367  1.00  0.00    -0.268 OA
ATOM     15  S   UNL A   1      37.738  19.560  24.875  1.00  0.00    -0.052 S 
BRANCH   9  16
ATOM     16  C   UNL A   1      33.508  24.159  24.483  1.00  0.00    -0.024 A 
ATOM     17  C   UNL A   1      31.247  26.722  23.357  1.00  0.00     0.120 A 
ATOM     18  C   UNL A   1      30.910  25.909  25.043  1.00  0.00     0.047 A 
ATOM     19  C   UNL A   1      32.661  26.174  22.414  1.00  0.00     0.047 A 
ATOM     20  C   UNL A   1      32.055  24.508  25.503  1.00  0.00     0.012 A 
ATOM     21  C   UNL A   1      33.680  24.910  22.927  1.00  0.00     0.012 A 
BRANCH  17  22
ATOM     22  O   UNL A   1      30.421  27.366  22.443  1.00  0.00    -0.484 OA
BRANCH  22  23
ATOM     23  C   UNL A   1      29.806  28.568  23.021  1.00  0.00     0.329 C 
BRANCH  23  24
ATOM     24  C   UNL A   1      29.859  29.814  22.147  1.00  0.00     0.255 C 
ATOM     25  N   UNL A   1      31.046  30.004  21.511  1.00  0.00    -0.367 N 
ATOM     26  H   UNL A   1      31.172  30.784  20.925  1.00  0.00     0.159 HD
ATOM     27  H   UNL A   1      31.781  29.360  21.638  1.00  0.00     0.159 HD
ATOM     28  O   UNL A   1      28.928  30.602  22.021  1.00  0.00    -0.271 OA
ENDBRANCH  23  24
ENDBRANCH  22  23
ENDBRANCH  17  22
ENDBRANCH   9  16
ENDBRANCH   7   8
ENDBRANCH   6   7
ENDBRANCH   3   6
ENDBRANCH   1   2
BRANCH   1  29
ATOM     29  C   UNL A   1      43.320  23.783  28.810  1.00  0.00     0.021 C 
BRANCH  29  30
ATOM     30  C   UNL A   1      44.689  23.555  29.415  1.00  0.00     0.002 C 
BRANCH  30  31
ATOM     31  C   UNL A   1      45.438  24.863  29.709  1.00  0.00     0.002 C 
BRANCH  31  32
ATOM     32  C   UNL A   1      46.277  25.614  28.586  1.00  0.00     0.021 C 
BRANCH  32  33
ATOM     33  C   UNL A   1      46.285  25.504  26.738  1.00  0.00     0.116 C 
BRANCH  33  34
ATOM     34  N   UNL A   1      45.062  24.326  25.486  1.00  0.00    -0.352 N 
ATOM     35  C   UNL A   1      43.381  24.199  25.244  1.00  0.00     0.251 C 
ATOM     36  H   UNL A   1      45.578  23.713  24.914  1.00  0.00     0.163 HD
ATOM     37  O   UNL A   1      43.032  23.210  24.587  1.00  0.00    -0.269 OA
BRANCH  35  38
ATOM     38  C   UNL A   1      42.105  25.356  25.658  1.00  0.00     0.039 A 
ATOM     39  C   UNL A   1      42.368  26.730  25.496  1.00  0.00     0.014 A 
ATOM     40  C   UNL A   1      40.967  25.161  26.496  1.00  0.00     0.014 A 
ATOM     41  C   UNL A   1      41.832  27.728  26.408  1.00  0.00     0.010 A 
ATOM     42  C   UNL A   1      40.612  26.065  27.507  1.00  0.00     0.010 A 
ATOM     43  C   UNL A   1      41.073  27.368  27.533  1.00  0.00    -0.014 A 
BRANCH  43  44
ATOM     44  C   UNL A   1      40.716  28.180  28.761  1.00  0.00     0.031 A 
ATOM     45  C   UNL A   1      39.557  29.174  28.786  1.00  0.00     0.074 A 
ATOM     46  C   UNL A   1      41.621  28.265  29.765  1.00  0.00     0.049 A 
ATOM     47  N   UNL A   1      39.176  30.015  29.724  1.00  0.00    -0.248 NA
ATOM     48  C   UNL A   1      38.758  29.288  27.567  1.00  0.00     0.031 C 
ATOM     49  C   UNL A   1      42.888  27.526  29.822  1.00  0.00     0.029 A 
ATOM     50  N   UNL A   1      41.665  29.055  30.889  1.00  0.00    -0.354 N 
ATOM     51  C   UNL A   1      38.095  30.736  29.201  1.00  0.00     0.074 A 
ATOM     52  C   UNL A   1      37.951  30.310  27.829  1.00  0.00     0.031 C 
ATOM     53  C   UNL A   1      43.609  27.943  30.869  1.00  0.00     0.029 A 
ATOM     54  C   UNL A   1      42.812  28.891  31.632  1.00  0.00     0.049 A 
ATOM     55  H   UNL A   1      40.945  29.677  31.140  1.00  0.00     0.167 HD
ATOM     56  C   UNL A   1      37.265  31.620  29.822  1.00  0.00     0.037 A 
ATOM     57  C   UNL A   1      43.162  29.379  32.835  1.00  0.00     0.037 A 
ATOM     58  C   UNL A   1      37.406  31.984  31.214  1.00  0.00     0.049 A 
ATOM     59  C   UNL A   1      42.154  30.187  33.592  1.00  0.00     0.074 A 
ATOM     60  C   UNL A   1      36.544  32.707  32.023  1.00  0.00     0.029 A 
ATOM     61  N   UNL A   1      38.495  31.643  32.004  1.00  0.00    -0.354 N 
ATOM     62  N   UNL A   1      41.015  30.682  33.175  1.00  0.00    -0.248 NA
ATOM     63  C   UNL A   1      42.441  30.438  35.008  1.00  0.00     0.031 C 
ATOM     64  C   UNL A   1      37.129  32.831  33.289  1.00  0.00     0.029 A 
ATOM     65  C   UNL A   1      38.329  32.140  33.286  1.00  0.00     0.049 A 
ATOM     66  H   UNL A   1      39.273  31.124  31.697  1.00  0.00     0.167 HD
ATOM     67  C   UNL A   1      40.427  31.268  34.285  1.00  0.00     0.074 A 
ATOM     68  C   UNL A   1      41.331  31.046  35.398  1.00  0.00     0.031 C 
ATOM     69  C   UNL A   1      39.245  31.926  34.378  1.00  0.00     0.037 A 
BRANCH  56  70
ATOM     70  C   UNL A   1      36.086  32.197  29.060  1.00  0.00     0.064 A 
ATOM     71  C   UNL A   1      35.000  31.395  28.666  1.00  0.00     0.173 A 
ATOM     72  C   UNL A   1      35.972  33.578  28.813  1.00  0.00     0.173 A 
ATOM     73  F   UNL A   1      35.018  30.073  28.900  1.00  0.00    -0.203 F 
ATOM     74  C   UNL A   1      33.886  31.934  28.019  1.00  0.00     0.198 A 
ATOM     75  C   UNL A   1      34.838  34.121  28.202  1.00  0.00     0.198 A 
ATOM     76  F   UNL A   1      36.950  34.417  29.190  1.00  0.00    -0.203 F 
ATOM     77  F   UNL A   1      32.892  31.129  27.617  1.00  0.00    -0.200 F 
ATOM     78  C   UNL A   1      33.802  33.297  27.795  1.00  0.00     0.200 A 
ATOM     79  F   UNL A   1      34.744  35.447  28.021  1.00  0.00    -0.200 F 
ATOM     80  F   UNL A   1      32.722  33.817  27.194  1.00  0.00    -0.200 F 
ENDBRANCH  56  70
BRANCH  57  81
ATOM     81  C   UNL A   1      44.426  28.907  33.460  1.00  0.00     0.064 A 
ATOM     82  C   UNL A   1      44.462  27.686  34.148  1.00  0.00     0.173 A 
ATOM     83  C   UNL A   1      45.633  29.601  33.297  1.00  0.00     0.173 A 
ATOM     84  F   UNL A   1      43.335  26.978  34.312  1.00  0.00    -0.203 F 
ATOM     85  C   UNL A   1      45.650  27.190  34.679  1.00  0.00     0.198 A 
ATOM     86  C   UNL A   1      46.828  29.089  33.805  1.00  0.00     0.198 A 
ATOM     87  F   UNL A   1      45.661  30.749  32.606  1.00  0.00    -0.203 F 
ATOM     88  F   UNL A   1      45.646  26.034  35.356  1.00  0.00    -0.200 F 
ATOM     89  C   UNL A   1      46.833  27.889  34.501  1.00  0.00     0.200 A 
ATOM     90  F   UNL A   1      47.977  29.748  33.601  1.00  0.00    -0.200 F 
ATOM     91  F   UNL A   1      47.980  27.402  34.994  1.00  0.00    -0.200 F 
ENDBRANCH  57  81
BRANCH  69  92
ATOM     92  C   UNL A   1      38.863  32.440  35.734  1.00  0.00     0.064 A 
ATOM     93  C   UNL A   1      39.152  33.755  36.129  1.00  0.00     0.173 A 
ATOM     94  C   UNL A   1      38.199  31.609  36.648  1.00  0.00     0.173 A 
ATOM     95  F   UNL A   1      39.800  34.584  35.297  1.00  0.00    -0.203 F 
ATOM     96  C   UNL A   1      38.832  34.204  37.406  1.00  0.00     0.198 A 
ATOM     97  C   UNL A   1      37.845  32.075  37.911  1.00  0.00     0.198 A 
ATOM     98  F   UNL A   1      37.894  30.345  36.318  1.00  0.00    -0.203 F 
ATOM     99  F   UNL A   1      39.185  35.440  37.787  1.00  0.00    -0.200 F 
ATOM    100  C   UNL A   1      38.173  33.367  38.293  1.00  0.00     0.200 A 
ATOM    101  F   UNL A   1      37.195  31.269  38.762  1.00  0.00    -0.200 F 
ATOM    102  F   UNL A   1      37.866  33.801  39.524  1.00  0.00    -0.200 F 
ENDBRANCH  69  92
ENDBRANCH  43  44
ENDBRANCH  35  38
ENDBRANCH  33  34
ENDBRANCH  32  33
ENDBRANCH  31  32
ENDBRANCH  30  31
ENDBRANCH  29  30
ENDBRANCH   1  29
TORSDOF 19
ENDMDL
MODEL 3
REMARK VINA RESULT:     -13.2      4.856     10.854
REMARK SMILES NC(=O)COc1ccc(/C=C2\SC(=S)N(CCC(=O)NCCCCCCNC(=O)c3ccc(-c4c5nc(c(-c6c(F)c(F)c(F)c(F)c6F)c6ccc([nH]6)c(-c6c(F)c(F)c(F)c(F)c6F)c6nc(c(-c7c(F)c(F)c(F)c(F)c7F)c7ccc4[nH]7)C=C6)C=C5)cc3)C2=O)cc1
REMARK SMILES IDX 21 1 20 2 18 3 19 4 17 6 16 7 15 8 10 9 11 10 12 11 93 12
REMARK SMILES IDX 13 13 94 14 14 15 9 16 6 17 7 18 96 19 8 20 95 21 5 22 4 23
REMARK SMILES IDX 2 24 1 25 3 28 22 29 23 30 24 31 25 32 26 33 27 34 28 35
REMARK SMILES IDX 29 37 30 38 31 39 92 40 32 41 91 42 33 43 34 44 35 45 85 46
REMARK SMILES IDX 36 47 90 48 84 49 86 50 37 51 89 52 83 53 82 54 38 56 70 57
REMARK SMILES IDX 50 58 69 59 51 60 54 61 68 62 87 63 52 64 53 65 67 67 88 68
REMARK SMILES IDX 55 69 39 70 40 71 48 72 41 73 42 74 46 75 49 76 43 77 44 78
REMARK SMILES IDX 47 79 45 80 71 81 72 82 80 83 73 84 74 85 78 86 81 87 75 88
REMARK SMILES IDX 76 89 79 90 77 91 56 92 57 93 65 94 58 95 59 96 63 97 66 98
REMARK SMILES IDX 60 99 61 100 64 101 62 102
REMARK H PARENT 20 5 1 26 1 27 27 36 86 55 54 66
REMARK Flexibility Score: inf
ROOT
ATOM      1  C   UNL A   1      34.303  29.210  26.863  1.00  0.00     0.116 C 
ENDROOT
BRANCH   1   2
ATOM      2  N   UNL A   1      33.053  29.949  26.924  1.00  0.00    -0.356 N 
ATOM      3  C   UNL A   1      32.201  30.267  25.906  1.00  0.00     0.221 C 
ATOM      4  O   UNL A   1      31.381  31.168  26.077  1.00  0.00    -0.275 OA
ATOM      5  H   UNL A   1      32.786  30.262  27.818  1.00  0.00     0.163 HD
BRANCH   3   6
ATOM      6  C   UNL A   1      32.242  29.483  24.616  1.00  0.00     0.122 C 
BRANCH   6   7
ATOM      7  C   UNL A   1      31.044  28.547  24.436  1.00  0.00     0.137 C 
BRANCH   7   8
ATOM      8  N   UNL A   1      31.373  27.116  24.355  1.00  0.00    -0.292 N 
ATOM      9  C   UNL A   1      32.928  24.459  22.413  1.00  0.00     0.029 C 
ATOM     10  C   UNL A   1      32.066  25.078  23.297  1.00  0.00     0.081 C 
ATOM     11  S   UNL A   1      31.481  24.646  24.893  1.00  0.00    -0.054 SA
ATOM     12  C   UNL A   1      31.529  26.482  23.115  1.00  0.00     0.266 C 
ATOM     13  C   UNL A   1      31.444  26.299  25.459  1.00  0.00     0.148 C 
ATOM     14  O   UNL A   1      31.292  26.963  22.019  1.00  0.00    -0.268 OA
ATOM     15  S   UNL A   1      31.520  26.712  27.075  1.00  0.00    -0.052 S 
BRANCH   9  16
ATOM     16  C   UNL A   1      33.717  23.076  22.476  1.00  0.00    -0.024 A 
ATOM     17  C   UNL A   1      33.534  20.189  24.616  1.00  0.00     0.120 A 
ATOM     18  C   UNL A   1      35.006  21.373  24.835  1.00  0.00     0.047 A 
ATOM     19  C   UNL A   1      32.319  20.562  23.361  1.00  0.00     0.047 A 
ATOM     20  C   UNL A   1      35.095  22.780  23.611  1.00  0.00     0.012 A 
ATOM     21  C   UNL A   1      32.458  21.893  22.307  1.00  0.00     0.012 A 
BRANCH  17  22
ATOM     22  O   UNL A   1      33.361  18.841  24.906  1.00  0.00    -0.484 OA
BRANCH  22  23
ATOM     23  C   UNL A   1      34.463  18.027  24.376  1.00  0.00     0.329 C 
BRANCH  23  24
ATOM     24  C   UNL A   1      34.450  16.561  24.788  1.00  0.00     0.255 C 
ATOM     25  N   UNL A   1      35.493  16.190  25.576  1.00  0.00    -0.367 N 
ATOM     26  H   UNL A   1      35.567  15.260  25.891  1.00  0.00     0.159 HD
ATOM     27  H   UNL A   1      36.177  16.852  25.833  1.00  0.00     0.159 HD
ATOM     28  O   UNL A   1      33.589  15.760  24.440  1.00  0.00    -0.271 OA
ENDBRANCH  23  24
ENDBRANCH  22  23
ENDBRANCH  17  22
ENDBRANCH   9  16
ENDBRANCH   7   8
ENDBRANCH   6   7
ENDBRANCH   3   6
ENDBRANCH   1   2
BRANCH   1  29
ATOM     29  C   UNL A   1      35.200  29.704  27.983  1.00  0.00     0.021 C 
BRANCH  29  30
ATOM     30  C   UNL A   1      36.506  30.348  27.573  1.00  0.00     0.002 C 
BRANCH  30  31
ATOM     31  C   UNL A   1      36.657  31.783  28.101  1.00  0.00     0.002 C 
BRANCH  31  32
ATOM     32  C   UNL A   1      35.404  32.750  28.255  1.00  0.00     0.021 C 
BRANCH  32  33
ATOM     33  C   UNL A   1      34.351  33.223  29.703  1.00  0.00     0.116 C 
BRANCH  33  34
ATOM     34  N   UNL A   1      34.906  33.396  31.731  1.00  0.00    -0.352 N 
ATOM     35  C   UNL A   1      35.657  32.357  32.851  1.00  0.00     0.251 C 
ATOM     36  H   UNL A   1      34.681  34.274  32.115  1.00  0.00     0.163 HD
ATOM     37  O   UNL A   1      35.593  32.738  34.027  1.00  0.00    -0.269 OA
BRANCH  35  38
ATOM     38  C   UNL A   1      36.639  30.913  32.548  1.00  0.00     0.039 A 
ATOM     39  C   UNL A   1      37.807  30.725  33.313  1.00  0.00     0.014 A 
ATOM     40  C   UNL A   1      36.661  30.081  31.390  1.00  0.00     0.014 A 
ATOM     41  C   UNL A   1      39.005  30.123  32.751  1.00  0.00     0.010 A 
ATOM     42  C   UNL A   1      37.854  29.696  30.762  1.00  0.00     0.010 A 
ATOM     43  C   UNL A   1      39.080  29.751  31.398  1.00  0.00    -0.014 A 
BRANCH  43  44
ATOM     44  C   UNL A   1      40.292  29.436  30.547  1.00  0.00     0.031 A 
ATOM     45  C   UNL A   1      41.293  30.503  30.106  1.00  0.00     0.074 A 
ATOM     46  C   UNL A   1      40.336  28.247  29.900  1.00  0.00     0.049 A 
ATOM     47  N   UNL A   1      42.330  30.417  29.301  1.00  0.00    -0.248 NA
ATOM     48  C   UNL A   1      41.058  31.866  30.581  1.00  0.00     0.031 C 
ATOM     49  C   UNL A   1      39.352  27.168  30.052  1.00  0.00     0.029 A 
ATOM     50  N   UNL A   1      41.187  27.765  28.934  1.00  0.00    -0.354 N 
ATOM     51  C   UNL A   1      42.861  31.708  29.193  1.00  0.00     0.074 A 
ATOM     52  C   UNL A   1      41.969  32.575  29.927  1.00  0.00     0.031 C 
ATOM     53  C   UNL A   1      39.608  26.195  29.171  1.00  0.00     0.029 A 
ATOM     54  C   UNL A   1      40.842  26.516  28.471  1.00  0.00     0.049 A 
ATOM     55  H   UNL A   1      41.968  28.264  28.605  1.00  0.00     0.167 HD
ATOM     56  C   UNL A   1      44.013  32.121  28.593  1.00  0.00     0.037 A 
ATOM     57  C   UNL A   1      41.480  25.675  27.637  1.00  0.00     0.037 A 
ATOM     58  C   UNL A   1      44.912  31.216  27.912  1.00  0.00     0.049 A 
ATOM     59  C   UNL A   1      42.841  26.063  27.146  1.00  0.00     0.074 A 
ATOM     60  C   UNL A   1      46.189  31.448  27.429  1.00  0.00     0.029 A 
ATOM     61  N   UNL A   1      44.613  29.893  27.620  1.00  0.00    -0.354 N 
ATOM     62  N   UNL A   1      43.451  27.219  27.240  1.00  0.00    -0.248 NA
ATOM     63  C   UNL A   1      43.633  25.009  26.504  1.00  0.00     0.031 C 
ATOM     64  C   UNL A   1      46.647  30.275  26.815  1.00  0.00     0.029 A 
ATOM     65  C   UNL A   1      45.678  29.297  26.965  1.00  0.00     0.049 A 
ATOM     66  H   UNL A   1      43.767  29.443  27.846  1.00  0.00     0.167 HD
ATOM     67  C   UNL A   1      44.716  27.023  26.706  1.00  0.00     0.074 A 
ATOM     68  C   UNL A   1      44.787  25.630  26.311  1.00  0.00     0.031 C 
ATOM     69  C   UNL A   1      45.727  27.914  26.561  1.00  0.00     0.037 A 
BRANCH  56  70
ATOM     70  C   UNL A   1      44.431  33.576  28.704  1.00  0.00     0.064 A 
ATOM     71  C   UNL A   1      44.078  34.521  27.723  1.00  0.00     0.173 A 
ATOM     72  C   UNL A   1      45.091  34.069  29.845  1.00  0.00     0.173 A 
ATOM     73  F   UNL A   1      43.414  34.133  26.623  1.00  0.00    -0.203 F 
ATOM     74  C   UNL A   1      44.408  35.871  27.852  1.00  0.00     0.198 A 
ATOM     75  C   UNL A   1      45.385  35.427  29.992  1.00  0.00     0.198 A 
ATOM     76  F   UNL A   1      45.432  33.237  30.843  1.00  0.00    -0.203 F 
ATOM     77  F   UNL A   1      44.095  36.732  26.874  1.00  0.00    -0.200 F 
ATOM     78  C   UNL A   1      45.054  36.325  28.990  1.00  0.00     0.200 A 
ATOM     79  F   UNL A   1      45.976  35.870  31.111  1.00  0.00    -0.200 F 
ATOM     80  F   UNL A   1      45.350  37.626  29.123  1.00  0.00    -0.200 F 
ENDBRANCH  56  70
BRANCH  57  81
ATOM     81  C   UNL A   1      40.924  24.313  27.429  1.00  0.00     0.064 A 
ATOM     82  C   UNL A   1      39.861  24.110  26.538  1.00  0.00     0.173 A 
ATOM     83  C   UNL A   1      41.500  23.182  28.025  1.00  0.00     0.173 A 
ATOM     84  F   UNL A   1      39.290  25.161  25.930  1.00  0.00    -0.203 F 
ATOM     85  C   UNL A   1      39.372  22.834  26.273  1.00  0.00     0.198 A 
ATOM     86  C   UNL A   1      41.028  21.901  27.738  1.00  0.00     0.198 A 
ATOM     87  F   UNL A   1      42.550  23.317  28.848  1.00  0.00    -0.203 F 
ATOM     88  F   UNL A   1      38.337  22.676  25.438  1.00  0.00    -0.200 F 
ATOM     89  C   UNL A   1      39.961  21.729  26.869  1.00  0.00     0.200 A 
ATOM     90  F   UNL A   1      41.622  20.832  28.285  1.00  0.00    -0.200 F 
ATOM     91  F   UNL A   1      39.504  20.499  26.598  1.00  0.00    -0.200 F 
ENDBRANCH  57  81
BRANCH  69  92
ATOM     92  C   UNL A   1      47.000  27.398  25.958  1.00  0.00     0.064 A 
ATOM     93  C   UNL A   1      47.988  26.783  26.742  1.00  0.00     0.173 A 
ATOM     94  C   UNL A   1      47.235  27.520  24.580  1.00  0.00     0.173 A 
ATOM     95  F   UNL A   1      47.817  26.657  28.067  1.00  0.00    -0.203 F 
ATOM     96  C   UNL A   1      49.183  26.350  26.176  1.00  0.00     0.198 A 
ATOM     97  C   UNL A   1      48.415  27.050  24.012  1.00  0.00     0.198 A 
ATOM     98  F   UNL A   1      46.321  28.095  23.785  1.00  0.00    -0.203 F 
ATOM     99  F   UNL A   1      50.141  25.833  26.957  1.00  0.00    -0.200 F 
ATOM    100  C   UNL A   1      49.393  26.477  24.812  1.00  0.00     0.200 A 
ATOM    101  F   UNL A   1      48.611  27.160  22.691  1.00  0.00    -0.200 F 
ATOM    102  F   UNL A   1      50.545  26.061  24.269  1.00  0.00    -0.200 F 
ENDBRANCH  69  92
ENDBRANCH  43  44
ENDBRANCH  35  38
ENDBRANCH  33  34
ENDBRANCH  32  33
ENDBRANCH  31  32
ENDBRANCH  30  31
ENDBRANCH  29  30
ENDBRANCH   1  29
TORSDOF 19
ENDMDL
