MODEL 1
REMARK VINA RESULT:     -11.7      0.000      0.000
REMARK SMILES CCn1nc(C(C)C)cc1C(=O)N[C@@H](CC(N)=O)C(=O)NCCCCCCNC(=O)c1ccc(-c2c3nc(c(-c4c(F)c(F)c(F)c(F)c4F)c4ccc([nH]4)c(-c4c(F)c(F)c(F)c(F)c4F)c4nc(c(-c5c(F)c(F)c(F)c(F)c5F)c5ccc2[nH]5)C=C4)C=C3)cc1
REMARK SMILES IDX 24 1 23 2 22 3 21 4 19 5 20 6 14 8 13 9 11 10 12 11 10 13
REMARK SMILES IDX 3 14 4 15 5 16 9 17 2 18 1 19 6 20 7 21 8 22 15 23 16 24
REMARK SMILES IDX 17 25 18 26 25 29 26 30 27 31 28 32 29 33 30 35 31 36 32 37
REMARK SMILES IDX 93 38 33 39 92 40 34 41 35 42 36 43 86 44 37 45 91 46 85 47
REMARK SMILES IDX 87 48 38 49 90 50 84 51 83 52 39 54 71 55 51 56 70 57 52 58
REMARK SMILES IDX 55 59 69 60 88 61 53 62 54 63 68 65 89 66 56 67 40 68 41 69
REMARK SMILES IDX 49 70 42 71 43 72 47 73 50 74 44 75 45 76 48 77 46 78 72 79
REMARK SMILES IDX 73 80 81 81 74 82 75 83 79 84 82 85 76 86 77 87 80 88 78 89
REMARK SMILES IDX 57 90 58 91 66 92 59 93 60 94 64 95 67 96 61 97 62 98 65 99
REMARK SMILES IDX 63 100
REMARK H PARENT 21 7 13 12 17 27 17 28 28 34 87 53 55 64
REMARK Flexibility Score: inf
ROOT
ATOM      1  C   UNL A   1      36.480  22.849  25.503  1.00  0.00     0.002 C 
ENDROOT
BRANCH   1   2
ATOM      2  C   UNL A   1      35.593  21.700  25.983  1.00  0.00     0.021 C 
BRANCH   2   3
ATOM      3  C   UNL A   1      34.129  22.060  26.176  1.00  0.00     0.116 C 
BRANCH   3   4
ATOM      4  N   UNL A   1      33.252  21.527  25.157  1.00  0.00    -0.354 N 
ATOM      5  C   UNL A   1      32.497  22.179  24.229  1.00  0.00     0.243 C 
ATOM      6  O   UNL A   1      32.072  21.515  23.278  1.00  0.00    -0.273 OA
ATOM      7  H   UNL A   1      33.191  20.544  25.130  1.00  0.00     0.163 HD
BRANCH   5   8
ATOM      8  C   UNL A   1      32.244  23.702  24.278  1.00  0.00     0.181 C 
BRANCH   8   9
ATOM      9  N   UNL A   1      32.734  24.384  23.084  1.00  0.00    -0.338 N 
ATOM     10  C   UNL A   1      33.227  25.651  22.887  1.00  0.00     0.270 C 
ATOM     11  O   UNL A   1      33.803  25.823  21.810  1.00  0.00    -0.268 OA
ATOM     12  H   UNL A   1      32.704  23.835  22.268  1.00  0.00     0.164 HD
BRANCH  10  13
ATOM     13  C   UNL A   1      32.991  26.726  23.828  1.00  0.00     0.126 A 
ATOM     14  N   UNL A   1      31.875  27.547  23.797  1.00  0.00    -0.260 N 
ATOM     15  N   UNL A   1      31.740  28.317  24.904  1.00  0.00    -0.177 NA
ATOM     16  C   UNL A   1      32.869  28.113  25.583  1.00  0.00     0.066 A 
ATOM     17  C   UNL A   1      33.717  27.225  24.893  1.00  0.00     0.059 A 
BRANCH  14  18
ATOM     18  C   UNL A   1      30.904  27.700  22.725  1.00  0.00     0.142 C 
ATOM     19  C   UNL A   1      29.463  27.732  23.203  1.00  0.00     0.029 C 
ENDBRANCH  14  18
BRANCH  16  20
ATOM     20  C   UNL A   1      33.175  28.762  26.901  1.00  0.00     0.034 C 
ATOM     21  C   UNL A   1      34.672  28.991  27.084  1.00  0.00     0.014 C 
ATOM     22  C   UNL A   1      32.373  30.041  27.135  1.00  0.00     0.014 C 
ENDBRANCH  16  20
ENDBRANCH  10  13
ENDBRANCH   8   9
BRANCH   8  23
ATOM     23  C   UNL A   1      30.870  24.118  24.788  1.00  0.00     0.134 C 
BRANCH  23  24
ATOM     24  C   UNL A   1      30.818  24.660  26.186  1.00  0.00     0.220 C 
ATOM     25  N   UNL A   1      30.231  25.883  26.321  1.00  0.00    -0.370 N 
ATOM     26  O   UNL A   1      31.281  24.071  27.156  1.00  0.00    -0.275 OA
ATOM     27  H   UNL A   1      29.864  26.342  25.531  1.00  0.00     0.159 HD
ATOM     28  H   UNL A   1      30.175  26.307  27.207  1.00  0.00     0.159 HD
ENDBRANCH  23  24
ENDBRANCH   8  23
ENDBRANCH   5   8
ENDBRANCH   3   4
ENDBRANCH   2   3
ENDBRANCH   1   2
BRANCH   1  29
ATOM     29  C   UNL A   1      37.933  22.859  26.006  1.00  0.00     0.002 C 
BRANCH  29  30
ATOM     30  C   UNL A   1      38.806  21.635  25.692  1.00  0.00     0.021 C 
BRANCH  30  31
ATOM     31  C   UNL A   1      40.009  21.465  26.601  1.00  0.00     0.116 C 
BRANCH  31  32
ATOM     32  N   UNL A   1      41.281  21.521  25.879  1.00  0.00    -0.352 N 
ATOM     33  C   UNL A   1      42.105  22.615  25.674  1.00  0.00     0.251 C 
ATOM     34  H   UNL A   1      41.590  20.672  25.489  1.00  0.00     0.163 HD
ATOM     35  O   UNL A   1      42.923  22.634  24.772  1.00  0.00    -0.269 OA
BRANCH  33  36
ATOM     36  C   UNL A   1      41.978  23.760  26.592  1.00  0.00     0.039 A 
ATOM     37  C   UNL A   1      42.654  23.815  27.814  1.00  0.00     0.014 A 
ATOM     38  C   UNL A   1      41.181  24.816  26.170  1.00  0.00     0.014 A 
ATOM     39  C   UNL A   1      42.570  24.983  28.571  1.00  0.00     0.010 A 
ATOM     40  C   UNL A   1      41.282  26.024  26.795  1.00  0.00     0.010 A 
ATOM     41  C   UNL A   1      41.890  26.088  28.041  1.00  0.00    -0.014 A 
BRANCH  41  42
ATOM     42  C   UNL A   1      41.868  27.383  28.710  1.00  0.00     0.031 A 
ATOM     43  C   UNL A   1      42.977  28.293  28.318  1.00  0.00     0.074 A 
ATOM     44  C   UNL A   1      40.778  27.793  29.401  1.00  0.00     0.049 A 
ATOM     45  N   UNL A   1      43.888  28.798  29.082  1.00  0.00    -0.248 NA
ATOM     46  C   UNL A   1      43.185  28.571  26.886  1.00  0.00     0.031 C 
ATOM     47  C   UNL A   1      39.505  27.082  29.594  1.00  0.00     0.029 A 
ATOM     48  N   UNL A   1      40.524  28.998  29.976  1.00  0.00    -0.354 N 
ATOM     49  C   UNL A   1      44.660  29.620  28.266  1.00  0.00     0.074 A 
ATOM     50  C   UNL A   1      44.308  29.292  26.911  1.00  0.00     0.031 C 
ATOM     51  C   UNL A   1      38.554  27.948  30.007  1.00  0.00     0.029 A 
ATOM     52  C   UNL A   1      39.182  29.227  30.273  1.00  0.00     0.049 A 
ATOM     53  H   UNL A   1      41.231  29.656  30.168  1.00  0.00     0.167 HD
ATOM     54  C   UNL A   1      45.325  30.688  28.790  1.00  0.00     0.037 A 
ATOM     55  C   UNL A   1      38.631  30.399  30.676  1.00  0.00     0.037 A 
ATOM     56  C   UNL A   1      45.448  30.563  30.222  1.00  0.00     0.049 A 
ATOM     57  C   UNL A   1      39.740  31.246  31.184  1.00  0.00     0.074 A 
ATOM     58  C   UNL A   1      46.019  29.627  31.063  1.00  0.00     0.029 A 
ATOM     59  N   UNL A   1      44.586  31.289  31.007  1.00  0.00    -0.354 N 
ATOM     60  N   UNL A   1      40.416  30.971  32.265  1.00  0.00    -0.248 NA
ATOM     61  C   UNL A   1      40.414  32.109  30.225  1.00  0.00     0.031 C 
ATOM     62  C   UNL A   1      45.110  29.513  32.156  1.00  0.00     0.029 A 
ATOM     63  C   UNL A   1      44.089  30.444  31.966  1.00  0.00     0.049 A 
ATOM     64  H   UNL A   1      44.366  32.242  30.900  1.00  0.00     0.167 HD
ATOM     65  C   UNL A   1      41.734  31.243  31.931  1.00  0.00     0.074 A 
ATOM     66  C   UNL A   1      41.663  32.012  30.689  1.00  0.00     0.031 C 
ATOM     67  C   UNL A   1      42.762  30.564  32.520  1.00  0.00     0.037 A 
BRANCH  54  68
ATOM     68  C   UNL A   1      45.500  32.016  28.086  1.00  0.00     0.064 A 
ATOM     69  C   UNL A   1      44.350  32.717  27.668  1.00  0.00     0.173 A 
ATOM     70  C   UNL A   1      46.717  32.465  27.530  1.00  0.00     0.173 A 
ATOM     71  F   UNL A   1      43.136  32.374  28.125  1.00  0.00    -0.203 F 
ATOM     72  C   UNL A   1      44.407  33.716  26.693  1.00  0.00     0.198 A 
ATOM     73  C   UNL A   1      46.776  33.500  26.598  1.00  0.00     0.198 A 
ATOM     74  F   UNL A   1      47.885  31.860  27.772  1.00  0.00    -0.203 F 
ATOM     75  F   UNL A   1      43.272  34.253  26.225  1.00  0.00    -0.200 F 
ATOM     76  C   UNL A   1      45.619  34.098  26.150  1.00  0.00     0.200 A 
ATOM     77  F   UNL A   1      47.961  33.846  26.074  1.00  0.00    -0.200 F 
ATOM     78  F   UNL A   1      45.670  35.004  25.165  1.00  0.00    -0.200 F 
ENDBRANCH  54  68
BRANCH  55  79
ATOM     79  C   UNL A   1      37.281  30.942  30.380  1.00  0.00     0.064 A 
ATOM     80  C   UNL A   1      36.419  31.351  31.411  1.00  0.00     0.173 A 
ATOM     81  C   UNL A   1      36.919  31.331  29.074  1.00  0.00     0.173 A 
ATOM     82  F   UNL A   1      36.710  31.061  32.687  1.00  0.00    -0.203 F 
ATOM     83  C   UNL A   1      35.279  32.123  31.154  1.00  0.00     0.198 A 
ATOM     84  C   UNL A   1      35.779  32.096  28.819  1.00  0.00     0.198 A 
ATOM     85  F   UNL A   1      37.715  31.057  28.030  1.00  0.00    -0.203 F 
ATOM     86  F   UNL A   1      34.515  32.546  32.171  1.00  0.00    -0.200 F 
ATOM     87  C   UNL A   1      34.967  32.505  29.861  1.00  0.00     0.200 A 
ATOM     88  F   UNL A   1      35.508  32.489  27.566  1.00  0.00    -0.200 F 
ATOM     89  F   UNL A   1      33.912  33.297  29.621  1.00  0.00    -0.200 F 
ENDBRANCH  55  79
BRANCH  67  90
ATOM     90  C   UNL A   1      42.442  29.690  33.704  1.00  0.00     0.064 A 
ATOM     91  C   UNL A   1      42.052  28.342  33.611  1.00  0.00     0.173 A 
ATOM     92  C   UNL A   1      42.684  30.199  34.985  1.00  0.00     0.173 A 
ATOM     93  F   UNL A   1      41.899  27.746  32.423  1.00  0.00    -0.203 F 
ATOM     94  C   UNL A   1      41.873  27.557  34.750  1.00  0.00     0.198 A 
ATOM     95  C   UNL A   1      42.542  29.404  36.119  1.00  0.00     0.198 A 
ATOM     96  F   UNL A   1      43.114  31.462  35.135  1.00  0.00    -0.203 F 
ATOM     97  F   UNL A   1      41.491  26.276  34.631  1.00  0.00    -0.200 F 
ATOM     98  C   UNL A   1      42.125  28.087  36.002  1.00  0.00     0.200 A 
ATOM     99  F   UNL A   1      42.837  29.907  37.325  1.00  0.00    -0.200 F 
ATOM    100  F   UNL A   1      41.994  27.323  37.096  1.00  0.00    -0.200 F 
ENDBRANCH  67  90
ENDBRANCH  41  42
ENDBRANCH  33  36
ENDBRANCH  31  32
ENDBRANCH  30  31
ENDBRANCH  29  30
ENDBRANCH   1  29
TORSDOF 19
ENDMDL
MODEL 2
REMARK VINA RESULT:     -11.1      1.119      2.189
REMARK SMILES CCn1nc(C(C)C)cc1C(=O)N[C@@H](CC(N)=O)C(=O)NCCCCCCNC(=O)c1ccc(-c2c3nc(c(-c4c(F)c(F)c(F)c(F)c4F)c4ccc([nH]4)c(-c4c(F)c(F)c(F)c(F)c4F)c4nc(c(-c5c(F)c(F)c(F)c(F)c5F)c5ccc2[nH]5)C=C4)C=C3)cc1
REMARK SMILES IDX 24 1 23 2 22 3 21 4 19 5 20 6 14 8 13 9 11 10 12 11 10 13
REMARK SMILES IDX 3 14 4 15 5 16 9 17 2 18 1 19 6 20 7 21 8 22 15 23 16 24
REMARK SMILES IDX 17 25 18 26 25 29 26 30 27 31 28 32 29 33 30 35 31 36 32 37
REMARK SMILES IDX 93 38 33 39 92 40 34 41 35 42 36 43 86 44 37 45 91 46 85 47
REMARK SMILES IDX 87 48 38 49 90 50 84 51 83 52 39 54 71 55 51 56 70 57 52 58
REMARK SMILES IDX 55 59 69 60 88 61 53 62 54 63 68 65 89 66 56 67 40 68 41 69
REMARK SMILES IDX 49 70 42 71 43 72 47 73 50 74 44 75 45 76 48 77 46 78 72 79
REMARK SMILES IDX 73 80 81 81 74 82 75 83 79 84 82 85 76 86 77 87 80 88 78 89
REMARK SMILES IDX 57 90 58 91 66 92 59 93 60 94 64 95 67 96 61 97 62 98 65 99
REMARK SMILES IDX 63 100
REMARK H PARENT 21 7 13 12 17 27 17 28 28 34 87 53 55 64
REMARK Flexibility Score: inf
ROOT
ATOM      1  C   UNL A   1      36.634  22.595  23.518  1.00  0.00     0.002 C 
ENDROOT
BRANCH   1   2
ATOM      2  C   UNL A   1      35.300  23.317  23.337  1.00  0.00     0.021 C 
BRANCH   2   3
ATOM      3  C   UNL A   1      34.380  23.274  24.547  1.00  0.00     0.116 C 
BRANCH   3   4
ATOM      4  N   UNL A   1      34.190  24.555  25.189  1.00  0.00    -0.354 N 
ATOM      5  C   UNL A   1      33.056  25.295  25.339  1.00  0.00     0.243 C 
ATOM      6  O   UNL A   1      33.080  26.201  26.179  1.00  0.00    -0.273 OA
ATOM      7  H   UNL A   1      35.004  24.954  25.575  1.00  0.00     0.163 HD
BRANCH   5   8
ATOM      8  C   UNL A   1      31.748  24.982  24.582  1.00  0.00     0.181 C 
BRANCH   8   9
ATOM      9  N   UNL A   1      31.908  25.082  23.134  1.00  0.00    -0.338 N 
ATOM     10  C   UNL A   1      31.732  26.128  22.260  1.00  0.00     0.270 C 
ATOM     11  O   UNL A   1      32.209  25.954  21.137  1.00  0.00    -0.268 OA
ATOM     12  H   UNL A   1      32.194  24.245  22.703  1.00  0.00     0.164 HD
BRANCH  10  13
ATOM     13  C   UNL A   1      30.951  27.298  22.605  1.00  0.00     0.126 A 
ATOM     14  N   UNL A   1      31.503  28.498  23.022  1.00  0.00    -0.260 N 
ATOM     15  N   UNL A   1      30.614  29.521  23.055  1.00  0.00    -0.177 NA
ATOM     16  C   UNL A   1      29.439  28.937  22.817  1.00  0.00     0.066 A 
ATOM     17  C   UNL A   1      29.592  27.548  22.648  1.00  0.00     0.059 A 
BRANCH  14  18
ATOM     18  C   UNL A   1      32.867  28.754  23.460  1.00  0.00     0.142 C 
ATOM     19  C   UNL A   1      32.961  29.348  24.854  1.00  0.00     0.029 C 
ENDBRANCH  14  18
BRANCH  16  20
ATOM     20  C   UNL A   1      28.139  29.684  22.751  1.00  0.00     0.034 C 
ATOM     21  C   UNL A   1      26.967  28.818  23.203  1.00  0.00     0.014 C 
ATOM     22  C   UNL A   1      28.179  31.018  23.496  1.00  0.00     0.014 C 
ENDBRANCH  16  20
ENDBRANCH  10  13
ENDBRANCH   8   9
BRANCH   8  23
ATOM     23  C   UNL A   1      30.965  23.782  25.101  1.00  0.00     0.134 C 
BRANCH  23  24
ATOM     24  C   UNL A   1      30.416  23.900  26.492  1.00  0.00     0.220 C 
ATOM     25  N   UNL A   1      29.318  24.698  26.624  1.00  0.00    -0.370 N 
ATOM     26  O   UNL A   1      30.913  23.343  27.464  1.00  0.00    -0.275 OA
ATOM     27  H   UNL A   1      28.932  25.138  25.833  1.00  0.00     0.159 HD
ATOM     28  H   UNL A   1      28.913  24.834  27.511  1.00  0.00     0.159 HD
ENDBRANCH  23  24
ENDBRANCH   8  23
ENDBRANCH   5   8
ENDBRANCH   3   4
ENDBRANCH   2   3
ENDBRANCH   1   2
BRANCH   1  29
ATOM     29  C   UNL A   1      37.224  22.574  24.937  1.00  0.00     0.002 C 
BRANCH  29  30
ATOM     30  C   UNL A   1      38.273  21.499  25.261  1.00  0.00     0.021 C 
BRANCH  30  31
ATOM     31  C   UNL A   1      39.319  21.920  26.277  1.00  0.00     0.116 C 
BRANCH  31  32
ATOM     32  N   UNL A   1      40.688  21.746  25.789  1.00  0.00    -0.352 N 
ATOM     33  C   UNL A   1      41.713  22.676  25.758  1.00  0.00     0.251 C 
ATOM     34  H   UNL A   1      40.907  20.854  25.437  1.00  0.00     0.163 HD
ATOM     35  O   UNL A   1      42.668  22.545  25.013  1.00  0.00    -0.269 OA
BRANCH  33  36
ATOM     36  C   UNL A   1      41.629  23.831  26.668  1.00  0.00     0.039 A 
ATOM     37  C   UNL A   1      42.334  23.883  27.875  1.00  0.00     0.014 A 
ATOM     38  C   UNL A   1      40.843  24.899  26.256  1.00  0.00     0.014 A 
ATOM     39  C   UNL A   1      42.289  25.059  28.623  1.00  0.00     0.010 A 
ATOM     40  C   UNL A   1      40.982  26.110  26.868  1.00  0.00     0.010 A 
ATOM     41  C   UNL A   1      41.619  26.173  28.100  1.00  0.00    -0.014 A 
BRANCH  41  42
ATOM     42  C   UNL A   1      41.636  27.473  28.757  1.00  0.00     0.031 A 
ATOM     43  C   UNL A   1      42.760  28.354  28.341  1.00  0.00     0.074 A 
ATOM     44  C   UNL A   1      40.567  27.913  29.461  1.00  0.00     0.049 A 
ATOM     45  N   UNL A   1      43.694  28.844  29.087  1.00  0.00    -0.248 NA
ATOM     46  C   UNL A   1      42.952  28.615  26.903  1.00  0.00     0.031 C 
ATOM     47  C   UNL A   1      39.281  27.235  29.679  1.00  0.00     0.029 A 
ATOM     48  N   UNL A   1      40.349  29.129  30.029  1.00  0.00    -0.354 N 
ATOM     49  C   UNL A   1      44.472  29.642  28.252  1.00  0.00     0.074 A 
ATOM     50  C   UNL A   1      44.092  29.310  26.905  1.00  0.00     0.031 C 
ATOM     51  C   UNL A   1      38.357  28.125  30.099  1.00  0.00     0.029 A 
ATOM     52  C   UNL A   1      39.018  29.391  30.345  1.00  0.00     0.049 A 
ATOM     53  H   UNL A   1      41.074  29.772  30.204  1.00  0.00     0.167 HD
ATOM     54  C   UNL A   1      45.170  30.698  28.756  1.00  0.00     0.037 A 
ATOM     55  C   UNL A   1      38.500  30.580  30.746  1.00  0.00     0.037 A 
ATOM     56  C   UNL A   1      45.311  30.582  30.187  1.00  0.00     0.049 A 
ATOM     57  C   UNL A   1      39.636  31.405  31.229  1.00  0.00     0.074 A 
ATOM     58  C   UNL A   1      45.873  29.641  31.028  1.00  0.00     0.029 A 
ATOM     59  N   UNL A   1      44.478  31.334  30.979  1.00  0.00    -0.354 N 
ATOM     60  N   UNL A   1      40.322  31.123  32.302  1.00  0.00    -0.248 NA
ATOM     61  C   UNL A   1      40.315  32.244  30.253  1.00  0.00     0.031 C 
ATOM     62  C   UNL A   1      44.979  29.557  32.135  1.00  0.00     0.029 A 
ATOM     63  C   UNL A   1      43.977  30.509  31.952  1.00  0.00     0.049 A 
ATOM     64  H   UNL A   1      44.278  32.291  30.867  1.00  0.00     0.167 HD
ATOM     65  C   UNL A   1      41.640  31.362  31.946  1.00  0.00     0.074 A 
ATOM     66  C   UNL A   1      41.568  32.121  30.698  1.00  0.00     0.031 C 
ATOM     67  C   UNL A   1      42.661  30.664  32.525  1.00  0.00     0.037 A 
BRANCH  54  68
ATOM     68  C   UNL A   1      45.364  32.015  28.038  1.00  0.00     0.064 A 
ATOM     69  C   UNL A   1      46.668  32.541  27.930  1.00  0.00     0.173 A 
ATOM     70  C   UNL A   1      44.321  32.919  27.742  1.00  0.00     0.173 A 
ATOM     71  F   UNL A   1      47.738  31.777  28.194  1.00  0.00    -0.203 F 
ATOM     72  C   UNL A   1      46.900  33.891  27.651  1.00  0.00     0.198 A 
ATOM     73  C   UNL A   1      44.558  34.252  27.410  1.00  0.00     0.198 A 
ATOM     74  F   UNL A   1      43.030  32.593  27.867  1.00  0.00    -0.203 F 
ATOM     75  F   UNL A   1      48.148  34.374  27.700  1.00  0.00    -0.200 F 
ATOM     76  C   UNL A   1      45.844  34.747  27.403  1.00  0.00     0.200 A 
ATOM     77  F   UNL A   1      43.519  35.069  27.186  1.00  0.00    -0.200 F 
ATOM     78  F   UNL A   1      46.057  36.055  27.206  1.00  0.00    -0.200 F 
ENDBRANCH  54  68
BRANCH  55  79
ATOM     79  C   UNL A   1      37.158  31.151  30.465  1.00  0.00     0.064 A 
ATOM     80  C   UNL A   1      36.298  31.535  31.507  1.00  0.00     0.173 A 
ATOM     81  C   UNL A   1      36.806  31.591  29.173  1.00  0.00     0.173 A 
ATOM     82  F   UNL A   1      36.581  31.196  32.773  1.00  0.00    -0.203 F 
ATOM     83  C   UNL A   1      35.170  32.331  31.275  1.00  0.00     0.198 A 
ATOM     84  C   UNL A   1      35.677  32.380  28.942  1.00  0.00     0.198 A 
ATOM     85  F   UNL A   1      37.601  31.343  28.122  1.00  0.00    -0.203 F 
ATOM     86  F   UNL A   1      34.408  32.727  32.304  1.00  0.00    -0.200 F 
ATOM     87  C   UNL A   1      34.867  32.763  29.995  1.00  0.00     0.200 A 
ATOM     88  F   UNL A   1      35.416  32.820  27.703  1.00  0.00    -0.200 F 
ATOM     89  F   UNL A   1      33.824  33.577  29.780  1.00  0.00    -0.200 F 
ENDBRANCH  55  79
BRANCH  67  90
ATOM     90  C   UNL A   1      42.339  29.808  33.721  1.00  0.00     0.064 A 
ATOM     91  C   UNL A   1      41.937  28.462  33.647  1.00  0.00     0.173 A 
ATOM     92  C   UNL A   1      42.593  30.330  34.995  1.00  0.00     0.173 A 
ATOM     93  F   UNL A   1      41.772  27.854  32.468  1.00  0.00    -0.203 F 
ATOM     94  C   UNL A   1      41.756  27.693  34.797  1.00  0.00     0.198 A 
ATOM     95  C   UNL A   1      42.449  29.550  36.140  1.00  0.00     0.198 A 
ATOM     96  F   UNL A   1      43.035  31.590  35.127  1.00  0.00    -0.203 F 
ATOM     97  F   UNL A   1      41.362  26.415  34.695  1.00  0.00    -0.200 F 
ATOM     98  C   UNL A   1      42.019  28.236  36.041  1.00  0.00     0.200 A 
ATOM     99  F   UNL A   1      42.756  30.066  37.337  1.00  0.00    -0.200 F 
ATOM    100  F   UNL A   1      41.888  27.487  37.145  1.00  0.00    -0.200 F 
ENDBRANCH  67  90
ENDBRANCH  41  42
ENDBRANCH  33  36
ENDBRANCH  31  32
ENDBRANCH  30  31
ENDBRANCH  29  30
ENDBRANCH   1  29
TORSDOF 19
ENDMDL
MODEL 3
REMARK VINA RESULT:     -11.1      1.396      2.427
REMARK SMILES CCn1nc(C(C)C)cc1C(=O)N[C@@H](CC(N)=O)C(=O)NCCCCCCNC(=O)c1ccc(-c2c3nc(c(-c4c(F)c(F)c(F)c(F)c4F)c4ccc([nH]4)c(-c4c(F)c(F)c(F)c(F)c4F)c4nc(c(-c5c(F)c(F)c(F)c(F)c5F)c5ccc2[nH]5)C=C4)C=C3)cc1
REMARK SMILES IDX 24 1 23 2 22 3 21 4 19 5 20 6 14 8 13 9 11 10 12 11 10 13
REMARK SMILES IDX 3 14 4 15 5 16 9 17 2 18 1 19 6 20 7 21 8 22 15 23 16 24
REMARK SMILES IDX 17 25 18 26 25 29 26 30 27 31 28 32 29 33 30 35 31 36 32 37
REMARK SMILES IDX 93 38 33 39 92 40 34 41 35 42 36 43 86 44 37 45 91 46 85 47
REMARK SMILES IDX 87 48 38 49 90 50 84 51 83 52 39 54 71 55 51 56 70 57 52 58
REMARK SMILES IDX 55 59 69 60 88 61 53 62 54 63 68 65 89 66 56 67 40 68 41 69
REMARK SMILES IDX 49 70 42 71 43 72 47 73 50 74 44 75 45 76 48 77 46 78 72 79
REMARK SMILES IDX 73 80 81 81 74 82 75 83 79 84 82 85 76 86 77 87 80 88 78 89
REMARK SMILES IDX 57 90 58 91 66 92 59 93 60 94 64 95 67 96 61 97 62 98 65 99
REMARK SMILES IDX 63 100
REMARK H PARENT 21 7 13 12 17 27 17 28 28 34 87 53 55 64
REMARK Flexibility Score: inf
ROOT
ATOM      1  C   UNL A   1      36.513  23.702  25.000  1.00  0.00     0.002 C 
ENDROOT
BRANCH   1   2
ATOM      2  C   UNL A   1      35.272  24.209  25.735  1.00  0.00     0.021 C 
BRANCH   2   3
ATOM      3  C   UNL A   1      34.467  25.257  24.982  1.00  0.00     0.116 C 
BRANCH   3   4
ATOM      4  N   UNL A   1      33.337  25.774  25.721  1.00  0.00    -0.354 N 
ATOM      5  C   UNL A   1      32.873  27.051  25.820  1.00  0.00     0.243 C 
ATOM      6  O   UNL A   1      31.727  27.204  26.257  1.00  0.00    -0.273 OA
ATOM      7  H   UNL A   1      32.827  25.103  26.230  1.00  0.00     0.163 HD
BRANCH   5   8
ATOM      8  C   UNL A   1      33.677  28.274  25.327  1.00  0.00     0.181 C 
BRANCH   8   9
ATOM      9  N   UNL A   1      34.071  28.150  23.926  1.00  0.00    -0.338 N 
ATOM     10  C   UNL A   1      33.379  28.352  22.756  1.00  0.00     0.270 C 
ATOM     11  O   UNL A   1      34.079  28.422  21.743  1.00  0.00    -0.268 OA
ATOM     12  H   UNL A   1      35.005  27.870  23.795  1.00  0.00     0.164 HD
BRANCH  10  13
ATOM     13  C   UNL A   1      31.932  28.372  22.709  1.00  0.00     0.126 A 
ATOM     14  N   UNL A   1      31.145  27.232  22.693  1.00  0.00    -0.260 N 
ATOM     15  N   UNL A   1      29.828  27.480  22.894  1.00  0.00    -0.177 NA
ATOM     16  C   UNL A   1      29.741  28.810  22.873  1.00  0.00     0.066 A 
ATOM     17  C   UNL A   1      31.003  29.394  22.647  1.00  0.00     0.059 A 
BRANCH  14  18
ATOM     18  C   UNL A   1      31.559  25.860  22.442  1.00  0.00     0.142 C 
ATOM     19  C   UNL A   1      32.114  25.633  21.046  1.00  0.00     0.029 C 
ENDBRANCH  14  18
BRANCH  16  20
ATOM     20  C   UNL A   1      28.455  29.562  23.062  1.00  0.00     0.034 C 
ATOM     21  C   UNL A   1      28.353  30.752  22.112  1.00  0.00     0.014 C 
ATOM     22  C   UNL A   1      27.223  28.663  22.980  1.00  0.00     0.014 C 
ENDBRANCH  16  20
ENDBRANCH  10  13
ENDBRANCH   8   9
BRANCH   8  23
ATOM     23  C   UNL A   1      33.140  29.629  25.769  1.00  0.00     0.134 C 
BRANCH  23  24
ATOM     24  C   UNL A   1      33.617  30.129  27.100  1.00  0.00     0.220 C 
ATOM     25  N   UNL A   1      34.499  29.319  27.751  1.00  0.00    -0.370 N 
ATOM     26  O   UNL A   1      33.241  31.184  27.599  1.00  0.00    -0.275 OA
ATOM     27  H   UNL A   1      34.790  28.475  27.335  1.00  0.00     0.159 HD
ATOM     28  H   UNL A   1      34.843  29.576  28.636  1.00  0.00     0.159 HD
ENDBRANCH  23  24
ENDBRANCH   8  23
ENDBRANCH   5   8
ENDBRANCH   3   4
ENDBRANCH   2   3
ENDBRANCH   1   2
BRANCH   1  29
ATOM     29  C   UNL A   1      37.737  23.359  25.865  1.00  0.00     0.002 C 
BRANCH  29  30
ATOM     30  C   UNL A   1      38.440  22.017  25.608  1.00  0.00     0.021 C 
BRANCH  30  31
ATOM     31  C   UNL A   1      39.583  21.709  26.557  1.00  0.00     0.116 C 
BRANCH  31  32
ATOM     32  N   UNL A   1      40.885  21.677  25.889  1.00  0.00    -0.352 N 
ATOM     33  C   UNL A   1      41.794  22.709  25.729  1.00  0.00     0.251 C 
ATOM     34  H   UNL A   1      41.147  20.810  25.504  1.00  0.00     0.163 HD
ATOM     35  O   UNL A   1      42.649  22.674  24.862  1.00  0.00    -0.269 OA
BRANCH  33  36
ATOM     36  C   UNL A   1      41.712  23.854  26.652  1.00  0.00     0.039 A 
ATOM     37  C   UNL A   1      42.401  23.883  27.868  1.00  0.00     0.014 A 
ATOM     38  C   UNL A   1      40.945  24.936  26.242  1.00  0.00     0.014 A 
ATOM     39  C   UNL A   1      42.362  25.050  28.629  1.00  0.00     0.010 A 
ATOM     40  C   UNL A   1      41.091  26.138  26.870  1.00  0.00     0.010 A 
ATOM     41  C   UNL A   1      41.712  26.179  28.111  1.00  0.00    -0.014 A 
BRANCH  41  42
ATOM     42  C   UNL A   1      41.737  27.471  28.784  1.00  0.00     0.031 A 
ATOM     43  C   UNL A   1      42.868  28.349  28.380  1.00  0.00     0.074 A 
ATOM     44  C   UNL A   1      40.669  27.910  29.491  1.00  0.00     0.049 A 
ATOM     45  N   UNL A   1      43.804  28.824  29.134  1.00  0.00    -0.248 NA
ATOM     46  C   UNL A   1      43.064  28.626  26.947  1.00  0.00     0.031 C 
ATOM     47  C   UNL A   1      39.379  27.237  29.699  1.00  0.00     0.029 A 
ATOM     48  N   UNL A   1      40.459  29.120  30.073  1.00  0.00    -0.354 N 
ATOM     49  C   UNL A   1      44.588  29.626  28.310  1.00  0.00     0.074 A 
ATOM     50  C   UNL A   1      44.209  29.313  26.959  1.00  0.00     0.031 C 
ATOM     51  C   UNL A   1      38.460  28.129  30.127  1.00  0.00     0.029 A 
ATOM     52  C   UNL A   1      39.129  29.388  30.389  1.00  0.00     0.049 A 
ATOM     53  H   UNL A   1      41.188  29.756  30.257  1.00  0.00     0.167 HD
ATOM     54  C   UNL A   1      45.292  30.671  28.828  1.00  0.00     0.037 A 
ATOM     55  C   UNL A   1      38.618  30.575  30.804  1.00  0.00     0.037 A 
ATOM     56  C   UNL A   1      45.430  30.537  30.258  1.00  0.00     0.049 A 
ATOM     57  C   UNL A   1      39.758  31.386  31.299  1.00  0.00     0.074 A 
ATOM     58  C   UNL A   1      45.984  29.582  31.089  1.00  0.00     0.029 A 
ATOM     59  N   UNL A   1      44.601  31.285  31.058  1.00  0.00    -0.354 N 
ATOM     60  N   UNL A   1      40.440  31.087  32.370  1.00  0.00    -0.248 NA
ATOM     61  C   UNL A   1      40.445  32.232  30.334  1.00  0.00     0.031 C 
ATOM     62  C   UNL A   1      45.087  29.491  32.193  1.00  0.00     0.029 A 
ATOM     63  C   UNL A   1      44.092  30.452  32.020  1.00  0.00     0.049 A 
ATOM     64  H   UNL A   1      44.408  32.246  30.957  1.00  0.00     0.167 HD
ATOM     65  C   UNL A   1      41.761  31.321  32.019  1.00  0.00     0.074 A 
ATOM     66  C   UNL A   1      41.696  32.096  30.781  1.00  0.00     0.031 C 
ATOM     67  C   UNL A   1      42.776  30.609  32.592  1.00  0.00     0.037 A 
BRANCH  54  68
ATOM     68  C   UNL A   1      45.497  31.996  28.127  1.00  0.00     0.064 A 
ATOM     69  C   UNL A   1      44.365  32.775  27.807  1.00  0.00     0.173 A 
ATOM     70  C   UNL A   1      46.694  32.376  27.482  1.00  0.00     0.173 A 
ATOM     71  F   UNL A   1      43.171  32.503  28.354  1.00  0.00    -0.203 F 
ATOM     72  C   UNL A   1      44.411  33.783  26.841  1.00  0.00     0.198 A 
ATOM     73  C   UNL A   1      46.747  33.419  26.559  1.00  0.00     0.198 A 
ATOM     74  F   UNL A   1      47.835  31.695  27.625  1.00  0.00    -0.203 F 
ATOM     75  F   UNL A   1      43.280  34.398  26.469  1.00  0.00    -0.200 F 
ATOM     76  C   UNL A   1      45.600  34.096  26.209  1.00  0.00     0.200 A 
ATOM     77  F   UNL A   1      47.907  33.697  25.948  1.00  0.00    -0.200 F 
ATOM     78  F   UNL A   1      45.633  35.012  25.232  1.00  0.00    -0.200 F 
ENDBRANCH  54  68
BRANCH  55  79
ATOM     79  C   UNL A   1      37.281  31.159  30.527  1.00  0.00     0.064 A 
ATOM     80  C   UNL A   1      36.360  31.391  31.562  1.00  0.00     0.173 A 
ATOM     81  C   UNL A   1      36.987  31.758  29.285  1.00  0.00     0.173 A 
ATOM     82  F   UNL A   1      36.584  30.894  32.787  1.00  0.00    -0.203 F 
ATOM     83  C   UNL A   1      35.229  32.194  31.374  1.00  0.00     0.198 A 
ATOM     84  C   UNL A   1      35.855  32.554  29.098  1.00  0.00     0.198 A 
ATOM     85  F   UNL A   1      37.840  31.660  28.256  1.00  0.00    -0.203 F 
ATOM     86  F   UNL A   1      34.406  32.442  32.404  1.00  0.00    -0.200 F 
ATOM     87  C   UNL A   1      34.983  32.784  30.146  1.00  0.00     0.200 A 
ATOM     88  F   UNL A   1      35.648  33.148  27.914  1.00  0.00    -0.200 F 
ATOM     89  F   UNL A   1      33.935  33.605  29.983  1.00  0.00    -0.200 F 
ENDBRANCH  55  79
BRANCH  67  90
ATOM     90  C   UNL A   1      42.446  29.741  33.777  1.00  0.00     0.064 A 
ATOM     91  C   UNL A   1      41.987  28.415  33.684  1.00  0.00     0.173 A 
ATOM     92  C   UNL A   1      42.749  30.224  35.056  1.00  0.00     0.173 A 
ATOM     93  F   UNL A   1      41.771  27.839  32.497  1.00  0.00    -0.203 F 
ATOM     94  C   UNL A   1      41.800  27.629  34.821  1.00  0.00     0.198 A 
ATOM     95  C   UNL A   1      42.599  29.426  36.186  1.00  0.00     0.198 A 
ATOM     96  F   UNL A   1      43.246  31.463  35.204  1.00  0.00    -0.203 F 
ATOM     97  F   UNL A   1      41.352  26.370  34.702  1.00  0.00    -0.200 F 
ATOM     98  C   UNL A   1      42.114  28.133  36.070  1.00  0.00     0.200 A 
ATOM     99  F   UNL A   1      42.953  29.903  37.387  1.00  0.00    -0.200 F 
ATOM    100  F   UNL A   1      41.976  27.366  37.161  1.00  0.00    -0.200 F 
ENDBRANCH  67  90
ENDBRANCH  41  42
ENDBRANCH  33  36
ENDBRANCH  31  32
ENDBRANCH  30  31
ENDBRANCH  29  30
ENDBRANCH   1  29
TORSDOF 19
ENDMDL
