MODEL 1
REMARK VINA RESULT:     -11.0      0.000      0.000
REMARK SMILES C[C@@H](C(=O)[C@H](C)[C@@H](C)C(=O)NCCCCCCNC(=O)c1ccc(-c2c3nc(c(-c4c(F)c(F)c(F)c(F)c4F)c4ccc([nH]4)c(-c4c(F)c(F)c(F)c(F)c4F)c4nc(c(-c5c(F)c(F)c(F)c(F)c5F)c5ccc2[nH]5)C=C4)C=C3)cc1)c1ccccc1
REMARK SMILES IDX 13 1 12 2 11 3 9 4 10 5 7 7 8 8 5 9 6 10 3 11 4 12 2 13 1 14
REMARK SMILES IDX 84 15 85 16 89 17 86 18 88 19 87 20 14 21 15 22 16 23 17 24
REMARK SMILES IDX 18 25 19 26 20 28 21 29 22 30 83 31 23 32 82 33 24 34 25 35
REMARK SMILES IDX 26 36 76 37 27 38 81 39 75 40 77 41 28 42 80 43 74 44 73 45
REMARK SMILES IDX 29 47 61 48 41 49 60 50 42 51 45 52 59 53 78 54 43 55 44 56
REMARK SMILES IDX 58 58 79 59 46 60 30 61 31 62 39 63 32 64 33 65 37 66 40 67
REMARK SMILES IDX 34 68 35 69 38 70 36 71 62 72 63 73 71 74 64 75 65 76 69 77
REMARK SMILES IDX 72 78 66 79 67 80 70 81 68 82 47 83 48 84 56 85 49 86 50 87
REMARK SMILES IDX 54 88 57 89 51 90 52 91 55 92 53 93
REMARK H PARENT 11 6 18 27 77 46 45 57
REMARK Flexibility Score: inf
ROOT
ATOM      1  C   UNL A   1      32.225  28.487  26.692  1.00  0.00     0.021 C 
ENDROOT
BRANCH   1   2
ATOM      2  C   UNL A   1      33.674  28.084  26.436  1.00  0.00     0.116 C 
BRANCH   2   3
ATOM      3  N   UNL A   1      33.798  27.324  25.210  1.00  0.00    -0.356 N 
ATOM      4  C   UNL A   1      33.640  26.006  24.949  1.00  0.00     0.223 C 
ATOM      5  O   UNL A   1      33.820  25.632  23.788  1.00  0.00    -0.275 OA
ATOM      6  H   UNL A   1      34.040  27.865  24.423  1.00  0.00     0.163 HD
BRANCH   4   7
ATOM      7  C   UNL A   1      33.240  24.998  26.017  1.00  0.00     0.085 C 
ATOM      8  C   UNL A   1      34.391  24.015  26.270  1.00  0.00     0.019 C 
BRANCH   7   9
ATOM      9  C   UNL A   1      31.867  24.336  25.791  1.00  0.00     0.066 C 
ATOM     10  C   UNL A   1      31.504  23.320  26.876  1.00  0.00     0.017 C 
BRANCH   9  11
ATOM     11  C   UNL A   1      30.655  25.250  25.543  1.00  0.00     0.143 C 
ATOM     12  O   UNL A   1      30.291  25.958  26.492  1.00  0.00    -0.299 OA
BRANCH  11  13
ATOM     13  C   UNL A   1      29.944  25.308  24.177  1.00  0.00     0.083 C 
ATOM     14  C   UNL A   1      30.649  24.510  23.078  1.00  0.00     0.021 C 
BRANCH  13  15
ATOM     15  C   UNL A   1      29.725  26.750  23.712  1.00  0.00    -0.038 A 
ATOM     16  C   UNL A   1      28.434  27.281  23.550  1.00  0.00     0.004 A 
ATOM     17  C   UNL A   1      30.826  27.569  23.414  1.00  0.00     0.004 A 
ATOM     18  C   UNL A   1      28.250  28.599  23.126  1.00  0.00     0.000 A 
ATOM     19  C   UNL A   1      30.639  28.885  22.984  1.00  0.00     0.000 A 
ATOM     20  C   UNL A   1      29.353  29.402  22.846  1.00  0.00     0.000 A 
ENDBRANCH  13  15
ENDBRANCH  11  13
ENDBRANCH   9  11
ENDBRANCH   7   9
ENDBRANCH   4   7
ENDBRANCH   2   3
ENDBRANCH   1   2
BRANCH   1  21
ATOM     21  C   UNL A   1      32.046  29.942  27.141  1.00  0.00     0.002 C 
BRANCH  21  22
ATOM     22  C   UNL A   1      31.401  30.870  26.105  1.00  0.00     0.002 C 
BRANCH  22  23
ATOM     23  C   UNL A   1      31.336  32.346  26.502  1.00  0.00     0.021 C 
BRANCH  23  24
ATOM     24  C   UNL A   1      32.660  32.937  26.970  1.00  0.00     0.116 C 
BRANCH  24  25
ATOM     25  N   UNL A   1      32.485  34.225  27.621  1.00  0.00    -0.352 N 
ATOM     26  C   UNL A   1      33.102  34.722  28.737  1.00  0.00     0.251 C 
ATOM     27  H   UNL A   1      31.827  34.824  27.200  1.00  0.00     0.163 HD
ATOM     28  O   UNL A   1      32.691  35.756  29.264  1.00  0.00    -0.269 OA
BRANCH  26  29
ATOM     29  C   UNL A   1      34.253  34.008  29.326  1.00  0.00     0.039 A 
ATOM     30  C   UNL A   1      35.546  34.447  29.027  1.00  0.00     0.014 A 
ATOM     31  C   UNL A   1      34.063  32.902  30.161  1.00  0.00     0.014 A 
ATOM     32  C   UNL A   1      36.645  33.810  29.605  1.00  0.00     0.010 A 
ATOM     33  C   UNL A   1      35.154  32.316  30.794  1.00  0.00     0.010 A 
ATOM     34  C   UNL A   1      36.456  32.758  30.516  1.00  0.00    -0.014 A 
BRANCH  34  35
ATOM     35  C   UNL A   1      37.612  32.106  31.182  1.00  0.00     0.031 A 
ATOM     36  C   UNL A   1      38.411  31.059  30.458  1.00  0.00     0.074 A 
ATOM     37  C   UNL A   1      37.905  32.419  32.458  1.00  0.00     0.049 A 
ATOM     38  N   UNL A   1      39.430  30.354  30.883  1.00  0.00    -0.248 NA
ATOM     39  C   UNL A   1      37.994  30.741  29.084  1.00  0.00     0.031 C 
ATOM     40  C   UNL A   1      37.176  33.386  33.280  1.00  0.00     0.029 A 
ATOM     41  N   UNL A   1      38.893  31.953  33.290  1.00  0.00    -0.354 N 
ATOM     42  C   UNL A   1      39.759  29.500  29.839  1.00  0.00     0.074 A 
ATOM     43  C   UNL A   1      38.802  29.737  28.781  1.00  0.00     0.031 C 
ATOM     44  C   UNL A   1      37.762  33.467  34.485  1.00  0.00     0.029 A 
ATOM     45  C   UNL A   1      38.882  32.533  34.535  1.00  0.00     0.049 A 
ATOM     46  H   UNL A   1      39.547  31.268  33.019  1.00  0.00     0.167 HD
ATOM     47  C   UNL A   1      40.780  28.613  29.763  1.00  0.00     0.037 A 
ATOM     48  C   UNL A   1      39.687  32.333  35.594  1.00  0.00     0.037 A 
ATOM     49  C   UNL A   1      41.748  28.402  30.809  1.00  0.00     0.049 A 
ATOM     50  C   UNL A   1      40.809  31.336  35.486  1.00  0.00     0.074 A 
ATOM     51  C   UNL A   1      42.868  27.588  30.798  1.00  0.00     0.029 A 
ATOM     52  N   UNL A   1      41.703  29.005  32.058  1.00  0.00    -0.354 N 
ATOM     53  N   UNL A   1      41.164  30.596  34.465  1.00  0.00    -0.248 NA
ATOM     54  C   UNL A   1      41.644  31.150  36.681  1.00  0.00     0.031 C 
ATOM     55  C   UNL A   1      43.469  27.658  32.060  1.00  0.00     0.029 A 
ATOM     56  C   UNL A   1      42.757  28.556  32.838  1.00  0.00     0.049 A 
ATOM     57  H   UNL A   1      41.024  29.656  32.347  1.00  0.00     0.167 HD
ATOM     58  C   UNL A   1      42.280  29.881  34.880  1.00  0.00     0.074 A 
ATOM     59  C   UNL A   1      42.550  30.289  36.243  1.00  0.00     0.031 C 
ATOM     60  C   UNL A   1      43.017  28.974  34.193  1.00  0.00     0.037 A 
BRANCH  47  61
ATOM     61  C   UNL A   1      40.897  27.795  28.507  1.00  0.00     0.064 A 
ATOM     62  C   UNL A   1      40.203  26.586  28.344  1.00  0.00     0.173 A 
ATOM     63  C   UNL A   1      41.698  28.238  27.445  1.00  0.00     0.173 A 
ATOM     64  F   UNL A   1      39.432  26.111  29.334  1.00  0.00    -0.203 F 
ATOM     65  C   UNL A   1      40.339  25.833  27.181  1.00  0.00     0.198 A 
ATOM     66  C   UNL A   1      41.805  27.499  26.269  1.00  0.00     0.198 A 
ATOM     67  F   UNL A   1      42.378  29.391  27.543  1.00  0.00    -0.203 F 
ATOM     68  F   UNL A   1      39.714  24.653  27.073  1.00  0.00    -0.200 F 
ATOM     69  C   UNL A   1      41.134  26.292  26.142  1.00  0.00     0.200 A 
ATOM     70  F   UNL A   1      42.562  27.952  25.261  1.00  0.00    -0.200 F 
ATOM     71  F   UNL A   1      41.260  25.568  25.022  1.00  0.00    -0.200 F 
ENDBRANCH  47  61
BRANCH  48  72
ATOM     72  C   UNL A   1      39.490  33.125  36.836  1.00  0.00     0.064 A 
ATOM     73  C   UNL A   1      38.579  32.703  37.815  1.00  0.00     0.173 A 
ATOM     74  C   UNL A   1      40.202  34.308  37.074  1.00  0.00     0.173 A 
ATOM     75  F   UNL A   1      37.860  31.586  37.622  1.00  0.00    -0.203 F 
ATOM     76  C   UNL A   1      38.375  33.444  38.976  1.00  0.00     0.198 A 
ATOM     77  C   UNL A   1      40.016  35.034  38.249  1.00  0.00     0.198 A 
ATOM     78  F   UNL A   1      41.088  34.753  36.172  1.00  0.00    -0.203 F 
ATOM     79  F   UNL A   1      37.467  33.039  39.876  1.00  0.00    -0.200 F 
ATOM     80  C   UNL A   1      39.098  34.606  39.195  1.00  0.00     0.200 A 
ATOM     81  F   UNL A   1      40.728  36.150  38.464  1.00  0.00    -0.200 F 
ATOM     82  F   UNL A   1      38.906  35.316  40.315  1.00  0.00    -0.200 F 
ENDBRANCH  48  72
BRANCH  60  83
ATOM     83  C   UNL A   1      44.207  28.384  34.893  1.00  0.00     0.064 A 
ATOM     84  C   UNL A   1      45.474  28.983  34.827  1.00  0.00     0.173 A 
ATOM     85  C   UNL A   1      44.070  27.221  35.666  1.00  0.00     0.173 A 
ATOM     86  F   UNL A   1      45.660  30.088  34.088  1.00  0.00    -0.203 F 
ATOM     87  C   UNL A   1      46.565  28.422  35.485  1.00  0.00     0.198 A 
ATOM     88  C   UNL A   1      45.158  26.682  36.349  1.00  0.00     0.198 A 
ATOM     89  F   UNL A   1      42.880  26.612  35.768  1.00  0.00    -0.203 F 
ATOM     90  F   UNL A   1      47.778  28.982  35.364  1.00  0.00    -0.200 F 
ATOM     91  C   UNL A   1      46.404  27.278  36.250  1.00  0.00     0.200 A 
ATOM     92  F   UNL A   1      44.997  25.583  37.099  1.00  0.00    -0.200 F 
ATOM     93  F   UNL A   1      47.456  26.743  36.887  1.00  0.00    -0.200 F 
ENDBRANCH  60  83
ENDBRANCH  34  35
ENDBRANCH  26  29
ENDBRANCH  24  25
ENDBRANCH  23  24
ENDBRANCH  22  23
ENDBRANCH  21  22
ENDBRANCH   1  21
TORSDOF 17
ENDMDL
MODEL 2
REMARK VINA RESULT:     -11.0      0.416      7.320
REMARK SMILES C[C@@H](C(=O)[C@H](C)[C@@H](C)C(=O)NCCCCCCNC(=O)c1ccc(-c2c3nc(c(-c4c(F)c(F)c(F)c(F)c4F)c4ccc([nH]4)c(-c4c(F)c(F)c(F)c(F)c4F)c4nc(c(-c5c(F)c(F)c(F)c(F)c5F)c5ccc2[nH]5)C=C4)C=C3)cc1)c1ccccc1
REMARK SMILES IDX 13 1 12 2 11 3 9 4 10 5 7 7 8 8 5 9 6 10 3 11 4 12 2 13 1 14
REMARK SMILES IDX 84 15 85 16 89 17 86 18 88 19 87 20 14 21 15 22 16 23 17 24
REMARK SMILES IDX 18 25 19 26 20 28 21 29 22 30 83 31 23 32 82 33 24 34 25 35
REMARK SMILES IDX 26 36 76 37 27 38 81 39 75 40 77 41 28 42 80 43 74 44 73 45
REMARK SMILES IDX 29 47 61 48 41 49 60 50 42 51 45 52 59 53 78 54 43 55 44 56
REMARK SMILES IDX 58 58 79 59 46 60 30 61 31 62 39 63 32 64 33 65 37 66 40 67
REMARK SMILES IDX 34 68 35 69 38 70 36 71 62 72 63 73 71 74 64 75 65 76 69 77
REMARK SMILES IDX 72 78 66 79 67 80 70 81 68 82 47 83 48 84 56 85 49 86 50 87
REMARK SMILES IDX 54 88 57 89 51 90 52 91 55 92 53 93
REMARK H PARENT 11 6 18 27 77 46 45 57
REMARK Flexibility Score: inf
ROOT
ATOM      1  C   UNL A   1      32.316  28.461  26.600  1.00  0.00     0.021 C 
ENDROOT
BRANCH   1   2
ATOM      2  C   UNL A   1      33.752  27.961  26.469  1.00  0.00     0.116 C 
BRANCH   2   3
ATOM      3  N   UNL A   1      33.925  27.171  25.268  1.00  0.00    -0.356 N 
ATOM      4  C   UNL A   1      33.724  25.857  25.020  1.00  0.00     0.223 C 
ATOM      5  O   UNL A   1      33.965  25.451  23.880  1.00  0.00    -0.275 OA
ATOM      6  H   UNL A   1      34.244  27.684  24.490  1.00  0.00     0.163 HD
BRANCH   4   7
ATOM      7  C   UNL A   1      33.205  24.889  26.074  1.00  0.00     0.085 C 
ATOM      8  C   UNL A   1      34.286  23.855  26.415  1.00  0.00     0.019 C 
BRANCH   7   9
ATOM      9  C   UNL A   1      31.817  24.293  25.770  1.00  0.00     0.066 C 
ATOM     10  C   UNL A   1      31.365  23.264  26.809  1.00  0.00     0.017 C 
BRANCH   9  11
ATOM     11  C   UNL A   1      30.657  25.265  25.497  1.00  0.00     0.143 C 
ATOM     12  O   UNL A   1      30.296  25.978  26.444  1.00  0.00    -0.299 OA
BRANCH  11  13
ATOM     13  C   UNL A   1      29.993  25.372  24.111  1.00  0.00     0.083 C 
ATOM     14  C   UNL A   1      30.670  24.523  23.033  1.00  0.00     0.021 C 
BRANCH  13  15
ATOM     15  C   UNL A   1      29.894  26.826  23.640  1.00  0.00    -0.038 A 
ATOM     16  C   UNL A   1      28.651  27.465  23.489  1.00  0.00     0.004 A 
ATOM     17  C   UNL A   1      31.057  27.545  23.326  1.00  0.00     0.004 A 
ATOM     18  C   UNL A   1      28.577  28.792  23.060  1.00  0.00     0.000 A 
ATOM     19  C   UNL A   1      30.979  28.871  22.891  1.00  0.00     0.000 A 
ATOM     20  C   UNL A   1      29.741  29.496  22.763  1.00  0.00     0.000 A 
ENDBRANCH  13  15
ENDBRANCH  11  13
ENDBRANCH   9  11
ENDBRANCH   7   9
ENDBRANCH   4   7
ENDBRANCH   2   3
ENDBRANCH   1   2
BRANCH   1  21
ATOM     21  C   UNL A   1      32.197  29.919  27.060  1.00  0.00     0.002 C 
BRANCH  21  22
ATOM     22  C   UNL A   1      31.362  30.824  26.148  1.00  0.00     0.002 C 
BRANCH  22  23
ATOM     23  C   UNL A   1      31.333  32.301  26.545  1.00  0.00     0.021 C 
BRANCH  23  24
ATOM     24  C   UNL A   1      32.678  32.868  26.981  1.00  0.00     0.116 C 
BRANCH  24  25
ATOM     25  N   UNL A   1      32.538  34.145  27.663  1.00  0.00    -0.352 N 
ATOM     26  C   UNL A   1      33.199  34.614  28.766  1.00  0.00     0.251 C 
ATOM     27  H   UNL A   1      31.873  34.759  27.276  1.00  0.00     0.163 HD
ATOM     28  O   UNL A   1      32.816  35.641  29.327  1.00  0.00    -0.269 OA
BRANCH  26  29
ATOM     29  C   UNL A   1      34.361  33.877  29.301  1.00  0.00     0.039 A 
ATOM     30  C   UNL A   1      35.647  34.341  29.011  1.00  0.00     0.014 A 
ATOM     31  C   UNL A   1      34.189  32.727  30.077  1.00  0.00     0.014 A 
ATOM     32  C   UNL A   1      36.758  33.682  29.540  1.00  0.00     0.010 A 
ATOM     33  C   UNL A   1      35.292  32.115  30.665  1.00  0.00     0.010 A 
ATOM     34  C   UNL A   1      36.588  32.580  30.395  1.00  0.00    -0.014 A 
BRANCH  34  35
ATOM     35  C   UNL A   1      37.756  31.902  31.010  1.00  0.00     0.031 A 
ATOM     36  C   UNL A   1      38.194  32.265  32.402  1.00  0.00     0.074 A 
ATOM     37  C   UNL A   1      38.454  31.003  30.293  1.00  0.00     0.049 A 
ATOM     38  N   UNL A   1      39.208  31.810  33.095  1.00  0.00    -0.248 NA
ATOM     39  C   UNL A   1      37.406  33.293  33.097  1.00  0.00     0.031 C 
ATOM     40  C   UNL A   1      38.155  30.601  28.918  1.00  0.00     0.029 A 
ATOM     41  N   UNL A   1      39.564  30.264  30.621  1.00  0.00    -0.354 N 
ATOM     42  C   UNL A   1      39.189  32.511  34.294  1.00  0.00     0.074 A 
ATOM     43  C   UNL A   1      38.096  33.455  34.215  1.00  0.00     0.031 C 
ATOM     44  C   UNL A   1      39.036  29.665  28.533  1.00  0.00     0.029 A 
ATOM     45  C   UNL A   1      39.984  29.427  29.616  1.00  0.00     0.049 A 
ATOM     46  H   UNL A   1      40.016  30.329  31.494  1.00  0.00     0.167 HD
ATOM     47  C   UNL A   1      39.997  32.363  35.372  1.00  0.00     0.037 A 
ATOM     48  C   UNL A   1      41.017  28.565  29.577  1.00  0.00     0.037 A 
ATOM     49  C   UNL A   1      41.065  31.400  35.456  1.00  0.00     0.049 A 
ATOM     50  C   UNL A   1      41.904  28.428  30.784  1.00  0.00     0.074 A 
ATOM     51  C   UNL A   1      41.888  31.115  36.532  1.00  0.00     0.029 A 
ATOM     52  N   UNL A   1      41.464  30.571  34.416  1.00  0.00    -0.354 N 
ATOM     53  N   UNL A   1      41.826  29.032  31.944  1.00  0.00    -0.248 NA
ATOM     54  C   UNL A   1      43.024  27.482  30.675  1.00  0.00     0.031 C 
ATOM     55  C   UNL A   1      42.819  30.153  36.126  1.00  0.00     0.029 A 
ATOM     56  C   UNL A   1      42.542  29.798  34.815  1.00  0.00     0.049 A 
ATOM     57  H   UNL A   1      41.043  30.538  33.528  1.00  0.00     0.167 HD
ATOM     58  C   UNL A   1      42.862  28.519  32.714  1.00  0.00     0.074 A 
ATOM     59  C   UNL A   1      43.547  27.544  31.891  1.00  0.00     0.031 C 
ATOM     60  C   UNL A   1      43.212  28.826  33.987  1.00  0.00     0.037 A 
BRANCH  47  61
ATOM     61  C   UNL A   1      39.763  33.273  36.544  1.00  0.00     0.064 A 
ATOM     62  C   UNL A   1      38.822  32.969  37.541  1.00  0.00     0.173 A 
ATOM     63  C   UNL A   1      40.504  34.456  36.683  1.00  0.00     0.173 A 
ATOM     64  F   UNL A   1      38.080  31.856  37.451  1.00  0.00    -0.203 F 
ATOM     65  C   UNL A   1      38.606  33.835  38.610  1.00  0.00     0.198 A 
ATOM     66  C   UNL A   1      40.308  35.302  37.772  1.00  0.00     0.198 A 
ATOM     67  F   UNL A   1      41.422  34.793  35.764  1.00  0.00    -0.203 F 
ATOM     68  F   UNL A   1      37.661  33.551  39.517  1.00  0.00    -0.200 F 
ATOM     69  C   UNL A   1      39.352  34.996  38.729  1.00  0.00     0.200 A 
ATOM     70  F   UNL A   1      41.041  36.418  37.893  1.00  0.00    -0.200 F 
ATOM     71  F   UNL A   1      39.145  35.826  39.761  1.00  0.00    -0.200 F 
ENDBRANCH  47  61
BRANCH  48  72
ATOM     72  C   UNL A   1      41.242  27.732  28.368  1.00  0.00     0.064 A 
ATOM     73  C   UNL A   1      42.120  28.158  27.361  1.00  0.00     0.173 A 
ATOM     74  C   UNL A   1      40.596  26.501  28.192  1.00  0.00     0.173 A 
ATOM     75  F   UNL A   1      42.747  29.339  27.475  1.00  0.00    -0.203 F 
ATOM     76  C   UNL A   1      42.329  27.393  26.216  1.00  0.00     0.198 A 
ATOM     77  C   UNL A   1      40.826  25.724  27.058  1.00  0.00     0.198 A 
ATOM     78  F   UNL A   1      39.750  26.046  29.127  1.00  0.00    -0.203 F 
ATOM     79  F   UNL A   1      43.141  27.844  25.250  1.00  0.00    -0.200 F 
ATOM     80  C   UNL A   1      41.686  26.173  26.068  1.00  0.00     0.200 A 
ATOM     81  F   UNL A   1      40.214  24.539  26.926  1.00  0.00    -0.200 F 
ATOM     82  F   UNL A   1      41.891  25.435  24.969  1.00  0.00    -0.200 F 
ENDBRANCH  48  72
BRANCH  60  83
ATOM     83  C   UNL A   1      44.367  28.074  34.582  1.00  0.00     0.064 A 
ATOM     84  C   UNL A   1      45.679  28.568  34.524  1.00  0.00     0.173 A 
ATOM     85  C   UNL A   1      44.153  26.856  35.246  1.00  0.00     0.173 A 
ATOM     86  F   UNL A   1      45.938  29.719  33.886  1.00  0.00    -0.203 F 
ATOM     87  C   UNL A   1      46.736  27.855  35.082  1.00  0.00     0.198 A 
ATOM     88  C   UNL A   1      45.209  26.163  35.832  1.00  0.00     0.198 A 
ATOM     89  F   UNL A   1      42.917  26.342  35.336  1.00  0.00    -0.203 F 
ATOM     90  F   UNL A   1      47.988  28.320  34.968  1.00  0.00    -0.200 F 
ATOM     91  C   UNL A   1      46.499  26.659  35.742  1.00  0.00     0.200 A 
ATOM     92  F   UNL A   1      44.975  25.014  36.481  1.00  0.00    -0.200 F 
ATOM     93  F   UNL A   1      47.519  25.978  36.284  1.00  0.00    -0.200 F 
ENDBRANCH  60  83
ENDBRANCH  34  35
ENDBRANCH  26  29
ENDBRANCH  24  25
ENDBRANCH  23  24
ENDBRANCH  22  23
ENDBRANCH  21  22
ENDBRANCH   1  21
TORSDOF 17
ENDMDL
MODEL 3
REMARK VINA RESULT:     -10.9      1.114      7.621
REMARK SMILES C[C@@H](C(=O)[C@H](C)[C@@H](C)C(=O)NCCCCCCNC(=O)c1ccc(-c2c3nc(c(-c4c(F)c(F)c(F)c(F)c4F)c4ccc([nH]4)c(-c4c(F)c(F)c(F)c(F)c4F)c4nc(c(-c5c(F)c(F)c(F)c(F)c5F)c5ccc2[nH]5)C=C4)C=C3)cc1)c1ccccc1
REMARK SMILES IDX 13 1 12 2 11 3 9 4 10 5 7 7 8 8 5 9 6 10 3 11 4 12 2 13 1 14
REMARK SMILES IDX 84 15 85 16 89 17 86 18 88 19 87 20 14 21 15 22 16 23 17 24
REMARK SMILES IDX 18 25 19 26 20 28 21 29 22 30 83 31 23 32 82 33 24 34 25 35
REMARK SMILES IDX 26 36 76 37 27 38 81 39 75 40 77 41 28 42 80 43 74 44 73 45
REMARK SMILES IDX 29 47 61 48 41 49 60 50 42 51 45 52 59 53 78 54 43 55 44 56
REMARK SMILES IDX 58 58 79 59 46 60 30 61 31 62 39 63 32 64 33 65 37 66 40 67
REMARK SMILES IDX 34 68 35 69 38 70 36 71 62 72 63 73 71 74 64 75 65 76 69 77
REMARK SMILES IDX 72 78 66 79 67 80 70 81 68 82 47 83 48 84 56 85 49 86 50 87
REMARK SMILES IDX 54 88 57 89 51 90 52 91 55 92 53 93
REMARK H PARENT 11 6 18 27 77 46 45 57
REMARK Flexibility Score: inf
ROOT
ATOM      1  C   UNL A   1      33.525  28.925  26.425  1.00  0.00     0.021 C 
ENDROOT
BRANCH   1   2
ATOM      2  C   UNL A   1      33.520  29.155  24.916  1.00  0.00     0.116 C 
BRANCH   2   3
ATOM      3  N   UNL A   1      33.481  27.901  24.194  1.00  0.00    -0.356 N 
ATOM      4  C   UNL A   1      32.504  26.976  24.052  1.00  0.00     0.223 C 
ATOM      5  O   UNL A   1      32.760  25.980  23.370  1.00  0.00    -0.275 OA
ATOM      6  H   UNL A   1      34.316  27.682  23.719  1.00  0.00     0.163 HD
BRANCH   4   7
ATOM      7  C   UNL A   1      31.126  27.130  24.680  1.00  0.00     0.085 C 
ATOM      8  C   UNL A   1      31.031  26.283  25.955  1.00  0.00     0.019 C 
BRANCH   7   9
ATOM      9  C   UNL A   1      29.951  26.951  23.699  1.00  0.00     0.066 C 
ATOM     10  C   UNL A   1      28.751  26.235  24.324  1.00  0.00     0.017 C 
BRANCH   9  11
ATOM     11  C   UNL A   1      29.449  28.189  22.938  1.00  0.00     0.143 C 
ATOM     12  O   UNL A   1      30.025  28.458  21.874  1.00  0.00    -0.299 OA
BRANCH  11  13
ATOM     13  C   UNL A   1      28.271  29.038  23.451  1.00  0.00     0.083 C 
ATOM     14  C   UNL A   1      26.896  28.466  23.101  1.00  0.00     0.021 C 
BRANCH  13  15
ATOM     15  C   UNL A   1      28.366  30.489  22.970  1.00  0.00    -0.038 A 
ATOM     16  C   UNL A   1      27.903  30.873  21.700  1.00  0.00     0.004 A 
ATOM     17  C   UNL A   1      28.947  31.467  23.793  1.00  0.00     0.004 A 
ATOM     18  C   UNL A   1      27.995  32.200  21.276  1.00  0.00     0.000 A 
ATOM     19  C   UNL A   1      29.043  32.794  23.363  1.00  0.00     0.000 A 
ATOM     20  C   UNL A   1      28.563  33.161  22.108  1.00  0.00     0.000 A 
ENDBRANCH  13  15
ENDBRANCH  11  13
ENDBRANCH   9  11
ENDBRANCH   7   9
ENDBRANCH   4   7
ENDBRANCH   2   3
ENDBRANCH   1   2
BRANCH   1  21
ATOM     21  C   UNL A   1      32.558  29.825  27.202  1.00  0.00     0.002 C 
BRANCH  21  22
ATOM     22  C   UNL A   1      31.555  30.601  26.341  1.00  0.00     0.002 C 
BRANCH  22  23
ATOM     23  C   UNL A   1      31.419  32.088  26.679  1.00  0.00     0.021 C 
BRANCH  23  24
ATOM     24  C   UNL A   1      32.721  32.769  27.082  1.00  0.00     0.116 C 
BRANCH  24  25
ATOM     25  N   UNL A   1      32.500  34.115  27.586  1.00  0.00    -0.352 N 
ATOM     26  C   UNL A   1      33.096  34.754  28.640  1.00  0.00     0.251 C 
ATOM     27  H   UNL A   1      31.825  34.642  27.100  1.00  0.00     0.163 HD
ATOM     28  O   UNL A   1      32.648  35.826  29.048  1.00  0.00    -0.269 OA
BRANCH  26  29
ATOM     29  C   UNL A   1      34.266  34.148  29.306  1.00  0.00     0.039 A 
ATOM     30  C   UNL A   1      34.058  33.268  30.371  1.00  0.00     0.014 A 
ATOM     31  C   UNL A   1      35.567  34.453  28.892  1.00  0.00     0.014 A 
ATOM     32  C   UNL A   1      35.149  32.655  30.988  1.00  0.00     0.010 A 
ATOM     33  C   UNL A   1      36.649  33.786  29.457  1.00  0.00     0.010 A 
ATOM     34  C   UNL A   1      36.452  32.887  30.517  1.00  0.00    -0.014 A 
BRANCH  34  35
ATOM     35  C   UNL A   1      37.619  32.200  31.125  1.00  0.00     0.031 A 
ATOM     36  C   UNL A   1      38.086  32.579  32.502  1.00  0.00     0.074 A 
ATOM     37  C   UNL A   1      38.290  31.276  30.412  1.00  0.00     0.049 A 
ATOM     38  N   UNL A   1      39.104  32.120  33.187  1.00  0.00    -0.248 NA
ATOM     39  C   UNL A   1      37.327  33.633  33.192  1.00  0.00     0.031 C 
ATOM     40  C   UNL A   1      37.961  30.856  29.050  1.00  0.00     0.029 A 
ATOM     41  N   UNL A   1      39.393  30.524  30.735  1.00  0.00    -0.354 N 
ATOM     42  C   UNL A   1      39.117  32.841  34.373  1.00  0.00     0.074 A 
ATOM     43  C   UNL A   1      38.039  33.802  34.295  1.00  0.00     0.031 C 
ATOM     44  C   UNL A   1      38.820  29.898  28.667  1.00  0.00     0.029 A 
ATOM     45  C   UNL A   1      39.782  29.663  29.739  1.00  0.00     0.049 A 
ATOM     46  H   UNL A   1      39.860  30.596  31.599  1.00  0.00     0.167 HD
ATOM     47  C   UNL A   1      39.941  32.699  35.440  1.00  0.00     0.037 A 
ATOM     48  C   UNL A   1      40.799  28.783  29.698  1.00  0.00     0.037 A 
ATOM     49  C   UNL A   1      40.993  31.720  35.523  1.00  0.00     0.049 A 
ATOM     50  C   UNL A   1      41.704  28.651  30.892  1.00  0.00     0.074 A 
ATOM     51  C   UNL A   1      41.829  31.439  36.591  1.00  0.00     0.029 A 
ATOM     52  N   UNL A   1      41.361  30.866  34.493  1.00  0.00    -0.354 N 
ATOM     53  N   UNL A   1      41.655  29.277  32.042  1.00  0.00    -0.248 NA
ATOM     54  C   UNL A   1      42.806  27.685  30.782  1.00  0.00     0.031 C 
ATOM     55  C   UNL A   1      42.736  30.454  36.186  1.00  0.00     0.029 A 
ATOM     56  C   UNL A   1      42.432  30.081  34.887  1.00  0.00     0.049 A 
ATOM     57  H   UNL A   1      40.924  30.824  33.612  1.00  0.00     0.167 HD
ATOM     58  C   UNL A   1      42.695  28.760  32.804  1.00  0.00     0.074 A 
ATOM     59  C   UNL A   1      43.350  27.759  31.988  1.00  0.00     0.031 C 
ATOM     60  C   UNL A   1      43.071  29.084  34.066  1.00  0.00     0.037 A 
BRANCH  47  61
ATOM     61  C   UNL A   1      39.741  33.633  36.600  1.00  0.00     0.064 A 
ATOM     62  C   UNL A   1      40.379  34.882  36.663  1.00  0.00     0.173 A 
ATOM     63  C   UNL A   1      38.884  33.282  37.653  1.00  0.00     0.173 A 
ATOM     64  F   UNL A   1      41.216  35.262  35.686  1.00  0.00    -0.203 F 
ATOM     65  C   UNL A   1      40.196  35.726  37.755  1.00  0.00     0.198 A 
ATOM     66  C   UNL A   1      38.678  34.144  38.728  1.00  0.00     0.198 A 
ATOM     67  F   UNL A   1      38.243  32.104  37.642  1.00  0.00    -0.203 F 
ATOM     68  F   UNL A   1      40.861  36.887  37.820  1.00  0.00    -0.200 F 
ATOM     69  C   UNL A   1      39.341  35.360  38.783  1.00  0.00     0.200 A 
ATOM     70  F   UNL A   1      37.840  33.794  39.714  1.00  0.00    -0.200 F 
ATOM     71  F   UNL A   1      39.164  36.175  39.832  1.00  0.00    -0.200 F 
ENDBRANCH  47  61
BRANCH  48  72
ATOM     72  C   UNL A   1      40.990  27.925  28.500  1.00  0.00     0.064 A 
ATOM     73  C   UNL A   1      41.820  28.341  27.449  1.00  0.00     0.173 A 
ATOM     74  C   UNL A   1      40.357  26.681  28.378  1.00  0.00     0.173 A 
ATOM     75  F   UNL A   1      42.431  29.533  27.511  1.00  0.00    -0.203 F 
ATOM     76  C   UNL A   1      41.996  27.552  26.315  1.00  0.00     0.198 A 
ATOM     77  C   UNL A   1      40.555  25.880  27.255  1.00  0.00     0.198 A 
ATOM     78  F   UNL A   1      39.557  26.235  29.357  1.00  0.00    -0.203 F 
ATOM     79  F   UNL A   1      42.762  27.993  25.307  1.00  0.00    -0.200 F 
ATOM     80  C   UNL A   1      41.368  26.319  26.221  1.00  0.00     0.200 A 
ATOM     81  F   UNL A   1      39.958  24.683  27.174  1.00  0.00    -0.200 F 
ATOM     82  F   UNL A   1      41.541  25.558  25.132  1.00  0.00    -0.200 F 
ENDBRANCH  48  72
BRANCH  60  83
ATOM     83  C   UNL A   1      44.224  28.322  34.655  1.00  0.00     0.064 A 
ATOM     84  C   UNL A   1      45.544  28.786  34.555  1.00  0.00     0.173 A 
ATOM     85  C   UNL A   1      43.999  27.126  35.355  1.00  0.00     0.173 A 
ATOM     86  F   UNL A   1      45.813  29.915  33.883  1.00  0.00    -0.203 F 
ATOM     87  C   UNL A   1      46.598  28.066  35.109  1.00  0.00     0.198 A 
ATOM     88  C   UNL A   1      45.053  26.426  35.935  1.00  0.00     0.198 A 
ATOM     89  F   UNL A   1      42.755  26.641  35.485  1.00  0.00    -0.203 F 
ATOM     90  F   UNL A   1      47.857  28.501  34.956  1.00  0.00    -0.200 F 
ATOM     91  C   UNL A   1      46.351  26.892  35.805  1.00  0.00     0.200 A 
ATOM     92  F   UNL A   1      44.810  25.299  36.619  1.00  0.00    -0.200 F 
ATOM     93  F   UNL A   1      47.368  26.204  36.343  1.00  0.00    -0.200 F 
ENDBRANCH  60  83
ENDBRANCH  34  35
ENDBRANCH  26  29
ENDBRANCH  24  25
ENDBRANCH  23  24
ENDBRANCH  22  23
ENDBRANCH  21  22
ENDBRANCH   1  21
TORSDOF 17
ENDMDL
