MODEL 1
REMARK VINA RESULT:     -10.2      0.000      0.000
REMARK SMILES CC(=O)Oc1ccccc1SCCCCCC(=O)NCCCCCCNC(=O)c1ccc(-c2c3nc(c(-c4c(F)c(F)c(F)c(F)c4F)c4ccc([nH]4)c(-c4c(F)c(F)c(F)c(F)c4F)c4nc(c(-c5c(F)c(F)c(F)c(F)c5F)c5ccc2[nH]5)C=C4)C=C3)cc1
REMARK SMILES IDX 17 1 18 2 19 3 16 5 15 6 14 7 13 8 12 9 11 10 10 11 5 12
REMARK SMILES IDX 6 13 7 14 9 15 8 16 4 17 2 18 1 19 3 20 20 21 21 22 22 23
REMARK SMILES IDX 23 24 24 25 25 26 26 27 27 28 28 30 29 31 30 32 91 33 31 34
REMARK SMILES IDX 90 35 32 36 33 37 34 38 84 39 35 40 89 41 83 42 85 43 36 44
REMARK SMILES IDX 88 45 82 46 81 47 37 49 69 50 49 51 68 52 50 53 53 54 67 55
REMARK SMILES IDX 86 56 51 57 52 58 66 60 87 61 54 62 38 63 39 64 47 65 40 66
REMARK SMILES IDX 41 67 45 68 48 69 42 70 43 71 46 72 44 73 70 74 71 75 79 76
REMARK SMILES IDX 72 77 73 78 77 79 80 80 74 81 75 82 78 83 76 84 55 85 56 86
REMARK SMILES IDX 64 87 57 88 58 89 62 90 65 91 59 92 60 93 63 94 61 95
REMARK H PARENT 19 4 26 29 85 48 53 59
REMARK Flexibility Score: inf
ROOT
ATOM      1  C   UNL A   1      30.270  23.274  26.785  1.00  0.00     0.219 C 
ATOM      2  O   UNL A   1      29.379  23.133  27.623  1.00  0.00    -0.275 OA
ATOM      3  N   UNL A   1      30.722  22.177  26.119  1.00  0.00    -0.356 N 
ATOM      4  H   UNL A   1      30.223  21.343  26.281  1.00  0.00     0.163 HD
ENDROOT
BRANCH   1   5
ATOM      5  C   UNL A   1      30.864  24.632  26.484  1.00  0.00     0.100 C 
BRANCH   5   6
ATOM      6  C   UNL A   1      29.886  25.576  25.785  1.00  0.00     0.010 C 
BRANCH   6   7
ATOM      7  C   UNL A   1      30.125  25.964  24.313  1.00  0.00     0.001 C 
BRANCH   7   8
ATOM      8  C   UNL A   1      29.971  27.437  23.899  1.00  0.00     0.011 C 
BRANCH   8   9
ATOM      9  C   UNL A   1      30.731  27.943  22.654  1.00  0.00     0.075 C 
BRANCH   9  10
ATOM     10  S   UNL A   1      32.455  28.583  22.760  1.00  0.00    -0.122 SA
BRANCH  10  11
ATOM     11  C   UNL A   1      33.237  27.305  23.708  1.00  0.00     0.050 A 
ATOM     12  C   UNL A   1      33.475  27.383  25.086  1.00  0.00     0.144 A 
ATOM     13  C   UNL A   1      33.991  26.277  25.781  1.00  0.00     0.048 A 
ATOM     14  C   UNL A   1      34.286  25.092  25.106  1.00  0.00     0.004 A 
ATOM     15  C   UNL A   1      33.604  26.124  23.034  1.00  0.00     0.019 A 
ATOM     16  C   UNL A   1      34.114  25.022  23.729  1.00  0.00     0.001 A 
BRANCH  12  17
ATOM     17  O   UNL A   1      33.272  28.525  25.921  1.00  0.00    -0.426 OA
BRANCH  17  18
ATOM     18  C   UNL A   1      32.175  28.846  26.733  1.00  0.00     0.308 C 
ATOM     19  C   UNL A   1      31.728  30.247  26.465  1.00  0.00     0.139 C 
ATOM     20  O   UNL A   1      31.683  28.183  27.624  1.00  0.00    -0.252 OA
ENDBRANCH  17  18
ENDBRANCH  12  17
ENDBRANCH  10  11
ENDBRANCH   9  10
ENDBRANCH   8   9
ENDBRANCH   7   8
ENDBRANCH   6   7
ENDBRANCH   5   6
ENDBRANCH   1   5
BRANCH   3  21
ATOM     21  C   UNL A   1      31.836  22.073  25.204  1.00  0.00     0.116 C 
BRANCH  21  22
ATOM     22  C   UNL A   1      33.112  21.720  25.964  1.00  0.00     0.021 C 
BRANCH  22  23
ATOM     23  C   UNL A   1      34.000  20.713  25.244  1.00  0.00     0.002 C 
BRANCH  23  24
ATOM     24  C   UNL A   1      35.322  21.297  24.736  1.00  0.00     0.002 C 
BRANCH  24  25
ATOM     25  C   UNL A   1      36.104  22.148  25.744  1.00  0.00     0.021 C 
BRANCH  25  26
ATOM     26  C   UNL A   1      37.565  22.405  25.381  1.00  0.00     0.116 C 
BRANCH  26  27
ATOM     27  N   UNL A   1      38.452  21.427  25.988  1.00  0.00    -0.352 N 
ATOM     28  C   UNL A   1      39.678  21.593  26.572  1.00  0.00     0.251 C 
ATOM     29  H   UNL A   1      38.118  20.501  25.979  1.00  0.00     0.163 HD
ATOM     30  O   UNL A   1      40.392  20.619  26.789  1.00  0.00    -0.269 OA
BRANCH  28  31
ATOM     31  C   UNL A   1      40.146  22.941  26.946  1.00  0.00     0.039 A 
ATOM     32  C   UNL A   1      40.981  23.079  28.057  1.00  0.00     0.014 A 
ATOM     33  C   UNL A   1      39.713  24.070  26.244  1.00  0.00     0.014 A 
ATOM     34  C   UNL A   1      41.417  24.349  28.441  1.00  0.00     0.010 A 
ATOM     35  C   UNL A   1      40.199  25.328  26.589  1.00  0.00     0.010 A 
ATOM     36  C   UNL A   1      41.044  25.480  27.697  1.00  0.00    -0.014 A 
BRANCH  36  37
ATOM     37  C   UNL A   1      41.515  26.833  28.077  1.00  0.00     0.031 A 
ATOM     38  C   UNL A   1      42.970  27.185  27.951  1.00  0.00     0.074 A 
ATOM     39  C   UNL A   1      40.642  27.721  28.588  1.00  0.00     0.049 A 
ATOM     40  N   UNL A   1      43.588  28.288  28.294  1.00  0.00    -0.248 NA
ATOM     41  C   UNL A   1      43.854  26.152  27.389  1.00  0.00     0.031 C 
ATOM     42  C   UNL A   1      39.215  27.476  28.796  1.00  0.00     0.029 A 
ATOM     43  N   UNL A   1      40.830  29.002  29.039  1.00  0.00    -0.354 N 
ATOM     44  C   UNL A   1      44.929  28.073  28.008  1.00  0.00     0.074 A 
ATOM     45  C   UNL A   1      45.045  26.722  27.505  1.00  0.00     0.031 C 
ATOM     46  C   UNL A   1      38.651  28.579  29.316  1.00  0.00     0.029 A 
ATOM     47  C   UNL A   1      39.684  29.593  29.510  1.00  0.00     0.049 A 
ATOM     48  H   UNL A   1      41.704  29.456  29.026  1.00  0.00     0.167 HD
ATOM     49  C   UNL A   1      45.968  28.934  28.135  1.00  0.00     0.037 A 
ATOM     50  C   UNL A   1      39.491  30.813  30.044  1.00  0.00     0.037 A 
ATOM     51  C   UNL A   1      45.841  30.289  28.605  1.00  0.00     0.049 A 
ATOM     52  C   UNL A   1      40.660  31.752  30.168  1.00  0.00     0.074 A 
ATOM     53  C   UNL A   1      46.819  31.262  28.707  1.00  0.00     0.029 A 
ATOM     54  N   UNL A   1      44.659  30.860  29.054  1.00  0.00    -0.354 N 
ATOM     55  N   UNL A   1      41.913  31.563  29.831  1.00  0.00    -0.248 NA
ATOM     56  C   UNL A   1      40.386  33.077  30.741  1.00  0.00     0.031 C 
ATOM     57  C   UNL A   1      46.237  32.411  29.255  1.00  0.00     0.029 A 
ATOM     58  C   UNL A   1      44.887  32.167  29.452  1.00  0.00     0.049 A 
ATOM     59  H   UNL A   1      43.786  30.404  29.085  1.00  0.00     0.167 HD
ATOM     60  C   UNL A   1      42.570  32.749  30.125  1.00  0.00     0.074 A 
ATOM     61  C   UNL A   1      41.574  33.658  30.655  1.00  0.00     0.031 C 
ATOM     62  C   UNL A   1      43.881  33.059  29.969  1.00  0.00     0.037 A 
BRANCH  49  63
ATOM     63  C   UNL A   1      47.332  28.438  27.755  1.00  0.00     0.064 A 
ATOM     64  C   UNL A   1      48.180  27.828  28.692  1.00  0.00     0.173 A 
ATOM     65  C   UNL A   1      47.782  28.540  26.431  1.00  0.00     0.173 A 
ATOM     66  F   UNL A   1      47.801  27.718  29.974  1.00  0.00    -0.203 F 
ATOM     67  C   UNL A   1      49.439  27.364  28.322  1.00  0.00     0.198 A 
ATOM     68  C   UNL A   1      49.030  28.049  26.059  1.00  0.00     0.198 A 
ATOM     69  F   UNL A   1      47.009  29.110  25.495  1.00  0.00    -0.203 F 
ATOM     70  F   UNL A   1      50.250  26.827  29.244  1.00  0.00    -0.200 F 
ATOM     71  C   UNL A   1      49.861  27.468  27.006  1.00  0.00     0.200 A 
ATOM     72  F   UNL A   1      49.432  28.139  24.782  1.00  0.00    -0.200 F 
ATOM     73  F   UNL A   1      51.071  27.015  26.650  1.00  0.00    -0.200 F 
ENDBRANCH  49  63
BRANCH  50  74
ATOM     74  C   UNL A   1      38.131  31.228  30.472  1.00  0.00     0.064 A 
ATOM     75  C   UNL A   1      37.766  31.199  31.825  1.00  0.00     0.173 A 
ATOM     76  C   UNL A   1      37.172  31.662  29.546  1.00  0.00     0.173 A 
ATOM     77  F   UNL A   1      38.644  30.774  32.746  1.00  0.00    -0.203 F 
ATOM     78  C   UNL A   1      36.488  31.572  32.234  1.00  0.00     0.198 A 
ATOM     79  C   UNL A   1      35.902  32.058  29.958  1.00  0.00     0.198 A 
ATOM     80  F   UNL A   1      37.474  31.713  28.240  1.00  0.00    -0.203 F 
ATOM     81  F   UNL A   1      36.153  31.495  33.529  1.00  0.00    -0.200 F 
ATOM     82  C   UNL A   1      35.558  32.006  31.301  1.00  0.00     0.200 A 
ATOM     83  F   UNL A   1      35.012  32.491  29.055  1.00  0.00    -0.200 F 
ATOM     84  F   UNL A   1      34.330  32.368  31.695  1.00  0.00    -0.200 F 
ENDBRANCH  50  74
BRANCH  62  85
ATOM     85  C   UNL A   1      44.306  34.447  30.344  1.00  0.00     0.064 A 
ATOM     86  C   UNL A   1      44.184  35.519  29.448  1.00  0.00     0.173 A 
ATOM     87  C   UNL A   1      44.802  34.714  31.629  1.00  0.00     0.173 A 
ATOM     88  F   UNL A   1      43.730  35.311  28.203  1.00  0.00    -0.203 F 
ATOM     89  C   UNL A   1      44.567  36.806  29.818  1.00  0.00     0.198 A 
ATOM     90  C   UNL A   1      45.158  36.006  32.004  1.00  0.00     0.198 A 
ATOM     91  F   UNL A   1      44.931  33.723  32.523  1.00  0.00    -0.203 F 
ATOM     92  F   UNL A   1      44.485  37.807  28.933  1.00  0.00    -0.200 F 
ATOM     93  C   UNL A   1      45.047  37.049  31.097  1.00  0.00     0.200 A 
ATOM     94  F   UNL A   1      45.610  36.242  33.243  1.00  0.00    -0.200 F 
ATOM     95  F   UNL A   1      45.408  38.289  31.453  1.00  0.00    -0.200 F 
ENDBRANCH  62  85
ENDBRANCH  36  37
ENDBRANCH  28  31
ENDBRANCH  26  27
ENDBRANCH  25  26
ENDBRANCH  24  25
ENDBRANCH  23  24
ENDBRANCH  22  23
ENDBRANCH  21  22
ENDBRANCH   3  21
TORSDOF 21
ENDMDL
MODEL 2
REMARK VINA RESULT:      -9.8      1.890      3.192
REMARK SMILES CC(=O)Oc1ccccc1SCCCCCC(=O)NCCCCCCNC(=O)c1ccc(-c2c3nc(c(-c4c(F)c(F)c(F)c(F)c4F)c4ccc([nH]4)c(-c4c(F)c(F)c(F)c(F)c4F)c4nc(c(-c5c(F)c(F)c(F)c(F)c5F)c5ccc2[nH]5)C=C4)C=C3)cc1
REMARK SMILES IDX 17 1 18 2 19 3 16 5 15 6 14 7 13 8 12 9 11 10 10 11 5 12
REMARK SMILES IDX 6 13 7 14 9 15 8 16 4 17 2 18 1 19 3 20 20 21 21 22 22 23
REMARK SMILES IDX 23 24 24 25 25 26 26 27 27 28 28 30 29 31 30 32 91 33 31 34
REMARK SMILES IDX 90 35 32 36 33 37 34 38 84 39 35 40 89 41 83 42 85 43 36 44
REMARK SMILES IDX 88 45 82 46 81 47 37 49 69 50 49 51 68 52 50 53 53 54 67 55
REMARK SMILES IDX 86 56 51 57 52 58 66 60 87 61 54 62 38 63 39 64 47 65 40 66
REMARK SMILES IDX 41 67 45 68 48 69 42 70 43 71 46 72 44 73 70 74 71 75 79 76
REMARK SMILES IDX 72 77 73 78 77 79 80 80 74 81 75 82 78 83 76 84 55 85 56 86
REMARK SMILES IDX 64 87 57 88 58 89 62 90 65 91 59 92 60 93 63 94 61 95
REMARK H PARENT 19 4 26 29 85 48 53 59
REMARK Flexibility Score: inf
ROOT
ATOM      1  C   UNL A   1      31.387  25.207  25.983  1.00  0.00     0.219 C 
ATOM      2  O   UNL A   1      31.005  26.002  26.842  1.00  0.00    -0.275 OA
ATOM      3  N   UNL A   1      30.783  23.991  25.899  1.00  0.00    -0.356 N 
ATOM      4  H   UNL A   1      29.995  23.865  26.476  1.00  0.00     0.163 HD
ENDROOT
BRANCH   1   5
ATOM      5  C   UNL A   1      32.503  25.558  25.024  1.00  0.00     0.100 C 
BRANCH   5   6
ATOM      6  C   UNL A   1      33.734  26.139  25.717  1.00  0.00     0.010 C 
BRANCH   6   7
ATOM      7  C   UNL A   1      33.906  27.668  25.803  1.00  0.00     0.001 C 
BRANCH   7   8
ATOM      8  C   UNL A   1      33.667  28.515  24.540  1.00  0.00     0.011 C 
BRANCH   8   9
ATOM      9  C   UNL A   1      32.243  29.038  24.255  1.00  0.00     0.075 C 
BRANCH   9  10
ATOM     10  S   UNL A   1      31.577  29.163  22.542  1.00  0.00    -0.122 SA
BRANCH  10  11
ATOM     11  C   UNL A   1      29.833  29.066  22.844  1.00  0.00     0.050 A 
ATOM     12  C   UNL A   1      28.922  30.079  22.519  1.00  0.00     0.144 A 
ATOM     13  C   UNL A   1      27.542  29.872  22.683  1.00  0.00     0.048 A 
ATOM     14  C   UNL A   1      27.063  28.662  23.185  1.00  0.00     0.004 A 
ATOM     15  C   UNL A   1      29.334  27.878  23.412  1.00  0.00     0.019 A 
ATOM     16  C   UNL A   1      27.959  27.672  23.571  1.00  0.00     0.001 A 
BRANCH  12  17
ATOM     17  O   UNL A   1      29.240  31.386  22.036  1.00  0.00    -0.426 OA
BRANCH  17  18
ATOM     18  C   UNL A   1      28.379  32.429  21.669  1.00  0.00     0.308 C 
ATOM     19  C   UNL A   1      27.973  32.281  20.237  1.00  0.00     0.139 C 
ATOM     20  O   UNL A   1      28.060  33.403  22.320  1.00  0.00    -0.252 OA
ENDBRANCH  17  18
ENDBRANCH  12  17
ENDBRANCH  10  11
ENDBRANCH   9  10
ENDBRANCH   8   9
ENDBRANCH   7   8
ENDBRANCH   6   7
ENDBRANCH   5   6
ENDBRANCH   1   5
BRANCH   3  21
ATOM     21  C   UNL A   1      31.144  22.860  25.075  1.00  0.00     0.116 C 
BRANCH  21  22
ATOM     22  C   UNL A   1      32.115  21.950  25.823  1.00  0.00     0.021 C 
BRANCH  22  23
ATOM     23  C   UNL A   1      32.566  22.502  27.169  1.00  0.00     0.002 C 
BRANCH  23  24
ATOM     24  C   UNL A   1      34.085  22.648  27.308  1.00  0.00     0.002 C 
BRANCH  24  25
ATOM     25  C   UNL A   1      34.908  22.214  26.089  1.00  0.00     0.021 C 
BRANCH  25  26
ATOM     26  C   UNL A   1      36.339  22.747  26.048  1.00  0.00     0.116 C 
BRANCH  26  27
ATOM     27  N   UNL A   1      37.316  21.671  26.064  1.00  0.00    -0.352 N 
ATOM     28  C   UNL A   1      38.680  21.721  26.142  1.00  0.00     0.251 C 
ATOM     29  H   UNL A   1      36.936  20.764  26.010  1.00  0.00     0.163 HD
ATOM     30  O   UNL A   1      39.349  20.728  25.873  1.00  0.00    -0.269 OA
BRANCH  28  31
ATOM     31  C   UNL A   1      39.355  22.969  26.551  1.00  0.00     0.039 A 
ATOM     32  C   UNL A   1      39.084  24.143  25.845  1.00  0.00     0.014 A 
ATOM     33  C   UNL A   1      40.296  22.969  27.584  1.00  0.00     0.014 A 
ATOM     34  C   UNL A   1      39.728  25.329  26.201  1.00  0.00     0.010 A 
ATOM     35  C   UNL A   1      40.891  24.164  27.980  1.00  0.00     0.010 A 
ATOM     36  C   UNL A   1      40.621  25.351  27.283  1.00  0.00    -0.014 A 
BRANCH  36  37
ATOM     37  C   UNL A   1      41.298  26.606  27.691  1.00  0.00     0.031 A 
ATOM     38  C   UNL A   1      42.743  26.826  27.344  1.00  0.00     0.074 A 
ATOM     39  C   UNL A   1      40.626  27.515  28.420  1.00  0.00     0.049 A 
ATOM     40  N   UNL A   1      43.530  27.822  27.668  1.00  0.00    -0.248 NA
ATOM     41  C   UNL A   1      43.400  25.777  26.551  1.00  0.00     0.031 C 
ATOM     42  C   UNL A   1      39.233  27.390  28.850  1.00  0.00     0.029 A 
ATOM     43  N   UNL A   1      41.029  28.719  28.940  1.00  0.00    -0.354 N 
ATOM     44  C   UNL A   1      44.773  27.510  27.136  1.00  0.00     0.074 A 
ATOM     45  C   UNL A   1      44.651  26.214  26.507  1.00  0.00     0.031 C 
ATOM     46  C   UNL A   1      38.891  28.482  29.553  1.00  0.00     0.029 A 
ATOM     47  C   UNL A   1      40.049  29.365  29.652  1.00  0.00     0.049 A 
ATOM     48  H   UNL A   1      41.934  29.085  28.814  1.00  0.00     0.167 HD
ATOM     49  C   UNL A   1      45.908  28.249  27.155  1.00  0.00     0.037 A 
ATOM     50  C   UNL A   1      40.085  30.537  30.313  1.00  0.00     0.037 A 
ATOM     51  C   UNL A   1      46.014  29.553  27.755  1.00  0.00     0.049 A 
ATOM     52  C   UNL A   1      41.357  31.341  30.313  1.00  0.00     0.074 A 
ATOM     53  C   UNL A   1      47.099  30.412  27.769  1.00  0.00     0.029 A 
ATOM     54  N   UNL A   1      44.993  30.186  28.449  1.00  0.00    -0.354 N 
ATOM     55  N   UNL A   1      42.509  31.067  29.749  1.00  0.00    -0.248 NA
ATOM     56  C   UNL A   1      41.332  32.619  31.037  1.00  0.00     0.031 C 
ATOM     57  C   UNL A   1      46.748  31.548  28.506  1.00  0.00     0.029 A 
ATOM     58  C   UNL A   1      45.429  31.416  28.913  1.00  0.00     0.049 A 
ATOM     59  H   UNL A   1      44.092  29.816  28.592  1.00  0.00     0.167 HD
ATOM     60  C   UNL A   1      43.334  32.147  30.025  1.00  0.00     0.074 A 
ATOM     61  C   UNL A   1      42.548  33.088  30.796  1.00  0.00     0.031 C 
ATOM     62  C   UNL A   1      44.629  32.343  29.671  1.00  0.00     0.037 A 
BRANCH  49  63
ATOM     63  C   UNL A   1      47.127  27.665  26.503  1.00  0.00     0.064 A 
ATOM     64  C   UNL A   1      47.396  27.857  25.139  1.00  0.00     0.173 A 
ATOM     65  C   UNL A   1      48.058  26.937  27.259  1.00  0.00     0.173 A 
ATOM     66  F   UNL A   1      46.531  28.535  24.370  1.00  0.00    -0.203 F 
ATOM     67  C   UNL A   1      48.536  27.317  24.551  1.00  0.00     0.198 A 
ATOM     68  C   UNL A   1      49.212  26.423  26.674  1.00  0.00     0.198 A 
ATOM     69  F   UNL A   1      47.852  26.730  28.568  1.00  0.00    -0.203 F 
ATOM     70  F   UNL A   1      48.748  27.473  23.237  1.00  0.00    -0.200 F 
ATOM     71  C   UNL A   1      49.446  26.607  25.319  1.00  0.00     0.200 A 
ATOM     72  F   UNL A   1      50.097  25.747  27.420  1.00  0.00    -0.200 F 
ATOM     73  F   UNL A   1      50.547  26.093  24.753  1.00  0.00    -0.200 F 
ENDBRANCH  49  63
BRANCH  50  74
ATOM     74  C   UNL A   1      38.869  31.035  31.006  1.00  0.00     0.064 A 
ATOM     75  C   UNL A   1      37.864  31.705  30.296  1.00  0.00     0.173 A 
ATOM     76  C   UNL A   1      38.684  30.850  32.383  1.00  0.00     0.173 A 
ATOM     77  F   UNL A   1      38.005  31.921  28.979  1.00  0.00    -0.203 F 
ATOM     78  C   UNL A   1      36.728  32.189  30.940  1.00  0.00     0.198 A 
ATOM     79  C   UNL A   1      37.537  31.312  33.022  1.00  0.00     0.198 A 
ATOM     80  F   UNL A   1      39.615  30.209  33.106  1.00  0.00    -0.203 F 
ATOM     81  F   UNL A   1      35.802  32.863  30.245  1.00  0.00    -0.200 F 
ATOM     82  C   UNL A   1      36.562  31.987  32.303  1.00  0.00     0.200 A 
ATOM     83  F   UNL A   1      37.374  31.103  34.336  1.00  0.00    -0.200 F 
ATOM     84  F   UNL A   1      35.468  32.449  32.921  1.00  0.00    -0.200 F 
ENDBRANCH  50  74
BRANCH  62  85
ATOM     85  C   UNL A   1      45.263  33.637  30.084  1.00  0.00     0.064 A 
ATOM     86  C   UNL A   1      45.259  34.759  29.242  1.00  0.00     0.173 A 
ATOM     87  C   UNL A   1      45.845  33.768  31.354  1.00  0.00     0.173 A 
ATOM     88  F   UNL A   1      44.728  34.678  28.013  1.00  0.00    -0.203 F 
ATOM     89  C   UNL A   1      45.838  35.958  29.648  1.00  0.00     0.198 A 
ATOM     90  C   UNL A   1      46.398  34.976  31.767  1.00  0.00     0.198 A 
ATOM     91  F   UNL A   1      45.869  32.725  32.198  1.00  0.00    -0.203 F 
ATOM     92  F   UNL A   1      45.862  37.004  28.812  1.00  0.00    -0.200 F 
ATOM     93  C   UNL A   1      46.400  36.069  30.912  1.00  0.00     0.200 A 
ATOM     94  F   UNL A   1      46.930  35.084  32.992  1.00  0.00    -0.200 F 
ATOM     95  F   UNL A   1      46.949  37.226  31.303  1.00  0.00    -0.200 F 
ENDBRANCH  62  85
ENDBRANCH  36  37
ENDBRANCH  28  31
ENDBRANCH  26  27
ENDBRANCH  25  26
ENDBRANCH  24  25
ENDBRANCH  23  24
ENDBRANCH  22  23
ENDBRANCH  21  22
ENDBRANCH   3  21
TORSDOF 21
ENDMDL
MODEL 3
REMARK VINA RESULT:      -9.5      9.891     14.324
REMARK SMILES CC(=O)Oc1ccccc1SCCCCCC(=O)NCCCCCCNC(=O)c1ccc(-c2c3nc(c(-c4c(F)c(F)c(F)c(F)c4F)c4ccc([nH]4)c(-c4c(F)c(F)c(F)c(F)c4F)c4nc(c(-c5c(F)c(F)c(F)c(F)c5F)c5ccc2[nH]5)C=C4)C=C3)cc1
REMARK SMILES IDX 17 1 18 2 19 3 16 5 15 6 14 7 13 8 12 9 11 10 10 11 5 12
REMARK SMILES IDX 6 13 7 14 9 15 8 16 4 17 2 18 1 19 3 20 20 21 21 22 22 23
REMARK SMILES IDX 23 24 24 25 25 26 26 27 27 28 28 30 29 31 30 32 91 33 31 34
REMARK SMILES IDX 90 35 32 36 33 37 34 38 84 39 35 40 89 41 83 42 85 43 36 44
REMARK SMILES IDX 88 45 82 46 81 47 37 49 69 50 49 51 68 52 50 53 53 54 67 55
REMARK SMILES IDX 86 56 51 57 52 58 66 60 87 61 54 62 38 63 39 64 47 65 40 66
REMARK SMILES IDX 41 67 45 68 48 69 42 70 43 71 46 72 44 73 70 74 71 75 79 76
REMARK SMILES IDX 72 77 73 78 77 79 80 80 74 81 75 82 78 83 76 84 55 85 56 86
REMARK SMILES IDX 64 87 57 88 58 89 62 90 65 91 59 92 60 93 63 94 61 95
REMARK H PARENT 19 4 26 29 85 48 53 59
REMARK Flexibility Score: inf
ROOT
ATOM      1  C   UNL A   1      46.857  18.973  40.302  1.00  0.00     0.219 C 
ATOM      2  O   UNL A   1      46.926  19.514  41.406  1.00  0.00    -0.275 OA
ATOM      3  N   UNL A   1      46.727  19.755  39.196  1.00  0.00    -0.356 N 
ATOM      4  H   UNL A   1      46.800  20.726  39.348  1.00  0.00     0.163 HD
ENDROOT
BRANCH   1   5
ATOM      5  C   UNL A   1      46.921  17.469  40.155  1.00  0.00     0.100 C 
BRANCH   5   6
ATOM      6  C   UNL A   1      47.537  16.770  41.365  1.00  0.00     0.010 C 
BRANCH   6   7
ATOM      7  C   UNL A   1      46.626  16.004  42.345  1.00  0.00     0.001 C 
BRANCH   7   8
ATOM      8  C   UNL A   1      45.266  16.615  42.725  1.00  0.00     0.011 C 
BRANCH   8   9
ATOM      9  C   UNL A   1      44.048  15.678  42.882  1.00  0.00     0.075 C 
BRANCH   9  10
ATOM     10  S   UNL A   1      43.659  14.847  44.478  1.00  0.00    -0.122 SA
BRANCH  10  11
ATOM     11  C   UNL A   1      43.147  13.246  43.915  1.00  0.00     0.050 A 
ATOM     12  C   UNL A   1      43.803  12.051  44.240  1.00  0.00     0.144 A 
ATOM     13  C   UNL A   1      43.262  10.815  43.850  1.00  0.00     0.048 A 
ATOM     14  C   UNL A   1      42.072  10.761  43.124  1.00  0.00     0.004 A 
ATOM     15  C   UNL A   1      41.983  13.173  43.124  1.00  0.00     0.019 A 
ATOM     16  C   UNL A   1      41.444  11.941  42.741  1.00  0.00     0.001 A 
BRANCH  12  17
ATOM     17  O   UNL A   1      45.044  11.926  44.937  1.00  0.00    -0.426 OA
BRANCH  17  18
ATOM     18  C   UNL A   1      45.793  10.774  45.213  1.00  0.00     0.308 C 
ATOM     19  C   UNL A   1      45.586  10.353  46.632  1.00  0.00     0.139 C 
ATOM     20  O   UNL A   1      46.601  10.216  44.498  1.00  0.00    -0.252 OA
ENDBRANCH  17  18
ENDBRANCH  12  17
ENDBRANCH  10  11
ENDBRANCH   9  10
ENDBRANCH   8   9
ENDBRANCH   7   8
ENDBRANCH   6   7
ENDBRANCH   5   6
ENDBRANCH   1   5
BRANCH   3  21
ATOM     21  C   UNL A   1      46.494  19.350  37.829  1.00  0.00     0.116 C 
BRANCH  21  22
ATOM     22  C   UNL A   1      46.291  20.576  36.941  1.00  0.00     0.021 C 
BRANCH  22  23
ATOM     23  C   UNL A   1      47.195  20.606  35.716  1.00  0.00     0.002 C 
BRANCH  23  24
ATOM     24  C   UNL A   1      48.460  21.453  35.894  1.00  0.00     0.002 C 
BRANCH  24  25
ATOM     25  C   UNL A   1      48.743  22.467  34.778  1.00  0.00     0.021 C 
BRANCH  25  26
ATOM     26  C   UNL A   1      47.901  23.740  34.828  1.00  0.00     0.116 C 
BRANCH  26  27
ATOM     27  N   UNL A   1      48.035  24.424  36.103  1.00  0.00    -0.352 N 
ATOM     28  C   UNL A   1      47.481  25.598  36.536  1.00  0.00     0.251 C 
ATOM     29  H   UNL A   1      48.615  23.973  36.759  1.00  0.00     0.163 HD
ATOM     30  O   UNL A   1      47.918  26.152  37.540  1.00  0.00    -0.269 OA
BRANCH  28  31
ATOM     31  C   UNL A   1      46.353  26.202  35.800  1.00  0.00     0.039 A 
ATOM     32  C   UNL A   1      46.570  27.386  35.092  1.00  0.00     0.014 A 
ATOM     33  C   UNL A   1      45.076  25.638  35.858  1.00  0.00     0.014 A 
ATOM     34  C   UNL A   1      45.512  27.986  34.407  1.00  0.00     0.010 A 
ATOM     35  C   UNL A   1      44.036  26.202  35.123  1.00  0.00     0.010 A 
ATOM     36  C   UNL A   1      44.242  27.387  34.403  1.00  0.00    -0.014 A 
BRANCH  36  37
ATOM     37  C   UNL A   1      43.111  27.998  33.663  1.00  0.00     0.031 A 
ATOM     38  C   UNL A   1      42.911  27.687  32.207  1.00  0.00     0.074 A 
ATOM     39  C   UNL A   1      42.305  28.874  34.289  1.00  0.00     0.049 A 
ATOM     40  N   UNL A   1      42.027  28.171  31.371  1.00  0.00    -0.248 NA
ATOM     41  C   UNL A   1      43.843  26.723  31.602  1.00  0.00     0.031 C 
ATOM     42  C   UNL A   1      42.429  29.284  35.688  1.00  0.00     0.029 A 
ATOM     43  N   UNL A   1      41.230  29.589  33.826  1.00  0.00    -0.354 N 
ATOM     44  C   UNL A   1      42.309  27.587  30.144  1.00  0.00     0.074 A 
ATOM     45  C   UNL A   1      43.471  26.747  30.331  1.00  0.00     0.031 C 
ATOM     46  C   UNL A   1      41.456  30.164  35.976  1.00  0.00     0.029 A 
ATOM     47  C   UNL A   1      40.663  30.405  34.773  1.00  0.00     0.049 A 
ATOM     48  H   UNL A   1      40.896  29.522  32.902  1.00  0.00     0.167 HD
ATOM     49  C   UNL A   1      41.644  27.725  28.971  1.00  0.00     0.037 A 
ATOM     50  C   UNL A   1      39.625  31.256  34.679  1.00  0.00     0.037 A 
ATOM     51  C   UNL A   1      40.468  28.537  28.799  1.00  0.00     0.049 A 
ATOM     52  C   UNL A   1      38.900  31.385  33.367  1.00  0.00     0.074 A 
ATOM     53  C   UNL A   1      39.682  28.692  27.671  1.00  0.00     0.029 A 
ATOM     54  N   UNL A   1      39.910  29.334  29.788  1.00  0.00    -0.354 N 
ATOM     55  N   UNL A   1      39.134  30.778  32.229  1.00  0.00    -0.248 NA
ATOM     56  C   UNL A   1      37.764  32.316  33.328  1.00  0.00     0.031 C 
ATOM     57  C   UNL A   1      38.671  29.613  27.965  1.00  0.00     0.029 A 
ATOM     58  C   UNL A   1      38.801  29.998  29.290  1.00  0.00     0.049 A 
ATOM     59  H   UNL A   1      40.251  29.416  30.708  1.00  0.00     0.167 HD
ATOM     60  C   UNL A   1      38.161  31.229  31.348  1.00  0.00     0.074 A 
ATOM     61  C   UNL A   1      37.325  32.152  32.087  1.00  0.00     0.031 C 
ATOM     62  C   UNL A   1      37.976  30.906  30.044  1.00  0.00     0.037 A 
BRANCH  49  63
ATOM     63  C   UNL A   1      42.172  26.978  27.782  1.00  0.00     0.064 A 
ATOM     64  C   UNL A   1      41.831  25.638  27.544  1.00  0.00     0.173 A 
ATOM     65  C   UNL A   1      42.998  27.620  26.847  1.00  0.00     0.173 A 
ATOM     66  F   UNL A   1      41.054  24.975  28.414  1.00  0.00    -0.203 F 
ATOM     67  C   UNL A   1      42.321  24.960  26.431  1.00  0.00     0.198 A 
ATOM     68  C   UNL A   1      43.462  26.948  25.720  1.00  0.00     0.198 A 
ATOM     69  F   UNL A   1      43.349  28.903  27.024  1.00  0.00    -0.203 F 
ATOM     70  F   UNL A   1      42.020  23.667  26.250  1.00  0.00    -0.200 F 
ATOM     71  C   UNL A   1      43.129  25.617  25.517  1.00  0.00     0.200 A 
ATOM     72  F   UNL A   1      44.235  27.588  24.830  1.00  0.00    -0.200 F 
ATOM     73  F   UNL A   1      43.595  24.966  24.442  1.00  0.00    -0.200 F 
ENDBRANCH  49  63
BRANCH  50  74
ATOM     74  C   UNL A   1      39.189  32.029  35.870  1.00  0.00     0.064 A 
ATOM     75  C   UNL A   1      39.636  33.341  36.075  1.00  0.00     0.173 A 
ATOM     76  C   UNL A   1      38.320  31.478  36.822  1.00  0.00     0.173 A 
ATOM     77  F   UNL A   1      40.483  33.904  35.200  1.00  0.00    -0.203 F 
ATOM     78  C   UNL A   1      39.245  34.067  37.197  1.00  0.00     0.198 A 
ATOM     79  C   UNL A   1      37.910  32.214  37.931  1.00  0.00     0.198 A 
ATOM     80  F   UNL A   1      37.859  30.228  36.667  1.00  0.00    -0.203 F 
ATOM     81  F   UNL A   1      39.720  35.305  37.390  1.00  0.00    -0.200 F 
ATOM     82  C   UNL A   1      38.377  33.505  38.122  1.00  0.00     0.200 A 
ATOM     83  F   UNL A   1      37.060  31.672  38.814  1.00  0.00    -0.200 F 
ATOM     84  F   UNL A   1      37.998  34.205  39.199  1.00  0.00    -0.200 F 
ENDBRANCH  50  74
BRANCH  62  85
ATOM     85  C   UNL A   1      36.805  31.530  29.345  1.00  0.00     0.064 A 
ATOM     86  C   UNL A   1      36.782  32.897  29.029  1.00  0.00     0.173 A 
ATOM     87  C   UNL A   1      35.713  30.743  28.950  1.00  0.00     0.173 A 
ATOM     88  F   UNL A   1      37.795  33.693  29.400  1.00  0.00    -0.203 F 
ATOM     89  C   UNL A   1      35.694  33.457  28.364  1.00  0.00     0.198 A 
ATOM     90  C   UNL A   1      34.641  31.301  28.261  1.00  0.00     0.198 A 
ATOM     91  F   UNL A   1      35.692  29.430  29.223  1.00  0.00    -0.203 F 
ATOM     92  F   UNL A   1      35.671  34.772  28.112  1.00  0.00    -0.200 F 
ATOM     93  C   UNL A   1      34.629  32.658  27.974  1.00  0.00     0.200 A 
ATOM     94  F   UNL A   1      33.618  30.526  27.874  1.00  0.00    -0.200 F 
ATOM     95  F   UNL A   1      33.587  33.198  27.327  1.00  0.00    -0.200 F 
ENDBRANCH  62  85
ENDBRANCH  36  37
ENDBRANCH  28  31
ENDBRANCH  26  27
ENDBRANCH  25  26
ENDBRANCH  24  25
ENDBRANCH  23  24
ENDBRANCH  22  23
ENDBRANCH  21  22
ENDBRANCH   3  21
TORSDOF 21
ENDMDL
