MODEL 1
REMARK VINA RESULT:     -12.8      0.000      0.000
REMARK SMILES O=C(NCCCCCCNC(=O)c1ccccc1/C=N\NC(=S)NCc1ccccc1)c1ccc(-c2c3nc(c(-c4c(F)c(F)c(F)c(F)c4F)c4ccc([nH]4)c(-c4c(F)c(F)c(F)c(F)c4F)c4nc(c(-c5c(F)c(F)c(F)c(F)c5F)c5ccc2[nH]5)C=C4)C=C3)cc1
REMARK SMILES IDX 8 1 7 2 6 3 5 4 4 5 3 6 1 7 2 8 32 10 33 11 94 12 34 13
REMARK SMILES IDX 93 14 35 15 36 16 37 17 87 18 38 19 92 20 86 21 88 22 39 23
REMARK SMILES IDX 91 24 85 25 84 26 40 28 72 29 52 30 71 31 53 32 56 33 70 34
REMARK SMILES IDX 89 35 54 36 55 37 69 39 90 40 57 41 41 42 42 43 50 44 43 45
REMARK SMILES IDX 44 46 48 47 51 48 45 49 46 50 49 51 47 52 73 53 74 54 82 55
REMARK SMILES IDX 75 56 76 57 80 58 83 59 77 60 78 61 81 62 79 63 58 64 59 65
REMARK SMILES IDX 67 66 60 67 61 68 65 69 68 70 62 71 63 72 66 73 64 74 9 75
REMARK SMILES IDX 10 76 11 77 12 79 13 80 14 81 18 82 15 83 17 84 16 85 19 86
REMARK SMILES IDX 20 87 21 88 22 90 23 91 24 92 25 94 26 95 27 96 31 97 28 98
REMARK SMILES IDX 30 99 29 100
REMARK H PARENT 3 9 88 27 56 38 10 78 21 89 24 93
REMARK Flexibility Score: inf
ROOT
ATOM      1  C   UNL A   1      37.099  23.235  25.103  1.00  0.00     0.021 C 
ENDROOT
BRANCH   1   2
ATOM      2  C   UNL A   1      36.967  22.019  24.184  1.00  0.00     0.002 C 
BRANCH   2   3
ATOM      3  C   UNL A   1      36.820  20.669  24.896  1.00  0.00     0.002 C 
BRANCH   3   4
ATOM      4  C   UNL A   1      38.067  19.778  24.899  1.00  0.00     0.021 C 
BRANCH   4   5
ATOM      5  C   UNL A   1      39.118  20.167  25.930  1.00  0.00     0.116 C 
BRANCH   5   6
ATOM      6  N   UNL A   1      40.186  19.184  25.997  1.00  0.00    -0.352 N 
ATOM      7  O   UNL A   1      42.301  18.430  25.820  1.00  0.00    -0.269 OA
ATOM      8  C   UNL A   1      41.543  19.370  26.041  1.00  0.00     0.251 C 
ATOM      9  H   UNL A   1      39.891  18.245  26.013  1.00  0.00     0.163 HD
BRANCH   8  10
ATOM     10  C   UNL A   1      42.100  20.700  26.366  1.00  0.00     0.039 A 
ATOM     11  C   UNL A   1      42.370  21.625  25.352  1.00  0.00     0.014 A 
ATOM     12  C   UNL A   1      42.286  21.053  27.705  1.00  0.00     0.014 A 
ATOM     13  C   UNL A   1      42.918  22.862  25.669  1.00  0.00     0.010 A 
ATOM     14  C   UNL A   1      42.762  22.327  28.028  1.00  0.00     0.010 A 
ATOM     15  C   UNL A   1      43.089  23.237  27.011  1.00  0.00    -0.014 A 
BRANCH  15  16
ATOM     16  C   UNL A   1      43.512  24.622  27.331  1.00  0.00     0.031 A 
ATOM     17  C   UNL A   1      42.543  25.623  27.884  1.00  0.00     0.074 A 
ATOM     18  C   UNL A   1      44.795  24.966  27.105  1.00  0.00     0.049 A 
ATOM     19  N   UNL A   1      42.744  26.879  28.197  1.00  0.00    -0.248 NA
ATOM     20  C   UNL A   1      41.165  25.162  28.111  1.00  0.00     0.031 C 
ATOM     21  C   UNL A   1      45.819  24.076  26.552  1.00  0.00     0.029 A 
ATOM     22  N   UNL A   1      45.461  26.147  27.312  1.00  0.00    -0.354 N 
ATOM     23  C   UNL A   1      41.520  27.362  28.639  1.00  0.00     0.074 A 
ATOM     24  C   UNL A   1      40.574  26.271  28.536  1.00  0.00     0.031 C 
ATOM     25  C   UNL A   1      46.986  24.730  26.489  1.00  0.00     0.029 A 
ATOM     26  C   UNL A   1      46.781  26.103  26.935  1.00  0.00     0.049 A 
ATOM     27  H   UNL A   1      45.034  26.948  27.693  1.00  0.00     0.167 HD
ATOM     28  C   UNL A   1      41.223  28.603  29.094  1.00  0.00     0.037 A 
ATOM     29  C   UNL A   1      47.717  27.070  26.922  1.00  0.00     0.037 A 
ATOM     30  C   UNL A   1      42.179  29.677  29.204  1.00  0.00     0.049 A 
ATOM     31  C   UNL A   1      47.346  28.444  27.399  1.00  0.00     0.074 A 
ATOM     32  C   UNL A   1      41.990  30.951  29.707  1.00  0.00     0.029 A 
ATOM     33  N   UNL A   1      43.502  29.603  28.791  1.00  0.00    -0.354 N 
ATOM     34  N   UNL A   1      46.201  28.874  27.870  1.00  0.00    -0.248 NA
ATOM     35  C   UNL A   1      48.395  29.470  27.340  1.00  0.00     0.031 C 
ATOM     36  C   UNL A   1      43.181  31.667  29.547  1.00  0.00     0.029 A 
ATOM     37  C   UNL A   1      44.130  30.821  28.995  1.00  0.00     0.049 A 
ATOM     38  H   UNL A   1      43.931  28.804  28.408  1.00  0.00     0.167 HD
ATOM     39  C   UNL A   1      46.393  30.212  28.177  1.00  0.00     0.074 A 
ATOM     40  C   UNL A   1      47.773  30.519  27.860  1.00  0.00     0.031 C 
ATOM     41  C   UNL A   1      45.504  31.109  28.671  1.00  0.00     0.037 A 
BRANCH  28  42
ATOM     42  C   UNL A   1      39.802  28.885  29.491  1.00  0.00     0.064 A 
ATOM     43  C   UNL A   1      38.856  29.355  28.569  1.00  0.00     0.173 A 
ATOM     44  C   UNL A   1      39.368  28.619  30.798  1.00  0.00     0.173 A 
ATOM     45  F   UNL A   1      39.221  29.633  27.308  1.00  0.00    -0.203 F 
ATOM     46  C   UNL A   1      37.532  29.567  28.947  1.00  0.00     0.198 A 
ATOM     47  C   UNL A   1      38.037  28.808  31.166  1.00  0.00     0.198 A 
ATOM     48  F   UNL A   1      40.231  28.162  31.719  1.00  0.00    -0.203 F 
ATOM     49  F   UNL A   1      36.653  30.052  28.058  1.00  0.00    -0.200 F 
ATOM     50  C   UNL A   1      37.122  29.286  30.242  1.00  0.00     0.200 A 
ATOM     51  F   UNL A   1      37.641  28.521  32.414  1.00  0.00    -0.200 F 
ATOM     52  F   UNL A   1      35.845  29.480  30.600  1.00  0.00    -0.200 F 
ENDBRANCH  28  42
BRANCH  29  53
ATOM     53  C   UNL A   1      49.082  26.770  26.420  1.00  0.00     0.064 A 
ATOM     54  C   UNL A   1      50.077  26.281  27.276  1.00  0.00     0.173 A 
ATOM     55  C   UNL A   1      49.416  26.955  25.068  1.00  0.00     0.173 A 
ATOM     56  F   UNL A   1      49.812  26.103  28.579  1.00  0.00    -0.203 F 
ATOM     57  C   UNL A   1      51.359  26.005  26.805  1.00  0.00     0.198 A 
ATOM     58  C   UNL A   1      50.688  26.648  24.592  1.00  0.00     0.198 A 
ATOM     59  F   UNL A   1      48.497  27.414  24.206  1.00  0.00    -0.203 F 
ATOM     60  F   UNL A   1      52.305  25.579  27.653  1.00  0.00    -0.200 F 
ATOM     61  C   UNL A   1      51.661  26.182  25.462  1.00  0.00     0.200 A 
ATOM     62  F   UNL A   1      50.969  26.803  23.292  1.00  0.00    -0.200 F 
ATOM     63  F   UNL A   1      52.891  25.908  25.009  1.00  0.00    -0.200 F 
ENDBRANCH  29  53
BRANCH  41  64
ATOM     64  C   UNL A   1      46.007  32.500  28.921  1.00  0.00     0.064 A 
ATOM     65  C   UNL A   1      46.558  32.870  30.157  1.00  0.00     0.173 A 
ATOM     66  C   UNL A   1      45.972  33.462  27.901  1.00  0.00     0.173 A 
ATOM     67  F   UNL A   1      46.597  31.990  31.169  1.00  0.00    -0.203 F 
ATOM     68  C   UNL A   1      47.035  34.161  30.369  1.00  0.00     0.198 A 
ATOM     69  C   UNL A   1      46.477  34.743  28.108  1.00  0.00     0.198 A 
ATOM     70  F   UNL A   1      45.457  33.158  26.701  1.00  0.00    -0.203 F 
ATOM     71  F   UNL A   1      47.515  34.506  31.572  1.00  0.00    -0.200 F 
ATOM     72  C   UNL A   1      47.002  35.093  29.342  1.00  0.00     0.200 A 
ATOM     73  F   UNL A   1      46.456  35.638  27.110  1.00  0.00    -0.200 F 
ATOM     74  F   UNL A   1      47.469  36.332  29.546  1.00  0.00    -0.200 F 
ENDBRANCH  41  64
ENDBRANCH  15  16
ENDBRANCH   8  10
ENDBRANCH   5   6
ENDBRANCH   4   5
ENDBRANCH   3   4
ENDBRANCH   2   3
ENDBRANCH   1   2
BRANCH   1  75
ATOM     75  C   UNL A   1      35.828  24.066  25.269  1.00  0.00     0.116 C 
BRANCH  75  76
ATOM     76  N   UNL A   1      35.040  24.255  24.063  1.00  0.00    -0.352 N 
ATOM     77  C   UNL A   1      34.178  25.265  23.685  1.00  0.00     0.251 C 
ATOM     78  H   UNL A   1      35.139  23.537  23.397  1.00  0.00     0.163 HD
ATOM     79  O   UNL A   1      33.637  25.232  22.585  1.00  0.00    -0.269 OA
BRANCH  77  80
ATOM     80  C   UNL A   1      33.734  26.276  24.666  1.00  0.00     0.048 A 
ATOM     81  C   UNL A   1      33.920  27.991  24.113  1.00  0.00     0.014 A 
ATOM     82  C   UNL A   1      32.511  25.898  25.943  1.00  0.00     0.007 A 
ATOM     83  C   UNL A   1      32.946  29.322  24.876  1.00  0.00     0.001 A 
ATOM     84  C   UNL A   1      31.539  27.229  26.748  1.00  0.00     0.010 A 
ATOM     85  C   UNL A   1      31.771  28.933  26.197  1.00  0.00     0.001 A 
BRANCH  82  86
ATOM     86  C   UNL A   1      32.802  24.775  26.778  1.00  0.00     0.142 C 
ATOM     87  N   UNL A   1      32.030  23.754  26.686  1.00  0.00    -0.181 NA
BRANCH  87  88
ATOM     88  N   UNL A   1      30.898  23.883  25.912  1.00  0.00    -0.254 N 
ATOM     89  H   UNL A   1      30.071  23.952  26.442  1.00  0.00     0.193 HD
BRANCH  88  90
ATOM     90  C   UNL A   1      30.682  23.934  24.566  1.00  0.00     0.187 C 
ATOM     91  S   UNL A   1      31.460  22.730  23.671  1.00  0.00    -0.039 S 
BRANCH  90  92
ATOM     92  N   UNL A   1      29.928  24.872  23.815  1.00  0.00    -0.357 N 
ATOM     93  H   UNL A   1      30.039  24.570  22.884  1.00  0.00     0.163 HD
BRANCH  92  94
ATOM     94  C   UNL A   1      28.711  26.552  23.650  1.00  0.00     0.151 C 
BRANCH  94  95
ATOM     95  C   UNL A   1      28.881  28.163  23.259  1.00  0.00    -0.029 A 
ATOM     96  C   UNL A   1      30.109  28.609  22.712  1.00  0.00     0.005 A 
ATOM     97  C   UNL A   1      27.720  28.918  23.007  1.00  0.00     0.005 A 
ATOM     98  C   UNL A   1      30.158  29.745  21.904  1.00  0.00     0.000 A 
ATOM     99  C   UNL A   1      27.781  30.053  22.197  1.00  0.00     0.000 A 
ATOM    100  C   UNL A   1      28.992  30.452  21.630  1.00  0.00     0.000 A 
ENDBRANCH  94  95
ENDBRANCH  92  94
ENDBRANCH  90  92
ENDBRANCH  88  90
ENDBRANCH  87  88
ENDBRANCH  82  86
ENDBRANCH  77  80
ENDBRANCH  75  76
ENDBRANCH   1  75
TORSDOF 19
ENDMDL
MODEL 2
REMARK VINA RESULT:     -12.7      1.598      7.588
REMARK SMILES O=C(NCCCCCCNC(=O)c1ccccc1/C=N\NC(=S)NCc1ccccc1)c1ccc(-c2c3nc(c(-c4c(F)c(F)c(F)c(F)c4F)c4ccc([nH]4)c(-c4c(F)c(F)c(F)c(F)c4F)c4nc(c(-c5c(F)c(F)c(F)c(F)c5F)c5ccc2[nH]5)C=C4)C=C3)cc1
REMARK SMILES IDX 8 1 7 2 6 3 5 4 4 5 3 6 1 7 2 8 32 10 33 11 94 12 34 13
REMARK SMILES IDX 93 14 35 15 36 16 37 17 87 18 38 19 92 20 86 21 88 22 39 23
REMARK SMILES IDX 91 24 85 25 84 26 40 28 72 29 52 30 71 31 53 32 56 33 70 34
REMARK SMILES IDX 89 35 54 36 55 37 69 39 90 40 57 41 41 42 42 43 50 44 43 45
REMARK SMILES IDX 44 46 48 47 51 48 45 49 46 50 49 51 47 52 73 53 74 54 82 55
REMARK SMILES IDX 75 56 76 57 80 58 83 59 77 60 78 61 81 62 79 63 58 64 59 65
REMARK SMILES IDX 67 66 60 67 61 68 65 69 68 70 62 71 63 72 66 73 64 74 9 75
REMARK SMILES IDX 10 76 11 77 12 79 13 80 14 81 18 82 15 83 17 84 16 85 19 86
REMARK SMILES IDX 20 87 21 88 22 90 23 91 24 92 25 94 26 95 27 96 31 97 28 98
REMARK SMILES IDX 30 99 29 100
REMARK H PARENT 3 9 88 27 56 38 10 78 21 89 24 93
REMARK Flexibility Score: inf
ROOT
ATOM      1  C   UNL A   1      36.928  22.943  25.237  1.00  0.00     0.021 C 
ENDROOT
BRANCH   1   2
ATOM      2  C   UNL A   1      37.169  21.749  24.313  1.00  0.00     0.002 C 
BRANCH   2   3
ATOM      3  C   UNL A   1      37.066  20.371  24.978  1.00  0.00     0.002 C 
BRANCH   3   4
ATOM      4  C   UNL A   1      38.347  19.529  24.967  1.00  0.00     0.021 C 
BRANCH   4   5
ATOM      5  C   UNL A   1      39.437  20.025  25.908  1.00  0.00     0.116 C 
BRANCH   5   6
ATOM      6  N   UNL A   1      40.543  19.086  25.982  1.00  0.00    -0.352 N 
ATOM      7  O   UNL A   1      42.691  18.423  25.843  1.00  0.00    -0.269 OA
ATOM      8  C   UNL A   1      41.890  19.326  26.064  1.00  0.00     0.251 C 
ATOM      9  H   UNL A   1      40.287  18.135  25.972  1.00  0.00     0.163 HD
BRANCH   8  10
ATOM     10  C   UNL A   1      42.383  20.671  26.429  1.00  0.00     0.039 A 
ATOM     11  C   UNL A   1      42.797  21.569  25.440  1.00  0.00     0.014 A 
ATOM     12  C   UNL A   1      42.362  21.064  27.770  1.00  0.00     0.014 A 
ATOM     13  C   UNL A   1      43.283  22.820  25.799  1.00  0.00     0.010 A 
ATOM     14  C   UNL A   1      42.776  22.352  28.122  1.00  0.00     0.010 A 
ATOM     15  C   UNL A   1      43.248  23.236  27.139  1.00  0.00    -0.014 A 
BRANCH  15  16
ATOM     16  C   UNL A   1      43.609  24.634  27.477  1.00  0.00     0.031 A 
ATOM     17  C   UNL A   1      45.039  25.086  27.493  1.00  0.00     0.074 A 
ATOM     18  C   UNL A   1      42.617  25.494  27.779  1.00  0.00     0.049 A 
ATOM     19  N   UNL A   1      45.526  26.265  27.787  1.00  0.00    -0.248 NA
ATOM     20  C   UNL A   1      46.057  24.086  27.140  1.00  0.00     0.031 C 
ATOM     21  C   UNL A   1      41.192  25.156  27.812  1.00  0.00     0.029 A 
ATOM     22  N   UNL A   1      42.649  26.824  28.112  1.00  0.00    -0.354 N 
ATOM     23  C   UNL A   1      46.905  26.146  27.674  1.00  0.00     0.074 A 
ATOM     24  C   UNL A   1      47.180  24.774  27.303  1.00  0.00     0.031 C 
ATOM     25  C   UNL A   1      40.485  26.252  28.118  1.00  0.00     0.029 A 
ATOM     26  C   UNL A   1      41.407  27.353  28.367  1.00  0.00     0.049 A 
ATOM     27  H   UNL A   1      43.481  27.349  28.164  1.00  0.00     0.167 HD
ATOM     28  C   UNL A   1      47.848  27.101  27.858  1.00  0.00     0.037 A 
ATOM     29  C   UNL A   1      41.052  28.583  28.784  1.00  0.00     0.037 A 
ATOM     30  C   UNL A   1      47.558  28.468  28.215  1.00  0.00     0.049 A 
ATOM     31  C   UNL A   1      42.123  29.609  29.013  1.00  0.00     0.074 A 
ATOM     32  C   UNL A   1      48.437  29.525  28.366  1.00  0.00     0.029 A 
ATOM     33  N   UNL A   1      46.290  28.962  28.487  1.00  0.00    -0.354 N 
ATOM     34  N   UNL A   1      43.419  29.501  28.845  1.00  0.00    -0.248 NA
ATOM     35  C   UNL A   1      41.686  30.926  29.493  1.00  0.00     0.031 C 
ATOM     36  C   UNL A   1      47.711  30.643  28.786  1.00  0.00     0.029 A 
ATOM     37  C   UNL A   1      46.369  30.300  28.841  1.00  0.00     0.049 A 
ATOM     38  H   UNL A   1      45.457  28.440  28.438  1.00  0.00     0.167 HD
ATOM     39  C   UNL A   1      43.950  30.736  29.184  1.00  0.00     0.074 A 
ATOM     40  C   UNL A   1      42.834  31.586  29.545  1.00  0.00     0.031 C 
ATOM     41  C   UNL A   1      45.248  31.129  29.200  1.00  0.00     0.037 A 
BRANCH  28  42
ATOM     42  C   UNL A   1      49.288  26.707  27.700  1.00  0.00     0.064 A 
ATOM     43  C   UNL A   1      50.110  26.451  28.806  1.00  0.00     0.173 A 
ATOM     44  C   UNL A   1      49.834  26.522  26.420  1.00  0.00     0.173 A 
ATOM     45  F   UNL A   1      49.641  26.621  30.051  1.00  0.00    -0.203 F 
ATOM     46  C   UNL A   1      51.432  26.043  28.636  1.00  0.00     0.198 A 
ATOM     47  C   UNL A   1      51.147  26.089  26.255  1.00  0.00     0.198 A 
ATOM     48  F   UNL A   1      49.088  26.746  25.327  1.00  0.00    -0.203 F 
ATOM     49  F   UNL A   1      52.211  25.839  29.709  1.00  0.00    -0.200 F 
ATOM     50  C   UNL A   1      51.947  25.855  27.362  1.00  0.00     0.200 A 
ATOM     51  F   UNL A   1      51.637  25.893  25.022  1.00  0.00    -0.200 F 
ATOM     52  F   UNL A   1      53.215  25.451  27.202  1.00  0.00    -0.200 F 
ENDBRANCH  28  42
BRANCH  29  53
ATOM     53  C   UNL A   1      39.620  28.894  29.029  1.00  0.00     0.064 A 
ATOM     54  C   UNL A   1      38.789  29.344  27.995  1.00  0.00     0.173 A 
ATOM     55  C   UNL A   1      39.050  28.735  30.303  1.00  0.00     0.173 A 
ATOM     56  F   UNL A   1      39.292  29.528  26.765  1.00  0.00    -0.203 F 
ATOM     57  C   UNL A   1      37.448  29.641  28.228  1.00  0.00     0.198 A 
ATOM     58  C   UNL A   1      37.702  29.001  30.527  1.00  0.00     0.198 A 
ATOM     59  F   UNL A   1      39.801  28.299  31.325  1.00  0.00    -0.203 F 
ATOM     60  F   UNL A   1      36.686  30.112  27.232  1.00  0.00    -0.200 F 
ATOM     61  C   UNL A   1      36.904  29.463  29.491  1.00  0.00     0.200 A 
ATOM     62  F   UNL A   1      37.177  28.809  31.744  1.00  0.00    -0.200 F 
ATOM     63  F   UNL A   1      35.612  29.740  29.712  1.00  0.00    -0.200 F 
ENDBRANCH  29  53
BRANCH  41  64
ATOM     64  C   UNL A   1      45.525  32.549  29.600  1.00  0.00     0.064 A 
ATOM     65  C   UNL A   1      45.817  32.892  30.929  1.00  0.00     0.173 A 
ATOM     66  C   UNL A   1      45.534  33.569  28.638  1.00  0.00     0.173 A 
ATOM     67  F   UNL A   1      45.801  31.954  31.888  1.00  0.00    -0.203 F 
ATOM     68  C   UNL A   1      46.087  34.211  31.283  1.00  0.00     0.198 A 
ATOM     69  C   UNL A   1      45.835  34.882  28.991  1.00  0.00     0.198 A 
ATOM     70  F   UNL A   1      45.264  33.292  27.354  1.00  0.00    -0.203 F 
ATOM     71  F   UNL A   1      46.319  34.525  32.564  1.00  0.00    -0.200 F 
ATOM     72  C   UNL A   1      46.104  35.203  30.312  1.00  0.00     0.200 A 
ATOM     73  F   UNL A   1      45.863  35.836  28.050  1.00  0.00    -0.200 F 
ATOM     74  F   UNL A   1      46.373  36.470  30.654  1.00  0.00    -0.200 F 
ENDBRANCH  41  64
ENDBRANCH  15  16
ENDBRANCH   8  10
ENDBRANCH   5   6
ENDBRANCH   4   5
ENDBRANCH   3   4
ENDBRANCH   2   3
ENDBRANCH   1   2
BRANCH   1  75
ATOM     75  C   UNL A   1      35.639  23.721  24.973  1.00  0.00     0.116 C 
BRANCH  75  76
ATOM     76  N   UNL A   1      34.539  23.436  25.878  1.00  0.00    -0.352 N 
ATOM     77  C   UNL A   1      33.619  22.407  25.901  1.00  0.00     0.251 C 
ATOM     78  H   UNL A   1      34.430  24.092  26.604  1.00  0.00     0.163 HD
ATOM     79  O   UNL A   1      32.781  22.351  26.795  1.00  0.00    -0.269 OA
BRANCH  77  80
ATOM     80  C   UNL A   1      33.492  21.492  24.749  1.00  0.00     0.048 A 
ATOM     81  C   UNL A   1      33.616  19.734  25.170  1.00  0.00     0.014 A 
ATOM     82  C   UNL A   1      32.618  21.968  23.239  1.00  0.00     0.007 A 
ATOM     83  C   UNL A   1      32.938  18.465  24.061  1.00  0.00     0.001 A 
ATOM     84  C   UNL A   1      31.953  20.702  22.089  1.00  0.00     0.010 A 
ATOM     85  C   UNL A   1      32.122  18.957  22.521  1.00  0.00     0.001 A 
BRANCH  82  86
ATOM     86  C   UNL A   1      33.056  23.178  22.615  1.00  0.00     0.142 C 
ATOM     87  N   UNL A   1      32.451  24.262  22.938  1.00  0.00    -0.181 NA
BRANCH  87  88
ATOM     88  N   UNL A   1      31.331  24.151  23.733  1.00  0.00    -0.254 N 
ATOM     89  H   UNL A   1      31.004  23.226  23.816  1.00  0.00     0.193 HD
BRANCH  88  90
ATOM     90  C   UNL A   1      30.580  25.053  24.429  1.00  0.00     0.187 C 
ATOM     91  S   UNL A   1      31.158  25.423  25.974  1.00  0.00    -0.039 S 
BRANCH  90  92
ATOM     92  N   UNL A   1      29.371  25.692  24.052  1.00  0.00    -0.357 N 
ATOM     93  H   UNL A   1      28.693  24.984  24.147  1.00  0.00     0.163 HD
BRANCH  92  94
ATOM     94  C   UNL A   1      28.280  27.340  23.402  1.00  0.00     0.151 C 
BRANCH  94  95
ATOM     95  C   UNL A   1      28.535  28.968  23.156  1.00  0.00    -0.029 A 
ATOM     96  C   UNL A   1      27.417  29.833  23.081  1.00  0.00     0.005 A 
ATOM     97  C   UNL A   1      29.782  29.513  23.517  1.00  0.00     0.005 A 
ATOM     98  C   UNL A   1      27.538  31.185  23.400  1.00  0.00     0.000 A 
ATOM     99  C   UNL A   1      29.892  30.868  23.835  1.00  0.00     0.000 A 
ATOM    100  C   UNL A   1      28.770  31.696  23.798  1.00  0.00     0.000 A 
ENDBRANCH  94  95
ENDBRANCH  92  94
ENDBRANCH  90  92
ENDBRANCH  88  90
ENDBRANCH  87  88
ENDBRANCH  82  86
ENDBRANCH  77  80
ENDBRANCH  75  76
ENDBRANCH   1  75
TORSDOF 19
ENDMDL
MODEL 3
REMARK VINA RESULT:     -12.6      5.287     10.858
REMARK SMILES O=C(NCCCCCCNC(=O)c1ccccc1/C=N\NC(=S)NCc1ccccc1)c1ccc(-c2c3nc(c(-c4c(F)c(F)c(F)c(F)c4F)c4ccc([nH]4)c(-c4c(F)c(F)c(F)c(F)c4F)c4nc(c(-c5c(F)c(F)c(F)c(F)c5F)c5ccc2[nH]5)C=C4)C=C3)cc1
REMARK SMILES IDX 8 1 7 2 6 3 5 4 4 5 3 6 1 7 2 8 32 10 33 11 94 12 34 13
REMARK SMILES IDX 93 14 35 15 36 16 37 17 87 18 38 19 92 20 86 21 88 22 39 23
REMARK SMILES IDX 91 24 85 25 84 26 40 28 72 29 52 30 71 31 53 32 56 33 70 34
REMARK SMILES IDX 89 35 54 36 55 37 69 39 90 40 57 41 41 42 42 43 50 44 43 45
REMARK SMILES IDX 44 46 48 47 51 48 45 49 46 50 49 51 47 52 73 53 74 54 82 55
REMARK SMILES IDX 75 56 76 57 80 58 83 59 77 60 78 61 81 62 79 63 58 64 59 65
REMARK SMILES IDX 67 66 60 67 61 68 65 69 68 70 62 71 63 72 66 73 64 74 9 75
REMARK SMILES IDX 10 76 11 77 12 79 13 80 14 81 18 82 15 83 17 84 16 85 19 86
REMARK SMILES IDX 20 87 21 88 22 90 23 91 24 92 25 94 26 95 27 96 31 97 28 98
REMARK SMILES IDX 30 99 29 100
REMARK H PARENT 3 9 88 27 56 38 10 78 21 89 24 93
REMARK Flexibility Score: inf
ROOT
ATOM      1  C   UNL A   1      32.698  29.138  27.450  1.00  0.00     0.021 C 
ENDROOT
BRANCH   1   2
ATOM      2  C   UNL A   1      32.736  30.199  26.350  1.00  0.00     0.002 C 
BRANCH   2   3
ATOM      3  C   UNL A   1      31.403  30.898  26.063  1.00  0.00     0.002 C 
BRANCH   3   4
ATOM      4  C   UNL A   1      31.298  32.353  26.535  1.00  0.00     0.021 C 
BRANCH   4   5
ATOM      5  C   UNL A   1      32.556  32.892  27.202  1.00  0.00     0.116 C 
BRANCH   5   6
ATOM      6  N   UNL A   1      32.396  34.282  27.595  1.00  0.00    -0.352 N 
ATOM      7  O   UNL A   1      32.523  36.057  28.976  1.00  0.00    -0.269 OA
ATOM      8  C   UNL A   1      32.978  34.972  28.627  1.00  0.00     0.251 C 
ATOM      9  H   UNL A   1      31.777  34.806  27.037  1.00  0.00     0.163 HD
BRANCH   8  10
ATOM     10  C   UNL A   1      34.162  34.417  29.316  1.00  0.00     0.039 A 
ATOM     11  C   UNL A   1      34.022  33.722  30.521  1.00  0.00     0.014 A 
ATOM     12  C   UNL A   1      35.417  34.529  28.712  1.00  0.00     0.014 A 
ATOM     13  C   UNL A   1      35.146  33.228  31.172  1.00  0.00     0.010 A 
ATOM     14  C   UNL A   1      36.537  33.963  29.328  1.00  0.00     0.010 A 
ATOM     15  C   UNL A   1      36.410  33.316  30.567  1.00  0.00    -0.014 A 
BRANCH  15  16
ATOM     16  C   UNL A   1      37.566  32.632  31.195  1.00  0.00     0.031 A 
ATOM     17  C   UNL A   1      38.277  31.509  30.501  1.00  0.00     0.074 A 
ATOM     18  C   UNL A   1      37.963  33.041  32.415  1.00  0.00     0.049 A 
ATOM     19  N   UNL A   1      39.290  30.792  30.919  1.00  0.00    -0.248 NA
ATOM     20  C   UNL A   1      37.787  31.134  29.166  1.00  0.00     0.031 C 
ATOM     21  C   UNL A   1      37.332  34.113  33.189  1.00  0.00     0.029 A 
ATOM     22  N   UNL A   1      38.988  32.613  33.220  1.00  0.00    -0.354 N 
ATOM     23  C   UNL A   1      39.547  29.872  29.912  1.00  0.00     0.074 A 
ATOM     24  C   UNL A   1      38.571  30.105  28.869  1.00  0.00     0.031 C 
ATOM     25  C   UNL A   1      37.997  34.277  34.341  1.00  0.00     0.029 A 
ATOM     26  C   UNL A   1      39.060  33.282  34.417  1.00  0.00     0.049 A 
ATOM     27  H   UNL A   1      39.612  31.895  32.964  1.00  0.00     0.167 HD
ATOM     28  C   UNL A   1      40.515  28.925  29.867  1.00  0.00     0.037 A 
ATOM     29  C   UNL A   1      39.873  33.096  35.473  1.00  0.00     0.037 A 
ATOM     30  C   UNL A   1      41.489  28.712  30.909  1.00  0.00     0.049 A 
ATOM     31  C   UNL A   1      40.912  32.016  35.407  1.00  0.00     0.074 A 
ATOM     32  C   UNL A   1      42.545  27.819  30.932  1.00  0.00     0.029 A 
ATOM     33  N   UNL A   1      41.516  29.393  32.117  1.00  0.00    -0.354 N 
ATOM     34  N   UNL A   1      41.184  31.190  34.425  1.00  0.00    -0.248 NA
ATOM     35  C   UNL A   1      41.756  31.835  36.595  1.00  0.00     0.031 C 
ATOM     36  C   UNL A   1      43.177  27.919  32.175  1.00  0.00     0.029 A 
ATOM     37  C   UNL A   1      42.550  28.915  32.907  1.00  0.00     0.049 A 
ATOM     38  H   UNL A   1      40.893  30.111  32.377  1.00  0.00     0.167 HD
ATOM     39  C   UNL A   1      42.236  30.404  34.868  1.00  0.00     0.074 A 
ATOM     40  C   UNL A   1      42.570  30.867  36.200  1.00  0.00     0.031 C 
ATOM     41  C   UNL A   1      42.866  29.386  34.232  1.00  0.00     0.037 A 
BRANCH  28  42
ATOM     42  C   UNL A   1      40.564  28.027  28.665  1.00  0.00     0.064 A 
ATOM     43  C   UNL A   1      41.327  28.348  27.533  1.00  0.00     0.173 A 
ATOM     44  C   UNL A   1      39.888  26.797  28.672  1.00  0.00     0.173 A 
ATOM     45  F   UNL A   1      41.985  29.515  27.471  1.00  0.00    -0.203 F 
ATOM     46  C   UNL A   1      41.394  27.479  26.445  1.00  0.00     0.198 A 
ATOM     47  C   UNL A   1      39.980  25.920  27.594  1.00  0.00     0.198 A 
ATOM     48  F   UNL A   1      39.149  26.437  29.734  1.00  0.00    -0.203 F 
ATOM     49  F   UNL A   1      42.101  27.823  25.359  1.00  0.00    -0.200 F 
ATOM     50  C   UNL A   1      40.728  26.263  26.480  1.00  0.00     0.200 A 
ATOM     51  F   UNL A   1      39.346  24.739  27.637  1.00  0.00    -0.200 F 
ATOM     52  F   UNL A   1      40.804  25.425  25.437  1.00  0.00    -0.200 F 
ENDBRANCH  28  42
BRANCH  29  53
ATOM     53  C   UNL A   1      39.715  33.942  36.684  1.00  0.00     0.064 A 
ATOM     54  C   UNL A   1      38.907  33.534  37.753  1.00  0.00     0.173 A 
ATOM     55  C   UNL A   1      40.381  35.173  36.802  1.00  0.00     0.173 A 
ATOM     56  F   UNL A   1      38.238  32.374  37.680  1.00  0.00    -0.203 F 
ATOM     57  C   UNL A   1      38.756  34.331  38.886  1.00  0.00     0.198 A 
ATOM     58  C   UNL A   1      40.254  35.954  37.947  1.00  0.00     0.198 A 
ATOM     59  F   UNL A   1      41.172  35.607  35.809  1.00  0.00    -0.203 F 
ATOM     60  F   UNL A   1      37.943  33.937  39.875  1.00  0.00    -0.200 F 
ATOM     61  C   UNL A   1      39.435  35.537  38.985  1.00  0.00     0.200 A 
ATOM     62  F   UNL A   1      40.927  37.108  38.046  1.00  0.00    -0.200 F 
ATOM     63  F   UNL A   1      39.295  36.298  40.078  1.00  0.00    -0.200 F 
ENDBRANCH  29  53
BRANCH  41  64
ATOM     64  C   UNL A   1      43.995  28.721  34.961  1.00  0.00     0.064 A 
ATOM     65  C   UNL A   1      43.784  27.587  35.761  1.00  0.00     0.173 A 
ATOM     66  C   UNL A   1      45.307  29.199  34.829  1.00  0.00     0.173 A 
ATOM     67  F   UNL A   1      42.545  27.104  35.934  1.00  0.00    -0.203 F 
ATOM     68  C   UNL A   1      44.845  26.971  36.421  1.00  0.00     0.198 A 
ATOM     69  C   UNL A   1      46.369  28.562  35.465  1.00  0.00     0.198 A 
ATOM     70  F   UNL A   1      45.561  30.277  34.073  1.00  0.00    -0.203 F 
ATOM     71  F   UNL A   1      44.615  25.918  37.216  1.00  0.00    -0.200 F 
ATOM     72  C   UNL A   1      46.136  27.454  36.265  1.00  0.00     0.200 A 
ATOM     73  F   UNL A   1      47.617  29.022  35.303  1.00  0.00    -0.200 F 
ATOM     74  F   UNL A   1      47.156  26.854  36.893  1.00  0.00    -0.200 F 
ENDBRANCH  41  64
ENDBRANCH  15  16
ENDBRANCH   8  10
ENDBRANCH   5   6
ENDBRANCH   4   5
ENDBRANCH   3   4
ENDBRANCH   2   3
ENDBRANCH   1   2
BRANCH   1  75
ATOM     75  C   UNL A   1      31.677  28.020  27.242  1.00  0.00     0.116 C 
BRANCH  75  76
ATOM     76  N   UNL A   1      32.223  26.746  26.808  1.00  0.00    -0.352 N 
ATOM     77  C   UNL A   1      32.309  26.168  25.557  1.00  0.00     0.251 C 
ATOM     78  H   UNL A   1      32.598  26.196  27.534  1.00  0.00     0.163 HD
ATOM     79  O   UNL A   1      32.849  25.075  25.420  1.00  0.00    -0.269 OA
BRANCH  77  80
ATOM     80  C   UNL A   1      31.573  26.745  24.415  1.00  0.00     0.048 A 
ATOM     81  C   UNL A   1      29.797  26.383  24.405  1.00  0.00     0.014 A 
ATOM     82  C   UNL A   1      32.170  28.204  23.529  1.00  0.00     0.007 A 
ATOM     83  C   UNL A   1      28.644  27.425  23.465  1.00  0.00     0.001 A 
ATOM     84  C   UNL A   1      31.028  29.252  22.548  1.00  0.00     0.010 A 
ATOM     85  C   UNL A   1      29.268  28.845  22.532  1.00  0.00     0.001 A 
BRANCH  82  86
ATOM     86  C   UNL A   1      33.504  28.126  23.019  1.00  0.00     0.142 C 
ATOM     87  N   UNL A   1      33.702  27.378  21.996  1.00  0.00    -0.181 NA
BRANCH  87  88
ATOM     88  N   UNL A   1      32.653  26.592  21.571  1.00  0.00    -0.254 N 
ATOM     89  H   UNL A   1      31.772  26.995  21.744  1.00  0.00     0.193 HD
BRANCH  88  90
ATOM     90  C   UNL A   1      32.580  25.373  20.962  1.00  0.00     0.187 C 
ATOM     91  S   UNL A   1      32.453  25.422  19.278  1.00  0.00    -0.039 S 
BRANCH  90  92
ATOM     92  N   UNL A   1      32.560  24.081  21.546  1.00  0.00    -0.357 N 
ATOM     93  H   UNL A   1      31.910  23.586  20.997  1.00  0.00     0.163 HD
BRANCH  92  94
ATOM     94  C   UNL A   1      33.184  22.683  22.956  1.00  0.00     0.151 C 
BRANCH  94  95
ATOM     95  C   UNL A   1      34.533  22.391  23.888  1.00  0.00    -0.029 A 
ATOM     96  C   UNL A   1      34.569  21.228  24.696  1.00  0.00     0.005 A 
ATOM     97  C   UNL A   1      35.753  22.980  23.505  1.00  0.00     0.005 A 
ATOM     98  C   UNL A   1      35.785  20.654  25.065  1.00  0.00     0.000 A 
ATOM     99  C   UNL A   1      36.965  22.397  23.881  1.00  0.00     0.000 A 
ATOM    100  C   UNL A   1      36.980  21.226  24.640  1.00  0.00     0.000 A 
ENDBRANCH  94  95
ENDBRANCH  92  94
ENDBRANCH  90  92
ENDBRANCH  88  90
ENDBRANCH  87  88
ENDBRANCH  82  86
ENDBRANCH  77  80
ENDBRANCH  75  76
ENDBRANCH   1  75
TORSDOF 19
ENDMDL
