MODEL 1
REMARK VINA RESULT:     -12.3      0.000      0.000
REMARK SMILES C[C@@H]1CC[C@@H](C(=O)NCCCCCCNC(=O)c2ccc(-c3c4nc(c(-c5c(F)c(F)c(F)c(F)c5F)c5ccc([nH]5)c(-c5c(F)c(F)c(F)c(F)c5F)c5nc(c(-c6c(F)c(F)c(F)c(F)c6F)c6ccc3[nH]6)C=C5)C=C4)cc2)[C@H]2C(=O)N(c3ccccc3)C(=O)[C@@H]21
REMARK SMILES IDX 12 1 11 2 10 3 9 4 8 5 6 6 7 7 5 9 1 10 2 11 3 12 93 13 4 14
REMARK SMILES IDX 81 15 91 16 82 17 84 18 92 19 83 20 85 21 86 22 90 23 87 24
REMARK SMILES IDX 89 25 88 26 13 27 14 28 15 29 16 30 17 32 18 33 19 34 80 35
REMARK SMILES IDX 20 36 79 37 21 38 22 39 23 40 73 41 24 42 78 43 72 44 74 45
REMARK SMILES IDX 25 46 77 47 71 48 70 49 26 51 58 52 38 53 57 54 39 55 42 56
REMARK SMILES IDX 56 57 75 58 40 59 41 60 55 62 76 63 43 64 27 65 28 66 36 67
REMARK SMILES IDX 29 68 30 69 34 70 37 71 31 72 32 73 35 74 33 75 59 76 60 77
REMARK SMILES IDX 68 78 61 79 62 80 66 81 69 82 63 83 64 84 67 85 65 86 44 87
REMARK SMILES IDX 45 88 53 89 46 90 47 91 51 92 54 93 48 94 49 95 52 96 50 97
REMARK H PARENT 8 8 15 31 74 50 42 61
REMARK Flexibility Score: inf
ROOT
ATOM      1  C   UNL A   1      35.630  21.930  24.240  1.00  0.00     0.002 C 
ENDROOT
BRANCH   1   2
ATOM      2  C   UNL A   1      34.735  21.062  25.131  1.00  0.00     0.002 C 
BRANCH   2   3
ATOM      3  C   UNL A   1      33.439  20.578  24.471  1.00  0.00     0.021 C 
BRANCH   3   4
ATOM      4  C   UNL A   1      32.183  20.801  25.320  1.00  0.00     0.116 C 
BRANCH   4   5
ATOM      5  N   UNL A   1      32.330  21.988  26.135  1.00  0.00    -0.356 N 
ATOM      6  C   UNL A   1      32.215  23.309  25.882  1.00  0.00     0.223 C 
ATOM      7  O   UNL A   1      32.883  24.029  26.635  1.00  0.00    -0.275 OA
ATOM      8  H   UNL A   1      32.565  21.790  27.071  1.00  0.00     0.163 HD
BRANCH   6   9
ATOM      9  C   UNL A   1      31.271  23.956  24.850  1.00  0.00     0.092 C 
ATOM     10  C   UNL A   1      32.122  25.870  21.534  1.00  0.00     0.008 C 
ATOM     11  C   UNL A   1      32.928  25.015  22.515  1.00  0.00    -0.001 C 
ATOM     12  C   UNL A   1      32.387  23.566  22.552  1.00  0.00     0.005 C 
ATOM     13  C   UNL A   1      32.966  25.558  23.943  1.00  0.00     0.095 C 
ATOM     14  C   UNL A   1      31.131  23.383  23.427  1.00  0.00     0.014 C 
ATOM     15  C   UNL A   1      31.626  25.431  24.644  1.00  0.00     0.104 C 
ATOM     16  C   UNL A   1      33.302  27.003  24.186  1.00  0.00     0.237 C 
ATOM     17  C   UNL A   1      31.767  26.397  25.795  1.00  0.00     0.238 C 
ATOM     18  N   UNL A   1      32.695  27.349  25.385  1.00  0.00    -0.250 N 
ATOM     19  O   UNL A   1      34.068  27.645  23.481  1.00  0.00    -0.274 OA
ATOM     20  O   UNL A   1      31.008  26.418  26.754  1.00  0.00    -0.274 OA
BRANCH  18  21
ATOM     21  C   UNL A   1      32.940  28.563  26.076  1.00  0.00     0.052 A 
ATOM     22  C   UNL A   1      34.114  28.744  26.820  1.00  0.00     0.027 A 
ATOM     23  C   UNL A   1      32.009  29.609  26.040  1.00  0.00     0.027 A 
ATOM     24  C   UNL A   1      34.357  29.941  27.500  1.00  0.00     0.002 A 
ATOM     25  C   UNL A   1      32.235  30.793  26.748  1.00  0.00     0.002 A 
ATOM     26  C   UNL A   1      33.413  30.961  27.471  1.00  0.00     0.000 A 
ENDBRANCH  18  21
ENDBRANCH   6   9
ENDBRANCH   4   5
ENDBRANCH   3   4
ENDBRANCH   2   3
ENDBRANCH   1   2
BRANCH   1  27
ATOM     27  C   UNL A   1      35.810  23.378  24.705  1.00  0.00     0.021 C 
BRANCH  27  28
ATOM     28  C   UNL A   1      36.608  23.545  25.995  1.00  0.00     0.116 C 
BRANCH  28  29
ATOM     29  N   UNL A   1      37.733  22.629  26.060  1.00  0.00    -0.352 N 
ATOM     30  C   UNL A   1      39.050  22.873  26.349  1.00  0.00     0.251 C 
ATOM     31  H   UNL A   1      37.517  21.689  25.866  1.00  0.00     0.163 HD
ATOM     32  O   UNL A   1      39.892  22.004  26.142  1.00  0.00    -0.269 OA
BRANCH  30  33
ATOM     33  C   UNL A   1      39.470  24.181  26.899  1.00  0.00     0.039 A 
ATOM     34  C   UNL A   1      39.241  24.439  28.253  1.00  0.00     0.014 A 
ATOM     35  C   UNL A   1      40.035  25.166  26.083  1.00  0.00     0.014 A 
ATOM     36  C   UNL A   1      39.616  25.668  28.797  1.00  0.00     0.010 A 
ATOM     37  C   UNL A   1      40.469  26.368  26.641  1.00  0.00     0.010 A 
ATOM     38  C   UNL A   1      40.253  26.634  28.001  1.00  0.00    -0.014 A 
BRANCH  38  39
ATOM     39  C   UNL A   1      40.694  27.923  28.592  1.00  0.00     0.031 A 
ATOM     40  C   UNL A   1      42.143  28.168  28.903  1.00  0.00     0.074 A 
ATOM     41  C   UNL A   1      39.775  28.864  28.877  1.00  0.00     0.049 A 
ATOM     42  N   UNL A   1      42.715  29.242  29.388  1.00  0.00    -0.248 NA
ATOM     43  C   UNL A   1      43.070  27.051  28.663  1.00  0.00     0.031 C 
ATOM     44  C   UNL A   1      38.332  28.722  28.676  1.00  0.00     0.029 A 
ATOM     45  N   UNL A   1      39.916  30.129  29.388  1.00  0.00    -0.354 N 
ATOM     46  C   UNL A   1      44.062  28.927  29.521  1.00  0.00     0.074 A 
ATOM     47  C   UNL A   1      44.214  27.546  29.115  1.00  0.00     0.031 C 
ATOM     48  C   UNL A   1      37.726  29.870  29.019  1.00  0.00     0.029 A 
ATOM     49  C   UNL A   1      38.732  30.817  29.487  1.00  0.00     0.049 A 
ATOM     50  H   UNL A   1      40.784  30.508  29.657  1.00  0.00     0.167 HD
ATOM     51  C   UNL A   1      45.080  29.724  29.924  1.00  0.00     0.037 A 
ATOM     52  C   UNL A   1      38.489  32.076  29.895  1.00  0.00     0.037 A 
ATOM     53  C   UNL A   1      44.929  31.106  30.299  1.00  0.00     0.049 A 
ATOM     54  C   UNL A   1      39.641  32.946  30.314  1.00  0.00     0.074 A 
ATOM     55  C   UNL A   1      45.908  32.021  30.643  1.00  0.00     0.029 A 
ATOM     56  N   UNL A   1      43.714  31.771  30.384  1.00  0.00    -0.354 N 
ATOM     57  N   UNL A   1      40.921  32.668  30.350  1.00  0.00    -0.248 NA
ATOM     58  C   UNL A   1      39.311  34.313  30.741  1.00  0.00     0.031 C 
ATOM     59  C   UNL A   1      45.282  33.227  30.981  1.00  0.00     0.029 A 
ATOM     60  C   UNL A   1      43.917  33.078  30.800  1.00  0.00     0.049 A 
ATOM     61  H   UNL A   1      42.838  31.374  30.179  1.00  0.00     0.167 HD
ATOM     62  C   UNL A   1      41.552  33.828  30.777  1.00  0.00     0.074 A 
ATOM     63  C   UNL A   1      40.514  34.821  30.967  1.00  0.00     0.031 C 
ATOM     64  C   UNL A   1      42.873  34.052  30.991  1.00  0.00     0.037 A 
BRANCH  51  65
ATOM     65  C   UNL A   1      46.454  29.117  29.983  1.00  0.00     0.064 A 
ATOM     66  C   UNL A   1      47.309  29.116  28.871  1.00  0.00     0.173 A 
ATOM     67  C   UNL A   1      46.929  28.548  31.174  1.00  0.00     0.173 A 
ATOM     68  F   UNL A   1      46.900  29.637  27.703  1.00  0.00    -0.203 F 
ATOM     69  C   UNL A   1      48.575  28.540  28.939  1.00  0.00     0.198 A 
ATOM     70  C   UNL A   1      48.207  28.001  31.248  1.00  0.00     0.198 A 
ATOM     71  F   UNL A   1      46.155  28.526  32.270  1.00  0.00    -0.203 F 
ATOM     72  F   UNL A   1      49.354  28.504  27.848  1.00  0.00    -0.200 F 
ATOM     73  C   UNL A   1      49.025  27.989  30.129  1.00  0.00     0.200 A 
ATOM     74  F   UNL A   1      48.645  27.478  32.402  1.00  0.00    -0.200 F 
ATOM     75  F   UNL A   1      50.245  27.437  30.194  1.00  0.00    -0.200 F 
ENDBRANCH  51  65
BRANCH  52  76
ATOM     76  C   UNL A   1      37.103  32.608  29.869  1.00  0.00     0.064 A 
ATOM     77  C   UNL A   1      36.622  33.295  28.746  1.00  0.00     0.173 A 
ATOM     78  C   UNL A   1      36.233  32.439  30.955  1.00  0.00     0.173 A 
ATOM     79  F   UNL A   1      37.425  33.496  27.691  1.00  0.00    -0.203 F 
ATOM     80  C   UNL A   1      35.328  33.808  28.716  1.00  0.00     0.198 A 
ATOM     81  C   UNL A   1      34.930  32.932  30.914  1.00  0.00     0.198 A 
ATOM     82  F   UNL A   1      36.644  31.784  32.050  1.00  0.00    -0.203 F 
ATOM     83  F   UNL A   1      34.907  34.495  27.645  1.00  0.00    -0.200 F 
ATOM     84  C   UNL A   1      34.481  33.622  29.798  1.00  0.00     0.200 A 
ATOM     85  F   UNL A   1      34.109  32.737  31.955  1.00  0.00    -0.200 F 
ATOM     86  F   UNL A   1      33.235  34.112  29.766  1.00  0.00    -0.200 F 
ENDBRANCH  52  76
BRANCH  64  87
ATOM     87  C   UNL A   1      43.263  35.432  31.435  1.00  0.00     0.064 A 
ATOM     88  C   UNL A   1      43.658  36.416  30.517  1.00  0.00     0.173 A 
ATOM     89  C   UNL A   1      43.235  35.775  32.796  1.00  0.00     0.173 A 
ATOM     90  F   UNL A   1      43.717  36.132  29.207  1.00  0.00    -0.203 F 
ATOM     91  C   UNL A   1      44.051  37.680  30.948  1.00  0.00     0.198 A 
ATOM     92  C   UNL A   1      43.599  37.050  33.220  1.00  0.00     0.198 A 
ATOM     93  F   UNL A   1      42.858  34.873  33.714  1.00  0.00    -0.203 F 
ATOM     94  F   UNL A   1      44.486  38.584  30.059  1.00  0.00    -0.200 F 
ATOM     95  C   UNL A   1      44.017  37.997  32.297  1.00  0.00     0.200 A 
ATOM     96  F   UNL A   1      43.554  37.359  34.523  1.00  0.00    -0.200 F 
ATOM     97  F   UNL A   1      44.399  39.213  32.710  1.00  0.00    -0.200 F 
ENDBRANCH  64  87
ENDBRANCH  38  39
ENDBRANCH  30  33
ENDBRANCH  28  29
ENDBRANCH  27  28
ENDBRANCH   1  27
TORSDOF 14
ENDMDL
MODEL 2
REMARK VINA RESULT:     -12.3      3.353      8.782
REMARK SMILES C[C@@H]1CC[C@@H](C(=O)NCCCCCCNC(=O)c2ccc(-c3c4nc(c(-c5c(F)c(F)c(F)c(F)c5F)c5ccc([nH]5)c(-c5c(F)c(F)c(F)c(F)c5F)c5nc(c(-c6c(F)c(F)c(F)c(F)c6F)c6ccc3[nH]6)C=C5)C=C4)cc2)[C@H]2C(=O)N(c3ccccc3)C(=O)[C@@H]21
REMARK SMILES IDX 12 1 11 2 10 3 9 4 8 5 6 6 7 7 5 9 1 10 2 11 3 12 93 13 4 14
REMARK SMILES IDX 81 15 91 16 82 17 84 18 92 19 83 20 85 21 86 22 90 23 87 24
REMARK SMILES IDX 89 25 88 26 13 27 14 28 15 29 16 30 17 32 18 33 19 34 80 35
REMARK SMILES IDX 20 36 79 37 21 38 22 39 23 40 73 41 24 42 78 43 72 44 74 45
REMARK SMILES IDX 25 46 77 47 71 48 70 49 26 51 58 52 38 53 57 54 39 55 42 56
REMARK SMILES IDX 56 57 75 58 40 59 41 60 55 62 76 63 43 64 27 65 28 66 36 67
REMARK SMILES IDX 29 68 30 69 34 70 37 71 31 72 32 73 35 74 33 75 59 76 60 77
REMARK SMILES IDX 68 78 61 79 62 80 66 81 69 82 63 83 64 84 67 85 65 86 44 87
REMARK SMILES IDX 45 88 53 89 46 90 47 91 51 92 54 93 48 94 49 95 52 96 50 97
REMARK H PARENT 8 8 15 31 74 50 42 61
REMARK Flexibility Score: inf
ROOT
ATOM      1  C   UNL A   1      31.487  28.444  26.038  1.00  0.00     0.002 C 
ENDROOT
BRANCH   1   2
ATOM      2  C   UNL A   1      31.394  28.982  24.606  1.00  0.00     0.002 C 
BRANCH   2   3
ATOM      3  C   UNL A   1      30.306  28.337  23.741  1.00  0.00     0.021 C 
BRANCH   3   4
ATOM      4  C   UNL A   1      30.804  27.828  22.385  1.00  0.00     0.116 C 
BRANCH   4   5
ATOM      5  N   UNL A   1      32.155  27.321  22.503  1.00  0.00    -0.356 N 
ATOM      6  C   UNL A   1      32.683  26.193  23.023  1.00  0.00     0.223 C 
ATOM      7  O   UNL A   1      33.853  26.311  23.407  1.00  0.00    -0.275 OA
ATOM      8  H   UNL A   1      32.832  27.928  22.124  1.00  0.00     0.163 HD
BRANCH   6   9
ATOM      9  C   UNL A   1      32.004  24.810  23.065  1.00  0.00     0.092 C 
ATOM     10  C   UNL A   1      30.822  22.695  26.149  1.00  0.00     0.008 C 
ATOM     11  C   UNL A   1      31.302  24.136  25.959  1.00  0.00    -0.001 C 
ATOM     12  C   UNL A   1      30.337  24.917  25.036  1.00  0.00     0.005 C 
ATOM     13  C   UNL A   1      32.719  24.261  25.399  1.00  0.00     0.095 C 
ATOM     14  C   UNL A   1      30.545  24.651  23.533  1.00  0.00     0.014 C 
ATOM     15  C   UNL A   1      32.803  23.843  23.943  1.00  0.00     0.104 C 
ATOM     16  C   UNL A   1      33.838  23.465  26.011  1.00  0.00     0.237 C 
ATOM     17  C   UNL A   1      34.283  23.614  23.754  1.00  0.00     0.238 C 
ATOM     18  N   UNL A   1      34.784  23.289  25.011  1.00  0.00    -0.250 N 
ATOM     19  O   UNL A   1      33.888  23.173  27.197  1.00  0.00    -0.274 OA
ATOM     20  O   UNL A   1      34.814  23.508  22.657  1.00  0.00    -0.274 OA
BRANCH  18  21
ATOM     21  C   UNL A   1      36.085  22.772  25.233  1.00  0.00     0.052 A 
ATOM     22  C   UNL A   1      36.413  21.460  24.862  1.00  0.00     0.027 A 
ATOM     23  C   UNL A   1      37.075  23.558  25.839  1.00  0.00     0.027 A 
ATOM     24  C   UNL A   1      37.697  20.951  25.079  1.00  0.00     0.002 A 
ATOM     25  C   UNL A   1      38.349  23.037  26.088  1.00  0.00     0.002 A 
ATOM     26  C   UNL A   1      38.661  21.737  25.701  1.00  0.00     0.000 A 
ENDBRANCH  18  21
ENDBRANCH   6   9
ENDBRANCH   4   5
ENDBRANCH   3   4
ENDBRANCH   2   3
ENDBRANCH   1   2
BRANCH   1  27
ATOM     27  C   UNL A   1      32.838  27.830  26.420  1.00  0.00     0.021 C 
BRANCH  27  28
ATOM     28  C   UNL A   1      34.047  28.720  26.151  1.00  0.00     0.116 C 
BRANCH  28  29
ATOM     29  N   UNL A   1      33.855  30.067  26.657  1.00  0.00    -0.352 N 
ATOM     30  C   UNL A   1      34.560  30.759  27.606  1.00  0.00     0.251 C 
ATOM     31  H   UNL A   1      33.101  30.558  26.258  1.00  0.00     0.163 HD
ATOM     32  O   UNL A   1      34.112  31.810  28.055  1.00  0.00    -0.269 OA
BRANCH  30  33
ATOM     33  C   UNL A   1      35.855  30.246  28.105  1.00  0.00     0.039 A 
ATOM     34  C   UNL A   1      36.972  30.329  27.270  1.00  0.00     0.014 A 
ATOM     35  C   UNL A   1      35.962  29.639  29.361  1.00  0.00     0.014 A 
ATOM     36  C   UNL A   1      38.203  29.843  27.708  1.00  0.00     0.010 A 
ATOM     37  C   UNL A   1      37.207  29.213  29.824  1.00  0.00     0.010 A 
ATOM     38  C   UNL A   1      38.336  29.301  28.998  1.00  0.00    -0.014 A 
BRANCH  38  39
ATOM     39  C   UNL A   1      39.658  28.826  29.480  1.00  0.00     0.031 A 
ATOM     40  C   UNL A   1      40.414  29.598  30.525  1.00  0.00     0.074 A 
ATOM     41  C   UNL A   1      40.189  27.709  28.950  1.00  0.00     0.049 A 
ATOM     42  N   UNL A   1      41.562  29.317  31.090  1.00  0.00    -0.248 NA
ATOM     43  C   UNL A   1      39.817  30.864  30.976  1.00  0.00     0.031 C 
ATOM     44  C   UNL A   1      39.579  26.907  27.889  1.00  0.00     0.029 A 
ATOM     45  N   UNL A   1      41.358  27.050  29.236  1.00  0.00    -0.354 N 
ATOM     46  C   UNL A   1      41.829  30.375  31.951  1.00  0.00     0.074 A 
ATOM     47  C   UNL A   1      40.749  31.326  31.797  1.00  0.00     0.031 C 
ATOM     48  C   UNL A   1      40.357  25.840  27.643  1.00  0.00     0.029 A 
ATOM     49  C   UNL A   1      41.530  25.898  28.508  1.00  0.00     0.049 A 
ATOM     50  H   UNL A   1      42.010  27.372  29.898  1.00  0.00     0.167 HD
ATOM     51  C   UNL A   1      42.867  30.526  32.807  1.00  0.00     0.037 A 
ATOM     52  C   UNL A   1      42.517  24.984  28.548  1.00  0.00     0.037 A 
ATOM     53  C   UNL A   1      43.924  29.563  32.979  1.00  0.00     0.049 A 
ATOM     54  C   UNL A   1      43.645  25.165  29.525  1.00  0.00     0.074 A 
ATOM     55  C   UNL A   1      44.976  29.584  33.878  1.00  0.00     0.029 A 
ATOM     56  N   UNL A   1      44.064  28.405  32.228  1.00  0.00    -0.354 N 
ATOM     57  N   UNL A   1      43.840  26.121  30.399  1.00  0.00    -0.248 NA
ATOM     58  C   UNL A   1      44.687  24.128  29.526  1.00  0.00     0.031 C 
ATOM     59  C   UNL A   1      45.778  28.462  33.639  1.00  0.00     0.029 A 
ATOM     60  C   UNL A   1      45.200  27.716  32.625  1.00  0.00     0.049 A 
ATOM     61  H   UNL A   1      43.448  28.114  31.518  1.00  0.00     0.167 HD
ATOM     62  C   UNL A   1      45.009  25.792  31.071  1.00  0.00     0.074 A 
ATOM     63  C   UNL A   1      45.467  24.534  30.517  1.00  0.00     0.031 C 
ATOM     64  C   UNL A   1      45.646  26.469  32.059  1.00  0.00     0.037 A 
BRANCH  51  65
ATOM     65  C   UNL A   1      42.913  31.785  33.626  1.00  0.00     0.064 A 
ATOM     66  C   UNL A   1      43.590  32.931  33.182  1.00  0.00     0.173 A 
ATOM     67  C   UNL A   1      42.251  31.854  34.861  1.00  0.00     0.173 A 
ATOM     68  F   UNL A   1      44.249  32.915  32.012  1.00  0.00    -0.203 F 
ATOM     69  C   UNL A   1      43.631  34.086  33.958  1.00  0.00     0.198 A 
ATOM     70  C   UNL A   1      42.268  33.022  35.621  1.00  0.00     0.198 A 
ATOM     71  F   UNL A   1      41.584  30.789  35.332  1.00  0.00    -0.203 F 
ATOM     72  F   UNL A   1      44.329  35.151  33.536  1.00  0.00    -0.200 F 
ATOM     73  C   UNL A   1      42.965  34.133  35.173  1.00  0.00     0.200 A 
ATOM     74  F   UNL A   1      41.615  33.068  36.790  1.00  0.00    -0.200 F 
ATOM     75  F   UNL A   1      43.003  35.247  35.918  1.00  0.00    -0.200 F 
ENDBRANCH  51  65
BRANCH  52  76
ATOM     76  C   UNL A   1      42.449  23.784  27.676  1.00  0.00     0.064 A 
ATOM     77  C   UNL A   1      41.924  22.577  28.160  1.00  0.00     0.173 A 
ATOM     78  C   UNL A   1      42.900  23.816  26.349  1.00  0.00     0.173 A 
ATOM     79  F   UNL A   1      41.499  22.494  29.429  1.00  0.00    -0.203 F 
ATOM     80  C   UNL A   1      41.868  21.443  27.354  1.00  0.00     0.198 A 
ATOM     81  C   UNL A   1      42.820  22.687  25.536  1.00  0.00     0.198 A 
ATOM     82  F   UNL A   1      43.405  24.948  25.839  1.00  0.00    -0.203 F 
ATOM     83  F   UNL A   1      41.399  20.292  27.854  1.00  0.00    -0.200 F 
ATOM     84  C   UNL A   1      42.311  21.500  26.041  1.00  0.00     0.200 A 
ATOM     85  F   UNL A   1      43.235  22.750  24.264  1.00  0.00    -0.200 F 
ATOM     86  F   UNL A   1      42.252  20.410  25.265  1.00  0.00    -0.200 F 
ENDBRANCH  52  76
BRANCH  64  87
ATOM     87  C   UNL A   1      46.895  25.845  32.612  1.00  0.00     0.064 A 
ATOM     88  C   UNL A   1      48.159  26.125  32.072  1.00  0.00     0.173 A 
ATOM     89  C   UNL A   1      46.825  24.959  33.698  1.00  0.00     0.173 A 
ATOM     90  F   UNL A   1      48.275  26.953  31.022  1.00  0.00    -0.203 F 
ATOM     91  C   UNL A   1      49.303  25.511  32.573  1.00  0.00     0.198 A 
ATOM     92  C   UNL A   1      47.976  24.371  34.217  1.00  0.00     0.198 A 
ATOM     93  F   UNL A   1      45.642  24.663  34.256  1.00  0.00    -0.203 F 
ATOM     94  F   UNL A   1      50.492  25.745  32.001  1.00  0.00    -0.200 F 
ATOM     95  C   UNL A   1      49.211  24.639  33.647  1.00  0.00     0.200 A 
ATOM     96  F   UNL A   1      47.887  23.537  35.262  1.00  0.00    -0.200 F 
ATOM     97  F   UNL A   1      50.314  24.045  34.125  1.00  0.00    -0.200 F 
ENDBRANCH  64  87
ENDBRANCH  38  39
ENDBRANCH  30  33
ENDBRANCH  28  29
ENDBRANCH  27  28
ENDBRANCH   1  27
TORSDOF 14
ENDMDL
MODEL 3
REMARK VINA RESULT:     -12.2      3.359      8.776
REMARK SMILES C[C@@H]1CC[C@@H](C(=O)NCCCCCCNC(=O)c2ccc(-c3c4nc(c(-c5c(F)c(F)c(F)c(F)c5F)c5ccc([nH]5)c(-c5c(F)c(F)c(F)c(F)c5F)c5nc(c(-c6c(F)c(F)c(F)c(F)c6F)c6ccc3[nH]6)C=C5)C=C4)cc2)[C@H]2C(=O)N(c3ccccc3)C(=O)[C@@H]21
REMARK SMILES IDX 12 1 11 2 10 3 9 4 8 5 6 6 7 7 5 9 1 10 2 11 3 12 93 13 4 14
REMARK SMILES IDX 81 15 91 16 82 17 84 18 92 19 83 20 85 21 86 22 90 23 87 24
REMARK SMILES IDX 89 25 88 26 13 27 14 28 15 29 16 30 17 32 18 33 19 34 80 35
REMARK SMILES IDX 20 36 79 37 21 38 22 39 23 40 73 41 24 42 78 43 72 44 74 45
REMARK SMILES IDX 25 46 77 47 71 48 70 49 26 51 58 52 38 53 57 54 39 55 42 56
REMARK SMILES IDX 56 57 75 58 40 59 41 60 55 62 76 63 43 64 27 65 28 66 36 67
REMARK SMILES IDX 29 68 30 69 34 70 37 71 31 72 32 73 35 74 33 75 59 76 60 77
REMARK SMILES IDX 68 78 61 79 62 80 66 81 69 82 63 83 64 84 67 85 65 86 44 87
REMARK SMILES IDX 45 88 53 89 46 90 47 91 51 92 54 93 48 94 49 95 52 96 50 97
REMARK H PARENT 8 8 15 31 74 50 42 61
REMARK Flexibility Score: inf
ROOT
ATOM      1  C   UNL A   1      31.485  28.308  26.123  1.00  0.00     0.002 C 
ENDROOT
BRANCH   1   2
ATOM      2  C   UNL A   1      31.447  28.946  24.730  1.00  0.00     0.002 C 
BRANCH   2   3
ATOM      3  C   UNL A   1      30.356  28.406  23.800  1.00  0.00     0.021 C 
BRANCH   3   4
ATOM      4  C   UNL A   1      30.874  27.916  22.444  1.00  0.00     0.116 C 
BRANCH   4   5
ATOM      5  N   UNL A   1      32.222  27.405  22.575  1.00  0.00    -0.356 N 
ATOM      6  C   UNL A   1      32.738  26.261  23.072  1.00  0.00     0.223 C 
ATOM      7  O   UNL A   1      33.900  26.367  23.484  1.00  0.00    -0.275 OA
ATOM      8  H   UNL A   1      32.907  28.023  22.230  1.00  0.00     0.163 HD
BRANCH   6   9
ATOM      9  C   UNL A   1      32.059  24.878  23.058  1.00  0.00     0.092 C 
ATOM     10  C   UNL A   1      30.827  22.664  26.052  1.00  0.00     0.008 C 
ATOM     11  C   UNL A   1      31.310  24.110  25.916  1.00  0.00    -0.001 C 
ATOM     12  C   UNL A   1      30.360  24.922  25.005  1.00  0.00     0.005 C 
ATOM     13  C   UNL A   1      32.736  24.252  25.384  1.00  0.00     0.095 C 
ATOM     14  C   UNL A   1      30.592  24.705  23.497  1.00  0.00     0.014 C 
ATOM     15  C   UNL A   1      32.844  23.882  23.916  1.00  0.00     0.104 C 
ATOM     16  C   UNL A   1      33.845  23.436  25.987  1.00  0.00     0.237 C 
ATOM     17  C   UNL A   1      34.326  23.659  23.744  1.00  0.00     0.238 C 
ATOM     18  N   UNL A   1      34.807  23.292  24.997  1.00  0.00    -0.250 N 
ATOM     19  O   UNL A   1      33.876  23.105  27.164  1.00  0.00    -0.274 OA
ATOM     20  O   UNL A   1      34.875  23.588  22.653  1.00  0.00    -0.274 OA
BRANCH  18  21
ATOM     21  C   UNL A   1      36.105  22.767  25.223  1.00  0.00     0.052 A 
ATOM     22  C   UNL A   1      36.425  21.453  24.856  1.00  0.00     0.027 A 
ATOM     23  C   UNL A   1      37.098  23.548  25.829  1.00  0.00     0.027 A 
ATOM     24  C   UNL A   1      37.704  20.935  25.077  1.00  0.00     0.002 A 
ATOM     25  C   UNL A   1      38.368  23.020  26.082  1.00  0.00     0.002 A 
ATOM     26  C   UNL A   1      38.672  21.717  25.698  1.00  0.00     0.000 A 
ENDBRANCH  18  21
ENDBRANCH   6   9
ENDBRANCH   4   5
ENDBRANCH   3   4
ENDBRANCH   2   3
ENDBRANCH   1   2
BRANCH   1  27
ATOM     27  C   UNL A   1      32.863  27.822  26.583  1.00  0.00     0.021 C 
BRANCH  27  28
ATOM     28  C   UNL A   1      34.028  28.725  26.188  1.00  0.00     0.116 C 
BRANCH  28  29
ATOM     29  N   UNL A   1      33.855  30.081  26.677  1.00  0.00    -0.352 N 
ATOM     30  C   UNL A   1      34.575  30.777  27.612  1.00  0.00     0.251 C 
ATOM     31  H   UNL A   1      33.105  30.576  26.277  1.00  0.00     0.163 HD
ATOM     32  O   UNL A   1      34.142  31.839  28.050  1.00  0.00    -0.269 OA
BRANCH  30  33
ATOM     33  C   UNL A   1      35.867  30.255  28.110  1.00  0.00     0.039 A 
ATOM     34  C   UNL A   1      36.982  30.327  27.271  1.00  0.00     0.014 A 
ATOM     35  C   UNL A   1      35.972  29.651  29.367  1.00  0.00     0.014 A 
ATOM     36  C   UNL A   1      38.211  29.831  27.708  1.00  0.00     0.010 A 
ATOM     37  C   UNL A   1      37.215  29.216  29.828  1.00  0.00     0.010 A 
ATOM     38  C   UNL A   1      38.342  29.292  28.999  1.00  0.00    -0.014 A 
BRANCH  38  39
ATOM     39  C   UNL A   1      39.662  28.808  29.479  1.00  0.00     0.031 A 
ATOM     40  C   UNL A   1      40.432  29.582  30.511  1.00  0.00     0.074 A 
ATOM     41  C   UNL A   1      40.177  27.679  28.959  1.00  0.00     0.049 A 
ATOM     42  N   UNL A   1      41.580  29.296  31.073  1.00  0.00    -0.248 NA
ATOM     43  C   UNL A   1      39.851  30.860  30.951  1.00  0.00     0.031 C 
ATOM     44  C   UNL A   1      39.553  26.872  27.910  1.00  0.00     0.029 A 
ATOM     45  N   UNL A   1      41.340  27.010  29.245  1.00  0.00    -0.354 N 
ATOM     46  C   UNL A   1      41.863  30.359  31.921  1.00  0.00     0.074 A 
ATOM     47  C   UNL A   1      40.793  31.321  31.763  1.00  0.00     0.031 C 
ATOM     48  C   UNL A   1      40.317  25.795  27.671  1.00  0.00     0.029 A 
ATOM     49  C   UNL A   1      41.496  25.849  28.530  1.00  0.00     0.049 A 
ATOM     50  H   UNL A   1      42.000  27.332  29.901  1.00  0.00     0.167 HD
ATOM     51  C   UNL A   1      42.908  30.508  32.770  1.00  0.00     0.037 A 
ATOM     52  C   UNL A   1      42.472  24.924  28.574  1.00  0.00     0.037 A 
ATOM     53  C   UNL A   1      43.955  29.535  32.947  1.00  0.00     0.049 A 
ATOM     54  C   UNL A   1      43.608  25.103  29.543  1.00  0.00     0.074 A 
ATOM     55  C   UNL A   1      45.012  29.554  33.840  1.00  0.00     0.029 A 
ATOM     56  N   UNL A   1      44.078  28.368  32.208  1.00  0.00    -0.354 N 
ATOM     57  N   UNL A   1      43.819  26.067  30.405  1.00  0.00    -0.248 NA
ATOM     58  C   UNL A   1      44.638  24.055  29.550  1.00  0.00     0.031 C 
ATOM     59  C   UNL A   1      45.800  28.421  33.609  1.00  0.00     0.029 A 
ATOM     60  C   UNL A   1      45.208  27.671  32.606  1.00  0.00     0.049 A 
ATOM     61  H   UNL A   1      43.455  28.077  31.504  1.00  0.00     0.167 HD
ATOM     62  C   UNL A   1      44.988  25.732  31.075  1.00  0.00     0.074 A 
ATOM     63  C   UNL A   1      45.429  24.463  30.532  1.00  0.00     0.031 C 
ATOM     64  C   UNL A   1      45.638  26.412  32.051  1.00  0.00     0.037 A 
BRANCH  51  65
ATOM     65  C   UNL A   1      42.972  31.776  33.574  1.00  0.00     0.064 A 
ATOM     66  C   UNL A   1      43.661  32.908  33.115  1.00  0.00     0.173 A 
ATOM     67  C   UNL A   1      42.316  31.867  34.811  1.00  0.00     0.173 A 
ATOM     68  F   UNL A   1      44.316  32.871  31.944  1.00  0.00    -0.203 F 
ATOM     69  C   UNL A   1      43.720  34.072  33.878  1.00  0.00     0.198 A 
ATOM     70  C   UNL A   1      42.350  33.042  35.557  1.00  0.00     0.198 A 
ATOM     71  F   UNL A   1      41.637  30.816  35.296  1.00  0.00    -0.203 F 
ATOM     72  F   UNL A   1      44.429  35.123  33.443  1.00  0.00    -0.200 F 
ATOM     73  C   UNL A   1      43.059  34.140  35.095  1.00  0.00     0.200 A 
ATOM     74  F   UNL A   1      41.702  33.110  36.728  1.00  0.00    -0.200 F 
ATOM     75  F   UNL A   1      43.113  35.261  35.827  1.00  0.00    -0.200 F 
ENDBRANCH  51  65
BRANCH  52  76
ATOM     76  C   UNL A   1      42.387  23.716  27.715  1.00  0.00     0.064 A 
ATOM     77  C   UNL A   1      42.830  23.750  26.386  1.00  0.00     0.173 A 
ATOM     78  C   UNL A   1      41.868  22.508  28.201  1.00  0.00     0.173 A 
ATOM     79  F   UNL A   1      43.317  24.890  25.873  1.00  0.00    -0.203 F 
ATOM     80  C   UNL A   1      42.743  22.626  25.569  1.00  0.00     0.198 A 
ATOM     81  C   UNL A   1      41.804  21.376  27.389  1.00  0.00     0.198 A 
ATOM     82  F   UNL A   1      41.436  22.422  29.467  1.00  0.00    -0.203 F 
ATOM     83  F   UNL A   1      43.138  22.698  24.291  1.00  0.00    -0.200 F 
ATOM     84  C   UNL A   1      42.235  21.438  26.073  1.00  0.00     0.200 A 
ATOM     85  F   UNL A   1      41.327  20.226  27.884  1.00  0.00    -0.200 F 
ATOM     86  F   UNL A   1      42.156  20.356  25.288  1.00  0.00    -0.200 F 
ENDBRANCH  52  76
BRANCH  64  87
ATOM     87  C   UNL A   1      46.882  25.781  32.605  1.00  0.00     0.064 A 
ATOM     88  C   UNL A   1      46.840  24.913  33.706  1.00  0.00     0.173 A 
ATOM     89  C   UNL A   1      48.132  26.044  32.022  1.00  0.00     0.173 A 
ATOM     90  F   UNL A   1      45.671  24.644  34.308  1.00  0.00    -0.203 F 
ATOM     91  C   UNL A   1      48.007  24.364  34.230  1.00  0.00     0.198 A 
ATOM     92  C   UNL A   1      49.293  25.467  32.529  1.00  0.00     0.198 A 
ATOM     93  F   UNL A   1      48.226  26.861  30.963  1.00  0.00    -0.203 F 
ATOM     94  F   UNL A   1      47.949  23.588  35.321  1.00  0.00    -0.200 F 
ATOM     95  C   UNL A   1      49.231  24.637  33.639  1.00  0.00     0.200 A 
ATOM     96  F   UNL A   1      50.474  25.723  31.950  1.00  0.00    -0.200 F 
ATOM     97  F   UNL A   1      50.353  24.111  34.147  1.00  0.00    -0.200 F 
ENDBRANCH  64  87
ENDBRANCH  38  39
ENDBRANCH  30  33
ENDBRANCH  28  29
ENDBRANCH  27  28
ENDBRANCH   1  27
TORSDOF 14
ENDMDL
