MODEL 1
REMARK VINA RESULT:     -11.5      0.000      0.000
REMARK SMILES O=C(/C=N\OCc1ccccc1)NCCCCCCNC(=O)c1ccc(-c2c3nc(c(-c4c(F)c(F)c(F)c(F)c4F)c4ccc([nH]4)c(-c4c(F)c(F)c(F)c(F)c4F)c4nc(c(-c5c(F)c(F)c(F)c(F)c5F)c5ccc2[nH]5)C=C4)C=C3)cc1
REMARK SMILES IDX 16 1 15 2 14 3 13 4 1 5 2 6 3 8 4 9 5 10 6 11 7 12 8 13
REMARK SMILES IDX 12 14 9 15 11 16 10 17 17 18 18 19 19 20 20 21 21 22 22 24
REMARK SMILES IDX 23 25 24 26 85 27 25 28 84 29 26 30 27 31 28 32 78 33 29 34
REMARK SMILES IDX 83 35 77 36 79 37 30 38 82 39 76 40 75 41 31 43 63 44 43 45
REMARK SMILES IDX 62 46 44 47 47 48 61 49 80 50 45 51 46 52 60 54 81 55 48 56
REMARK SMILES IDX 32 57 33 58 41 59 34 60 35 61 39 62 42 63 36 64 37 65 40 66
REMARK SMILES IDX 38 67 64 68 65 69 73 70 66 71 67 72 71 73 74 74 68 75 69 76
REMARK SMILES IDX 72 77 70 78 49 79 50 80 58 81 51 82 52 83 56 84 59 85 53 86
REMARK SMILES IDX 54 87 57 88 55 89
REMARK H PARENT 13 7 20 23 79 42 47 53
REMARK Flexibility Score: inf
ROOT
ATOM      1  C   UNL A   1      32.431  29.996  26.740  1.00  0.00     0.002 C 
ENDROOT
BRANCH   1   2
ATOM      2  C   UNL A   1      31.884  28.715  27.387  1.00  0.00     0.021 C 
BRANCH   2   3
ATOM      3  C   UNL A   1      31.835  27.497  26.464  1.00  0.00     0.116 C 
BRANCH   3   4
ATOM      4  N   UNL A   1      31.528  27.861  25.102  1.00  0.00    -0.351 N 
ATOM      5  O   UNL A   1      32.467  26.039  24.035  1.00  0.00    -0.268 OA
ATOM      6  C   UNL A   1      31.886  27.115  24.010  1.00  0.00     0.265 C 
ATOM      7  H   UNL A   1      31.031  28.696  24.948  1.00  0.00     0.163 HD
BRANCH   6   8
ATOM      8  C   UNL A   1      31.446  27.657  22.667  1.00  0.00     0.225 C 
ATOM      9  N   UNL A   1      30.254  28.038  22.309  1.00  0.00    -0.089 NA
BRANCH   9  10
ATOM     10  O   UNL A   1      29.316  27.990  23.351  1.00  0.00    -0.391 OA
BRANCH  10  11
ATOM     11  C   UNL A   1      28.081  28.580  22.921  1.00  0.00     0.299 C 
BRANCH  11  12
ATOM     12  C   UNL A   1      28.185  30.057  22.607  1.00  0.00    -0.008 A 
ATOM     13  C   UNL A   1      28.469  31.020  23.585  1.00  0.00     0.007 A 
ATOM     14  C   UNL A   1      28.032  30.480  21.277  1.00  0.00     0.007 A 
ATOM     15  C   UNL A   1      28.601  32.367  23.245  1.00  0.00     0.000 A 
ATOM     16  C   UNL A   1      28.162  31.828  20.937  1.00  0.00     0.000 A 
ATOM     17  C   UNL A   1      28.449  32.771  21.921  1.00  0.00     0.000 A 
ENDBRANCH  11  12
ENDBRANCH  10  11
ENDBRANCH   9  10
ENDBRANCH   6   8
ENDBRANCH   3   4
ENDBRANCH   2   3
ENDBRANCH   1   2
BRANCH   1  18
ATOM     18  C   UNL A   1      31.410  30.838  25.970  1.00  0.00     0.002 C 
BRANCH  18  19
ATOM     19  C   UNL A   1      31.262  32.285  26.442  1.00  0.00     0.021 C 
BRANCH  19  20
ATOM     20  C   UNL A   1      32.430  32.822  27.263  1.00  0.00     0.116 C 
BRANCH  20  21
ATOM     21  N   UNL A   1      32.278  34.229  27.600  1.00  0.00    -0.352 N 
ATOM     22  C   UNL A   1      32.941  34.985  28.535  1.00  0.00     0.251 C 
ATOM     23  H   UNL A   1      31.595  34.711  27.080  1.00  0.00     0.163 HD
ATOM     24  O   UNL A   1      32.557  36.122  28.788  1.00  0.00    -0.269 OA
BRANCH  22  25
ATOM     25  C   UNL A   1      34.105  34.427  29.261  1.00  0.00     0.039 A 
ATOM     26  C   UNL A   1      33.893  33.816  30.501  1.00  0.00     0.014 A 
ATOM     27  C   UNL A   1      35.400  34.517  28.742  1.00  0.00     0.014 A 
ATOM     28  C   UNL A   1      34.966  33.243  31.186  1.00  0.00     0.010 A 
ATOM     29  C   UNL A   1      36.455  33.878  29.388  1.00  0.00     0.010 A 
ATOM     30  C   UNL A   1      36.251  33.237  30.619  1.00  0.00    -0.014 A 
BRANCH  30  31
ATOM     31  C   UNL A   1      37.383  32.555  31.301  1.00  0.00     0.031 A 
ATOM     32  C   UNL A   1      38.108  31.420  30.633  1.00  0.00     0.074 A 
ATOM     33  C   UNL A   1      37.727  32.930  32.549  1.00  0.00     0.049 A 
ATOM     34  N   UNL A   1      39.111  30.703  31.075  1.00  0.00    -0.248 NA
ATOM     35  C   UNL A   1      37.627  31.020  29.302  1.00  0.00     0.031 C 
ATOM     36  C   UNL A   1      37.070  33.982  33.325  1.00  0.00     0.029 A 
ATOM     37  N   UNL A   1      38.713  32.468  33.384  1.00  0.00    -0.354 N 
ATOM     38  C   UNL A   1      39.368  29.761  30.088  1.00  0.00     0.074 A 
ATOM     39  C   UNL A   1      38.382  29.962  29.047  1.00  0.00     0.031 C 
ATOM     40  C   UNL A   1      37.698  34.116  34.504  1.00  0.00     0.029 A 
ATOM     41  C   UNL A   1      38.773  33.132  34.584  1.00  0.00     0.049 A 
ATOM     42  H   UNL A   1      39.320  31.730  33.145  1.00  0.00     0.167 HD
ATOM     43  C   UNL A   1      40.350  28.828  30.041  1.00  0.00     0.037 A 
ATOM     44  C   UNL A   1      39.605  32.970  35.630  1.00  0.00     0.037 A 
ATOM     45  C   UNL A   1      41.341  28.644  31.070  1.00  0.00     0.049 A 
ATOM     46  C   UNL A   1      40.677  31.916  35.559  1.00  0.00     0.074 A 
ATOM     47  C   UNL A   1      42.422  27.780  31.084  1.00  0.00     0.029 A 
ATOM     48  N   UNL A   1      41.364  29.327  32.278  1.00  0.00    -0.354 N 
ATOM     49  N   UNL A   1      40.969  31.093  34.583  1.00  0.00    -0.248 NA
ATOM     50  C   UNL A   1      41.540  31.777  36.741  1.00  0.00     0.031 C 
ATOM     51  C   UNL A   1      43.061  27.895  32.324  1.00  0.00     0.029 A 
ATOM     52  C   UNL A   1      42.418  28.878  33.059  1.00  0.00     0.049 A 
ATOM     53  H   UNL A   1      40.725  30.029  32.541  1.00  0.00     0.167 HD
ATOM     54  C   UNL A   1      42.067  30.360  35.016  1.00  0.00     0.074 A 
ATOM     55  C   UNL A   1      42.399  30.852  36.337  1.00  0.00     0.031 C 
ATOM     56  C   UNL A   1      42.739  29.371  34.375  1.00  0.00     0.037 A 
BRANCH  43  57
ATOM     57  C   UNL A   1      40.390  27.922  28.841  1.00  0.00     0.064 A 
ATOM     58  C   UNL A   1      39.700  26.699  28.811  1.00  0.00     0.173 A 
ATOM     59  C   UNL A   1      41.114  28.290  27.697  1.00  0.00     0.173 A 
ATOM     60  F   UNL A   1      38.998  26.293  29.880  1.00  0.00    -0.203 F 
ATOM     61  C   UNL A   1      39.770  25.862  27.700  1.00  0.00     0.198 A 
ATOM     62  C   UNL A   1      41.153  27.467  26.575  1.00  0.00     0.198 A 
ATOM     63  F   UNL A   1      41.786  29.451  27.665  1.00  0.00    -0.203 F 
ATOM     64  F   UNL A   1      39.156  24.671  27.721  1.00  0.00    -0.200 F 
ATOM     65  C   UNL A   1      40.491  26.249  26.581  1.00  0.00     0.200 A 
ATOM     66  F   UNL A   1      41.837  27.851  25.488  1.00  0.00    -0.200 F 
ATOM     67  F   UNL A   1      40.556  25.443  25.512  1.00  0.00    -0.200 F 
ENDBRANCH  43  57
BRANCH  44  68
ATOM     68  C   UNL A   1      39.488  33.856  36.818  1.00  0.00     0.064 A 
ATOM     69  C   UNL A   1      40.135  35.100  36.848  1.00  0.00     0.173 A 
ATOM     70  C   UNL A   1      38.735  33.485  37.941  1.00  0.00     0.173 A 
ATOM     71  F   UNL A   1      40.884  35.490  35.807  1.00  0.00    -0.203 F 
ATOM     72  C   UNL A   1      40.049  35.930  37.964  1.00  0.00     0.198 A 
ATOM     73  C   UNL A   1      38.626  34.329  39.044  1.00  0.00     0.198 A 
ATOM     74  F   UNL A   1      38.093  32.308  37.961  1.00  0.00    -0.203 F 
ATOM     75  F   UNL A   1      40.716  37.092  37.983  1.00  0.00    -0.200 F 
ATOM     76  C   UNL A   1      39.289  35.547  39.058  1.00  0.00     0.200 A 
ATOM     77  F   UNL A   1      37.878  33.963  40.094  1.00  0.00    -0.200 F 
ATOM     78  F   UNL A   1      39.202  36.348  40.128  1.00  0.00    -0.200 F 
ENDBRANCH  44  68
BRANCH  56  79
ATOM     79  C   UNL A   1      43.926  28.780  35.083  1.00  0.00     0.064 A 
ATOM     80  C   UNL A   1      45.215  29.319  34.944  1.00  0.00     0.173 A 
ATOM     81  C   UNL A   1      43.770  27.668  35.925  1.00  0.00     0.173 A 
ATOM     82  F   UNL A   1      45.423  30.372  34.139  1.00  0.00    -0.203 F 
ATOM     83  C   UNL A   1      46.306  28.741  35.589  1.00  0.00     0.198 A 
ATOM     84  C   UNL A   1      44.857  27.117  36.597  1.00  0.00     0.198 A 
ATOM     85  F   UNL A   1      42.559  27.118  36.101  1.00  0.00    -0.203 F 
ATOM     86  F   UNL A   1      47.537  29.234  35.389  1.00  0.00    -0.200 F 
ATOM     87  C   UNL A   1      46.125  27.647  36.421  1.00  0.00     0.200 A 
ATOM     88  F   UNL A   1      44.676  26.069  37.413  1.00  0.00    -0.200 F 
ATOM     89  F   UNL A   1      47.176  27.094  37.041  1.00  0.00    -0.200 F 
ENDBRANCH  56  79
ENDBRANCH  30  31
ENDBRANCH  22  25
ENDBRANCH  20  21
ENDBRANCH  19  20
ENDBRANCH  18  19
ENDBRANCH   1  18
TORSDOF 16
ENDMDL
MODEL 2
REMARK VINA RESULT:     -11.3      6.415     11.816
REMARK SMILES O=C(/C=N\OCc1ccccc1)NCCCCCCNC(=O)c1ccc(-c2c3nc(c(-c4c(F)c(F)c(F)c(F)c4F)c4ccc([nH]4)c(-c4c(F)c(F)c(F)c(F)c4F)c4nc(c(-c5c(F)c(F)c(F)c(F)c5F)c5ccc2[nH]5)C=C4)C=C3)cc1
REMARK SMILES IDX 16 1 15 2 14 3 13 4 1 5 2 6 3 8 4 9 5 10 6 11 7 12 8 13
REMARK SMILES IDX 12 14 9 15 11 16 10 17 17 18 18 19 19 20 20 21 21 22 22 24
REMARK SMILES IDX 23 25 24 26 85 27 25 28 84 29 26 30 27 31 28 32 78 33 29 34
REMARK SMILES IDX 83 35 77 36 79 37 30 38 82 39 76 40 75 41 31 43 63 44 43 45
REMARK SMILES IDX 62 46 44 47 47 48 61 49 80 50 45 51 46 52 60 54 81 55 48 56
REMARK SMILES IDX 32 57 33 58 41 59 34 60 35 61 39 62 42 63 36 64 37 65 40 66
REMARK SMILES IDX 38 67 64 68 65 69 73 70 66 71 67 72 71 73 74 74 68 75 69 76
REMARK SMILES IDX 72 77 70 78 49 79 50 80 58 81 51 82 52 83 56 84 59 85 53 86
REMARK SMILES IDX 54 87 57 88 55 89
REMARK H PARENT 13 7 20 23 79 42 47 53
REMARK Flexibility Score: inf
ROOT
ATOM      1  C   UNL A   1      37.424  22.092  24.938  1.00  0.00     0.002 C 
ENDROOT
BRANCH   1   2
ATOM      2  C   UNL A   1      36.439  22.850  25.841  1.00  0.00     0.021 C 
BRANCH   2   3
ATOM      3  C   UNL A   1      35.902  24.157  25.255  1.00  0.00     0.116 C 
BRANCH   3   4
ATOM      4  N   UNL A   1      34.616  23.981  24.625  1.00  0.00    -0.351 N 
ATOM      5  O   UNL A   1      33.272  24.358  26.466  1.00  0.00    -0.268 OA
ATOM      6  C   UNL A   1      33.420  24.076  25.286  1.00  0.00     0.265 C 
ATOM      7  H   UNL A   1      34.597  23.780  23.662  1.00  0.00     0.163 HD
BRANCH   6   8
ATOM      8  C   UNL A   1      32.181  23.883  24.438  1.00  0.00     0.225 C 
ATOM      9  N   UNL A   1      31.888  22.878  23.663  1.00  0.00    -0.089 NA
BRANCH   9  10
ATOM     10  O   UNL A   1      32.834  21.843  23.712  1.00  0.00    -0.391 OA
BRANCH  10  11
ATOM     11  C   UNL A   1      32.295  20.727  24.434  1.00  0.00     0.299 C 
BRANCH  11  12
ATOM     12  C   UNL A   1      32.875  19.392  24.021  1.00  0.00    -0.008 A 
ATOM     13  C   UNL A   1      32.364  18.643  22.951  1.00  0.00     0.007 A 
ATOM     14  C   UNL A   1      33.997  18.897  24.707  1.00  0.00     0.007 A 
ATOM     15  C   UNL A   1      32.958  17.438  22.574  1.00  0.00     0.000 A 
ATOM     16  C   UNL A   1      34.589  17.691  24.331  1.00  0.00     0.000 A 
ATOM     17  C   UNL A   1      34.070  16.963  23.263  1.00  0.00     0.000 A 
ENDBRANCH  11  12
ENDBRANCH  10  11
ENDBRANCH   9  10
ENDBRANCH   6   8
ENDBRANCH   3   4
ENDBRANCH   2   3
ENDBRANCH   1   2
BRANCH   1  18
ATOM     18  C   UNL A   1      37.024  20.659  24.577  1.00  0.00     0.002 C 
BRANCH  18  19
ATOM     19  C   UNL A   1      38.015  19.574  24.999  1.00  0.00     0.021 C 
BRANCH  19  20
ATOM     20  C   UNL A   1      39.211  20.068  25.807  1.00  0.00     0.116 C 
BRANCH  20  21
ATOM     21  N   UNL A   1      40.265  19.071  25.914  1.00  0.00    -0.352 N 
ATOM     22  C   UNL A   1      41.615  19.236  26.100  1.00  0.00     0.251 C 
ATOM     23  H   UNL A   1      39.964  18.137  25.842  1.00  0.00     0.163 HD
ATOM     24  O   UNL A   1      42.370  18.274  26.000  1.00  0.00    -0.269 OA
BRANCH  22  25
ATOM     25  C   UNL A   1      42.173  20.576  26.395  1.00  0.00     0.039 A 
ATOM     26  C   UNL A   1      42.575  21.385  25.327  1.00  0.00     0.014 A 
ATOM     27  C   UNL A   1      42.320  21.031  27.708  1.00  0.00     0.014 A 
ATOM     28  C   UNL A   1      43.063  22.670  25.575  1.00  0.00     0.010 A 
ATOM     29  C   UNL A   1      42.733  22.340  27.948  1.00  0.00     0.010 A 
ATOM     30  C   UNL A   1      43.113  23.172  26.886  1.00  0.00    -0.014 A 
BRANCH  30  31
ATOM     31  C   UNL A   1      43.550  24.568  27.152  1.00  0.00     0.031 A 
ATOM     32  C   UNL A   1      42.582  25.584  27.691  1.00  0.00     0.074 A 
ATOM     33  C   UNL A   1      44.814  24.933  26.860  1.00  0.00     0.049 A 
ATOM     34  N   UNL A   1      42.781  26.847  27.977  1.00  0.00    -0.248 NA
ATOM     35  C   UNL A   1      41.202  25.130  27.914  1.00  0.00     0.031 C 
ATOM     36  C   UNL A   1      45.834  24.055  26.287  1.00  0.00     0.029 A 
ATOM     37  N   UNL A   1      45.455  26.138  27.006  1.00  0.00    -0.354 N 
ATOM     38  C   UNL A   1      41.552  27.339  28.397  1.00  0.00     0.074 A 
ATOM     39  C   UNL A   1      40.601  26.254  28.277  1.00  0.00     0.031 C 
ATOM     40  C   UNL A   1      46.985  24.737  26.169  1.00  0.00     0.029 A 
ATOM     41  C   UNL A   1      46.773  26.109  26.620  1.00  0.00     0.049 A 
ATOM     42  H   UNL A   1      45.013  26.946  27.353  1.00  0.00     0.167 HD
ATOM     43  C   UNL A   1      41.246  28.575  28.862  1.00  0.00     0.037 A 
ATOM     44  C   UNL A   1      47.707  27.079  26.632  1.00  0.00     0.037 A 
ATOM     45  C   UNL A   1      42.199  29.646  28.998  1.00  0.00     0.049 A 
ATOM     46  C   UNL A   1      47.338  28.447  27.138  1.00  0.00     0.074 A 
ATOM     47  C   UNL A   1      42.009  30.910  29.529  1.00  0.00     0.029 A 
ATOM     48  N   UNL A   1      43.523  29.584  28.586  1.00  0.00    -0.354 N 
ATOM     49  N   UNL A   1      46.197  28.875  27.618  1.00  0.00    -0.248 NA
ATOM     50  C   UNL A   1      48.397  29.466  27.108  1.00  0.00     0.031 C 
ATOM     51  C   UNL A   1      43.197  31.633  29.380  1.00  0.00     0.029 A 
ATOM     52  C   UNL A   1      44.150  30.800  28.816  1.00  0.00     0.049 A 
ATOM     53  H   UNL A   1      43.954  28.794  28.188  1.00  0.00     0.167 HD
ATOM     54  C   UNL A   1      46.405  30.200  27.977  1.00  0.00     0.074 A 
ATOM     55  C   UNL A   1      47.791  30.498  27.675  1.00  0.00     0.031 C 
ATOM     56  C   UNL A   1      45.529  31.088  28.510  1.00  0.00     0.037 A 
BRANCH  43  57
ATOM     57  C   UNL A   1      39.816  28.839  29.243  1.00  0.00     0.064 A 
ATOM     58  C   UNL A   1      39.341  28.616  30.546  1.00  0.00     0.173 A 
ATOM     59  C   UNL A   1      38.909  29.341  28.297  1.00  0.00     0.173 A 
ATOM     60  F   UNL A   1      40.161  28.129  31.490  1.00  0.00    -0.203 F 
ATOM     61  C   UNL A   1      38.006  28.843  30.873  1.00  0.00     0.198 A 
ATOM     62  C   UNL A   1      37.584  29.601  28.636  1.00  0.00     0.198 A 
ATOM     63  F   UNL A   1      39.309  29.582  27.038  1.00  0.00    -0.203 F 
ATOM     64  F   UNL A   1      37.563  28.561  32.106  1.00  0.00    -0.200 F 
ATOM     65  C   UNL A   1      37.131  29.341  29.921  1.00  0.00     0.200 A 
ATOM     66  F   UNL A   1      36.744  30.098  27.719  1.00  0.00    -0.200 F 
ATOM     67  F   UNL A   1      35.848  29.560  30.237  1.00  0.00    -0.200 F 
ENDBRANCH  43  57
BRANCH  44  68
ATOM     68  C   UNL A   1      49.095  26.780  26.191  1.00  0.00     0.064 A 
ATOM     69  C   UNL A   1      49.491  27.014  24.866  1.00  0.00     0.173 A 
ATOM     70  C   UNL A   1      50.051  26.259  27.075  1.00  0.00     0.173 A 
ATOM     71  F   UNL A   1      48.606  27.493  23.979  1.00  0.00    -0.203 F 
ATOM     72  C   UNL A   1      50.783  26.720  24.437  1.00  0.00     0.198 A 
ATOM     73  C   UNL A   1      51.351  25.992  26.652  1.00  0.00     0.198 A 
ATOM     74  F   UNL A   1      49.725  26.021  28.354  1.00  0.00    -0.203 F 
ATOM     75  F   UNL A   1      51.119  26.909  23.154  1.00  0.00    -0.200 F 
ATOM     76  C   UNL A   1      51.714  26.215  25.332  1.00  0.00     0.200 A 
ATOM     77  F   UNL A   1      52.253  25.519  27.523  1.00  0.00    -0.200 F 
ATOM     78  F   UNL A   1      52.958  25.936  24.920  1.00  0.00    -0.200 F 
ENDBRANCH  44  68
BRANCH  56  79
ATOM     79  C   UNL A   1      46.056  32.459  28.835  1.00  0.00     0.064 A 
ATOM     80  C   UNL A   1      46.585  32.768  30.098  1.00  0.00     0.173 A 
ATOM     81  C   UNL A   1      46.044  33.472  27.864  1.00  0.00     0.173 A 
ATOM     82  F   UNL A   1      46.606  31.841  31.067  1.00  0.00    -0.203 F 
ATOM     83  C   UNL A   1      47.044  34.050  30.387  1.00  0.00     0.198 A 
ATOM     84  C   UNL A   1      46.539  34.742  28.146  1.00  0.00     0.198 A 
ATOM     85  F   UNL A   1      45.557  33.230  26.638  1.00  0.00    -0.203 F 
ATOM     86  F   UNL A   1      47.485  34.339  31.619  1.00  0.00    -0.200 F 
ATOM     87  C   UNL A   1      47.029  35.034  29.409  1.00  0.00     0.200 A 
ATOM     88  F   UNL A   1      46.537  35.686  27.194  1.00  0.00    -0.200 F 
ATOM     89  F   UNL A   1      47.473  36.267  29.690  1.00  0.00    -0.200 F 
ENDBRANCH  56  79
ENDBRANCH  30  31
ENDBRANCH  22  25
ENDBRANCH  20  21
ENDBRANCH  19  20
ENDBRANCH  18  19
ENDBRANCH   1  18
TORSDOF 16
ENDMDL
MODEL 3
REMARK VINA RESULT:     -11.2      0.887      7.728
REMARK SMILES O=C(/C=N\OCc1ccccc1)NCCCCCCNC(=O)c1ccc(-c2c3nc(c(-c4c(F)c(F)c(F)c(F)c4F)c4ccc([nH]4)c(-c4c(F)c(F)c(F)c(F)c4F)c4nc(c(-c5c(F)c(F)c(F)c(F)c5F)c5ccc2[nH]5)C=C4)C=C3)cc1
REMARK SMILES IDX 16 1 15 2 14 3 13 4 1 5 2 6 3 8 4 9 5 10 6 11 7 12 8 13
REMARK SMILES IDX 12 14 9 15 11 16 10 17 17 18 18 19 19 20 20 21 21 22 22 24
REMARK SMILES IDX 23 25 24 26 85 27 25 28 84 29 26 30 27 31 28 32 78 33 29 34
REMARK SMILES IDX 83 35 77 36 79 37 30 38 82 39 76 40 75 41 31 43 63 44 43 45
REMARK SMILES IDX 62 46 44 47 47 48 61 49 80 50 45 51 46 52 60 54 81 55 48 56
REMARK SMILES IDX 32 57 33 58 41 59 34 60 35 61 39 62 42 63 36 64 37 65 40 66
REMARK SMILES IDX 38 67 64 68 65 69 73 70 66 71 67 72 71 73 74 74 68 75 69 76
REMARK SMILES IDX 72 77 70 78 49 79 50 80 58 81 51 82 52 83 56 84 59 85 53 86
REMARK SMILES IDX 54 87 57 88 55 89
REMARK H PARENT 13 7 20 23 79 42 47 53
REMARK Flexibility Score: inf
ROOT
ATOM      1  C   UNL A   1      32.223  29.971  26.724  1.00  0.00     0.002 C 
ENDROOT
BRANCH   1   2
ATOM      2  C   UNL A   1      31.779  28.704  27.471  1.00  0.00     0.021 C 
BRANCH   2   3
ATOM      3  C   UNL A   1      31.717  27.439  26.614  1.00  0.00     0.116 C 
BRANCH   3   4
ATOM      4  N   UNL A   1      31.500  27.738  25.220  1.00  0.00    -0.351 N 
ATOM      5  O   UNL A   1      32.080  25.686  24.329  1.00  0.00    -0.268 OA
ATOM      6  C   UNL A   1      31.718  26.848  24.202  1.00  0.00     0.265 C 
ATOM      7  H   UNL A   1      31.176  28.637  24.985  1.00  0.00     0.163 HD
BRANCH   6   8
ATOM      8  C   UNL A   1      31.405  27.348  22.808  1.00  0.00     0.225 C 
ATOM      9  N   UNL A   1      30.278  27.823  22.362  1.00  0.00    -0.089 NA
BRANCH   9  10
ATOM     10  O   UNL A   1      29.288  27.930  23.351  1.00  0.00    -0.391 OA
BRANCH  10  11
ATOM     11  C   UNL A   1      28.101  28.507  22.787  1.00  0.00     0.299 C 
BRANCH  11  12
ATOM     12  C   UNL A   1      28.229  29.979  22.463  1.00  0.00    -0.008 A 
ATOM     13  C   UNL A   1      28.028  30.490  21.173  1.00  0.00     0.007 A 
ATOM     14  C   UNL A   1      28.521  30.880  23.501  1.00  0.00     0.007 A 
ATOM     15  C   UNL A   1      28.112  31.861  20.926  1.00  0.00     0.000 A 
ATOM     16  C   UNL A   1      28.607  32.251  23.253  1.00  0.00     0.000 A 
ATOM     17  C   UNL A   1      28.400  32.741  21.966  1.00  0.00     0.000 A 
ENDBRANCH  11  12
ENDBRANCH  10  11
ENDBRANCH   9  10
ENDBRANCH   6   8
ENDBRANCH   3   4
ENDBRANCH   2   3
ENDBRANCH   1   2
BRANCH   1  18
ATOM     18  C   UNL A   1      31.093  30.848  26.177  1.00  0.00     0.002 C 
BRANCH  18  19
ATOM     19  C   UNL A   1      31.203  32.338  26.500  1.00  0.00     0.021 C 
BRANCH  19  20
ATOM     20  C   UNL A   1      32.574  32.796  26.988  1.00  0.00     0.116 C 
BRANCH  20  21
ATOM     21  N   UNL A   1      32.533  34.105  27.623  1.00  0.00    -0.352 N 
ATOM     22  C   UNL A   1      33.279  34.599  28.664  1.00  0.00     0.251 C 
ATOM     23  H   UNL A   1      31.871  34.729  27.249  1.00  0.00     0.163 HD
ATOM     24  O   UNL A   1      32.986  35.678  29.170  1.00  0.00    -0.269 OA
BRANCH  22  25
ATOM     25  C   UNL A   1      34.423  33.826  29.200  1.00  0.00     0.039 A 
ATOM     26  C   UNL A   1      35.720  34.258  28.906  1.00  0.00     0.014 A 
ATOM     27  C   UNL A   1      34.229  32.677  29.970  1.00  0.00     0.014 A 
ATOM     28  C   UNL A   1      36.817  33.573  29.435  1.00  0.00     0.010 A 
ATOM     29  C   UNL A   1      35.320  32.042  30.560  1.00  0.00     0.010 A 
ATOM     30  C   UNL A   1      36.626  32.480  30.296  1.00  0.00    -0.014 A 
BRANCH  30  31
ATOM     31  C   UNL A   1      37.783  31.799  30.933  1.00  0.00     0.031 A 
ATOM     32  C   UNL A   1      38.202  32.147  32.334  1.00  0.00     0.074 A 
ATOM     33  C   UNL A   1      38.490  30.896  30.226  1.00  0.00     0.049 A 
ATOM     34  N   UNL A   1      39.188  31.663  33.049  1.00  0.00    -0.248 NA
ATOM     35  C   UNL A   1      37.428  33.195  33.015  1.00  0.00     0.031 C 
ATOM     36  C   UNL A   1      38.218  30.507  28.842  1.00  0.00     0.029 A 
ATOM     37  N   UNL A   1      39.583  30.141  30.573  1.00  0.00    -0.354 N 
ATOM     38  C   UNL A   1      39.161  32.358  34.251  1.00  0.00     0.074 A 
ATOM     39  C   UNL A   1      38.096  33.333  34.150  1.00  0.00     0.031 C 
ATOM     40  C   UNL A   1      39.090  29.556  28.472  1.00  0.00     0.029 A 
ATOM     41  C   UNL A   1      40.008  29.298  29.577  1.00  0.00     0.049 A 
ATOM     42  H   UNL A   1      40.021  30.200  31.454  1.00  0.00     0.167 HD
ATOM     43  C   UNL A   1      39.937  32.184  35.348  1.00  0.00     0.037 A 
ATOM     44  C   UNL A   1      41.023  28.412  29.557  1.00  0.00     0.037 A 
ATOM     45  C   UNL A   1      40.983  31.199  35.452  1.00  0.00     0.049 A 
ATOM     46  C   UNL A   1      41.879  28.250  30.783  1.00  0.00     0.074 A 
ATOM     47  C   UNL A   1      41.775  30.891  36.545  1.00  0.00     0.029 A 
ATOM     48  N   UNL A   1      41.394  30.370  34.418  1.00  0.00    -0.354 N 
ATOM     49  N   UNL A   1      41.787  28.846  31.945  1.00  0.00    -0.248 NA
ATOM     50  C   UNL A   1      42.981  27.281  30.691  1.00  0.00     0.031 C 
ATOM     51  C   UNL A   1      42.706  29.922  36.154  1.00  0.00     0.029 A 
ATOM     52  C   UNL A   1      42.453  29.577  34.835  1.00  0.00     0.049 A 
ATOM     53  H   UNL A   1      40.993  30.348  33.519  1.00  0.00     0.167 HD
ATOM     54  C   UNL A   1      42.794  28.305  32.734  1.00  0.00     0.074 A 
ATOM     55  C   UNL A   1      43.473  27.318  31.920  1.00  0.00     0.031 C 
ATOM     56  C   UNL A   1      43.124  28.599  34.017  1.00  0.00     0.037 A 
BRANCH  43  57
ATOM     57  C   UNL A   1      39.693  33.092  36.522  1.00  0.00     0.064 A 
ATOM     58  C   UNL A   1      40.393  34.298  36.686  1.00  0.00     0.173 A 
ATOM     59  C   UNL A   1      38.732  32.760  37.490  1.00  0.00     0.173 A 
ATOM     60  F   UNL A   1      41.330  34.663  35.796  1.00  0.00    -0.203 F 
ATOM     61  C   UNL A   1      40.171  35.114  37.793  1.00  0.00     0.198 A 
ATOM     62  C   UNL A   1      38.487  33.595  38.576  1.00  0.00     0.198 A 
ATOM     63  F   UNL A   1      38.027  31.624  37.381  1.00  0.00    -0.203 F 
ATOM     64  F   UNL A   1      40.898  36.228  37.959  1.00  0.00    -0.200 F 
ATOM     65  C   UNL A   1      39.215  34.765  38.734  1.00  0.00     0.200 A 
ATOM     66  F   UNL A   1      37.551  33.264  39.475  1.00  0.00    -0.200 F 
ATOM     67  F   UNL A   1      39.001  35.551  39.798  1.00  0.00    -0.200 F 
ENDBRANCH  43  57
BRANCH  44  68
ATOM     68  C   UNL A   1      41.257  27.577  28.350  1.00  0.00     0.064 A 
ATOM     69  C   UNL A   1      40.580  26.360  28.180  1.00  0.00     0.173 A 
ATOM     70  C   UNL A   1      42.154  27.969  27.347  1.00  0.00     0.173 A 
ATOM     71  F   UNL A   1      39.727  25.932  29.122  1.00  0.00    -0.203 F 
ATOM     72  C   UNL A   1      40.806  25.559  27.063  1.00  0.00     0.198 A 
ATOM     73  C   UNL A   1      42.358  27.182  26.216  1.00  0.00     0.198 A 
ATOM     74  F   UNL A   1      42.824  29.126  27.458  1.00  0.00    -0.203 F 
ATOM     75  F   UNL A   1      40.181  24.380  26.950  1.00  0.00    -0.200 F 
ATOM     76  C   UNL A   1      41.690  25.974  26.078  1.00  0.00     0.200 A 
ATOM     77  F   UNL A   1      43.201  27.592  25.258  1.00  0.00    -0.200 F 
ATOM     78  F   UNL A   1      41.903  25.206  25.001  1.00  0.00    -0.200 F 
ENDBRANCH  44  68
BRANCH  56  79
ATOM     79  C   UNL A   1      44.250  27.814  34.631  1.00  0.00     0.064 A 
ATOM     80  C   UNL A   1      44.032  26.587  35.275  1.00  0.00     0.173 A 
ATOM     81  C   UNL A   1      45.569  28.290  34.560  1.00  0.00     0.173 A 
ATOM     82  F   UNL A   1      42.789  26.093  35.386  1.00  0.00    -0.203 F 
ATOM     83  C   UNL A   1      45.085  25.887  35.860  1.00  0.00     0.198 A 
ATOM     84  C   UNL A   1      46.624  27.569  35.113  1.00  0.00     0.198 A 
ATOM     85  F   UNL A   1      45.836  29.454  33.948  1.00  0.00    -0.203 F 
ATOM     86  F   UNL A   1      44.842  24.750  36.526  1.00  0.00    -0.200 F 
ATOM     87  C   UNL A   1      46.380  26.375  35.771  1.00  0.00     0.200 A 
ATOM     88  F   UNL A   1      47.876  28.035  35.011  1.00  0.00    -0.200 F 
ATOM     89  F   UNL A   1      47.392  25.699  36.333  1.00  0.00    -0.200 F 
ENDBRANCH  56  79
ENDBRANCH  30  31
ENDBRANCH  22  25
ENDBRANCH  20  21
ENDBRANCH  19  20
ENDBRANCH  18  19
ENDBRANCH   1  18
TORSDOF 16
ENDMDL
