MODEL 1
REMARK VINA RESULT:     -12.7      0.000      0.000
REMARK SMILES O=C(NCCCCCCNC(=O)c1ccc(-c2c3nc(c(-c4c(F)c(F)c(F)c(F)c4F)c4ccc([nH]4)c(-c4c(F)c(F)c(F)c(F)c4F)c4nc(c(-c5c(F)c(F)c(F)c(F)c5F)c5ccc2[nH]5)C=C4)C=C3)cc1)C1=Cc2c(Cl)ccc(Cl)c2O[C@@H]1C(F)(F)F
REMARK SMILES IDX 7 1 6 2 5 3 4 4 3 5 1 6 2 7 76 9 77 10 87 11 78 12 86 13
REMARK SMILES IDX 79 14 85 15 80 16 81 17 83 18 82 19 84 20 88 21 89 22 90 23
REMARK SMILES IDX 91 24 8 25 9 26 10 27 11 28 12 30 13 31 14 32 75 33 15 34
REMARK SMILES IDX 74 35 16 36 17 37 18 38 68 39 19 40 73 41 67 42 69 43 20 44
REMARK SMILES IDX 72 45 66 46 65 47 21 49 53 50 33 51 52 52 34 53 37 54 51 55
REMARK SMILES IDX 70 56 35 57 36 58 50 60 71 61 38 62 22 63 23 64 31 65 24 66
REMARK SMILES IDX 25 67 29 68 32 69 26 70 27 71 30 72 28 73 54 74 55 75 63 76
REMARK SMILES IDX 56 77 57 78 61 79 64 80 58 81 59 82 62 83 60 84 39 85 40 86
REMARK SMILES IDX 48 87 41 88 42 89 46 90 49 91 43 92 44 93 47 94 45 95
REMARK H PARENT 3 8 10 29 69 48 37 59
REMARK Flexibility Score: inf
ROOT
ATOM      1  C   UNL A   1      31.361  30.877  25.868  1.00  0.00     0.002 C 
ENDROOT
BRANCH   1   2
ATOM      2  C   UNL A   1      32.375  29.919  26.506  1.00  0.00     0.002 C 
BRANCH   2   3
ATOM      3  C   UNL A   1      31.814  28.664  27.171  1.00  0.00     0.021 C 
BRANCH   3   4
ATOM      4  C   UNL A   1      31.392  27.536  26.237  1.00  0.00     0.116 C 
BRANCH   4   5
ATOM      5  N   UNL A   1      31.251  26.231  26.854  1.00  0.00    -0.352 N 
ATOM      6  O   UNL A   1      31.713  24.073  27.270  1.00  0.00    -0.270 OA
ATOM      7  C   UNL A   1      31.835  25.040  26.519  1.00  0.00     0.251 C 
ATOM      8  H   UNL A   1      30.644  26.197  27.628  1.00  0.00     0.163 HD
BRANCH   7   9
ATOM      9  C   UNL A   1      32.703  24.887  25.314  1.00  0.00     0.067 C 
ATOM     10  C   UNL A   1      34.026  24.669  25.405  1.00  0.00     0.027 C 
ATOM     11  C   UNL A   1      31.960  24.349  24.118  1.00  0.00     0.314 C 
ATOM     12  C   UNL A   1      34.393  23.271  25.030  1.00  0.00     0.037 A 
ATOM     13  O   UNL A   1      32.225  22.932  23.944  1.00  0.00    -0.474 OA
ATOM     14  C   UNL A   1      35.582  22.696  25.519  1.00  0.00     0.052 A 
ATOM     15  C   UNL A   1      33.422  22.447  24.423  1.00  0.00     0.148 A 
ATOM     16  Cl  UNL A   1      36.801  23.641  26.302  1.00  0.00    -0.084 Cl
ATOM     17  C   UNL A   1      35.758  21.311  25.488  1.00  0.00     0.023 A 
ATOM     18  C   UNL A   1      33.612  21.058  24.399  1.00  0.00     0.083 A 
ATOM     19  C   UNL A   1      34.765  20.493  24.949  1.00  0.00     0.026 A 
ATOM     20  Cl  UNL A   1      32.389  19.996  23.803  1.00  0.00    -0.080 Cl
BRANCH  11  21
ATOM     21  C   UNL A   1      32.255  25.141  22.834  1.00  0.00     0.429 C 
ATOM     22  F   UNL A   1      31.153  25.246  22.054  1.00  0.00    -0.167 F 
ATOM     23  F   UNL A   1      32.668  26.402  23.105  1.00  0.00    -0.167 F 
ATOM     24  F   UNL A   1      33.222  24.558  22.084  1.00  0.00    -0.167 F 
ENDBRANCH  11  21
ENDBRANCH   7   9
ENDBRANCH   4   5
ENDBRANCH   3   4
ENDBRANCH   2   3
ENDBRANCH   1   2
BRANCH   1  25
ATOM     25  C   UNL A   1      31.228  32.270  26.494  1.00  0.00     0.021 C 
BRANCH  25  26
ATOM     26  C   UNL A   1      32.487  32.851  27.133  1.00  0.00     0.116 C 
BRANCH  26  27
ATOM     27  N   UNL A   1      32.313  34.213  27.599  1.00  0.00    -0.352 N 
ATOM     28  C   UNL A   1      32.983  34.918  28.569  1.00  0.00     0.251 C 
ATOM     29  H   UNL A   1      31.597  34.715  27.146  1.00  0.00     0.163 HD
ATOM     30  O   UNL A   1      32.584  36.034  28.890  1.00  0.00    -0.269 OA
BRANCH  28  31
ATOM     31  C   UNL A   1      34.168  34.347  29.251  1.00  0.00     0.039 A 
ATOM     32  C   UNL A   1      33.966  33.590  30.411  1.00  0.00     0.014 A 
ATOM     33  C   UNL A   1      35.469  34.583  28.799  1.00  0.00     0.014 A 
ATOM     34  C   UNL A   1      35.056  33.030  31.083  1.00  0.00     0.010 A 
ATOM     35  C   UNL A   1      36.551  33.968  29.428  1.00  0.00     0.010 A 
ATOM     36  C   UNL A   1      36.357  33.190  30.580  1.00  0.00    -0.014 A 
BRANCH  36  37
ATOM     37  C   UNL A   1      37.521  32.554  31.254  1.00  0.00     0.031 A 
ATOM     38  C   UNL A   1      38.270  31.435  30.586  1.00  0.00     0.074 A 
ATOM     39  C   UNL A   1      37.871  32.951  32.493  1.00  0.00     0.049 A 
ATOM     40  N   UNL A   1      39.273  30.723  31.036  1.00  0.00    -0.248 NA
ATOM     41  C   UNL A   1      37.817  31.049  29.241  1.00  0.00     0.031 C 
ATOM     42  C   UNL A   1      37.202  33.999  33.265  1.00  0.00     0.029 A 
ATOM     43  N   UNL A   1      38.874  32.516  33.324  1.00  0.00    -0.354 N 
ATOM     44  C   UNL A   1      39.560  29.799  30.038  1.00  0.00     0.074 A 
ATOM     45  C   UNL A   1      38.593  30.006  28.983  1.00  0.00     0.031 C 
ATOM     46  C   UNL A   1      37.825  34.140  34.447  1.00  0.00     0.029 A 
ATOM     47  C   UNL A   1      38.912  33.169  34.532  1.00  0.00     0.049 A 
ATOM     48  H   UNL A   1      39.507  31.804  33.078  1.00  0.00     0.167 HD
ATOM     49  C   UNL A   1      40.554  28.879  29.997  1.00  0.00     0.037 A 
ATOM     50  C   UNL A   1      39.725  33.000  35.592  1.00  0.00     0.037 A 
ATOM     51  C   UNL A   1      41.529  28.692  31.040  1.00  0.00     0.049 A 
ATOM     52  C   UNL A   1      40.813  31.961  35.527  1.00  0.00     0.074 A 
ATOM     53  C   UNL A   1      42.610  27.826  31.066  1.00  0.00     0.029 A 
ATOM     54  N   UNL A   1      41.539  29.379  32.245  1.00  0.00    -0.354 N 
ATOM     55  N   UNL A   1      41.116  31.141  34.550  1.00  0.00    -0.248 NA
ATOM     56  C   UNL A   1      41.675  31.831  36.709  1.00  0.00     0.031 C 
ATOM     57  C   UNL A   1      43.242  27.954  32.308  1.00  0.00     0.029 A 
ATOM     58  C   UNL A   1      42.591  28.937  33.033  1.00  0.00     0.049 A 
ATOM     59  H   UNL A   1      40.894  30.077  32.503  1.00  0.00     0.167 HD
ATOM     60  C   UNL A   1      42.219  30.420  34.987  1.00  0.00     0.074 A 
ATOM     61  C   UNL A   1      42.541  30.910  36.311  1.00  0.00     0.031 C 
ATOM     62  C   UNL A   1      42.904  29.439  34.347  1.00  0.00     0.037 A 
BRANCH  49  63
ATOM     63  C   UNL A   1      40.637  28.000  28.781  1.00  0.00     0.064 A 
ATOM     64  C   UNL A   1      39.972  26.766  28.718  1.00  0.00     0.173 A 
ATOM     65  C   UNL A   1      41.360  28.411  27.652  1.00  0.00     0.173 A 
ATOM     66  F   UNL A   1      39.274  26.319  29.774  1.00  0.00    -0.203 F 
ATOM     67  C   UNL A   1      40.056  25.962  27.583  1.00  0.00     0.198 A 
ATOM     68  C   UNL A   1      41.416  27.621  26.506  1.00  0.00     0.198 A 
ATOM     69  F   UNL A   1      42.009  29.586  27.654  1.00  0.00    -0.203 F 
ATOM     70  F   UNL A   1      39.458  24.763  27.568  1.00  0.00    -0.200 F 
ATOM     71  C   UNL A   1      40.772  26.393  26.477  1.00  0.00     0.200 A 
ATOM     72  F   UNL A   1      42.095  28.046  25.433  1.00  0.00    -0.200 F 
ATOM     73  F   UNL A   1      40.847  25.621  25.384  1.00  0.00    -0.200 F 
ENDBRANCH  49  63
BRANCH  50  74
ATOM     74  C   UNL A   1      39.555  33.849  36.801  1.00  0.00     0.064 A 
ATOM     75  C   UNL A   1      38.798  33.405  37.893  1.00  0.00     0.173 A 
ATOM     76  C   UNL A   1      40.141  35.121  36.888  1.00  0.00     0.173 A 
ATOM     77  F   UNL A   1      38.201  32.204  37.849  1.00  0.00    -0.203 F 
ATOM     78  C   UNL A   1      38.617  34.206  39.019  1.00  0.00     0.198 A 
ATOM     79  C   UNL A   1      39.984  35.909  38.026  1.00  0.00     0.198 A 
ATOM     80  F   UNL A   1      40.880  35.591  35.872  1.00  0.00    -0.203 F 
ATOM     81  F   UNL A   1      37.851  33.775  40.030  1.00  0.00    -0.200 F 
ATOM     82  C   UNL A   1      39.216  35.455  39.087  1.00  0.00     0.200 A 
ATOM     83  F   UNL A   1      40.577  37.109  38.094  1.00  0.00    -0.200 F 
ATOM     84  F   UNL A   1      39.045  36.224  40.171  1.00  0.00    -0.200 F 
ENDBRANCH  50  74
BRANCH  62  85
ATOM     85  C   UNL A   1      44.092  28.855  35.055  1.00  0.00     0.064 A 
ATOM     86  C   UNL A   1      45.371  29.421  34.941  1.00  0.00     0.173 A 
ATOM     87  C   UNL A   1      43.941  27.737  35.891  1.00  0.00     0.173 A 
ATOM     88  F   UNL A   1      45.571  30.480  34.144  1.00  0.00    -0.203 F 
ATOM     89  C   UNL A   1      46.458  28.872  35.616  1.00  0.00     0.198 A 
ATOM     90  C   UNL A   1      45.025  27.211  36.589  1.00  0.00     0.198 A 
ATOM     91  F   UNL A   1      42.738  27.162  36.041  1.00  0.00    -0.203 F 
ATOM     92  F   UNL A   1      47.680  29.399  35.453  1.00  0.00    -0.200 F 
ATOM     93  C   UNL A   1      46.284  27.774  36.445  1.00  0.00     0.200 A 
ATOM     94  F   UNL A   1      44.851  26.160  37.401  1.00  0.00    -0.200 F 
ATOM     95  F   UNL A   1      47.330  27.253  37.100  1.00  0.00    -0.200 F 
ENDBRANCH  62  85
ENDBRANCH  36  37
ENDBRANCH  28  31
ENDBRANCH  26  27
ENDBRANCH  25  26
ENDBRANCH   1  25
TORSDOF 14
ENDMDL
MODEL 2
REMARK VINA RESULT:     -12.7      0.362      2.004
REMARK SMILES O=C(NCCCCCCNC(=O)c1ccc(-c2c3nc(c(-c4c(F)c(F)c(F)c(F)c4F)c4ccc([nH]4)c(-c4c(F)c(F)c(F)c(F)c4F)c4nc(c(-c5c(F)c(F)c(F)c(F)c5F)c5ccc2[nH]5)C=C4)C=C3)cc1)C1=Cc2c(Cl)ccc(Cl)c2O[C@@H]1C(F)(F)F
REMARK SMILES IDX 7 1 6 2 5 3 4 4 3 5 1 6 2 7 76 9 77 10 87 11 78 12 86 13
REMARK SMILES IDX 79 14 85 15 80 16 81 17 83 18 82 19 84 20 88 21 89 22 90 23
REMARK SMILES IDX 91 24 8 25 9 26 10 27 11 28 12 30 13 31 14 32 75 33 15 34
REMARK SMILES IDX 74 35 16 36 17 37 18 38 68 39 19 40 73 41 67 42 69 43 20 44
REMARK SMILES IDX 72 45 66 46 65 47 21 49 53 50 33 51 52 52 34 53 37 54 51 55
REMARK SMILES IDX 70 56 35 57 36 58 50 60 71 61 38 62 22 63 23 64 31 65 24 66
REMARK SMILES IDX 25 67 29 68 32 69 26 70 27 71 30 72 28 73 54 74 55 75 63 76
REMARK SMILES IDX 56 77 57 78 61 79 64 80 58 81 59 82 62 83 60 84 39 85 40 86
REMARK SMILES IDX 48 87 41 88 42 89 46 90 49 91 43 92 44 93 47 94 45 95
REMARK H PARENT 3 8 10 29 69 48 37 59
REMARK Flexibility Score: inf
ROOT
ATOM      1  C   UNL A   1      31.488  30.804  26.189  1.00  0.00     0.002 C 
ENDROOT
BRANCH   1   2
ATOM      2  C   UNL A   1      32.696  30.030  26.732  1.00  0.00     0.002 C 
BRANCH   2   3
ATOM      3  C   UNL A   1      32.438  28.609  27.226  1.00  0.00     0.021 C 
BRANCH   3   4
ATOM      4  C   UNL A   1      31.441  27.784  26.421  1.00  0.00     0.116 C 
BRANCH   4   5
ATOM      5  N   UNL A   1      31.206  26.437  26.905  1.00  0.00    -0.352 N 
ATOM      6  O   UNL A   1      31.540  24.228  27.135  1.00  0.00    -0.270 OA
ATOM      7  C   UNL A   1      31.745  25.252  26.485  1.00  0.00     0.251 C 
ATOM      8  H   UNL A   1      30.562  26.365  27.646  1.00  0.00     0.163 HD
BRANCH   7   9
ATOM      9  C   UNL A   1      32.662  25.164  25.310  1.00  0.00     0.067 C 
ATOM     10  C   UNL A   1      33.967  24.870  25.437  1.00  0.00     0.027 C 
ATOM     11  C   UNL A   1      31.952  24.776  24.037  1.00  0.00     0.314 C 
ATOM     12  C   UNL A   1      34.284  23.496  24.949  1.00  0.00     0.037 A 
ATOM     13  O   UNL A   1      32.157  23.370  23.744  1.00  0.00    -0.474 OA
ATOM     14  C   UNL A   1      35.420  22.817  25.433  1.00  0.00     0.052 A 
ATOM     15  C   UNL A   1      33.305  22.781  24.227  1.00  0.00     0.148 A 
ATOM     16  Cl  UNL A   1      36.643  23.622  26.353  1.00  0.00    -0.084 Cl
ATOM     17  C   UNL A   1      35.531  21.433  25.281  1.00  0.00     0.023 A 
ATOM     18  C   UNL A   1      33.430  21.393  24.082  1.00  0.00     0.083 A 
ATOM     19  C   UNL A   1      34.526  20.721  24.626  1.00  0.00     0.026 A 
ATOM     20  Cl  UNL A   1      32.187  20.455  23.337  1.00  0.00    -0.080 Cl
BRANCH  11  21
ATOM     21  C   UNL A   1      32.345  25.666  22.847  1.00  0.00     0.429 C 
ATOM     22  F   UNL A   1      33.525  25.277  22.308  1.00  0.00    -0.167 F 
ATOM     23  F   UNL A   1      31.423  25.617  21.857  1.00  0.00    -0.167 F 
ATOM     24  F   UNL A   1      32.478  26.968  23.203  1.00  0.00    -0.167 F 
ENDBRANCH  11  21
ENDBRANCH   7   9
ENDBRANCH   4   5
ENDBRANCH   3   4
ENDBRANCH   2   3
ENDBRANCH   1   2
BRANCH   1  25
ATOM     25  C   UNL A   1      31.346  32.268  26.622  1.00  0.00     0.021 C 
BRANCH  25  26
ATOM     26  C   UNL A   1      32.622  32.968  27.081  1.00  0.00     0.116 C 
BRANCH  26  27
ATOM     27  N   UNL A   1      32.382  34.291  27.626  1.00  0.00    -0.352 N 
ATOM     28  C   UNL A   1      32.981  34.947  28.674  1.00  0.00     0.251 C 
ATOM     29  H   UNL A   1      31.674  34.802  27.170  1.00  0.00     0.163 HD
ATOM     30  O   UNL A   1      32.531  36.027  29.046  1.00  0.00    -0.269 OA
BRANCH  28  31
ATOM     31  C   UNL A   1      34.148  34.365  29.377  1.00  0.00     0.039 A 
ATOM     32  C   UNL A   1      33.920  33.642  30.555  1.00  0.00     0.014 A 
ATOM     33  C   UNL A   1      35.456  34.559  28.928  1.00  0.00     0.014 A 
ATOM     34  C   UNL A   1      34.993  33.074  31.246  1.00  0.00     0.010 A 
ATOM     35  C   UNL A   1      36.519  33.934  29.579  1.00  0.00     0.010 A 
ATOM     36  C   UNL A   1      36.300  33.189  30.748  1.00  0.00    -0.014 A 
BRANCH  36  37
ATOM     37  C   UNL A   1      37.445  32.543  31.445  1.00  0.00     0.031 A 
ATOM     38  C   UNL A   1      38.167  31.386  30.812  1.00  0.00     0.074 A 
ATOM     39  C   UNL A   1      37.801  32.966  32.674  1.00  0.00     0.049 A 
ATOM     40  N   UNL A   1      39.149  30.660  31.287  1.00  0.00    -0.248 NA
ATOM     41  C   UNL A   1      37.708  30.973  29.477  1.00  0.00     0.031 C 
ATOM     42  C   UNL A   1      37.157  34.053  33.412  1.00  0.00     0.029 A 
ATOM     43  N   UNL A   1      38.789  32.529  33.521  1.00  0.00    -0.354 N 
ATOM     44  C   UNL A   1      39.415  29.702  30.317  1.00  0.00     0.074 A 
ATOM     45  C   UNL A   1      38.457  29.903  29.252  1.00  0.00     0.031 C 
ATOM     46  C   UNL A   1      37.780  34.212  34.592  1.00  0.00     0.029 A 
ATOM     47  C   UNL A   1      38.840  33.216  34.710  1.00  0.00     0.049 A 
ATOM     48  H   UNL A   1      39.404  31.793  33.298  1.00  0.00     0.167 HD
ATOM     49  C   UNL A   1      40.384  28.755  30.307  1.00  0.00     0.037 A 
ATOM     50  C   UNL A   1      39.645  33.056  35.777  1.00  0.00     0.037 A 
ATOM     51  C   UNL A   1      41.350  28.572  31.358  1.00  0.00     0.049 A 
ATOM     52  C   UNL A   1      40.705  31.987  35.746  1.00  0.00     0.074 A 
ATOM     53  C   UNL A   1      42.408  27.679  31.414  1.00  0.00     0.029 A 
ATOM     54  N   UNL A   1      41.374  29.293  32.544  1.00  0.00    -0.354 N 
ATOM     55  N   UNL A   1      40.990  31.131  34.795  1.00  0.00    -0.248 NA
ATOM     56  C   UNL A   1      41.560  31.869  36.935  1.00  0.00     0.031 C 
ATOM     57  C   UNL A   1      43.039  27.826  32.655  1.00  0.00     0.029 A 
ATOM     58  C   UNL A   1      42.411  28.847  33.348  1.00  0.00     0.049 A 
ATOM     59  H   UNL A   1      40.747  30.015  32.779  1.00  0.00     0.167 HD
ATOM     60  C   UNL A   1      42.072  30.394  35.257  1.00  0.00     0.074 A 
ATOM     61  C   UNL A   1      42.402  30.914  36.567  1.00  0.00     0.031 C 
ATOM     62  C   UNL A   1      42.733  29.378  34.649  1.00  0.00     0.037 A 
BRANCH  49  63
ATOM     63  C   UNL A   1      40.448  27.839  29.117  1.00  0.00     0.064 A 
ATOM     64  C   UNL A   1      41.272  28.116  28.016  1.00  0.00     0.173 A 
ATOM     65  C   UNL A   1      39.702  26.651  29.092  1.00  0.00     0.173 A 
ATOM     66  F   UNL A   1      41.999  29.243  27.983  1.00  0.00    -0.203 F 
ATOM     67  C   UNL A   1      41.322  27.256  26.922  1.00  0.00     0.198 A 
ATOM     68  C   UNL A   1      39.779  25.776  28.011  1.00  0.00     0.198 A 
ATOM     69  F   UNL A   1      38.903  26.331  30.122  1.00  0.00    -0.203 F 
ATOM     70  F   UNL A   1      42.075  27.570  25.859  1.00  0.00    -0.200 F 
ATOM     71  C   UNL A   1      40.581  26.084  26.923  1.00  0.00     0.200 A 
ATOM     72  F   UNL A   1      39.074  24.637  28.021  1.00  0.00    -0.200 F 
ATOM     73  F   UNL A   1      40.634  25.255  25.872  1.00  0.00    -0.200 F 
ENDBRANCH  49  63
BRANCH  50  74
ATOM     74  C   UNL A   1      39.494  33.944  36.960  1.00  0.00     0.064 A 
ATOM     75  C   UNL A   1      40.125  35.194  37.007  1.00  0.00     0.173 A 
ATOM     76  C   UNL A   1      38.721  33.563  38.067  1.00  0.00     0.173 A 
ATOM     77  F   UNL A   1      40.892  35.596  35.982  1.00  0.00    -0.203 F 
ATOM     78  C   UNL A   1      40.006  36.021  38.123  1.00  0.00     0.198 A 
ATOM     79  C   UNL A   1      38.578  34.402  39.169  1.00  0.00     0.198 A 
ATOM     80  F   UNL A   1      38.091  32.378  38.070  1.00  0.00    -0.203 F 
ATOM     81  F   UNL A   1      40.657  37.191  38.160  1.00  0.00    -0.200 F 
ATOM     82  C   UNL A   1      39.227  35.627  39.200  1.00  0.00     0.200 A 
ATOM     83  F   UNL A   1      37.811  34.024  40.201  1.00  0.00    -0.200 F 
ATOM     84  F   UNL A   1      39.109  36.424  40.271  1.00  0.00    -0.200 F 
ENDBRANCH  50  74
BRANCH  62  85
ATOM     85  C   UNL A   1      43.903  28.783  35.378  1.00  0.00     0.064 A 
ATOM     86  C   UNL A   1      43.753  27.694  36.249  1.00  0.00     0.173 A 
ATOM     87  C   UNL A   1      45.197  29.286  35.172  1.00  0.00     0.173 A 
ATOM     88  F   UNL A   1      42.536  27.186  36.492  1.00  0.00    -0.203 F 
ATOM     89  C   UNL A   1      44.852  27.147  36.906  1.00  0.00     0.198 A 
ATOM     90  C   UNL A   1      46.298  28.716  35.807  1.00  0.00     0.198 A 
ATOM     91  F   UNL A   1      45.396  30.322  34.344  1.00  0.00    -0.203 F 
ATOM     92  F   UNL A   1      44.679  26.139  37.772  1.00  0.00    -0.200 F 
ATOM     93  C   UNL A   1      46.124  27.653  36.679  1.00  0.00     0.200 A 
ATOM     94  F   UNL A   1      47.527  29.197  35.574  1.00  0.00    -0.200 F 
ATOM     95  F   UNL A   1      47.181  27.120  37.307  1.00  0.00    -0.200 F 
ENDBRANCH  62  85
ENDBRANCH  36  37
ENDBRANCH  28  31
ENDBRANCH  26  27
ENDBRANCH  25  26
ENDBRANCH   1  25
TORSDOF 14
ENDMDL
MODEL 3
REMARK VINA RESULT:     -12.6      5.279     10.096
REMARK SMILES O=C(NCCCCCCNC(=O)c1ccc(-c2c3nc(c(-c4c(F)c(F)c(F)c(F)c4F)c4ccc([nH]4)c(-c4c(F)c(F)c(F)c(F)c4F)c4nc(c(-c5c(F)c(F)c(F)c(F)c5F)c5ccc2[nH]5)C=C4)C=C3)cc1)C1=Cc2c(Cl)ccc(Cl)c2O[C@@H]1C(F)(F)F
REMARK SMILES IDX 7 1 6 2 5 3 4 4 3 5 1 6 2 7 76 9 77 10 87 11 78 12 86 13
REMARK SMILES IDX 79 14 85 15 80 16 81 17 83 18 82 19 84 20 88 21 89 22 90 23
REMARK SMILES IDX 91 24 8 25 9 26 10 27 11 28 12 30 13 31 14 32 75 33 15 34
REMARK SMILES IDX 74 35 16 36 17 37 18 38 68 39 19 40 73 41 67 42 69 43 20 44
REMARK SMILES IDX 72 45 66 46 65 47 21 49 53 50 33 51 52 52 34 53 37 54 51 55
REMARK SMILES IDX 70 56 35 57 36 58 50 60 71 61 38 62 22 63 23 64 31 65 24 66
REMARK SMILES IDX 25 67 29 68 32 69 26 70 27 71 30 72 28 73 54 74 55 75 63 76
REMARK SMILES IDX 56 77 57 78 61 79 64 80 58 81 59 82 62 83 60 84 39 85 40 86
REMARK SMILES IDX 48 87 41 88 42 89 46 90 49 91 43 92 44 93 47 94 45 95
REMARK H PARENT 3 8 10 29 69 48 37 59
REMARK Flexibility Score: inf
ROOT
ATOM      1  C   UNL A   1      42.035  19.835  25.893  1.00  0.00     0.002 C 
ENDROOT
BRANCH   1   2
ATOM      2  C   UNL A   1      43.048  18.698  26.075  1.00  0.00     0.002 C 
BRANCH   2   3
ATOM      3  C   UNL A   1      44.307  18.753  25.213  1.00  0.00     0.021 C 
BRANCH   3   4
ATOM      4  C   UNL A   1      45.183  19.990  25.375  1.00  0.00     0.116 C 
BRANCH   4   5
ATOM      5  N   UNL A   1      45.063  20.984  24.325  1.00  0.00    -0.352 N 
ATOM      6  O   UNL A   1      45.130  23.019  23.377  1.00  0.00    -0.270 OA
ATOM      7  C   UNL A   1      45.082  22.350  24.408  1.00  0.00     0.251 C 
ATOM      8  H   UNL A   1      44.950  20.621  23.416  1.00  0.00     0.163 HD
BRANCH   7   9
ATOM      9  C   UNL A   1      45.146  23.068  25.715  1.00  0.00     0.067 C 
ATOM     10  C   UNL A   1      46.249  23.716  26.126  1.00  0.00     0.027 C 
ATOM     11  C   UNL A   1      43.799  23.563  26.180  1.00  0.00     0.314 C 
ATOM     12  C   UNL A   1      46.085  25.198  26.072  1.00  0.00     0.037 A 
ATOM     13  O   UNL A   1      43.652  24.981  25.908  1.00  0.00    -0.474 OA
ATOM     14  C   UNL A   1      47.215  26.032  25.965  1.00  0.00     0.052 A 
ATOM     15  C   UNL A   1      44.801  25.738  25.847  1.00  0.00     0.148 A 
ATOM     16  Cl  UNL A   1      48.821  25.430  26.196  1.00  0.00    -0.084 Cl
ATOM     17  C   UNL A   1      47.075  27.358  25.550  1.00  0.00     0.023 A 
ATOM     18  C   UNL A   1      44.676  27.071  25.431  1.00  0.00     0.083 A 
ATOM     19  C   UNL A   1      45.810  27.869  25.263  1.00  0.00     0.026 A 
ATOM     20  Cl  UNL A   1      43.141  27.735  25.001  1.00  0.00    -0.080 Cl
BRANCH  11  21
ATOM     21  C   UNL A   1      43.529  23.238  27.658  1.00  0.00     0.429 C 
ATOM     22  F   UNL A   1      43.531  21.903  27.879  1.00  0.00    -0.167 F 
ATOM     23  F   UNL A   1      44.469  23.776  28.470  1.00  0.00    -0.167 F 
ATOM     24  F   UNL A   1      42.328  23.711  28.074  1.00  0.00    -0.167 F 
ENDBRANCH  11  21
ENDBRANCH   7   9
ENDBRANCH   4   5
ENDBRANCH   3   4
ENDBRANCH   2   3
ENDBRANCH   1   2
BRANCH   1  25
ATOM     25  C   UNL A   1      40.936  19.967  26.954  1.00  0.00     0.021 C 
BRANCH  25  26
ATOM     26  C   UNL A   1      40.395  21.373  27.202  1.00  0.00     0.116 C 
BRANCH  26  27
ATOM     27  N   UNL A   1      39.294  21.723  26.325  1.00  0.00    -0.352 N 
ATOM     28  C   UNL A   1      38.657  22.924  26.128  1.00  0.00     0.251 C 
ATOM     29  H   UNL A   1      38.947  20.978  25.783  1.00  0.00     0.163 HD
ATOM     30  O   UNL A   1      37.656  22.967  25.419  1.00  0.00    -0.269 OA
BRANCH  28  31
ATOM     31  C   UNL A   1      39.144  24.166  26.772  1.00  0.00     0.039 A 
ATOM     32  C   UNL A   1      39.925  25.046  26.013  1.00  0.00     0.014 A 
ATOM     33  C   UNL A   1      38.888  24.453  28.115  1.00  0.00     0.014 A 
ATOM     34  C   UNL A   1      40.401  26.229  26.582  1.00  0.00     0.010 A 
ATOM     35  C   UNL A   1      39.304  25.666  28.663  1.00  0.00     0.010 A 
ATOM     36  C   UNL A   1      40.070  26.566  27.905  1.00  0.00    -0.014 A 
BRANCH  36  37
ATOM     37  C   UNL A   1      40.524  27.848  28.505  1.00  0.00     0.031 A 
ATOM     38  C   UNL A   1      41.964  28.039  28.895  1.00  0.00     0.074 A 
ATOM     39  C   UNL A   1      39.627  28.824  28.748  1.00  0.00     0.049 A 
ATOM     40  N   UNL A   1      42.537  29.062  29.480  1.00  0.00    -0.248 NA
ATOM     41  C   UNL A   1      42.877  26.921  28.613  1.00  0.00     0.031 C 
ATOM     42  C   UNL A   1      38.196  28.749  28.451  1.00  0.00     0.029 A 
ATOM     43  N   UNL A   1      39.786  30.069  29.305  1.00  0.00    -0.354 N 
ATOM     44  C   UNL A   1      43.870  28.706  29.645  1.00  0.00     0.074 A 
ATOM     45  C   UNL A   1      44.009  27.354  29.149  1.00  0.00     0.031 C 
ATOM     46  C   UNL A   1      37.612  29.904  28.810  1.00  0.00     0.029 A 
ATOM     47  C   UNL A   1      38.618  30.786  29.394  1.00  0.00     0.049 A 
ATOM     48  H   UNL A   1      40.655  30.416  29.611  1.00  0.00     0.167 HD
ATOM     49  C   UNL A   1      44.888  29.447  30.144  1.00  0.00     0.037 A 
ATOM     50  C   UNL A   1      38.382  32.013  29.898  1.00  0.00     0.037 A 
ATOM     51  C   UNL A   1      44.750  30.801  30.616  1.00  0.00     0.049 A 
ATOM     52  C   UNL A   1      39.528  32.811  30.460  1.00  0.00     0.074 A 
ATOM     53  C   UNL A   1      45.733  31.656  31.085  1.00  0.00     0.029 A 
ATOM     54  N   UNL A   1      43.551  31.496  30.683  1.00  0.00    -0.354 N 
ATOM     55  N   UNL A   1      40.796  32.489  30.548  1.00  0.00    -0.248 NA
ATOM     56  C   UNL A   1      39.210  34.146  30.984  1.00  0.00     0.031 C 
ATOM     57  C   UNL A   1      45.120  32.849  31.484  1.00  0.00     0.029 A 
ATOM     58  C   UNL A   1      43.765  32.760  31.211  1.00  0.00     0.049 A 
ATOM     59  H   UNL A   1      42.677  31.143  30.398  1.00  0.00     0.167 HD
ATOM     60  C   UNL A   1      41.430  33.589  31.109  1.00  0.00     0.074 A 
ATOM     61  C   UNL A   1      40.410  34.593  31.326  1.00  0.00     0.031 C 
ATOM     62  C   UNL A   1      42.741  33.752  31.416  1.00  0.00     0.037 A 
BRANCH  49  63
ATOM     63  C   UNL A   1      46.247  28.808  30.207  1.00  0.00     0.064 A 
ATOM     64  C   UNL A   1      47.148  28.885  29.134  1.00  0.00     0.173 A 
ATOM     65  C   UNL A   1      46.667  28.142  31.368  1.00  0.00     0.173 A 
ATOM     66  F   UNL A   1      46.794  29.501  27.997  1.00  0.00    -0.203 F 
ATOM     67  C   UNL A   1      48.405  28.289  29.209  1.00  0.00     0.198 A 
ATOM     68  C   UNL A   1      47.937  27.576  31.452  1.00  0.00     0.198 A 
ATOM     69  F   UNL A   1      45.849  28.046  32.428  1.00  0.00    -0.203 F 
ATOM     70  F   UNL A   1      49.227  28.329  28.151  1.00  0.00    -0.200 F 
ATOM     71  C   UNL A   1      48.801  27.641  30.369  1.00  0.00     0.200 A 
ATOM     72  F   UNL A   1      48.323  26.964  32.579  1.00  0.00    -0.200 F 
ATOM     73  F   UNL A   1      50.012  27.074  30.442  1.00  0.00    -0.200 F 
ENDBRANCH  49  63
BRANCH  50  74
ATOM     74  C   UNL A   1      37.004  32.571  29.876  1.00  0.00     0.064 A 
ATOM     75  C   UNL A   1      36.528  33.270  28.758  1.00  0.00     0.173 A 
ATOM     76  C   UNL A   1      36.137  32.422  30.969  1.00  0.00     0.173 A 
ATOM     77  F   UNL A   1      37.326  33.456  27.696  1.00  0.00    -0.203 F 
ATOM     78  C   UNL A   1      35.246  33.815  28.741  1.00  0.00     0.198 A 
ATOM     79  C   UNL A   1      34.846  32.943  30.939  1.00  0.00     0.198 A 
ATOM     80  F   UNL A   1      36.542  31.757  32.062  1.00  0.00    -0.203 F 
ATOM     81  F   UNL A   1      34.833  34.518  27.678  1.00  0.00    -0.200 F 
ATOM     82  C   UNL A   1      34.403  33.645  29.829  1.00  0.00     0.200 A 
ATOM     83  F   UNL A   1      34.029  32.763  31.987  1.00  0.00    -0.200 F 
ATOM     84  F   UNL A   1      33.169  34.167  29.811  1.00  0.00    -0.200 F 
ENDBRANCH  50  74
BRANCH  62  85
ATOM     85  C   UNL A   1      43.155  35.078  31.987  1.00  0.00     0.064 A 
ATOM     86  C   UNL A   1      43.663  36.104  31.177  1.00  0.00     0.173 A 
ATOM     87  C   UNL A   1      43.004  35.338  33.358  1.00  0.00     0.173 A 
ATOM     88  F   UNL A   1      43.841  35.902  29.863  1.00  0.00    -0.203 F 
ATOM     89  C   UNL A   1      44.029  37.332  31.723  1.00  0.00     0.198 A 
ATOM     90  C   UNL A   1      43.342  36.578  33.895  1.00  0.00     0.198 A 
ATOM     91  F   UNL A   1      42.516  34.393  34.176  1.00  0.00    -0.203 F 
ATOM     92  F   UNL A   1      44.558  38.281  30.937  1.00  0.00    -0.200 F 
ATOM     93  C   UNL A   1      43.860  37.570  33.078  1.00  0.00     0.200 A 
ATOM     94  F   UNL A   1      43.164  36.810  35.202  1.00  0.00    -0.200 F 
ATOM     95  F   UNL A   1      44.206  38.755  33.600  1.00  0.00    -0.200 F 
ENDBRANCH  62  85
ENDBRANCH  36  37
ENDBRANCH  28  31
ENDBRANCH  26  27
ENDBRANCH  25  26
ENDBRANCH   1  25
TORSDOF 14
ENDMDL
