MODEL 1
REMARK VINA RESULT:     -12.8      0.000      0.000
REMARK SMILES C[C@](NC(=O)[C@](C)([NH3+])C(F)(F)F)(C(=O)NCCCCCCNC(=O)c1ccc(-c2c3nc(c(-c4c(F)c(F)c(F)c(F)c4F)c4ccc([nH]4)c(-c4c(F)c(F)c(F)c(F)c4F)c4nc(c(-c5c(F)c(F)c(F)c(F)c5F)c5ccc2[nH]5)C=C4)C=C3)cc1)c1ccccc1
REMARK SMILES IDX 18 1 17 2 16 3 15 4 13 5 14 6 2 8 1 9 88 10 89 11 93 12
REMARK SMILES IDX 90 13 92 14 91 15 3 16 4 17 5 19 6 20 7 21 8 22 9 26 10 27
REMARK SMILES IDX 11 28 12 29 19 30 20 31 21 32 22 33 23 34 24 36 25 37 26 38
REMARK SMILES IDX 87 39 27 40 86 41 28 42 29 43 30 44 80 45 31 46 85 47 79 48
REMARK SMILES IDX 81 49 32 50 84 51 78 52 77 53 33 55 65 56 45 57 64 58 46 59
REMARK SMILES IDX 49 60 63 61 82 62 47 63 48 64 62 66 83 67 50 68 34 69 35 70
REMARK SMILES IDX 43 71 36 72 37 73 41 74 44 75 38 76 39 77 42 78 40 79 66 80
REMARK SMILES IDX 67 81 75 82 68 83 69 84 73 85 76 86 70 87 71 88 74 89 72 90
REMARK SMILES IDX 51 91 52 92 60 93 53 94 54 95 58 96 61 97 55 98 56 99 59 100
REMARK SMILES IDX 57 101
REMARK H PARENT 15 7 3 18 8 23 8 24 8 25 22 35 81 54 49 65
REMARK Flexibility Score: inf
ROOT
ATOM      1  C   UNL A   1      32.536  30.004  26.923  1.00  0.00     0.002 C 
ENDROOT
BRANCH   1   2
ATOM      2  C   UNL A   1      33.605  29.339  26.042  1.00  0.00     0.021 C 
BRANCH   2   3
ATOM      3  C   UNL A   1      33.030  28.382  25.003  1.00  0.00     0.116 C 
BRANCH   3   4
ATOM      4  N   UNL A   1      32.419  27.263  25.677  1.00  0.00    -0.354 N 
ATOM      5  C   UNL A   1      31.208  26.748  25.330  1.00  0.00     0.250 C 
ATOM      6  O   UNL A   1      30.358  26.664  26.217  1.00  0.00    -0.272 OA
ATOM      7  H   UNL A   1      32.903  26.850  26.428  1.00  0.00     0.163 HD
BRANCH   5   8
ATOM      8  C   UNL A   1      30.989  26.300  23.855  1.00  0.00     0.142 C 
ATOM      9  C   UNL A   1      30.508  24.839  23.795  1.00  0.00     0.051 C 
BRANCH   8  10
ATOM     10  C   UNL A   1      30.043  27.294  23.241  1.00  0.00    -0.013 A 
ATOM     11  C   UNL A   1      30.592  28.976  22.957  1.00  0.00     0.007 A 
ATOM     12  C   UNL A   1      28.279  26.943  23.543  1.00  0.00     0.007 A 
ATOM     13  C   UNL A   1      29.424  30.303  23.078  1.00  0.00     0.000 A 
ATOM     14  C   UNL A   1      27.123  28.299  23.639  1.00  0.00     0.000 A 
ATOM     15  C   UNL A   1      27.703  29.968  23.406  1.00  0.00     0.000 A 
ENDBRANCH   8  10
BRANCH   8  16
ATOM     16  N   UNL A   1      32.055  26.448  22.890  1.00  0.00    -0.332 N 
ATOM     17  C   UNL A   1      32.986  25.430  22.744  1.00  0.00     0.291 C 
ATOM     18  H   UNL A   1      32.118  27.264  22.342  1.00  0.00     0.165 HD
ATOM     19  O   UNL A   1      33.923  25.626  21.957  1.00  0.00    -0.267 OA
BRANCH  17  20
ATOM     20  C   UNL A   1      32.853  23.833  23.703  1.00  0.00     0.267 C 
ATOM     21  C   UNL A   1      34.150  23.150  22.676  1.00  0.00     0.100 C 
BRANCH  20  22
ATOM     22  N   UNL A   1      31.756  23.194  22.490  1.00  0.00    -0.337 N 
ATOM     23  H   UNL A   1      32.285  22.657  21.803  1.00  0.00     0.345 HD
ATOM     24  H   UNL A   1      31.277  23.965  22.025  1.00  0.00     0.345 HD
ATOM     25  H   UNL A   1      31.069  22.588  22.939  1.00  0.00     0.345 HD
ENDBRANCH  20  22
BRANCH  20  26
ATOM     26  C   UNL A   1      32.653  23.718  25.914  1.00  0.00     0.453 C 
ATOM     27  F   UNL A   1      33.263  24.665  26.804  1.00  0.00    -0.164 F 
ATOM     28  F   UNL A   1      31.363  23.774  26.563  1.00  0.00    -0.164 F 
ATOM     29  F   UNL A   1      33.094  22.568  26.666  1.00  0.00    -0.164 F 
ENDBRANCH  20  26
ENDBRANCH  17  20
ENDBRANCH   8  16
ENDBRANCH   5   8
ENDBRANCH   3   4
ENDBRANCH   2   3
ENDBRANCH   1   2
BRANCH   1  30
ATOM     30  C   UNL A   1      31.471  30.791  26.148  1.00  0.00     0.002 C 
BRANCH  30  31
ATOM     31  C   UNL A   1      31.339  32.252  26.574  1.00  0.00     0.021 C 
BRANCH  31  32
ATOM     32  C   UNL A   1      32.631  32.847  27.100  1.00  0.00     0.116 C 
BRANCH  32  33
ATOM     33  N   UNL A   1      32.435  34.202  27.579  1.00  0.00    -0.352 N 
ATOM     34  C   UNL A   1      33.050  34.822  28.634  1.00  0.00     0.251 C 
ATOM     35  H   UNL A   1      31.778  34.744  27.085  1.00  0.00     0.163 HD
ATOM     36  O   UNL A   1      32.619  35.881  29.076  1.00  0.00    -0.269 OA
BRANCH  34  37
ATOM     37  C   UNL A   1      34.230  34.180  29.241  1.00  0.00     0.039 A 
ATOM     38  C   UNL A   1      34.036  33.153  30.163  1.00  0.00     0.014 A 
ATOM     39  C   UNL A   1      35.521  34.581  28.879  1.00  0.00     0.014 A 
ATOM     40  C   UNL A   1      35.146  32.508  30.707  1.00  0.00     0.010 A 
ATOM     41  C   UNL A   1      36.619  33.870  29.343  1.00  0.00     0.010 A 
ATOM     42  C   UNL A   1      36.444  32.846  30.284  1.00  0.00    -0.014 A 
BRANCH  42  43
ATOM     43  C   UNL A   1      37.630  32.169  30.861  1.00  0.00     0.031 A 
ATOM     44  C   UNL A   1      38.130  32.570  32.222  1.00  0.00     0.074 A 
ATOM     45  C   UNL A   1      38.264  31.214  30.155  1.00  0.00     0.049 A 
ATOM     46  N   UNL A   1      39.166  32.123  32.888  1.00  0.00    -0.248 NA
ATOM     47  C   UNL A   1      37.387  33.634  32.918  1.00  0.00     0.031 C 
ATOM     48  C   UNL A   1      37.898  30.773  28.807  1.00  0.00     0.029 A 
ATOM     49  N   UNL A   1      39.353  30.442  30.473  1.00  0.00    -0.354 N 
ATOM     50  C   UNL A   1      39.188  32.844  34.075  1.00  0.00     0.074 A 
ATOM     51  C   UNL A   1      38.121  33.816  34.004  1.00  0.00     0.031 C 
ATOM     52  C   UNL A   1      38.727  29.789  28.426  1.00  0.00     0.029 A 
ATOM     53  C   UNL A   1      39.710  29.561  29.481  1.00  0.00     0.049 A 
ATOM     54  H   UNL A   1      39.832  30.512  31.329  1.00  0.00     0.167 HD
ATOM     55  C   UNL A   1      40.001  32.685  35.145  1.00  0.00     0.037 A 
ATOM     56  C   UNL A   1      40.724  28.676  29.429  1.00  0.00     0.037 A 
ATOM     57  C   UNL A   1      41.060  31.712  35.213  1.00  0.00     0.049 A 
ATOM     58  C   UNL A   1      41.637  28.547  30.620  1.00  0.00     0.074 A 
ATOM     59  C   UNL A   1      41.935  31.460  36.255  1.00  0.00     0.029 A 
ATOM     60  N   UNL A   1      41.387  30.831  34.194  1.00  0.00    -0.354 N 
ATOM     61  N   UNL A   1      41.616  29.197  31.758  1.00  0.00    -0.248 NA
ATOM     62  C   UNL A   1      42.710  27.547  30.523  1.00  0.00     0.031 C 
ATOM     63  C   UNL A   1      42.824  30.461  35.846  1.00  0.00     0.029 A 
ATOM     64  C   UNL A   1      42.459  30.041  34.577  1.00  0.00     0.049 A 
ATOM     65  H   UNL A   1      40.926  30.774  33.325  1.00  0.00     0.167 HD
ATOM     66  C   UNL A   1      42.639  28.657  32.527  1.00  0.00     0.074 A 
ATOM     67  C   UNL A   1      43.249  27.613  31.731  1.00  0.00     0.031 C 
ATOM     68  C   UNL A   1      43.040  28.992  33.779  1.00  0.00     0.037 A 
BRANCH  55  69
ATOM     69  C   UNL A   1      39.765  33.571  36.335  1.00  0.00     0.064 A 
ATOM     70  C   UNL A   1      40.387  34.826  36.449  1.00  0.00     0.173 A 
ATOM     71  C   UNL A   1      38.881  33.187  37.354  1.00  0.00     0.173 A 
ATOM     72  F   UNL A   1      41.254  35.237  35.511  1.00  0.00    -0.203 F 
ATOM     73  C   UNL A   1      40.154  35.646  37.549  1.00  0.00     0.198 A 
ATOM     74  C   UNL A   1      38.622  34.026  38.434  1.00  0.00     0.198 A 
ATOM     75  F   UNL A   1      38.256  32.001  37.296  1.00  0.00    -0.203 F 
ATOM     76  F   UNL A   1      40.802  36.815  37.660  1.00  0.00    -0.200 F 
ATOM     77  C   UNL A   1      39.265  35.251  38.535  1.00  0.00     0.200 A 
ATOM     78  F   UNL A   1      37.750  33.649  39.379  1.00  0.00    -0.200 F 
ATOM     79  F   UNL A   1      39.031  36.047  39.587  1.00  0.00    -0.200 F 
ENDBRANCH  55  69
BRANCH  56  80
ATOM     80  C   UNL A   1      40.932  27.839  28.217  1.00  0.00     0.064 A 
ATOM     81  C   UNL A   1      40.376  26.556  28.114  1.00  0.00     0.173 A 
ATOM     82  C   UNL A   1      41.731  28.287  27.153  1.00  0.00     0.173 A 
ATOM     83  F   UNL A   1      39.616  26.074  29.109  1.00  0.00    -0.203 F 
ATOM     84  C   UNL A   1      40.650  25.736  27.020  1.00  0.00     0.198 A 
ATOM     85  C   UNL A   1      41.971  27.483  26.042  1.00  0.00     0.198 A 
ATOM     86  F   UNL A   1      42.277  29.511  27.192  1.00  0.00    -0.203 F 
ATOM     87  F   UNL A   1      40.168  24.486  26.986  1.00  0.00    -0.200 F 
ATOM     88  C   UNL A   1      41.444  26.201  25.984  1.00  0.00     0.200 A 
ATOM     89  F   UNL A   1      42.722  27.945  25.033  1.00  0.00    -0.200 F 
ATOM     90  F   UNL A   1      41.714  25.411  24.937  1.00  0.00    -0.200 F 
ENDBRANCH  56  80
BRANCH  68  91
ATOM     91  C   UNL A   1      44.145  28.176  34.390  1.00  0.00     0.064 A 
ATOM     92  C   UNL A   1      45.490  28.565  34.310  1.00  0.00     0.173 A 
ATOM     93  C   UNL A   1      43.844  26.994  35.085  1.00  0.00     0.173 A 
ATOM     94  F   UNL A   1      45.834  29.680  33.648  1.00  0.00    -0.203 F 
ATOM     95  C   UNL A   1      46.496  27.775  34.863  1.00  0.00     0.198 A 
ATOM     96  C   UNL A   1      44.849  26.231  35.672  1.00  0.00     0.198 A 
ATOM     97  F   UNL A   1      42.573  26.581  35.203  1.00  0.00    -0.203 F 
ATOM     98  F   UNL A   1      47.780  28.129  34.711  1.00  0.00    -0.200 F 
ATOM     99  C   UNL A   1      46.174  26.614  35.548  1.00  0.00     0.200 A 
ATOM    100  F   UNL A   1      44.533  25.120  36.352  1.00  0.00    -0.200 F 
ATOM    101  F   UNL A   1      47.144  25.858  36.081  1.00  0.00    -0.200 F 
ENDBRANCH  68  91
ENDBRANCH  42  43
ENDBRANCH  34  37
ENDBRANCH  32  33
ENDBRANCH  31  32
ENDBRANCH  30  31
ENDBRANCH   1  30
TORSDOF 18
ENDMDL
MODEL 2
REMARK VINA RESULT:     -12.7      0.825      7.154
REMARK SMILES C[C@](NC(=O)[C@](C)([NH3+])C(F)(F)F)(C(=O)NCCCCCCNC(=O)c1ccc(-c2c3nc(c(-c4c(F)c(F)c(F)c(F)c4F)c4ccc([nH]4)c(-c4c(F)c(F)c(F)c(F)c4F)c4nc(c(-c5c(F)c(F)c(F)c(F)c5F)c5ccc2[nH]5)C=C4)C=C3)cc1)c1ccccc1
REMARK SMILES IDX 18 1 17 2 16 3 15 4 13 5 14 6 2 8 1 9 88 10 89 11 93 12
REMARK SMILES IDX 90 13 92 14 91 15 3 16 4 17 5 19 6 20 7 21 8 22 9 26 10 27
REMARK SMILES IDX 11 28 12 29 19 30 20 31 21 32 22 33 23 34 24 36 25 37 26 38
REMARK SMILES IDX 87 39 27 40 86 41 28 42 29 43 30 44 80 45 31 46 85 47 79 48
REMARK SMILES IDX 81 49 32 50 84 51 78 52 77 53 33 55 65 56 45 57 64 58 46 59
REMARK SMILES IDX 49 60 63 61 82 62 47 63 48 64 62 66 83 67 50 68 34 69 35 70
REMARK SMILES IDX 43 71 36 72 37 73 41 74 44 75 38 76 39 77 42 78 40 79 66 80
REMARK SMILES IDX 67 81 75 82 68 83 69 84 73 85 76 86 70 87 71 88 74 89 72 90
REMARK SMILES IDX 51 91 52 92 60 93 53 94 54 95 58 96 61 97 55 98 56 99 59 100
REMARK SMILES IDX 57 101
REMARK H PARENT 15 7 3 18 8 23 8 24 8 25 22 35 81 54 49 65
REMARK Flexibility Score: inf
ROOT
ATOM      1  C   UNL A   1      32.298  29.959  27.147  1.00  0.00     0.002 C 
ENDROOT
BRANCH   1   2
ATOM      2  C   UNL A   1      31.738  28.540  27.338  1.00  0.00     0.021 C 
BRANCH   2   3
ATOM      3  C   UNL A   1      32.600  27.453  26.704  1.00  0.00     0.116 C 
BRANCH   3   4
ATOM      4  N   UNL A   1      31.888  26.200  26.746  1.00  0.00    -0.354 N 
ATOM      5  C   UNL A   1      30.786  25.936  25.994  1.00  0.00     0.250 C 
ATOM      6  O   UNL A   1      29.775  25.565  26.590  1.00  0.00    -0.272 OA
ATOM      7  H   UNL A   1      32.218  25.497  27.352  1.00  0.00     0.163 HD
BRANCH   5   8
ATOM      8  C   UNL A   1      30.883  26.115  24.450  1.00  0.00     0.142 C 
ATOM      9  C   UNL A   1      30.336  24.873  23.722  1.00  0.00     0.051 C 
BRANCH   8  10
ATOM     10  C   UNL A   1      30.167  27.396  24.122  1.00  0.00    -0.013 A 
ATOM     11  C   UNL A   1      28.392  27.378  23.879  1.00  0.00     0.007 A 
ATOM     12  C   UNL A   1      31.197  28.640  23.275  1.00  0.00     0.007 A 
ATOM     13  C   UNL A   1      27.661  28.509  22.727  1.00  0.00     0.000 A 
ATOM     14  C   UNL A   1      30.429  29.780  22.136  1.00  0.00     0.000 A 
ATOM     15  C   UNL A   1      28.668  29.707  21.871  1.00  0.00     0.000 A 
ENDBRANCH   8  10
BRANCH   8  16
ATOM     16  N   UNL A   1      32.148  26.456  23.842  1.00  0.00    -0.332 N 
ATOM     17  C   UNL A   1      33.061  25.449  23.561  1.00  0.00     0.291 C 
ATOM     18  H   UNL A   1      32.360  27.393  23.627  1.00  0.00     0.165 HD
ATOM     19  O   UNL A   1      34.161  25.790  23.105  1.00  0.00    -0.267 OA
BRANCH  17  20
ATOM     20  C   UNL A   1      32.665  23.651  23.875  1.00  0.00     0.267 C 
ATOM     21  C   UNL A   1      34.125  23.204  22.939  1.00  0.00     0.100 C 
BRANCH  20  22
ATOM     22  N   UNL A   1      31.828  23.565  22.333  1.00  0.00    -0.337 N 
ATOM     23  H   UNL A   1      31.706  24.507  21.961  1.00  0.00     0.345 HD
ATOM     24  H   UNL A   1      30.915  23.130  22.466  1.00  0.00     0.345 HD
ATOM     25  H   UNL A   1      32.378  23.009  21.679  1.00  0.00     0.345 HD
ENDBRANCH  20  22
BRANCH  20  26
ATOM     26  C   UNL A   1      31.994  22.843  25.834  1.00  0.00     0.453 C 
ATOM     27  F   UNL A   1      32.366  23.430  27.090  1.00  0.00    -0.164 F 
ATOM     28  F   UNL A   1      30.592  22.741  26.172  1.00  0.00    -0.164 F 
ATOM     29  F   UNL A   1      32.297  21.496  26.253  1.00  0.00    -0.164 F 
ENDBRANCH  20  26
ENDBRANCH  17  20
ENDBRANCH   8  16
ENDBRANCH   5   8
ENDBRANCH   3   4
ENDBRANCH   2   3
ENDBRANCH   1   2
BRANCH   1  30
ATOM     30  C   UNL A   1      31.510  30.826  26.158  1.00  0.00     0.002 C 
BRANCH  30  31
ATOM     31  C   UNL A   1      31.346  32.281  26.593  1.00  0.00     0.021 C 
BRANCH  31  32
ATOM     32  C   UNL A   1      32.580  32.853  27.265  1.00  0.00     0.116 C 
BRANCH  32  33
ATOM     33  N   UNL A   1      32.400  34.250  27.607  1.00  0.00    -0.352 N 
ATOM     34  C   UNL A   1      33.001  34.958  28.613  1.00  0.00     0.251 C 
ATOM     35  H   UNL A   1      31.766  34.754  27.046  1.00  0.00     0.163 HD
ATOM     36  O   UNL A   1      32.581  36.062  28.941  1.00  0.00    -0.269 OA
BRANCH  34  37
ATOM     37  C   UNL A   1      34.153  34.356  29.311  1.00  0.00     0.039 A 
ATOM     38  C   UNL A   1      33.920  33.566  30.434  1.00  0.00     0.014 A 
ATOM     39  C   UNL A   1      35.453  34.559  28.835  1.00  0.00     0.014 A 
ATOM     40  C   UNL A   1      34.999  32.955  31.071  1.00  0.00     0.010 A 
ATOM     41  C   UNL A   1      36.511  33.867  29.409  1.00  0.00     0.010 A 
ATOM     42  C   UNL A   1      36.299  33.082  30.551  1.00  0.00    -0.014 A 
BRANCH  42  43
ATOM     43  C   UNL A   1      37.453  32.440  31.225  1.00  0.00     0.031 A 
ATOM     44  C   UNL A   1      38.180  31.312  30.546  1.00  0.00     0.074 A 
ATOM     45  C   UNL A   1      37.830  32.857  32.448  1.00  0.00     0.049 A 
ATOM     46  N   UNL A   1      39.192  30.599  30.978  1.00  0.00    -0.248 NA
ATOM     47  C   UNL A   1      37.692  30.908  29.216  1.00  0.00     0.031 C 
ATOM     48  C   UNL A   1      37.173  33.912  33.223  1.00  0.00     0.029 A 
ATOM     49  N   UNL A   1      38.858  32.443  33.256  1.00  0.00    -0.354 N 
ATOM     50  C   UNL A   1      39.458  29.678  29.974  1.00  0.00     0.074 A 
ATOM     51  C   UNL A   1      38.454  29.859  28.951  1.00  0.00     0.031 C 
ATOM     52  C   UNL A   1      37.831  34.082  34.380  1.00  0.00     0.029 A 
ATOM     53  C   UNL A   1      38.927  33.120  34.449  1.00  0.00     0.049 A 
ATOM     54  H   UNL A   1      39.487  31.729  33.004  1.00  0.00     0.167 HD
ATOM     55  C   UNL A   1      40.473  28.787  29.893  1.00  0.00     0.037 A 
ATOM     56  C   UNL A   1      39.776  32.973  35.484  1.00  0.00     0.037 A 
ATOM     57  C   UNL A   1      41.474  28.613  30.912  1.00  0.00     0.049 A 
ATOM     58  C   UNL A   1      40.873  31.945  35.383  1.00  0.00     0.074 A 
ATOM     59  C   UNL A   1      42.552  27.745  30.925  1.00  0.00     0.029 A 
ATOM     60  N   UNL A   1      41.518  29.323  32.103  1.00  0.00    -0.354 N 
ATOM     61  N   UNL A   1      41.148  31.116  34.405  1.00  0.00    -0.248 NA
ATOM     62  C   UNL A   1      41.789  31.844  36.527  1.00  0.00     0.031 C 
ATOM     63  C   UNL A   1      43.218  27.895  32.146  1.00  0.00     0.029 A 
ATOM     64  C   UNL A   1      42.597  28.904  32.864  1.00  0.00     0.049 A 
ATOM     65  H   UNL A   1      40.876  30.021  32.369  1.00  0.00     0.167 HD
ATOM     66  C   UNL A   1      42.290  30.428  34.796  1.00  0.00     0.074 A 
ATOM     67  C   UNL A   1      42.665  30.951  36.092  1.00  0.00     0.031 C 
ATOM     68  C   UNL A   1      42.968  29.452  34.144  1.00  0.00     0.037 A 
BRANCH  55  69
ATOM     69  C   UNL A   1      40.560  27.943  28.653  1.00  0.00     0.064 A 
ATOM     70  C   UNL A   1      41.317  28.350  27.541  1.00  0.00     0.173 A 
ATOM     71  C   UNL A   1      39.916  26.699  28.583  1.00  0.00     0.173 A 
ATOM     72  F   UNL A   1      41.941  29.537  27.547  1.00  0.00    -0.203 F 
ATOM     73  C   UNL A   1      41.401  27.557  26.400  1.00  0.00     0.198 A 
ATOM     74  C   UNL A   1      40.032  25.892  27.455  1.00  0.00     0.198 A 
ATOM     75  F   UNL A   1      39.182  26.258  29.617  1.00  0.00    -0.203 F 
ATOM     76  F   UNL A   1      42.085  27.992  25.333  1.00  0.00    -0.200 F 
ATOM     77  C   UNL A   1      40.768  26.325  26.362  1.00  0.00     0.200 A 
ATOM     78  F   UNL A   1      39.433  24.694  27.425  1.00  0.00    -0.200 F 
ATOM     79  F   UNL A   1      40.860  25.556  25.268  1.00  0.00    -0.200 F 
ENDBRANCH  55  69
BRANCH  56  80
ATOM     80  C   UNL A   1      39.632  33.814  36.702  1.00  0.00     0.064 A 
ATOM     81  C   UNL A   1      38.865  33.387  37.796  1.00  0.00     0.173 A 
ATOM     82  C   UNL A   1      40.221  35.086  36.780  1.00  0.00     0.173 A 
ATOM     83  F   UNL A   1      38.269  32.185  37.767  1.00  0.00    -0.203 F 
ATOM     84  C   UNL A   1      38.653  34.216  38.897  1.00  0.00     0.198 A 
ATOM     85  C   UNL A   1      40.041  35.897  37.898  1.00  0.00     0.198 A 
ATOM     86  F   UNL A   1      40.975  35.540  35.769  1.00  0.00    -0.203 F 
ATOM     87  F   UNL A   1      37.853  33.811  39.892  1.00  0.00    -0.200 F 
ATOM     88  C   UNL A   1      39.244  35.468  38.948  1.00  0.00     0.200 A 
ATOM     89  F   UNL A   1      40.632  37.099  37.952  1.00  0.00    -0.200 F 
ATOM     90  F   UNL A   1      39.034  36.268  40.002  1.00  0.00    -0.200 F 
ENDBRANCH  56  80
BRANCH  68  91
ATOM     91  C   UNL A   1      44.224  28.936  34.789  1.00  0.00     0.064 A 
ATOM     92  C   UNL A   1      45.476  29.524  34.559  1.00  0.00     0.173 A 
ATOM     93  C   UNL A   1      44.165  27.842  35.668  1.00  0.00     0.173 A 
ATOM     94  F   UNL A   1      45.591  30.564  33.719  1.00  0.00    -0.203 F 
ATOM     95  C   UNL A   1      46.628  29.008  35.149  1.00  0.00     0.198 A 
ATOM     96  C   UNL A   1      45.312  27.357  36.288  1.00  0.00     0.198 A 
ATOM     97  F   UNL A   1      42.991  27.248  35.934  1.00  0.00    -0.203 F 
ATOM     98  F   UNL A   1      47.823  29.542  34.858  1.00  0.00    -0.200 F 
ATOM     99  C   UNL A   1      46.544  27.930  36.017  1.00  0.00     0.200 A 
ATOM    100  F   UNL A   1      45.225  26.328  37.143  1.00  0.00    -0.200 F 
ATOM    101  F   UNL A   1      47.653  27.438  36.586  1.00  0.00    -0.200 F 
ENDBRANCH  68  91
ENDBRANCH  42  43
ENDBRANCH  34  37
ENDBRANCH  32  33
ENDBRANCH  31  32
ENDBRANCH  30  31
ENDBRANCH   1  30
TORSDOF 18
ENDMDL
MODEL 3
REMARK VINA RESULT:     -12.7      0.554      1.398
REMARK SMILES C[C@](NC(=O)[C@](C)([NH3+])C(F)(F)F)(C(=O)NCCCCCCNC(=O)c1ccc(-c2c3nc(c(-c4c(F)c(F)c(F)c(F)c4F)c4ccc([nH]4)c(-c4c(F)c(F)c(F)c(F)c4F)c4nc(c(-c5c(F)c(F)c(F)c(F)c5F)c5ccc2[nH]5)C=C4)C=C3)cc1)c1ccccc1
REMARK SMILES IDX 18 1 17 2 16 3 15 4 13 5 14 6 2 8 1 9 88 10 89 11 93 12
REMARK SMILES IDX 90 13 92 14 91 15 3 16 4 17 5 19 6 20 7 21 8 22 9 26 10 27
REMARK SMILES IDX 11 28 12 29 19 30 20 31 21 32 22 33 23 34 24 36 25 37 26 38
REMARK SMILES IDX 87 39 27 40 86 41 28 42 29 43 30 44 80 45 31 46 85 47 79 48
REMARK SMILES IDX 81 49 32 50 84 51 78 52 77 53 33 55 65 56 45 57 64 58 46 59
REMARK SMILES IDX 49 60 63 61 82 62 47 63 48 64 62 66 83 67 50 68 34 69 35 70
REMARK SMILES IDX 43 71 36 72 37 73 41 74 44 75 38 76 39 77 42 78 40 79 66 80
REMARK SMILES IDX 67 81 75 82 68 83 69 84 73 85 76 86 70 87 71 88 74 89 72 90
REMARK SMILES IDX 51 91 52 92 60 93 53 94 54 95 58 96 61 97 55 98 56 99 59 100
REMARK SMILES IDX 57 101
REMARK H PARENT 15 7 3 18 8 23 8 24 8 25 22 35 81 54 49 65
REMARK Flexibility Score: inf
ROOT
ATOM      1  C   UNL A   1      32.273  29.995  27.048  1.00  0.00     0.002 C 
ENDROOT
BRANCH   1   2
ATOM      2  C   UNL A   1      31.782  28.556  27.273  1.00  0.00     0.021 C 
BRANCH   2   3
ATOM      3  C   UNL A   1      32.647  27.503  26.587  1.00  0.00     0.116 C 
BRANCH   3   4
ATOM      4  N   UNL A   1      31.985  26.224  26.664  1.00  0.00    -0.354 N 
ATOM      5  C   UNL A   1      30.865  25.913  25.958  1.00  0.00     0.250 C 
ATOM      6  O   UNL A   1      29.893  25.508  26.595  1.00  0.00    -0.272 OA
ATOM      7  H   UNL A   1      32.365  25.539  27.261  1.00  0.00     0.163 HD
BRANCH   5   8
ATOM      8  C   UNL A   1      30.895  26.084  24.410  1.00  0.00     0.142 C 
ATOM      9  C   UNL A   1      30.298  24.848  23.713  1.00  0.00     0.051 C 
BRANCH   8  10
ATOM     10  C   UNL A   1      30.184  27.375  24.108  1.00  0.00    -0.013 A 
ATOM     11  C   UNL A   1      28.403  27.374  23.907  1.00  0.00     0.007 A 
ATOM     12  C   UNL A   1      31.205  28.616  23.247  1.00  0.00     0.007 A 
ATOM     13  C   UNL A   1      27.657  28.521  22.781  1.00  0.00     0.000 A 
ATOM     14  C   UNL A   1      30.422  29.772  22.135  1.00  0.00     0.000 A 
ATOM     15  C   UNL A   1      28.655  29.717  21.911  1.00  0.00     0.000 A 
ENDBRANCH   8  10
BRANCH   8  16
ATOM     16  N   UNL A   1      32.136  26.404  23.744  1.00  0.00    -0.332 N 
ATOM     17  C   UNL A   1      33.046  25.391  23.478  1.00  0.00     0.291 C 
ATOM     18  H   UNL A   1      32.334  27.332  23.480  1.00  0.00     0.165 HD
ATOM     19  O   UNL A   1      34.128  25.717  22.970  1.00  0.00    -0.267 OA
BRANCH  17  20
ATOM     20  C   UNL A   1      32.674  23.607  23.887  1.00  0.00     0.267 C 
ATOM     21  C   UNL A   1      34.064  23.121  22.868  1.00  0.00     0.100 C 
BRANCH  20  22
ATOM     22  N   UNL A   1      31.730  23.464  22.413  1.00  0.00    -0.337 N 
ATOM     23  H   UNL A   1      31.599  22.478  22.189  1.00  0.00     0.345 HD
ATOM     24  H   UNL A   1      32.222  23.925  21.648  1.00  0.00     0.345 HD
ATOM     25  H   UNL A   1      30.821  23.906  22.548  1.00  0.00     0.345 HD
ENDBRANCH  20  22
BRANCH  20  26
ATOM     26  C   UNL A   1      32.144  22.875  25.918  1.00  0.00     0.453 C 
ATOM     27  F   UNL A   1      32.545  23.550  27.120  1.00  0.00    -0.164 F 
ATOM     28  F   UNL A   1      30.769  22.720  26.333  1.00  0.00    -0.164 F 
ATOM     29  F   UNL A   1      32.541  21.571  26.392  1.00  0.00    -0.164 F 
ENDBRANCH  20  26
ENDBRANCH  17  20
ENDBRANCH   8  16
ENDBRANCH   5   8
ENDBRANCH   3   4
ENDBRANCH   2   3
ENDBRANCH   1   2
BRANCH   1  30
ATOM     30  C   UNL A   1      31.385  30.833  26.120  1.00  0.00     0.002 C 
BRANCH  30  31
ATOM     31  C   UNL A   1      31.292  32.308  26.506  1.00  0.00     0.021 C 
BRANCH  31  32
ATOM     32  C   UNL A   1      32.540  32.834  27.191  1.00  0.00     0.116 C 
BRANCH  32  33
ATOM     33  N   UNL A   1      32.369  34.206  27.627  1.00  0.00    -0.352 N 
ATOM     34  C   UNL A   1      33.012  34.855  28.647  1.00  0.00     0.251 C 
ATOM     35  H   UNL A   1      31.708  34.738  27.127  1.00  0.00     0.163 HD
ATOM     36  O   UNL A   1      32.603  35.933  29.061  1.00  0.00    -0.269 OA
BRANCH  34  37
ATOM     37  C   UNL A   1      34.198  34.219  29.252  1.00  0.00     0.039 A 
ATOM     38  C   UNL A   1      34.013  33.271  30.256  1.00  0.00     0.014 A 
ATOM     39  C   UNL A   1      35.483  34.548  28.808  1.00  0.00     0.014 A 
ATOM     40  C   UNL A   1      35.125  32.630  30.801  1.00  0.00     0.010 A 
ATOM     41  C   UNL A   1      36.578  33.837  29.279  1.00  0.00     0.010 A 
ATOM     42  C   UNL A   1      36.413  32.892  30.301  1.00  0.00    -0.014 A 
BRANCH  42  43
ATOM     43  C   UNL A   1      37.602  32.220  30.878  1.00  0.00     0.031 A 
ATOM     44  C   UNL A   1      38.100  32.624  32.239  1.00  0.00     0.074 A 
ATOM     45  C   UNL A   1      38.238  31.266  30.173  1.00  0.00     0.049 A 
ATOM     46  N   UNL A   1      39.138  32.181  32.905  1.00  0.00    -0.248 NA
ATOM     47  C   UNL A   1      37.354  33.686  32.934  1.00  0.00     0.031 C 
ATOM     48  C   UNL A   1      37.873  30.823  28.826  1.00  0.00     0.029 A 
ATOM     49  N   UNL A   1      39.330  30.499  30.491  1.00  0.00    -0.354 N 
ATOM     50  C   UNL A   1      39.158  32.904  34.092  1.00  0.00     0.074 A 
ATOM     51  C   UNL A   1      38.087  33.872  34.020  1.00  0.00     0.031 C 
ATOM     52  C   UNL A   1      38.706  29.842  28.445  1.00  0.00     0.029 A 
ATOM     53  C   UNL A   1      39.690  29.618  29.500  1.00  0.00     0.049 A 
ATOM     54  H   UNL A   1      39.809  30.571  31.347  1.00  0.00     0.167 HD
ATOM     55  C   UNL A   1      39.971  32.747  35.162  1.00  0.00     0.037 A 
ATOM     56  C   UNL A   1      40.707  28.737  29.448  1.00  0.00     0.037 A 
ATOM     57  C   UNL A   1      41.033  31.779  35.230  1.00  0.00     0.049 A 
ATOM     58  C   UNL A   1      41.621  28.612  30.640  1.00  0.00     0.074 A 
ATOM     59  C   UNL A   1      41.910  31.531  36.272  1.00  0.00     0.029 A 
ATOM     60  N   UNL A   1      41.363  30.898  34.212  1.00  0.00    -0.354 N 
ATOM     61  N   UNL A   1      41.597  29.263  31.777  1.00  0.00    -0.248 NA
ATOM     62  C   UNL A   1      42.697  27.616  30.544  1.00  0.00     0.031 C 
ATOM     63  C   UNL A   1      42.802  30.534  35.864  1.00  0.00     0.029 A 
ATOM     64  C   UNL A   1      42.438  30.112  34.595  1.00  0.00     0.049 A 
ATOM     65  H   UNL A   1      40.902  30.839  33.343  1.00  0.00     0.167 HD
ATOM     66  C   UNL A   1      42.623  28.727  32.547  1.00  0.00     0.074 A 
ATOM     67  C   UNL A   1      43.236  27.685  31.751  1.00  0.00     0.031 C 
ATOM     68  C   UNL A   1      43.023  29.065  33.798  1.00  0.00     0.037 A 
BRANCH  55  69
ATOM     69  C   UNL A   1      39.732  33.635  36.351  1.00  0.00     0.064 A 
ATOM     70  C   UNL A   1      38.882  33.243  37.398  1.00  0.00     0.173 A 
ATOM     71  C   UNL A   1      40.386  34.870  36.469  1.00  0.00     0.173 A 
ATOM     72  F   UNL A   1      38.219  32.078  37.330  1.00  0.00    -0.203 F 
ATOM     73  C   UNL A   1      38.675  34.066  38.501  1.00  0.00     0.198 A 
ATOM     74  C   UNL A   1      40.205  35.673  37.591  1.00  0.00     0.198 A 
ATOM     75  F   UNL A   1      41.213  35.293  35.500  1.00  0.00    -0.203 F 
ATOM     76  F   UNL A   1      37.816  33.693  39.462  1.00  0.00    -0.200 F 
ATOM     77  C   UNL A   1      39.344  35.275  38.602  1.00  0.00     0.200 A 
ATOM     78  F   UNL A   1      40.865  36.835  37.694  1.00  0.00    -0.200 F 
ATOM     79  F   UNL A   1      39.154  36.060  39.671  1.00  0.00    -0.200 F 
ENDBRANCH  55  69
BRANCH  56  80
ATOM     80  C   UNL A   1      40.918  27.899  28.237  1.00  0.00     0.064 A 
ATOM     81  C   UNL A   1      40.378  26.609  28.141  1.00  0.00     0.173 A 
ATOM     82  C   UNL A   1      41.704  28.355  27.167  1.00  0.00     0.173 A 
ATOM     83  F   UNL A   1      39.630  26.120  29.142  1.00  0.00    -0.203 F 
ATOM     84  C   UNL A   1      40.655  25.790  27.047  1.00  0.00     0.198 A 
ATOM     85  C   UNL A   1      41.947  27.551  26.056  1.00  0.00     0.198 A 
ATOM     86  F   UNL A   1      42.236  29.586  27.200  1.00  0.00    -0.203 F 
ATOM     87  F   UNL A   1      40.188  24.534  27.019  1.00  0.00    -0.200 F 
ATOM     88  C   UNL A   1      41.437  26.263  26.005  1.00  0.00     0.200 A 
ATOM     89  F   UNL A   1      42.686  28.020  25.042  1.00  0.00    -0.200 F 
ATOM     90  F   UNL A   1      41.709  25.473  24.958  1.00  0.00    -0.200 F 
ENDBRANCH  56  80
BRANCH  68  91
ATOM     91  C   UNL A   1      44.131  28.254  34.410  1.00  0.00     0.064 A 
ATOM     92  C   UNL A   1      45.476  28.639  34.316  1.00  0.00     0.173 A 
ATOM     93  C   UNL A   1      43.833  27.079  35.119  1.00  0.00     0.173 A 
ATOM     94  F   UNL A   1      45.817  29.747  33.640  1.00  0.00    -0.203 F 
ATOM     95  C   UNL A   1      46.485  27.853  34.869  1.00  0.00     0.198 A 
ATOM     96  C   UNL A   1      44.841  26.320  35.706  1.00  0.00     0.198 A 
ATOM     97  F   UNL A   1      42.562  26.669  35.250  1.00  0.00    -0.203 F 
ATOM     98  F   UNL A   1      47.768  28.204  34.705  1.00  0.00    -0.200 F 
ATOM     99  C   UNL A   1      46.166  26.700  35.569  1.00  0.00     0.200 A 
ATOM    100  F   UNL A   1      44.528  25.216  36.399  1.00  0.00    -0.200 F 
ATOM    101  F   UNL A   1      47.138  25.948  36.103  1.00  0.00    -0.200 F 
ENDBRANCH  68  91
ENDBRANCH  42  43
ENDBRANCH  34  37
ENDBRANCH  32  33
ENDBRANCH  31  32
ENDBRANCH  30  31
ENDBRANCH   1  30
TORSDOF 18
ENDMDL
