MODEL 1
REMARK VINA RESULT:     -12.0      0.000      0.000
REMARK SMILES COc1cc([C@@H]2[NH2+][C@@H](C(=O)NCCCCCCNC(=O)c3ccc(-c4c5nc(c(-c6c(F)c(F)c(F)c(F)c6F)c6ccc([nH]6)c(-c6c(F)c(F)c(F)c(F)c6F)c6nc(c(-c7c(F)c(F)c(F)c(F)c7F)c7ccc4[nH]7)C=C6)C=C5)cc3)CS2)cc(Cl)c1O
REMARK SMILES IDX 14 1 13 2 12 3 11 4 9 5 10 6 8 8 6 9 7 10 85 11 84 14 5 15
REMARK SMILES IDX 3 16 4 17 89 18 87 19 86 20 88 21 2 22 1 23 90 24 15 26
REMARK SMILES IDX 16 27 17 28 18 29 19 30 20 32 21 33 22 34 83 35 23 36 82 37
REMARK SMILES IDX 24 38 25 39 26 40 76 41 27 42 81 43 75 44 77 45 28 46 80 47
REMARK SMILES IDX 74 48 73 49 29 51 61 52 41 53 60 54 42 55 45 56 59 57 78 58
REMARK SMILES IDX 43 59 44 60 58 62 79 63 46 64 30 65 31 66 39 67 32 68 33 69
REMARK SMILES IDX 37 70 40 71 34 72 35 73 38 74 36 75 62 76 63 77 71 78 64 79
REMARK SMILES IDX 65 80 69 81 72 82 66 83 67 84 70 85 68 86 47 87 48 88 56 89
REMARK SMILES IDX 49 90 50 91 54 92 57 93 51 94 52 95 55 96 53 97
REMARK H PARENT 11 7 7 12 7 13 90 25 18 31 77 50 45 61
REMARK Flexibility Score: inf
ROOT
ATOM      1  C   UNL A   1      32.000  29.831  26.913  1.00  0.00     0.002 C 
ENDROOT
BRANCH   1   2
ATOM      2  C   UNL A   1      33.528  29.659  26.919  1.00  0.00     0.021 C 
BRANCH   2   3
ATOM      3  C   UNL A   1      34.035  28.462  26.107  1.00  0.00     0.116 C 
BRANCH   3   4
ATOM      4  N   UNL A   1      33.860  28.692  24.688  1.00  0.00    -0.351 N 
ATOM      5  C   UNL A   1      33.649  27.867  23.633  1.00  0.00     0.279 C 
ATOM      6  O   UNL A   1      33.624  28.420  22.525  1.00  0.00    -0.268 OA
ATOM      7  H   UNL A   1      33.904  29.643  24.437  1.00  0.00     0.163 HD
BRANCH   5   8
ATOM      8  C   UNL A   1      33.356  26.357  23.735  1.00  0.00     0.283 C 
ATOM      9  C   UNL A   1      33.028  24.266  22.629  1.00  0.00     0.274 C 
ATOM     10  N   UNL A   1      33.755  25.539  22.562  1.00  0.00    -0.321 N 
ATOM     11  S   UNL A   1      31.342  24.675  23.124  1.00  0.00    -0.088 SA
ATOM     12  H   UNL A   1      33.514  26.030  21.701  1.00  0.00     0.348 HD
ATOM     13  H   UNL A   1      34.761  25.373  22.570  1.00  0.00     0.348 HD
ATOM     14  C   UNL A   1      31.847  26.186  23.984  1.00  0.00     0.151 C 
BRANCH   9  15
ATOM     15  C   UNL A   1      33.652  23.180  23.497  1.00  0.00     0.025 A 
ATOM     16  C   UNL A   1      33.592  21.017  24.628  1.00  0.00     0.162 A 
ATOM     17  C   UNL A   1      32.940  22.059  23.966  1.00  0.00     0.061 A 
ATOM     18  C   UNL A   1      34.973  21.046  24.808  1.00  0.00     0.176 A 
ATOM     19  C   UNL A   1      35.691  22.170  24.409  1.00  0.00     0.087 A 
ATOM     20  C   UNL A   1      35.035  23.231  23.768  1.00  0.00     0.035 A 
ATOM     21  Cl  UNL A   1      37.401  22.265  24.625  1.00  0.00    -0.080 Cl
BRANCH  16  22
ATOM     22  O   UNL A   1      32.860  19.915  24.991  1.00  0.00    -0.493 OA
ATOM     23  C   UNL A   1      32.529  19.129  23.842  1.00  0.00     0.278 C 
ENDBRANCH  16  22
BRANCH  18  24
ATOM     24  O   UNL A   1      35.610  19.953  25.331  1.00  0.00    -0.503 OA
ATOM     25  H   UNL A   1      35.688  19.856  26.260  1.00  0.00     0.293 HD
ENDBRANCH  18  24
ENDBRANCH   9  15
ENDBRANCH   5   8
ENDBRANCH   3   4
ENDBRANCH   2   3
ENDBRANCH   1   2
BRANCH   1  26
ATOM     26  C   UNL A   1      31.455  30.883  25.941  1.00  0.00     0.002 C 
BRANCH  26  27
ATOM     27  C   UNL A   1      31.268  32.281  26.531  1.00  0.00     0.021 C 
BRANCH  27  28
ATOM     28  C   UNL A   1      32.499  32.854  27.226  1.00  0.00     0.116 C 
BRANCH  28  29
ATOM     29  N   UNL A   1      32.315  34.240  27.626  1.00  0.00    -0.352 N 
ATOM     30  C   UNL A   1      32.940  34.952  28.617  1.00  0.00     0.251 C 
ATOM     31  H   UNL A   1      31.642  34.741  27.109  1.00  0.00     0.163 HD
ATOM     32  O   UNL A   1      32.528  36.069  28.929  1.00  0.00    -0.269 OA
BRANCH  30  33
ATOM     33  C   UNL A   1      34.101  34.378  29.330  1.00  0.00     0.039 A 
ATOM     34  C   UNL A   1      33.884  33.683  30.524  1.00  0.00     0.014 A 
ATOM     35  C   UNL A   1      35.402  34.543  28.843  1.00  0.00     0.014 A 
ATOM     36  C   UNL A   1      34.963  33.108  31.200  1.00  0.00     0.010 A 
ATOM     37  C   UNL A   1      36.467  33.912  29.481  1.00  0.00     0.010 A 
ATOM     38  C   UNL A   1      36.260  33.194  30.669  1.00  0.00    -0.014 A 
BRANCH  38  39
ATOM     39  C   UNL A   1      37.411  32.547  31.348  1.00  0.00     0.031 A 
ATOM     40  C   UNL A   1      38.136  31.407  30.687  1.00  0.00     0.074 A 
ATOM     41  C   UNL A   1      37.767  32.946  32.584  1.00  0.00     0.049 A 
ATOM     42  N   UNL A   1      39.121  30.675  31.145  1.00  0.00    -0.248 NA
ATOM     43  C   UNL A   1      37.675  31.021  29.345  1.00  0.00     0.031 C 
ATOM     44  C   UNL A   1      37.112  34.007  33.350  1.00  0.00     0.029 A 
ATOM     45  N   UNL A   1      38.760  32.497  33.419  1.00  0.00    -0.354 N 
ATOM     46  C   UNL A   1      39.384  29.736  30.156  1.00  0.00     0.074 A 
ATOM     47  C   UNL A   1      38.424  29.957  29.096  1.00  0.00     0.031 C 
ATOM     48  C   UNL A   1      37.732  34.141  34.534  1.00  0.00     0.029 A 
ATOM     49  C   UNL A   1      38.805  33.155  34.624  1.00  0.00     0.049 A 
ATOM     50  H   UNL A   1      39.380  31.773  33.177  1.00  0.00     0.167 HD
ATOM     51  C   UNL A   1      40.354  28.791  30.125  1.00  0.00     0.037 A 
ATOM     52  C   UNL A   1      39.617  32.978  35.683  1.00  0.00     0.037 A 
ATOM     53  C   UNL A   1      41.327  28.592  31.168  1.00  0.00     0.049 A 
ATOM     54  C   UNL A   1      40.691  31.927  35.620  1.00  0.00     0.074 A 
ATOM     55  C   UNL A   1      42.386  27.703  31.203  1.00  0.00     0.029 A 
ATOM     56  N   UNL A   1      41.357  29.296  32.362  1.00  0.00    -0.354 N 
ATOM     57  N   UNL A   1      40.974  31.090  34.651  1.00  0.00    -0.248 NA
ATOM     58  C   UNL A   1      41.564  31.802  36.794  1.00  0.00     0.031 C 
ATOM     59  C   UNL A   1      43.032  27.838  32.436  1.00  0.00     0.029 A 
ATOM     60  C   UNL A   1      42.405  28.847  33.149  1.00  0.00     0.049 A 
ATOM     61  H   UNL A   1      40.727  30.009  32.614  1.00  0.00     0.167 HD
ATOM     62  C   UNL A   1      42.072  30.361  35.086  1.00  0.00     0.074 A 
ATOM     63  C   UNL A   1      42.414  30.863  36.400  1.00  0.00     0.031 C 
ATOM     64  C   UNL A   1      42.738  29.364  34.452  1.00  0.00     0.037 A 
BRANCH  51  65
ATOM     65  C   UNL A   1      40.415  27.897  28.919  1.00  0.00     0.064 A 
ATOM     66  C   UNL A   1      39.666  26.713  28.844  1.00  0.00     0.173 A 
ATOM     67  C   UNL A   1      41.202  28.246  27.812  1.00  0.00     0.173 A 
ATOM     68  F   UNL A   1      38.905  26.327  29.880  1.00  0.00    -0.203 F 
ATOM     69  C   UNL A   1      39.726  25.897  27.717  1.00  0.00     0.198 A 
ATOM     70  C   UNL A   1      41.237  27.443  26.675  1.00  0.00     0.198 A 
ATOM     71  F   UNL A   1      41.934  29.370  27.829  1.00  0.00    -0.203 F 
ATOM     72  F   UNL A   1      39.040  24.746  27.688  1.00  0.00    -0.200 F 
ATOM     73  C   UNL A   1      40.505  26.265  26.632  1.00  0.00     0.200 A 
ATOM     74  F   UNL A   1      41.980  27.807  25.621  1.00  0.00    -0.200 F 
ATOM     75  F   UNL A   1      40.557  25.483  25.545  1.00  0.00    -0.200 F 
ENDBRANCH  51  65
BRANCH  52  76
ATOM     76  C   UNL A   1      39.464  33.839  36.885  1.00  0.00     0.064 A 
ATOM     77  C   UNL A   1      40.078  35.097  36.951  1.00  0.00     0.173 A 
ATOM     78  C   UNL A   1      38.707  33.423  37.990  1.00  0.00     0.173 A 
ATOM     79  F   UNL A   1      40.829  35.530  35.927  1.00  0.00    -0.203 F 
ATOM     80  C   UNL A   1      39.958  35.899  38.084  1.00  0.00     0.198 A 
ATOM     81  C   UNL A   1      38.564  34.238  39.111  1.00  0.00     0.198 A 
ATOM     82  F   UNL A   1      38.094  32.230  37.975  1.00  0.00    -0.203 F 
ATOM     83  F   UNL A   1      40.593  37.078  38.138  1.00  0.00    -0.200 F 
ATOM     84  C   UNL A   1      39.196  35.471  39.161  1.00  0.00     0.200 A 
ATOM     85  F   UNL A   1      37.816  33.827  40.144  1.00  0.00    -0.200 F 
ATOM     86  F   UNL A   1      39.078  36.243  40.249  1.00  0.00    -0.200 F 
ENDBRANCH  52  76
BRANCH  64  87
ATOM     87  C   UNL A   1      43.926  28.776  35.156  1.00  0.00     0.064 A 
ATOM     88  C   UNL A   1      43.808  27.660  35.997  1.00  0.00     0.173 A 
ATOM     89  C   UNL A   1      45.206  29.316  34.958  1.00  0.00     0.173 A 
ATOM     90  F   UNL A   1      42.603  27.117  36.231  1.00  0.00    -0.203 F 
ATOM     91  C   UNL A   1      44.923  27.123  36.634  1.00  0.00     0.198 A 
ATOM     92  C   UNL A   1      46.323  28.758  35.573  1.00  0.00     0.198 A 
ATOM     93  F   UNL A   1      45.375  30.380  34.158  1.00  0.00    -0.203 F 
ATOM     94  F   UNL A   1      44.778  26.086  37.471  1.00  0.00    -0.200 F 
ATOM     95  C   UNL A   1      46.180  27.667  36.416  1.00  0.00     0.200 A 
ATOM     96  F   UNL A   1      47.538  29.278  35.351  1.00  0.00    -0.200 F 
ATOM     97  F   UNL A   1      47.252  27.145  37.026  1.00  0.00    -0.200 F 
ENDBRANCH  64  87
ENDBRANCH  38  39
ENDBRANCH  30  33
ENDBRANCH  28  29
ENDBRANCH  27  28
ENDBRANCH  26  27
ENDBRANCH   1  26
TORSDOF 16
ENDMDL
MODEL 2
REMARK VINA RESULT:     -11.9      5.652     11.326
REMARK SMILES COc1cc([C@@H]2[NH2+][C@@H](C(=O)NCCCCCCNC(=O)c3ccc(-c4c5nc(c(-c6c(F)c(F)c(F)c(F)c6F)c6ccc([nH]6)c(-c6c(F)c(F)c(F)c(F)c6F)c6nc(c(-c7c(F)c(F)c(F)c(F)c7F)c7ccc4[nH]7)C=C6)C=C5)cc3)CS2)cc(Cl)c1O
REMARK SMILES IDX 14 1 13 2 12 3 11 4 9 5 10 6 8 8 6 9 7 10 85 11 84 14 5 15
REMARK SMILES IDX 3 16 4 17 89 18 87 19 86 20 88 21 2 22 1 23 90 24 15 26
REMARK SMILES IDX 16 27 17 28 18 29 19 30 20 32 21 33 22 34 83 35 23 36 82 37
REMARK SMILES IDX 24 38 25 39 26 40 76 41 27 42 81 43 75 44 77 45 28 46 80 47
REMARK SMILES IDX 74 48 73 49 29 51 61 52 41 53 60 54 42 55 45 56 59 57 78 58
REMARK SMILES IDX 43 59 44 60 58 62 79 63 46 64 30 65 31 66 39 67 32 68 33 69
REMARK SMILES IDX 37 70 40 71 34 72 35 73 38 74 36 75 62 76 63 77 71 78 64 79
REMARK SMILES IDX 65 80 69 81 72 82 66 83 67 84 70 85 68 86 47 87 48 88 56 89
REMARK SMILES IDX 49 90 50 91 54 92 57 93 51 94 52 95 55 96 53 97
REMARK H PARENT 11 7 7 12 7 13 90 25 18 31 77 50 45 61
REMARK Flexibility Score: inf
ROOT
ATOM      1  C   UNL A   1      36.119  20.925  24.953  1.00  0.00     0.002 C 
ENDROOT
BRANCH   1   2
ATOM      2  C   UNL A   1      36.850  22.276  25.009  1.00  0.00     0.021 C 
BRANCH   2   3
ATOM      3  C   UNL A   1      36.190  23.318  25.919  1.00  0.00     0.116 C 
BRANCH   3   4
ATOM      4  N   UNL A   1      35.272  22.686  26.844  1.00  0.00    -0.351 N 
ATOM      5  C   UNL A   1      33.965  22.891  27.140  1.00  0.00     0.279 C 
ATOM      6  O   UNL A   1      33.516  22.195  28.061  1.00  0.00    -0.268 OA
ATOM      7  H   UNL A   1      35.681  21.956  27.364  1.00  0.00     0.163 HD
BRANCH   5   8
ATOM      8  C   UNL A   1      33.019  23.833  26.369  1.00  0.00     0.283 C 
ATOM      9  C   UNL A   1      30.807  24.663  26.023  1.00  0.00     0.274 C 
ATOM     10  N   UNL A   1      31.734  24.151  27.039  1.00  0.00    -0.321 N 
ATOM     11  S   UNL A   1      31.025  23.614  24.571  1.00  0.00    -0.088 SA
ATOM     12  H   UNL A   1      31.348  23.309  27.467  1.00  0.00     0.348 HD
ATOM     13  H   UNL A   1      31.877  24.848  27.770  1.00  0.00     0.348 HD
ATOM     14  C   UNL A   1      32.732  23.193  25.000  1.00  0.00     0.151 C 
BRANCH   9  15
ATOM     15  C   UNL A   1      30.915  26.149  25.701  1.00  0.00     0.025 A 
ATOM     16  C   UNL A   1      31.670  28.417  26.196  1.00  0.00     0.162 A 
ATOM     17  C   UNL A   1      31.452  27.097  26.594  1.00  0.00     0.061 A 
ATOM     18  C   UNL A   1      31.395  28.819  24.891  1.00  0.00     0.176 A 
ATOM     19  C   UNL A   1      30.807  27.917  24.007  1.00  0.00     0.087 A 
ATOM     20  C   UNL A   1      30.562  26.597  24.411  1.00  0.00     0.035 A 
ATOM     21  Cl  UNL A   1      30.431  28.368  22.385  1.00  0.00    -0.080 Cl
BRANCH  16  22
ATOM     22  O   UNL A   1      32.268  29.276  27.084  1.00  0.00    -0.493 OA
ATOM     23  C   UNL A   1      33.640  28.923  27.277  1.00  0.00     0.278 C 
ENDBRANCH  16  22
BRANCH  18  24
ATOM     24  O   UNL A   1      31.748  30.076  24.482  1.00  0.00    -0.503 OA
ATOM     25  H   UNL A   1      31.361  30.444  23.711  1.00  0.00     0.293 HD
ENDBRANCH  18  24
ENDBRANCH   9  15
ENDBRANCH   5   8
ENDBRANCH   3   4
ENDBRANCH   2   3
ENDBRANCH   1   2
BRANCH   1  26
ATOM     26  C   UNL A   1      37.015  19.684  25.001  1.00  0.00     0.002 C 
BRANCH  26  27
ATOM     27  C   UNL A   1      38.511  19.952  24.827  1.00  0.00     0.021 C 
BRANCH  27  28
ATOM     28  C   UNL A   1      39.322  19.922  26.119  1.00  0.00     0.116 C 
BRANCH  28  29
ATOM     29  N   UNL A   1      40.427  18.978  26.058  1.00  0.00    -0.352 N 
ATOM     30  C   UNL A   1      41.777  19.215  26.063  1.00  0.00     0.251 C 
ATOM     31  H   UNL A   1      40.166  18.029  26.004  1.00  0.00     0.163 HD
ATOM     32  O   UNL A   1      42.565  18.301  25.825  1.00  0.00    -0.269 OA
BRANCH  30  33
ATOM     33  C   UNL A   1      42.296  20.572  26.337  1.00  0.00     0.039 A 
ATOM     34  C   UNL A   1      42.626  21.399  25.257  1.00  0.00     0.014 A 
ATOM     35  C   UNL A   1      42.482  21.024  27.646  1.00  0.00     0.014 A 
ATOM     36  C   UNL A   1      43.091  22.695  25.492  1.00  0.00     0.010 A 
ATOM     37  C   UNL A   1      42.882  22.338  27.878  1.00  0.00     0.010 A 
ATOM     38  C   UNL A   1      43.196  23.185  26.803  1.00  0.00    -0.014 A 
BRANCH  38  39
ATOM     39  C   UNL A   1      43.641  24.577  27.069  1.00  0.00     0.031 A 
ATOM     40  C   UNL A   1      42.661  25.604  27.563  1.00  0.00     0.074 A 
ATOM     41  C   UNL A   1      44.915  24.930  26.810  1.00  0.00     0.049 A 
ATOM     42  N   UNL A   1      42.843  26.881  27.793  1.00  0.00    -0.248 NA
ATOM     43  C   UNL A   1      41.286  25.141  27.804  1.00  0.00     0.031 C 
ATOM     44  C   UNL A   1      45.949  24.039  26.283  1.00  0.00     0.029 A 
ATOM     45  N   UNL A   1      45.554  26.138  26.943  1.00  0.00    -0.354 N 
ATOM     46  C   UNL A   1      41.606  27.373  28.189  1.00  0.00     0.074 A 
ATOM     47  C   UNL A   1      40.670  26.271  28.119  1.00  0.00     0.031 C 
ATOM     48  C   UNL A   1      47.097  24.723  26.156  1.00  0.00     0.029 A 
ATOM     49  C   UNL A   1      46.873  26.108  26.560  1.00  0.00     0.049 A 
ATOM     50  H   UNL A   1      45.109  26.949  27.281  1.00  0.00     0.167 HD
ATOM     51  C   UNL A   1      41.286  28.625  28.596  1.00  0.00     0.037 A 
ATOM     52  C   UNL A   1      47.795  27.089  26.533  1.00  0.00     0.037 A 
ATOM     53  C   UNL A   1      42.225  29.711  28.691  1.00  0.00     0.049 A 
ATOM     54  C   UNL A   1      47.415  28.469  26.997  1.00  0.00     0.074 A 
ATOM     55  C   UNL A   1      42.012  31.000  29.150  1.00  0.00     0.029 A 
ATOM     56  N   UNL A   1      43.559  29.636  28.319  1.00  0.00    -0.354 N 
ATOM     57  N   UNL A   1      46.259  28.906  27.435  1.00  0.00    -0.248 NA
ATOM     58  C   UNL A   1      48.471  29.489  26.973  1.00  0.00     0.031 C 
ATOM     59  C   UNL A   1      43.206  31.716  29.016  1.00  0.00     0.029 A 
ATOM     60  C   UNL A   1      44.176  30.860  28.520  1.00  0.00     0.049 A 
ATOM     61  H   UNL A   1      44.002  28.832  27.965  1.00  0.00     0.167 HD
ATOM     62  C   UNL A   1      46.455  30.240  27.764  1.00  0.00     0.074 A 
ATOM     63  C   UNL A   1      47.845  30.537  27.489  1.00  0.00     0.031 C 
ATOM     64  C   UNL A   1      45.564  31.138  28.251  1.00  0.00     0.037 A 
BRANCH  51  65
ATOM     65  C   UNL A   1      39.856  28.888  28.973  1.00  0.00     0.064 A 
ATOM     66  C   UNL A   1      38.919  29.342  28.032  1.00  0.00     0.173 A 
ATOM     67  C   UNL A   1      39.409  28.650  30.281  1.00  0.00     0.173 A 
ATOM     68  F   UNL A   1      39.297  29.595  26.771  1.00  0.00    -0.203 F 
ATOM     69  C   UNL A   1      37.595  29.575  28.394  1.00  0.00     0.198 A 
ATOM     70  C   UNL A   1      38.077  28.856  30.633  1.00  0.00     0.198 A 
ATOM     71  F   UNL A   1      40.261  28.211  31.219  1.00  0.00    -0.203 F 
ATOM     72  F   UNL A   1      36.730  30.055  27.490  1.00  0.00    -0.200 F 
ATOM     73  C   UNL A   1      37.173  29.326  29.691  1.00  0.00     0.200 A 
ATOM     74  F   UNL A   1      37.668  28.601  31.883  1.00  0.00    -0.200 F 
ATOM     75  F   UNL A   1      35.897  29.544  30.037  1.00  0.00    -0.200 F 
ENDBRANCH  51  65
BRANCH  52  76
ATOM     76  C   UNL A   1      49.177  26.793  26.076  1.00  0.00     0.064 A 
ATOM     77  C   UNL A   1      49.552  26.999  24.740  1.00  0.00     0.173 A 
ATOM     78  C   UNL A   1      50.148  26.297  26.957  1.00  0.00     0.173 A 
ATOM     79  F   UNL A   1      48.653  27.453  23.855  1.00  0.00    -0.203 F 
ATOM     80  C   UNL A   1      50.840  26.701  24.300  1.00  0.00     0.198 A 
ATOM     81  C   UNL A   1      51.443  26.027  26.522  1.00  0.00     0.198 A 
ATOM     82  F   UNL A   1      49.841  26.088  28.246  1.00  0.00    -0.203 F 
ATOM     83  F   UNL A   1      51.159  26.865  23.009  1.00  0.00    -0.200 F 
ATOM     84  C   UNL A   1      51.786  26.221  25.193  1.00  0.00     0.200 A 
ATOM     85  F   UNL A   1      52.359  25.576  27.391  1.00  0.00    -0.200 F 
ATOM     86  F   UNL A   1      53.026  25.938  24.770  1.00  0.00    -0.200 F 
ENDBRANCH  52  76
BRANCH  64  87
ATOM     87  C   UNL A   1      46.073  32.517  28.552  1.00  0.00     0.064 A 
ATOM     88  C   UNL A   1      46.622  32.845  29.801  1.00  0.00     0.173 A 
ATOM     89  C   UNL A   1      46.043  33.515  27.566  1.00  0.00     0.173 A 
ATOM     90  F   UNL A   1      46.658  31.931  30.782  1.00  0.00    -0.203 F 
ATOM     91  C   UNL A   1      47.098  34.128  30.058  1.00  0.00     0.198 A 
ATOM     92  C   UNL A   1      46.548  34.787  27.817  1.00  0.00     0.198 A 
ATOM     93  F   UNL A   1      45.535  33.251  26.352  1.00  0.00    -0.203 F 
ATOM     94  F   UNL A   1      47.573  34.431  31.274  1.00  0.00    -0.200 F 
ATOM     95  C   UNL A   1      47.067  35.095  29.065  1.00  0.00     0.200 A 
ATOM     96  F   UNL A   1      46.529  35.717  26.852  1.00  0.00    -0.200 F 
ATOM     97  F   UNL A   1      47.531  36.327  29.313  1.00  0.00    -0.200 F 
ENDBRANCH  64  87
ENDBRANCH  38  39
ENDBRANCH  30  33
ENDBRANCH  28  29
ENDBRANCH  27  28
ENDBRANCH  26  27
ENDBRANCH   1  26
TORSDOF 16
ENDMDL
MODEL 3
REMARK VINA RESULT:     -11.7      1.117      7.419
REMARK SMILES COc1cc([C@@H]2[NH2+][C@@H](C(=O)NCCCCCCNC(=O)c3ccc(-c4c5nc(c(-c6c(F)c(F)c(F)c(F)c6F)c6ccc([nH]6)c(-c6c(F)c(F)c(F)c(F)c6F)c6nc(c(-c7c(F)c(F)c(F)c(F)c7F)c7ccc4[nH]7)C=C6)C=C5)cc3)CS2)cc(Cl)c1O
REMARK SMILES IDX 14 1 13 2 12 3 11 4 9 5 10 6 8 8 6 9 7 10 85 11 84 14 5 15
REMARK SMILES IDX 3 16 4 17 89 18 87 19 86 20 88 21 2 22 1 23 90 24 15 26
REMARK SMILES IDX 16 27 17 28 18 29 19 30 20 32 21 33 22 34 83 35 23 36 82 37
REMARK SMILES IDX 24 38 25 39 26 40 76 41 27 42 81 43 75 44 77 45 28 46 80 47
REMARK SMILES IDX 74 48 73 49 29 51 61 52 41 53 60 54 42 55 45 56 59 57 78 58
REMARK SMILES IDX 43 59 44 60 58 62 79 63 46 64 30 65 31 66 39 67 32 68 33 69
REMARK SMILES IDX 37 70 40 71 34 72 35 73 38 74 36 75 62 76 63 77 71 78 64 79
REMARK SMILES IDX 65 80 69 81 72 82 66 83 67 84 70 85 68 86 47 87 48 88 56 89
REMARK SMILES IDX 49 90 50 91 54 92 57 93 51 94 52 95 55 96 53 97
REMARK H PARENT 11 7 7 12 7 13 90 25 18 31 77 50 45 61
REMARK Flexibility Score: inf
ROOT
ATOM      1  C   UNL A   1      32.051  29.988  27.247  1.00  0.00     0.002 C 
ENDROOT
BRANCH   1   2
ATOM      2  C   UNL A   1      32.438  28.603  26.704  1.00  0.00     0.021 C 
BRANCH   2   3
ATOM      3  C   UNL A   1      33.858  28.519  26.132  1.00  0.00     0.116 C 
BRANCH   3   4
ATOM      4  N   UNL A   1      33.864  28.838  24.720  1.00  0.00    -0.351 N 
ATOM      5  C   UNL A   1      33.771  28.083  23.598  1.00  0.00     0.279 C 
ATOM      6  O   UNL A   1      33.891  28.702  22.532  1.00  0.00    -0.268 OA
ATOM      7  H   UNL A   1      33.952  29.802  24.536  1.00  0.00     0.163 HD
BRANCH   5   8
ATOM      8  C   UNL A   1      33.446  26.576  23.568  1.00  0.00     0.283 C 
ATOM      9  C   UNL A   1      33.035  24.605  22.285  1.00  0.00     0.274 C 
ATOM     10  N   UNL A   1      33.790  25.863  22.313  1.00  0.00    -0.321 N 
ATOM     11  S   UNL A   1      31.374  25.002  22.867  1.00  0.00    -0.088 SA
ATOM     12  H   UNL A   1      33.536  26.437  21.508  1.00  0.00     0.348 HD
ATOM     13  H   UNL A   1      34.791  25.676  22.274  1.00  0.00     0.348 HD
ATOM     14  C   UNL A   1      31.941  26.415  23.847  1.00  0.00     0.151 C 
BRANCH   9  15
ATOM     15  C   UNL A   1      33.658  23.430  23.029  1.00  0.00     0.025 A 
ATOM     16  C   UNL A   1      35.512  22.345  24.189  1.00  0.00     0.162 A 
ATOM     17  C   UNL A   1      35.021  23.369  23.376  1.00  0.00     0.061 A 
ATOM     18  C   UNL A   1      34.654  21.379  24.707  1.00  0.00     0.176 A 
ATOM     19  C   UNL A   1      33.314  21.381  24.330  1.00  0.00     0.087 A 
ATOM     20  C   UNL A   1      32.822  22.392  23.492  1.00  0.00     0.035 A 
ATOM     21  Cl  UNL A   1      32.212  20.196  24.929  1.00  0.00    -0.080 Cl
BRANCH  16  22
ATOM     22  O   UNL A   1      36.834  22.382  24.558  1.00  0.00    -0.493 OA
ATOM     23  C   UNL A   1      37.154  23.642  25.157  1.00  0.00     0.278 C 
ENDBRANCH  16  22
BRANCH  18  24
ATOM     24  O   UNL A   1      35.128  20.470  25.615  1.00  0.00    -0.503 OA
ATOM     25  H   UNL A   1      34.657  20.313  26.410  1.00  0.00     0.293 HD
ENDBRANCH  18  24
ENDBRANCH   9  15
ENDBRANCH   5   8
ENDBRANCH   3   4
ENDBRANCH   2   3
ENDBRANCH   1   2
BRANCH   1  26
ATOM     26  C   UNL A   1      31.257  30.878  26.285  1.00  0.00     0.002 C 
BRANCH  26  27
ATOM     27  C   UNL A   1      31.373  32.382  26.541  1.00  0.00     0.021 C 
BRANCH  27  28
ATOM     28  C   UNL A   1      32.725  32.836  27.085  1.00  0.00     0.116 C 
BRANCH  28  29
ATOM     29  N   UNL A   1      32.659  34.151  27.703  1.00  0.00    -0.352 N 
ATOM     30  C   UNL A   1      33.369  34.653  28.762  1.00  0.00     0.251 C 
ATOM     31  H   UNL A   1      32.007  34.772  27.301  1.00  0.00     0.163 HD
ATOM     32  O   UNL A   1      33.053  35.732  29.263  1.00  0.00    -0.269 OA
BRANCH  30  33
ATOM     33  C   UNL A   1      34.508  33.895  29.324  1.00  0.00     0.039 A 
ATOM     34  C   UNL A   1      35.809  34.290  28.995  1.00  0.00     0.014 A 
ATOM     35  C   UNL A   1      34.301  32.786  30.149  1.00  0.00     0.014 A 
ATOM     36  C   UNL A   1      36.900  33.606  29.536  1.00  0.00     0.010 A 
ATOM     37  C   UNL A   1      35.389  32.148  30.741  1.00  0.00     0.010 A 
ATOM     38  C   UNL A   1      36.699  32.548  30.436  1.00  0.00    -0.014 A 
BRANCH  38  39
ATOM     39  C   UNL A   1      37.848  31.842  31.060  1.00  0.00     0.031 A 
ATOM     40  C   UNL A   1      38.290  32.199  32.452  1.00  0.00     0.074 A 
ATOM     41  C   UNL A   1      38.529  30.922  30.351  1.00  0.00     0.049 A 
ATOM     42  N   UNL A   1      39.305  31.741  33.142  1.00  0.00    -0.248 NA
ATOM     43  C   UNL A   1      37.504  33.226  33.151  1.00  0.00     0.031 C 
ATOM     44  C   UNL A   1      38.229  30.522  28.976  1.00  0.00     0.029 A 
ATOM     45  N   UNL A   1      39.623  30.163  30.687  1.00  0.00    -0.354 N 
ATOM     46  C   UNL A   1      39.286  32.435  34.345  1.00  0.00     0.074 A 
ATOM     47  C   UNL A   1      38.192  33.380  34.272  1.00  0.00     0.031 C 
ATOM     48  C   UNL A   1      39.104  29.580  28.591  1.00  0.00     0.029 A 
ATOM     49  C   UNL A   1      40.046  29.332  29.678  1.00  0.00     0.049 A 
ATOM     50  H   UNL A   1      40.063  30.211  31.566  1.00  0.00     0.167 HD
ATOM     51  C   UNL A   1      40.094  32.281  35.422  1.00  0.00     0.037 A 
ATOM     52  C   UNL A   1      41.081  28.471  29.635  1.00  0.00     0.037 A 
ATOM     53  C   UNL A   1      41.163  31.321  35.503  1.00  0.00     0.049 A 
ATOM     54  C   UNL A   1      41.958  28.314  30.847  1.00  0.00     0.074 A 
ATOM     55  C   UNL A   1      41.998  31.046  36.571  1.00  0.00     0.029 A 
ATOM     56  N   UNL A   1      41.545  30.477  34.470  1.00  0.00    -0.354 N 
ATOM     57  N   UNL A   1      41.889  28.926  32.004  1.00  0.00    -0.248 NA
ATOM     58  C   UNL A   1      43.052  27.338  30.750  1.00  0.00     0.031 C 
ATOM     59  C   UNL A   1      42.913  30.066  36.172  1.00  0.00     0.029 A 
ATOM     60  C   UNL A   1      42.616  29.694  34.871  1.00  0.00     0.049 A 
ATOM     61  H   UNL A   1      41.118  30.439  33.584  1.00  0.00     0.167 HD
ATOM     62  C   UNL A   1      42.908  28.391  32.781  1.00  0.00     0.074 A 
ATOM     63  C   UNL A   1      43.572  27.394  31.968  1.00  0.00     0.031 C 
ATOM     64  C   UNL A   1      43.261  28.699  34.053  1.00  0.00     0.037 A 
BRANCH  51  65
ATOM     65  C   UNL A   1      39.850  33.172  36.606  1.00  0.00     0.064 A 
ATOM     66  C   UNL A   1      40.546  34.379  36.773  1.00  0.00     0.173 A 
ATOM     67  C   UNL A   1      38.885  32.834  37.566  1.00  0.00     0.173 A 
ATOM     68  F   UNL A   1      41.487  34.744  35.890  1.00  0.00    -0.203 F 
ATOM     69  C   UNL A   1      40.305  35.199  37.872  1.00  0.00     0.198 A 
ATOM     70  C   UNL A   1      38.625  33.671  38.649  1.00  0.00     0.198 A 
ATOM     71  F   UNL A   1      38.188  31.694  37.452  1.00  0.00    -0.203 F 
ATOM     72  F   UNL A   1      41.017  36.324  38.036  1.00  0.00    -0.200 F 
ATOM     73  C   UNL A   1      39.341  34.849  38.805  1.00  0.00     0.200 A 
ATOM     74  F   UNL A   1      37.685  33.337  39.542  1.00  0.00    -0.200 F 
ATOM     75  F   UNL A   1      39.105  35.643  39.858  1.00  0.00    -0.200 F 
ENDBRANCH  51  65
BRANCH  52  76
ATOM     76  C   UNL A   1      41.326  27.669  28.409  1.00  0.00     0.064 A 
ATOM     77  C   UNL A   1      42.232  28.106  27.432  1.00  0.00     0.173 A 
ATOM     78  C   UNL A   1      40.660  26.455  28.184  1.00  0.00     0.173 A 
ATOM     79  F   UNL A   1      42.878  29.271  27.593  1.00  0.00    -0.203 F 
ATOM     80  C   UNL A   1      42.449  27.370  26.270  1.00  0.00     0.198 A 
ATOM     81  C   UNL A   1      40.898  25.706  27.034  1.00  0.00     0.198 A 
ATOM     82  F   UNL A   1      39.787  25.990  29.090  1.00  0.00    -0.203 F 
ATOM     83  F   UNL A   1      43.287  27.834  25.332  1.00  0.00    -0.200 F 
ATOM     84  C   UNL A   1      41.786  26.168  26.074  1.00  0.00     0.200 A 
ATOM     85  F   UNL A   1      40.266  24.538  26.855  1.00  0.00    -0.200 F 
ATOM     86  F   UNL A   1      41.996  25.458  24.957  1.00  0.00    -0.200 F 
ENDBRANCH  52  76
BRANCH  64  87
ATOM     87  C   UNL A   1      44.394  27.923  34.658  1.00  0.00     0.064 A 
ATOM     88  C   UNL A   1      44.184  26.706  35.323  1.00  0.00     0.173 A 
ATOM     89  C   UNL A   1      45.713  28.387  34.539  1.00  0.00     0.173 A 
ATOM     90  F   UNL A   1      42.940  26.228  35.476  1.00  0.00    -0.203 F 
ATOM     91  C   UNL A   1      45.250  25.996  35.869  1.00  0.00     0.198 A 
ATOM     92  C   UNL A   1      46.779  27.659  35.060  1.00  0.00     0.198 A 
ATOM     93  F   UNL A   1      45.970  29.542  33.906  1.00  0.00    -0.203 F 
ATOM     94  F   UNL A   1      45.019  24.860  36.542  1.00  0.00    -0.200 F 
ATOM     95  C   UNL A   1      46.546  26.469  35.732  1.00  0.00     0.200 A 
ATOM     96  F   UNL A   1      48.032  28.111  34.915  1.00  0.00    -0.200 F 
ATOM     97  F   UNL A   1      47.570  25.781  36.253  1.00  0.00    -0.200 F 
ENDBRANCH  64  87
ENDBRANCH  38  39
ENDBRANCH  30  33
ENDBRANCH  28  29
ENDBRANCH  27  28
ENDBRANCH  26  27
ENDBRANCH   1  26
TORSDOF 16
ENDMDL
