MODEL 1
REMARK VINA RESULT:     -12.7      0.000      0.000
REMARK SMILES CCc1cc(OC(F)(F)F)cc2c1O[C@@H](C(F)(F)F)C(C(=O)NCCCCCCNC(=O)c1ccc(-c3c4nc(c(-c5c(F)c(F)c(F)c(F)c5F)c5ccc([nH]5)c(-c5c(F)c(F)c(F)c(F)c5F)c5nc(c(-c6c(F)c(F)c(F)c(F)c6F)c6ccc3[nH]6)C=C5)C=C4)cc1)=C2
REMARK SMILES IDX 26 1 25 2 24 3 23 4 21 5 22 6 20 8 3 9 4 10 13 11 5 12 12 13
REMARK SMILES IDX 14 14 11 15 96 16 15 17 2 18 1 19 6 20 7 21 8 22 9 23 10 24
REMARK SMILES IDX 16 25 17 26 18 27 19 28 27 29 28 30 29 31 30 32 31 33 32 35
REMARK SMILES IDX 33 36 34 37 95 38 35 39 94 40 36 41 37 42 38 43 88 44 39 45
REMARK SMILES IDX 93 46 87 47 89 48 40 49 92 50 86 51 85 52 41 54 73 55 53 56
REMARK SMILES IDX 72 57 54 58 57 59 71 60 90 61 55 62 56 63 70 65 91 66 58 67
REMARK SMILES IDX 42 68 43 69 51 70 44 71 45 72 49 73 52 74 46 75 47 76 50 77
REMARK SMILES IDX 48 78 74 79 75 80 83 81 76 82 77 83 81 84 84 85 78 86 79 87
REMARK SMILES IDX 82 88 80 89 59 90 60 91 68 92 61 93 62 94 66 95 69 96 63 97
REMARK SMILES IDX 64 98 67 99 65 100
REMARK H PARENT 23 7 30 34 89 53 57 64
REMARK Flexibility Score: inf
ROOT
ATOM      1  C   UNL A   1      32.439  29.813  26.811  1.00  0.00     0.002 C 
ENDROOT
BRANCH   1   2
ATOM      2  C   UNL A   1      31.519  28.892  27.626  1.00  0.00     0.021 C 
BRANCH   2   3
ATOM      3  C   UNL A   1      31.741  27.404  27.327  1.00  0.00     0.116 C 
BRANCH   3   4
ATOM      4  N   UNL A   1      30.653  26.914  26.497  1.00  0.00    -0.352 N 
ATOM      5  C   UNL A   1      30.589  25.977  25.516  1.00  0.00     0.251 C 
ATOM      6  O   UNL A   1      29.580  25.947  24.817  1.00  0.00    -0.270 OA
ATOM      7  H   UNL A   1      29.790  27.351  26.681  1.00  0.00     0.163 HD
BRANCH   5   8
ATOM      8  C   UNL A   1      31.636  24.940  25.320  1.00  0.00     0.067 C 
ATOM      9  C   UNL A   1      34.591  22.131  24.251  1.00  0.00    -0.002 A 
ATOM     10  C   UNL A   1      34.405  20.786  24.629  1.00  0.00     0.054 A 
ATOM     11  C   UNL A   1      33.630  23.080  24.645  1.00  0.00     0.131 A 
ATOM     12  C   UNL A   1      33.273  20.388  25.343  1.00  0.00     0.130 A 
ATOM     13  C   UNL A   1      32.511  22.694  25.383  1.00  0.00     0.021 A 
ATOM     14  O   UNL A   1      33.805  24.364  24.218  1.00  0.00    -0.475 OA
ATOM     15  C   UNL A   1      32.335  21.349  25.722  1.00  0.00     0.058 A 
ATOM     16  C   UNL A   1      31.484  23.670  25.716  1.00  0.00     0.025 C 
ATOM     17  C   UNL A   1      32.976  25.424  24.775  1.00  0.00     0.314 C 
BRANCH   9  18
ATOM     18  C   UNL A   1      35.832  22.577  23.498  1.00  0.00     0.036 C 
ATOM     19  C   UNL A   1      37.155  22.458  24.246  1.00  0.00     0.009 C 
ENDBRANCH   9  18
BRANCH  12  20
ATOM     20  O   UNL A   1      32.953  19.116  25.722  1.00  0.00    -0.406 OA
BRANCH  20  21
ATOM     21  C   UNL A   1      32.741  18.151  24.705  1.00  0.00     0.573 C 
ATOM     22  F   UNL A   1      31.994  17.121  25.154  1.00  0.00    -0.132 F 
ATOM     23  F   UNL A   1      32.146  18.708  23.630  1.00  0.00    -0.132 F 
ATOM     24  F   UNL A   1      33.940  17.662  24.318  1.00  0.00    -0.132 F 
ENDBRANCH  20  21
ENDBRANCH  12  20
BRANCH  17  25
ATOM     25  C   UNL A   1      32.940  26.561  23.727  1.00  0.00     0.429 C 
ATOM     26  F   UNL A   1      34.028  26.572  22.925  1.00  0.00    -0.167 F 
ATOM     27  F   UNL A   1      31.878  26.411  22.886  1.00  0.00    -0.167 F 
ATOM     28  F   UNL A   1      32.816  27.783  24.294  1.00  0.00    -0.167 F 
ENDBRANCH  17  25
ENDBRANCH   5   8
ENDBRANCH   3   4
ENDBRANCH   2   3
ENDBRANCH   1   2
BRANCH   1  29
ATOM     29  C   UNL A   1      31.705  30.819  25.917  1.00  0.00     0.002 C 
BRANCH  29  30
ATOM     30  C   UNL A   1      31.403  32.166  26.579  1.00  0.00     0.021 C 
BRANCH  30  31
ATOM     31  C   UNL A   1      32.573  32.752  27.364  1.00  0.00     0.116 C 
BRANCH  31  32
ATOM     32  N   UNL A   1      32.389  34.173  27.622  1.00  0.00    -0.352 N 
ATOM     33  C   UNL A   1      32.978  34.970  28.572  1.00  0.00     0.251 C 
ATOM     34  H   UNL A   1      31.747  34.627  27.030  1.00  0.00     0.163 HD
ATOM     35  O   UNL A   1      32.528  36.084  28.811  1.00  0.00    -0.269 OA
BRANCH  33  36
ATOM     36  C   UNL A   1      34.152  34.473  29.318  1.00  0.00     0.039 A 
ATOM     37  C   UNL A   1      33.968  33.956  30.602  1.00  0.00     0.014 A 
ATOM     38  C   UNL A   1      35.430  34.523  28.753  1.00  0.00     0.014 A 
ATOM     39  C   UNL A   1      35.057  33.421  31.293  1.00  0.00     0.010 A 
ATOM     40  C   UNL A   1      36.502  33.931  29.414  1.00  0.00     0.010 A 
ATOM     41  C   UNL A   1      36.324  33.366  30.686  1.00  0.00    -0.014 A 
BRANCH  41  42
ATOM     42  C   UNL A   1      37.463  32.683  31.349  1.00  0.00     0.031 A 
ATOM     43  C   UNL A   1      38.149  31.525  30.684  1.00  0.00     0.074 A 
ATOM     44  C   UNL A   1      37.827  33.066  32.589  1.00  0.00     0.049 A 
ATOM     45  N   UNL A   1      39.108  30.759  31.140  1.00  0.00    -0.248 NA
ATOM     46  C   UNL A   1      37.680  31.163  29.338  1.00  0.00     0.031 C 
ATOM     47  C   UNL A   1      37.204  34.148  33.354  1.00  0.00     0.029 A 
ATOM     48  N   UNL A   1      38.797  32.580  33.428  1.00  0.00    -0.354 N 
ATOM     49  C   UNL A   1      39.352  29.824  30.144  1.00  0.00     0.074 A 
ATOM     50  C   UNL A   1      38.406  30.084  29.080  1.00  0.00     0.031 C 
ATOM     51  C   UNL A   1      37.819  34.255  34.542  1.00  0.00     0.029 A 
ATOM     52  C   UNL A   1      38.848  33.225  34.641  1.00  0.00     0.049 A 
ATOM     53  H   UNL A   1      39.399  31.840  33.186  1.00  0.00     0.167 HD
ATOM     54  C   UNL A   1      40.293  28.850  30.113  1.00  0.00     0.037 A 
ATOM     55  C   UNL A   1      39.626  33.001  35.716  1.00  0.00     0.037 A 
ATOM     56  C   UNL A   1      41.239  28.604  31.171  1.00  0.00     0.049 A 
ATOM     57  C   UNL A   1      40.644  31.895  35.665  1.00  0.00     0.074 A 
ATOM     58  C   UNL A   1      42.271  27.682  31.209  1.00  0.00     0.029 A 
ATOM     59  N   UNL A   1      41.262  29.279  32.384  1.00  0.00    -0.354 N 
ATOM     60  N   UNL A   1      40.915  31.063  34.688  1.00  0.00    -0.248 NA
ATOM     61  C   UNL A   1      41.468  31.698  36.866  1.00  0.00     0.031 C 
ATOM     62  C   UNL A   1      42.883  27.761  32.465  1.00  0.00     0.029 A 
ATOM     63  C   UNL A   1      42.270  28.770  33.190  1.00  0.00     0.049 A 
ATOM     64  H   UNL A   1      40.653  30.010  32.635  1.00  0.00     0.167 HD
ATOM     65  C   UNL A   1      41.952  30.261  35.146  1.00  0.00     0.074 A 
ATOM     66  C   UNL A   1      42.275  30.720  36.482  1.00  0.00     0.031 C 
ATOM     67  C   UNL A   1      42.577  29.235  34.518  1.00  0.00     0.037 A 
BRANCH  54  68
ATOM     68  C   UNL A   1      40.346  27.971  28.897  1.00  0.00     0.064 A 
ATOM     69  C   UNL A   1      39.625  26.769  28.826  1.00  0.00     0.173 A 
ATOM     70  C   UNL A   1      41.089  28.355  27.771  1.00  0.00     0.173 A 
ATOM     71  F   UNL A   1      38.906  26.350  29.877  1.00  0.00    -0.203 F 
ATOM     72  C   UNL A   1      39.669  25.973  27.684  1.00  0.00     0.198 A 
ATOM     73  C   UNL A   1      41.106  27.572  26.619  1.00  0.00     0.198 A 
ATOM     74  F   UNL A   1      41.793  29.498  27.783  1.00  0.00    -0.203 F 
ATOM     75  F   UNL A   1      39.010  24.806  27.657  1.00  0.00    -0.200 F 
ATOM     76  C   UNL A   1      40.403  26.378  26.580  1.00  0.00     0.200 A 
ATOM     77  F   UNL A   1      41.805  27.974  25.548  1.00  0.00    -0.200 F 
ATOM     78  F   UNL A   1      40.436  25.615  25.478  1.00  0.00    -0.200 F 
ENDBRANCH  54  68
BRANCH  55  79
ATOM     79  C   UNL A   1      39.478  33.848  36.929  1.00  0.00     0.064 A 
ATOM     80  C   UNL A   1      40.120  35.089  37.021  1.00  0.00     0.173 A 
ATOM     81  C   UNL A   1      38.696  33.435  38.017  1.00  0.00     0.173 A 
ATOM     82  F   UNL A   1      40.896  35.520  36.014  1.00  0.00    -0.203 F 
ATOM     83  C   UNL A   1      40.004  35.877  38.165  1.00  0.00     0.198 A 
ATOM     84  C   UNL A   1      38.555  34.237  39.148  1.00  0.00     0.198 A 
ATOM     85  F   UNL A   1      38.056  32.257  37.976  1.00  0.00    -0.203 F 
ATOM     86  F   UNL A   1      40.666  37.039  38.246  1.00  0.00    -0.200 F 
ATOM     87  C   UNL A   1      39.216  35.453  39.224  1.00  0.00     0.200 A 
ATOM     88  F   UNL A   1      37.780  33.830  40.162  1.00  0.00    -0.200 F 
ATOM     89  F   UNL A   1      39.100  36.213  40.322  1.00  0.00    -0.200 F 
ENDBRANCH  55  79
BRANCH  67  90
ATOM     90  C   UNL A   1      43.688  28.552  35.262  1.00  0.00     0.064 A 
ATOM     91  C   UNL A   1      45.022  28.965  35.134  1.00  0.00     0.173 A 
ATOM     92  C   UNL A   1      43.411  27.490  36.138  1.00  0.00     0.173 A 
ATOM     93  F   UNL A   1      45.341  29.964  34.296  1.00  0.00    -0.203 F 
ATOM     94  C   UNL A   1      46.040  28.325  35.834  1.00  0.00     0.198 A 
ATOM     95  C   UNL A   1      44.428  26.873  36.861  1.00  0.00     0.198 A 
ATOM     96  F   UNL A   1      42.151  27.059  36.301  1.00  0.00    -0.203 F 
ATOM     97  F   UNL A   1      47.314  28.703  35.656  1.00  0.00    -0.200 F 
ATOM     98  C   UNL A   1      45.743  27.285  36.702  1.00  0.00     0.200 A 
ATOM     99  F   UNL A   1      44.136  25.878  37.710  1.00  0.00    -0.200 F 
ATOM    100  F   UNL A   1      46.723  26.674  37.380  1.00  0.00    -0.200 F 
ENDBRANCH  67  90
ENDBRANCH  41  42
ENDBRANCH  33  36
ENDBRANCH  31  32
ENDBRANCH  30  31
ENDBRANCH  29  30
ENDBRANCH   1  29
TORSDOF 17
ENDMDL
MODEL 2
REMARK VINA RESULT:     -12.5      1.396      2.569
REMARK SMILES CCc1cc(OC(F)(F)F)cc2c1O[C@@H](C(F)(F)F)C(C(=O)NCCCCCCNC(=O)c1ccc(-c3c4nc(c(-c5c(F)c(F)c(F)c(F)c5F)c5ccc([nH]5)c(-c5c(F)c(F)c(F)c(F)c5F)c5nc(c(-c6c(F)c(F)c(F)c(F)c6F)c6ccc3[nH]6)C=C5)C=C4)cc1)=C2
REMARK SMILES IDX 26 1 25 2 24 3 23 4 21 5 22 6 20 8 3 9 4 10 13 11 5 12 12 13
REMARK SMILES IDX 14 14 11 15 96 16 15 17 2 18 1 19 6 20 7 21 8 22 9 23 10 24
REMARK SMILES IDX 16 25 17 26 18 27 19 28 27 29 28 30 29 31 30 32 31 33 32 35
REMARK SMILES IDX 33 36 34 37 95 38 35 39 94 40 36 41 37 42 38 43 88 44 39 45
REMARK SMILES IDX 93 46 87 47 89 48 40 49 92 50 86 51 85 52 41 54 73 55 53 56
REMARK SMILES IDX 72 57 54 58 57 59 71 60 90 61 55 62 56 63 70 65 91 66 58 67
REMARK SMILES IDX 42 68 43 69 51 70 44 71 45 72 49 73 52 74 46 75 47 76 50 77
REMARK SMILES IDX 48 78 74 79 75 80 83 81 76 82 77 83 81 84 84 85 78 86 79 87
REMARK SMILES IDX 82 88 80 89 59 90 60 91 68 92 61 93 62 94 66 95 69 96 63 97
REMARK SMILES IDX 64 98 67 99 65 100
REMARK H PARENT 23 7 30 34 89 53 57 64
REMARK Flexibility Score: inf
ROOT
ATOM      1  C   UNL A   1      32.395  29.970  27.393  1.00  0.00     0.002 C 
ENDROOT
BRANCH   1   2
ATOM      2  C   UNL A   1      33.163  28.777  26.806  1.00  0.00     0.021 C 
BRANCH   2   3
ATOM      3  C   UNL A   1      34.129  29.178  25.684  1.00  0.00     0.116 C 
BRANCH   3   4
ATOM      4  N   UNL A   1      33.424  29.154  24.413  1.00  0.00    -0.352 N 
ATOM      5  C   UNL A   1      33.073  28.150  23.570  1.00  0.00     0.251 C 
ATOM      6  O   UNL A   1      32.695  28.455  22.441  1.00  0.00    -0.270 OA
ATOM      7  H   UNL A   1      33.145  30.046  24.101  1.00  0.00     0.163 HD
BRANCH   5   8
ATOM      8  C   UNL A   1      33.040  26.722  23.982  1.00  0.00     0.067 C 
ATOM      9  C   UNL A   1      32.623  22.826  25.537  1.00  0.00    -0.002 A 
ATOM     10  C   UNL A   1      33.791  22.103  25.851  1.00  0.00     0.054 A 
ATOM     11  C   UNL A   1      32.759  24.110  24.975  1.00  0.00     0.131 A 
ATOM     12  C   UNL A   1      35.057  22.654  25.651  1.00  0.00     0.130 A 
ATOM     13  C   UNL A   1      34.020  24.656  24.745  1.00  0.00     0.021 A 
ATOM     14  O   UNL A   1      31.613  24.812  24.734  1.00  0.00    -0.475 OA
ATOM     15  C   UNL A   1      35.164  23.928  25.091  1.00  0.00     0.058 A 
ATOM     16  C   UNL A   1      34.147  26.013  24.238  1.00  0.00     0.025 C 
ATOM     17  C   UNL A   1      31.676  26.039  23.953  1.00  0.00     0.314 C 
BRANCH   9  18
ATOM     18  C   UNL A   1      31.242  22.224  25.727  1.00  0.00     0.036 C 
ATOM     19  C   UNL A   1      30.327  22.935  26.719  1.00  0.00     0.009 C 
ENDBRANCH   9  18
BRANCH  12  20
ATOM     20  O   UNL A   1      36.257  22.079  25.959  1.00  0.00    -0.406 OA
BRANCH  20  21
ATOM     21  C   UNL A   1      36.850  21.220  25.000  1.00  0.00     0.573 C 
ATOM     22  F   UNL A   1      36.858  21.786  23.774  1.00  0.00    -0.132 F 
ATOM     23  F   UNL A   1      38.110  20.896  25.358  1.00  0.00    -0.132 F 
ATOM     24  F   UNL A   1      36.125  20.082  24.932  1.00  0.00    -0.132 F 
ENDBRANCH  20  21
ENDBRANCH  12  20
BRANCH  17  25
ATOM     25  C   UNL A   1      30.454  26.893  24.362  1.00  0.00     0.429 C 
ATOM     26  F   UNL A   1      29.987  27.662  23.352  1.00  0.00    -0.167 F 
ATOM     27  F   UNL A   1      29.407  26.099  24.720  1.00  0.00    -0.167 F 
ATOM     28  F   UNL A   1      30.713  27.694  25.421  1.00  0.00    -0.167 F 
ENDBRANCH  17  25
ENDBRANCH   5   8
ENDBRANCH   3   4
ENDBRANCH   2   3
ENDBRANCH   1   2
BRANCH   1  29
ATOM     29  C   UNL A   1      31.457  30.674  26.406  1.00  0.00     0.002 C 
BRANCH  29  30
ATOM     30  C   UNL A   1      31.433  32.201  26.519  1.00  0.00     0.021 C 
BRANCH  30  31
ATOM     31  C   UNL A   1      32.576  32.783  27.345  1.00  0.00     0.116 C 
BRANCH  31  32
ATOM     32  N   UNL A   1      32.380  34.201  27.607  1.00  0.00    -0.352 N 
ATOM     33  C   UNL A   1      32.963  35.000  28.560  1.00  0.00     0.251 C 
ATOM     34  H   UNL A   1      31.736  34.653  27.016  1.00  0.00     0.163 HD
ATOM     35  O   UNL A   1      32.505  36.111  28.802  1.00  0.00    -0.269 OA
BRANCH  33  36
ATOM     36  C   UNL A   1      34.140  34.510  29.305  1.00  0.00     0.039 A 
ATOM     37  C   UNL A   1      33.954  33.946  30.569  1.00  0.00     0.014 A 
ATOM     38  C   UNL A   1      35.424  34.614  28.760  1.00  0.00     0.014 A 
ATOM     39  C   UNL A   1      35.048  33.417  31.257  1.00  0.00     0.010 A 
ATOM     40  C   UNL A   1      36.503  34.029  29.416  1.00  0.00     0.010 A 
ATOM     41  C   UNL A   1      36.323  33.417  30.666  1.00  0.00    -0.014 A 
BRANCH  41  42
ATOM     42  C   UNL A   1      37.472  32.743  31.321  1.00  0.00     0.031 A 
ATOM     43  C   UNL A   1      38.150  31.577  30.661  1.00  0.00     0.074 A 
ATOM     44  C   UNL A   1      37.852  33.140  32.551  1.00  0.00     0.049 A 
ATOM     45  N   UNL A   1      39.116  30.818  31.113  1.00  0.00    -0.248 NA
ATOM     46  C   UNL A   1      37.664  31.198  29.326  1.00  0.00     0.031 C 
ATOM     47  C   UNL A   1      37.239  34.231  33.312  1.00  0.00     0.029 A 
ATOM     48  N   UNL A   1      38.834  32.665  33.384  1.00  0.00    -0.354 N 
ATOM     49  C   UNL A   1      39.348  29.871  30.125  1.00  0.00     0.074 A 
ATOM     50  C   UNL A   1      38.387  30.118  29.071  1.00  0.00     0.031 C 
ATOM     51  C   UNL A   1      37.869  34.353  34.491  1.00  0.00     0.029 A 
ATOM     52  C   UNL A   1      38.900  33.325  34.588  1.00  0.00     0.049 A 
ATOM     53  H   UNL A   1      39.433  31.923  33.143  1.00  0.00     0.167 HD
ATOM     54  C   UNL A   1      40.289  28.897  30.094  1.00  0.00     0.037 A 
ATOM     55  C   UNL A   1      39.693  33.114  35.655  1.00  0.00     0.037 A 
ATOM     56  C   UNL A   1      41.249  28.665  31.142  1.00  0.00     0.049 A 
ATOM     57  C   UNL A   1      40.712  32.009  35.603  1.00  0.00     0.074 A 
ATOM     58  C   UNL A   1      42.282  27.745  31.176  1.00  0.00     0.029 A 
ATOM     59  N   UNL A   1      41.288  29.354  32.346  1.00  0.00    -0.354 N 
ATOM     60  N   UNL A   1      40.970  31.166  34.633  1.00  0.00    -0.248 NA
ATOM     61  C   UNL A   1      41.552  31.827  36.795  1.00  0.00     0.031 C 
ATOM     62  C   UNL A   1      42.911  27.839  32.423  1.00  0.00     0.029 A 
ATOM     63  C   UNL A   1      42.307  28.856  33.144  1.00  0.00     0.049 A 
ATOM     64  H   UNL A   1      40.681  30.088  32.596  1.00  0.00     0.167 HD
ATOM     65  C   UNL A   1      42.014  30.370  35.086  1.00  0.00     0.074 A 
ATOM     66  C   UNL A   1      42.355  30.845  36.412  1.00  0.00     0.031 C 
ATOM     67  C   UNL A   1      42.631  29.337  34.463  1.00  0.00     0.037 A 
BRANCH  54  68
ATOM     68  C   UNL A   1      40.327  28.004  28.887  1.00  0.00     0.064 A 
ATOM     69  C   UNL A   1      41.070  28.340  27.746  1.00  0.00     0.173 A 
ATOM     70  C   UNL A   1      39.650  26.775  28.888  1.00  0.00     0.173 A 
ATOM     71  F   UNL A   1      41.729  29.507  27.688  1.00  0.00    -0.203 F 
ATOM     72  C   UNL A   1      41.112  27.494  26.641  1.00  0.00     0.198 A 
ATOM     73  C   UNL A   1      39.718  25.917  27.793  1.00  0.00     0.198 A 
ATOM     74  F   UNL A   1      38.928  26.401  29.956  1.00  0.00    -0.203 F 
ATOM     75  F   UNL A   1      41.790  27.858  25.544  1.00  0.00    -0.200 F 
ATOM     76  C   UNL A   1      40.442  26.280  26.668  1.00  0.00     0.200 A 
ATOM     77  F   UNL A   1      39.082  24.737  27.829  1.00  0.00    -0.200 F 
ATOM     78  F   UNL A   1      40.491  25.461  25.608  1.00  0.00    -0.200 F 
ENDBRANCH  54  68
BRANCH  55  79
ATOM     79  C   UNL A   1      39.561  33.976  36.859  1.00  0.00     0.064 A 
ATOM     80  C   UNL A   1      38.798  33.562  37.959  1.00  0.00     0.173 A 
ATOM     81  C   UNL A   1      40.191  35.227  36.935  1.00  0.00     0.173 A 
ATOM     82  F   UNL A   1      38.160  32.382  37.927  1.00  0.00    -0.203 F 
ATOM     83  C   UNL A   1      38.652  34.376  39.082  1.00  0.00     0.198 A 
ATOM     84  C   UNL A   1      40.070  36.026  38.070  1.00  0.00     0.198 A 
ATOM     85  F   UNL A   1      40.937  35.666  35.911  1.00  0.00    -0.203 F 
ATOM     86  F   UNL A   1      37.879  33.976  40.100  1.00  0.00    -0.200 F 
ATOM     87  C   UNL A   1      39.294  35.604  39.138  1.00  0.00     0.200 A 
ATOM     88  F   UNL A   1      40.705  37.204  38.127  1.00  0.00    -0.200 F 
ATOM     89  F   UNL A   1      39.158  36.384  40.219  1.00  0.00    -0.200 F 
ENDBRANCH  55  79
BRANCH  67  90
ATOM     90  C   UNL A   1      43.753  28.663  35.200  1.00  0.00     0.064 A 
ATOM     91  C   UNL A   1      45.083  29.089  35.063  1.00  0.00     0.173 A 
ATOM     92  C   UNL A   1      43.491  27.600  36.077  1.00  0.00     0.173 A 
ATOM     93  F   UNL A   1      45.388  30.090  34.223  1.00  0.00    -0.203 F 
ATOM     94  C   UNL A   1      46.111  28.457  35.757  1.00  0.00     0.198 A 
ATOM     95  C   UNL A   1      44.517  26.992  36.793  1.00  0.00     0.198 A 
ATOM     96  F   UNL A   1      42.236  27.157  36.248  1.00  0.00    -0.203 F 
ATOM     97  F   UNL A   1      47.380  28.847  35.571  1.00  0.00    -0.200 F 
ATOM     98  C   UNL A   1      45.828  27.415  36.626  1.00  0.00     0.200 A 
ATOM     99  F   UNL A   1      44.240  25.995  37.644  1.00  0.00    -0.200 F 
ATOM    100  F   UNL A   1      46.818  26.813  37.298  1.00  0.00    -0.200 F 
ENDBRANCH  67  90
ENDBRANCH  41  42
ENDBRANCH  33  36
ENDBRANCH  31  32
ENDBRANCH  30  31
ENDBRANCH  29  30
ENDBRANCH   1  29
TORSDOF 17
ENDMDL
MODEL 3
REMARK VINA RESULT:     -12.4      5.453     10.279
REMARK SMILES CCc1cc(OC(F)(F)F)cc2c1O[C@@H](C(F)(F)F)C(C(=O)NCCCCCCNC(=O)c1ccc(-c3c4nc(c(-c5c(F)c(F)c(F)c(F)c5F)c5ccc([nH]5)c(-c5c(F)c(F)c(F)c(F)c5F)c5nc(c(-c6c(F)c(F)c(F)c(F)c6F)c6ccc3[nH]6)C=C5)C=C4)cc1)=C2
REMARK SMILES IDX 26 1 25 2 24 3 23 4 21 5 22 6 20 8 3 9 4 10 13 11 5 12 12 13
REMARK SMILES IDX 14 14 11 15 96 16 15 17 2 18 1 19 6 20 7 21 8 22 9 23 10 24
REMARK SMILES IDX 16 25 17 26 18 27 19 28 27 29 28 30 29 31 30 32 31 33 32 35
REMARK SMILES IDX 33 36 34 37 95 38 35 39 94 40 36 41 37 42 38 43 88 44 39 45
REMARK SMILES IDX 93 46 87 47 89 48 40 49 92 50 86 51 85 52 41 54 73 55 53 56
REMARK SMILES IDX 72 57 54 58 57 59 71 60 90 61 55 62 56 63 70 65 91 66 58 67
REMARK SMILES IDX 42 68 43 69 51 70 44 71 45 72 49 73 52 74 46 75 47 76 50 77
REMARK SMILES IDX 48 78 74 79 75 80 83 81 76 82 77 83 81 84 84 85 78 86 79 87
REMARK SMILES IDX 82 88 80 89 59 90 60 91 68 92 61 93 62 94 66 95 69 96 63 97
REMARK SMILES IDX 64 98 67 99 65 100
REMARK H PARENT 23 7 30 34 89 53 57 64
REMARK Flexibility Score: inf
ROOT
ATOM      1  C   UNL A   1      37.383  21.787  24.592  1.00  0.00     0.002 C 
ENDROOT
BRANCH   1   2
ATOM      2  C   UNL A   1      36.426  22.586  23.695  1.00  0.00     0.021 C 
BRANCH   2   3
ATOM      3  C   UNL A   1      35.619  23.638  24.467  1.00  0.00     0.116 C 
BRANCH   3   4
ATOM      4  N   UNL A   1      34.701  22.969  25.373  1.00  0.00    -0.352 N 
ATOM      5  C   UNL A   1      33.586  23.382  26.030  1.00  0.00     0.251 C 
ATOM      6  O   UNL A   1      33.151  22.663  26.927  1.00  0.00    -0.270 OA
ATOM      7  H   UNL A   1      34.935  22.029  25.547  1.00  0.00     0.163 HD
BRANCH   5   8
ATOM      8  C   UNL A   1      32.830  24.604  25.651  1.00  0.00     0.067 C 
ATOM      9  C   UNL A   1      30.745  27.912  24.076  1.00  0.00    -0.002 A 
ATOM     10  C   UNL A   1      31.157  29.205  24.456  1.00  0.00     0.054 A 
ATOM     11  C   UNL A   1      31.409  26.804  24.635  1.00  0.00     0.131 A 
ATOM     12  C   UNL A   1      32.225  29.393  25.334  1.00  0.00     0.130 A 
ATOM     13  C   UNL A   1      32.458  26.983  25.535  1.00  0.00     0.021 A 
ATOM     14  O   UNL A   1      31.029  25.565  24.208  1.00  0.00    -0.475 OA
ATOM     15  C   UNL A   1      32.866  28.277  25.875  1.00  0.00     0.058 A 
ATOM     16  C   UNL A   1      33.189  25.833  26.045  1.00  0.00     0.025 C 
ATOM     17  C   UNL A   1      31.516  24.384  24.908  1.00  0.00     0.314 C 
BRANCH   9  18
ATOM     18  C   UNL A   1      29.568  27.698  23.142  1.00  0.00     0.036 C 
ATOM     19  C   UNL A   1      28.792  28.946  22.736  1.00  0.00     0.009 C 
ENDBRANCH   9  18
BRANCH  12  20
ATOM     20  O   UNL A   1      32.751  30.587  25.738  1.00  0.00    -0.406 OA
BRANCH  20  21
ATOM     21  C   UNL A   1      32.176  31.219  26.870  1.00  0.00     0.573 C 
ATOM     22  F   UNL A   1      33.125  31.747  27.671  1.00  0.00    -0.132 F 
ATOM     23  F   UNL A   1      31.311  32.184  26.495  1.00  0.00    -0.132 F 
ATOM     24  F   UNL A   1      31.495  30.293  27.580  1.00  0.00    -0.132 F 
ENDBRANCH  20  21
ENDBRANCH  12  20
BRANCH  17  25
ATOM     25  C   UNL A   1      31.466  23.213  23.898  1.00  0.00     0.429 C 
ATOM     26  F   UNL A   1      31.370  22.006  24.498  1.00  0.00    -0.167 F 
ATOM     27  F   UNL A   1      30.365  23.306  23.103  1.00  0.00    -0.167 F 
ATOM     28  F   UNL A   1      32.539  23.195  23.075  1.00  0.00    -0.167 F 
ENDBRANCH  17  25
ENDBRANCH   5   8
ENDBRANCH   3   4
ENDBRANCH   2   3
ENDBRANCH   1   2
BRANCH   1  29
ATOM     29  C   UNL A   1      36.980  20.324  24.812  1.00  0.00     0.002 C 
BRANCH  29  30
ATOM     30  C   UNL A   1      38.152  19.356  24.993  1.00  0.00     0.021 C 
BRANCH  30  31
ATOM     31  C   UNL A   1      39.335  19.943  25.756  1.00  0.00     0.116 C 
BRANCH  31  32
ATOM     32  N   UNL A   1      40.384  18.956  25.964  1.00  0.00    -0.352 N 
ATOM     33  C   UNL A   1      41.736  19.139  26.120  1.00  0.00     0.251 C 
ATOM     34  H   UNL A   1      40.080  18.020  25.996  1.00  0.00     0.163 HD
ATOM     35  O   UNL A   1      42.503  18.187  26.038  1.00  0.00    -0.269 OA
BRANCH  33  36
ATOM     36  C   UNL A   1      42.266  20.494  26.374  1.00  0.00     0.039 A 
ATOM     37  C   UNL A   1      42.744  21.246  25.299  1.00  0.00     0.014 A 
ATOM     38  C   UNL A   1      42.296  21.017  27.671  1.00  0.00     0.014 A 
ATOM     39  C   UNL A   1      43.185  22.554  25.514  1.00  0.00     0.010 A 
ATOM     40  C   UNL A   1      42.673  22.341  27.874  1.00  0.00     0.010 A 
ATOM     41  C   UNL A   1      43.113  23.124  26.796  1.00  0.00    -0.014 A 
BRANCH  41  42
ATOM     42  C   UNL A   1      43.451  24.552  27.020  1.00  0.00     0.031 A 
ATOM     43  C   UNL A   1      44.848  25.051  26.783  1.00  0.00     0.074 A 
ATOM     44  C   UNL A   1      42.510  25.381  27.512  1.00  0.00     0.049 A 
ATOM     45  N   UNL A   1      45.348  26.242  26.995  1.00  0.00    -0.248 NA
ATOM     46  C   UNL A   1      45.818  24.077  26.260  1.00  0.00     0.031 C 
ATOM     47  C   UNL A   1      41.132  25.000  27.825  1.00  0.00     0.029 A 
ATOM     48  N   UNL A   1      42.572  26.710  27.847  1.00  0.00    -0.354 N 
ATOM     49  C   UNL A   1      46.687  26.159  26.640  1.00  0.00     0.074 A 
ATOM     50  C   UNL A   1      46.936  24.789  26.248  1.00  0.00     0.031 C 
ATOM     51  C   UNL A   1      40.474  26.074  28.290  1.00  0.00     0.029 A 
ATOM     52  C   UNL A   1      41.393  27.206  28.349  1.00  0.00     0.049 A 
ATOM     53  H   UNL A   1      43.384  27.256  27.741  1.00  0.00     0.167 HD
ATOM     54  C   UNL A   1      47.618  27.143  26.625  1.00  0.00     0.037 A 
ATOM     55  C   UNL A   1      41.091  28.431  28.817  1.00  0.00     0.037 A 
ATOM     56  C   UNL A   1      47.360  28.508  27.007  1.00  0.00     0.049 A 
ATOM     57  C   UNL A   1      42.151  29.498  28.813  1.00  0.00     0.074 A 
ATOM     58  C   UNL A   1      48.220  29.592  26.967  1.00  0.00     0.029 A 
ATOM     59  N   UNL A   1      46.153  28.975  27.508  1.00  0.00    -0.354 N 
ATOM     60  N   UNL A   1      43.396  29.427  28.407  1.00  0.00    -0.248 NA
ATOM     61  C   UNL A   1      41.764  30.817  29.333  1.00  0.00     0.031 C 
ATOM     62  C   UNL A   1      47.550  30.702  27.495  1.00  0.00     0.029 A 
ATOM     63  C   UNL A   1      46.256  30.324  27.811  1.00  0.00     0.049 A 
ATOM     64  H   UNL A   1      45.343  28.429  27.629  1.00  0.00     0.167 HD
ATOM     65  C   UNL A   1      43.933  30.692  28.599  1.00  0.00     0.074 A 
ATOM     66  C   UNL A   1      42.872  31.518  29.140  1.00  0.00     0.031 C 
ATOM     67  C   UNL A   1      45.192  31.131  28.353  1.00  0.00     0.037 A 
BRANCH  54  68
ATOM     68  C   UNL A   1      49.008  26.781  26.185  1.00  0.00     0.064 A 
ATOM     69  C   UNL A   1      49.420  26.933  24.853  1.00  0.00     0.173 A 
ATOM     70  C   UNL A   1      49.952  26.320  27.114  1.00  0.00     0.173 A 
ATOM     71  F   UNL A   1      48.554  27.362  23.922  1.00  0.00    -0.203 F 
ATOM     72  C   UNL A   1      50.717  26.611  24.462  1.00  0.00     0.198 A 
ATOM     73  C   UNL A   1      51.258  26.027  26.726  1.00  0.00     0.198 A 
ATOM     74  F   UNL A   1      49.613  26.161  28.403  1.00  0.00    -0.203 F 
ATOM     75  F   UNL A   1      51.074  26.720  23.175  1.00  0.00    -0.200 F 
ATOM     76  C   UNL A   1      51.637  26.166  25.400  1.00  0.00     0.200 A 
ATOM     77  F   UNL A   1      52.148  25.611  27.637  1.00  0.00    -0.200 F 
ATOM     78  F   UNL A   1      52.888  25.865  25.024  1.00  0.00    -0.200 F 
ENDBRANCH  54  68
BRANCH  55  79
ATOM     79  C   UNL A   1      39.721  28.718  29.318  1.00  0.00     0.064 A 
ATOM     80  C   UNL A   1      38.731  29.215  28.461  1.00  0.00     0.173 A 
ATOM     81  C   UNL A   1      39.375  28.502  30.660  1.00  0.00     0.173 A 
ATOM     82  F   UNL A   1      39.019  29.457  27.174  1.00  0.00    -0.203 F 
ATOM     83  C   UNL A   1      37.451  29.507  28.932  1.00  0.00     0.198 A 
ATOM     84  C   UNL A   1      38.087  28.764  31.123  1.00  0.00     0.198 A 
ATOM     85  F   UNL A   1      40.285  28.021  31.520  1.00  0.00    -0.203 F 
ATOM     86  F   UNL A   1      36.537  30.026  28.101  1.00  0.00    -0.200 F 
ATOM     87  C   UNL A   1      37.129  29.275  30.260  1.00  0.00     0.200 A 
ATOM     88  F   UNL A   1      37.775  28.523  32.403  1.00  0.00    -0.200 F 
ATOM     89  F   UNL A   1      35.898  29.550  30.711  1.00  0.00    -0.200 F 
ENDBRANCH  55  79
BRANCH  67  90
ATOM     90  C   UNL A   1      45.486  32.573  28.649  1.00  0.00     0.064 A 
ATOM     91  C   UNL A   1      45.245  33.582  27.704  1.00  0.00     0.173 A 
ATOM     92  C   UNL A   1      45.985  32.956  29.904  1.00  0.00     0.173 A 
ATOM     93  F   UNL A   1      44.784  33.266  26.483  1.00  0.00    -0.203 F 
ATOM     94  C   UNL A   1      45.517  34.915  27.994  1.00  0.00     0.198 A 
ATOM     95  C   UNL A   1      46.226  34.294  30.202  1.00  0.00     0.198 A 
ATOM     96  F   UNL A   1      46.228  32.032  30.845  1.00  0.00    -0.203 F 
ATOM     97  F   UNL A   1      45.328  35.855  27.057  1.00  0.00    -0.200 F 
ATOM     98  C   UNL A   1      46.000  35.271  29.244  1.00  0.00     0.200 A 
ATOM     99  F   UNL A   1      46.679  34.637  31.415  1.00  0.00    -0.200 F 
ATOM    100  F   UNL A   1      46.256  36.556  29.524  1.00  0.00    -0.200 F 
ENDBRANCH  67  90
ENDBRANCH  41  42
ENDBRANCH  33  36
ENDBRANCH  31  32
ENDBRANCH  30  31
ENDBRANCH  29  30
ENDBRANCH   1  29
TORSDOF 17
ENDMDL
