MODEL 1
REMARK VINA RESULT:     -12.0      0.000      0.000
REMARK SMILES C/C(=N/[NH+]=C1\NC(=O)[C@H](CC(=O)NCCCCCCNC(=O)c2ccc(-c3c4nc(c(-c5c(F)c(F)c(F)c(F)c5F)c5ccc([nH]5)c(-c5c(F)c(F)c(F)c(F)c5F)c5nc(c(-c6c(F)c(F)c(F)c(F)c6F)c6ccc3[nH]6)C=C5)C=C4)cc2)S1)c1ccc(OC(C)C)cc1
REMARK SMILES IDX 15 1 14 2 13 3 11 4 12 5 10 7 9 8 4 9 5 10 6 12 86 13 7 14
REMARK SMILES IDX 8 16 3 17 1 18 2 19 87 20 88 21 96 22 89 23 95 24 90 25
REMARK SMILES IDX 91 26 92 27 93 28 94 29 16 30 17 31 18 32 19 33 20 34 21 35
REMARK SMILES IDX 22 37 23 38 24 39 85 40 25 41 84 42 26 43 27 44 28 45 78 46
REMARK SMILES IDX 29 47 83 48 77 49 79 50 30 51 82 52 76 53 75 54 31 56 63 57
REMARK SMILES IDX 43 58 62 59 44 60 47 61 61 62 80 63 45 64 46 65 60 67 81 68
REMARK SMILES IDX 48 69 32 70 33 71 41 72 34 73 35 74 39 75 42 76 36 77 37 78
REMARK SMILES IDX 40 79 38 80 64 81 65 82 73 83 66 84 67 85 71 86 74 87 68 88
REMARK SMILES IDX 69 89 72 90 70 91 49 92 50 93 58 94 51 95 52 96 56 97 59 98
REMARK SMILES IDX 53 99 54 100 57 101 55 102
REMARK H PARENT 13 6 4 11 6 15 20 36 79 55 47 66
REMARK Flexibility Score: inf
ROOT
ATOM      1  C   UNL A   1      30.932  25.463  26.123  1.00  0.00     0.021 C 
ENDROOT
BRANCH   1   2
ATOM      2  C   UNL A   1      31.265  24.162  26.841  1.00  0.00     0.116 C 
BRANCH   2   3
ATOM      3  N   UNL A   1      31.260  23.011  25.964  1.00  0.00    -0.356 N 
ATOM      4  C   UNL A   1      32.126  21.958  25.925  1.00  0.00     0.221 C 
ATOM      5  O   UNL A   1      31.949  21.062  25.104  1.00  0.00    -0.275 OA
ATOM      6  H   UNL A   1      30.530  22.983  25.304  1.00  0.00     0.163 HD
BRANCH   4   7
ATOM      7  C   UNL A   1      33.279  21.906  26.900  1.00  0.00     0.127 C 
BRANCH   7   8
ATOM      8  C   UNL A   1      34.628  22.127  26.223  1.00  0.00     0.183 C 
ATOM      9  N   UNL A   1      34.022  24.824  23.593  1.00  0.00    -0.142 N 
ATOM     10  C   UNL A   1      34.403  23.811  24.291  1.00  0.00     0.337 C 
ATOM     11  H   UNL A   1      33.993  25.732  23.969  1.00  0.00     0.343 HD
ATOM     12  N   UNL A   1      34.482  22.533  23.868  1.00  0.00    -0.202 N 
ATOM     13  S   UNL A   1      34.826  23.938  25.973  1.00  0.00    -0.020 SA
ATOM     14  C   UNL A   1      34.713  21.572  24.808  1.00  0.00     0.322 C 
ATOM     15  H   UNL A   1      34.377  22.302  22.917  1.00  0.00     0.316 HD
ATOM     16  O   UNL A   1      34.899  20.396  24.524  1.00  0.00    -0.246 OA
BRANCH   9  17
ATOM     17  N   UNL A   1      33.652  24.563  22.271  1.00  0.00    -0.090 NA
ATOM     18  C   UNL A   1      32.623  25.203  20.200  1.00  0.00     0.071 C 
ATOM     19  C   UNL A   1      32.890  25.442  21.675  1.00  0.00     0.088 C 
BRANCH  19  20
ATOM     20  C   UNL A   1      32.168  26.587  22.322  1.00  0.00    -0.000 A 
ATOM     21  C   UNL A   1      30.822  26.518  22.673  1.00  0.00     0.014 A 
ATOM     22  C   UNL A   1      32.824  27.815  22.448  1.00  0.00     0.014 A 
ATOM     23  C   UNL A   1      30.124  27.684  23.017  1.00  0.00     0.047 A 
ATOM     24  C   UNL A   1      32.118  28.975  22.819  1.00  0.00     0.047 A 
ATOM     25  C   UNL A   1      30.754  28.934  23.060  1.00  0.00     0.119 A 
BRANCH  25  26
ATOM     26  O   UNL A   1      29.914  29.969  23.308  1.00  0.00    -0.491 OA
BRANCH  26  27
ATOM     27  C   UNL A   1      28.655  30.268  22.696  1.00  0.00     0.167 C 
ATOM     28  C   UNL A   1      27.653  31.085  23.502  1.00  0.00     0.052 C 
ATOM     29  C   UNL A   1      28.782  30.744  21.251  1.00  0.00     0.052 C 
ENDBRANCH  26  27
ENDBRANCH  25  26
ENDBRANCH  19  20
ENDBRANCH   9  17
ENDBRANCH   7   8
ENDBRANCH   4   7
ENDBRANCH   2   3
ENDBRANCH   1   2
BRANCH   1  30
ATOM     30  C   UNL A   1      32.065  26.495  26.121  1.00  0.00     0.002 C 
BRANCH  30  31
ATOM     31  C   UNL A   1      31.951  27.630  27.146  1.00  0.00     0.002 C 
BRANCH  31  32
ATOM     32  C   UNL A   1      31.669  29.017  26.579  1.00  0.00     0.021 C 
BRANCH  32  33
ATOM     33  C   UNL A   1      32.900  29.804  26.163  1.00  0.00     0.116 C 
BRANCH  33  34
ATOM     34  N   UNL A   1      32.762  31.219  26.447  1.00  0.00    -0.352 N 
ATOM     35  C   UNL A   1      33.463  32.002  27.331  1.00  0.00     0.251 C 
ATOM     36  H   UNL A   1      32.066  31.686  25.932  1.00  0.00     0.163 HD
ATOM     37  O   UNL A   1      33.067  33.128  27.605  1.00  0.00    -0.269 OA
BRANCH  35  38
ATOM     38  C   UNL A   1      34.686  31.471  27.974  1.00  0.00     0.039 A 
ATOM     39  C   UNL A   1      35.776  32.324  28.159  1.00  0.00     0.014 A 
ATOM     40  C   UNL A   1      34.761  30.139  28.388  1.00  0.00     0.014 A 
ATOM     41  C   UNL A   1      36.917  31.854  28.812  1.00  0.00     0.010 A 
ATOM     42  C   UNL A   1      35.852  29.704  29.130  1.00  0.00     0.010 A 
ATOM     43  C   UNL A   1      36.952  30.551  29.335  1.00  0.00    -0.014 A 
BRANCH  43  44
ATOM     44  C   UNL A   1      38.138  30.043  30.069  1.00  0.00     0.031 A 
ATOM     45  C   UNL A   1      38.399  30.495  31.480  1.00  0.00     0.074 A 
ATOM     46  C   UNL A   1      39.010  29.222  29.450  1.00  0.00     0.049 A 
ATOM     47  N   UNL A   1      39.412  30.224  32.265  1.00  0.00    -0.248 NA
ATOM     48  C   UNL A   1      37.405  31.401  32.080  1.00  0.00     0.031 C 
ATOM     49  C   UNL A   1      38.892  28.749  28.070  1.00  0.00     0.029 A 
ATOM     50  N   UNL A   1      40.172  28.647  29.899  1.00  0.00    -0.354 N 
ATOM     51  C   UNL A   1      39.182  30.935  33.436  1.00  0.00     0.074 A 
ATOM     52  C   UNL A   1      37.972  31.701  33.238  1.00  0.00     0.031 C 
ATOM     53  C   UNL A   1      39.922  27.934  27.794  1.00  0.00     0.029 A 
ATOM     54  C   UNL A   1      40.797  27.862  28.961  1.00  0.00     0.049 A 
ATOM     55  H   UNL A   1      40.525  28.784  30.808  1.00  0.00     0.167 HD
ATOM     56  C   UNL A   1      39.899  30.927  34.584  1.00  0.00     0.037 A 
ATOM     57  C   UNL A   1      41.949  27.169  29.031  1.00  0.00     0.037 A 
ATOM     58  C   UNL A   1      41.087  30.141  34.787  1.00  0.00     0.049 A 
ATOM     59  C   UNL A   1      42.736  27.188  30.315  1.00  0.00     0.074 A 
ATOM     60  C   UNL A   1      41.854  30.015  35.931  1.00  0.00     0.029 A 
ATOM     61  N   UNL A   1      41.683  29.349  33.815  1.00  0.00    -0.354 N 
ATOM     62  N   UNL A   1      42.472  27.808  31.440  1.00  0.00    -0.248 NA
ATOM     63  C   UNL A   1      43.980  26.406  30.341  1.00  0.00     0.031 C 
ATOM     64  C   UNL A   1      42.946  29.193  35.635  1.00  0.00     0.029 A 
ATOM     65  C   UNL A   1      42.825  28.753  34.327  1.00  0.00     0.049 A 
ATOM     66  H   UNL A   1      41.345  29.227  32.899  1.00  0.00     0.167 HD
ATOM     67  C   UNL A   1      43.495  27.467  32.314  1.00  0.00     0.074 A 
ATOM     68  C   UNL A   1      44.377  26.572  31.595  1.00  0.00     0.031 C 
ATOM     69  C   UNL A   1      43.687  27.858  33.598  1.00  0.00     0.037 A 
BRANCH  56  70
ATOM     70  C   UNL A   1      39.418  31.794  35.714  1.00  0.00     0.064 A 
ATOM     71  C   UNL A   1      38.449  31.348  36.627  1.00  0.00     0.173 A 
ATOM     72  C   UNL A   1      39.955  33.075  35.906  1.00  0.00     0.173 A 
ATOM     73  F   UNL A   1      37.891  30.136  36.482  1.00  0.00    -0.203 F 
ATOM     74  C   UNL A   1      38.013  32.165  37.668  1.00  0.00     0.198 A 
ATOM     75  C   UNL A   1      39.544  33.875  36.970  1.00  0.00     0.198 A 
ATOM     76  F   UNL A   1      40.888  33.550  35.067  1.00  0.00    -0.203 F 
ATOM     77  F   UNL A   1      37.045  31.738  38.492  1.00  0.00    -0.200 F 
ATOM     78  C   UNL A   1      38.567  33.424  37.844  1.00  0.00     0.200 A 
ATOM     79  F   UNL A   1      40.092  35.086  37.146  1.00  0.00    -0.200 F 
ATOM     80  F   UNL A   1      38.154  34.205  38.851  1.00  0.00    -0.200 F 
ENDBRANCH  56  70
BRANCH  57  81
ATOM     81  C   UNL A   1      42.420  26.383  27.859  1.00  0.00     0.064 A 
ATOM     82  C   UNL A   1      41.952  25.082  27.627  1.00  0.00     0.173 A 
ATOM     83  C   UNL A   1      43.353  26.911  26.953  1.00  0.00     0.173 A 
ATOM     84  F   UNL A   1      41.074  24.526  28.474  1.00  0.00    -0.203 F 
ATOM     85  C   UNL A   1      42.417  24.330  26.550  1.00  0.00     0.198 A 
ATOM     86  C   UNL A   1      43.792  26.170  25.858  1.00  0.00     0.198 A 
ATOM     87  F   UNL A   1      43.827  28.153  27.125  1.00  0.00    -0.203 F 
ATOM     88  F   UNL A   1      41.991  23.071  26.381  1.00  0.00    -0.200 F 
ATOM     89  C   UNL A   1      43.332  24.876  25.663  1.00  0.00     0.200 A 
ATOM     90  F   UNL A   1      44.662  26.709  24.994  1.00  0.00    -0.200 F 
ATOM     91  F   UNL A   1      43.775  24.155  24.624  1.00  0.00    -0.200 F 
ENDBRANCH  57  81
BRANCH  69  92
ATOM     92  C   UNL A   1      44.874  27.291  34.323  1.00  0.00     0.064 A 
ATOM     93  C   UNL A   1      46.108  27.956  34.357  1.00  0.00     0.173 A 
ATOM     94  C   UNL A   1      44.760  26.084  35.032  1.00  0.00     0.173 A 
ATOM     95  F   UNL A   1      46.274  29.105  33.685  1.00  0.00    -0.203 F 
ATOM     96  C   UNL A   1      47.190  27.422  35.051  1.00  0.00     0.198 A 
ATOM     97  C   UNL A   1      45.834  25.571  35.753  1.00  0.00     0.198 A 
ATOM     98  F   UNL A   1      43.600  25.411  35.040  1.00  0.00    -0.203 F 
ATOM     99  F   UNL A   1      48.375  28.050  35.025  1.00  0.00    -0.200 F 
ATOM    100  C   UNL A   1      47.050  26.236  35.755  1.00  0.00     0.200 A 
ATOM    101  F   UNL A   1      45.690  24.434  36.448  1.00  0.00    -0.200 F 
ATOM    102  F   UNL A   1      48.090  25.729  36.430  1.00  0.00    -0.200 F 
ENDBRANCH  69  92
ENDBRANCH  43  44
ENDBRANCH  35  38
ENDBRANCH  33  34
ENDBRANCH  32  33
ENDBRANCH  31  32
ENDBRANCH  30  31
ENDBRANCH   1  30
TORSDOF 18
ENDMDL
MODEL 2
REMARK VINA RESULT:     -11.5      4.568      7.999
REMARK SMILES C/C(=N/[NH+]=C1\NC(=O)[C@H](CC(=O)NCCCCCCNC(=O)c2ccc(-c3c4nc(c(-c5c(F)c(F)c(F)c(F)c5F)c5ccc([nH]5)c(-c5c(F)c(F)c(F)c(F)c5F)c5nc(c(-c6c(F)c(F)c(F)c(F)c6F)c6ccc3[nH]6)C=C5)C=C4)cc2)S1)c1ccc(OC(C)C)cc1
REMARK SMILES IDX 15 1 14 2 13 3 11 4 12 5 10 7 9 8 4 9 5 10 6 12 86 13 7 14
REMARK SMILES IDX 8 16 3 17 1 18 2 19 87 20 88 21 96 22 89 23 95 24 90 25
REMARK SMILES IDX 91 26 92 27 93 28 94 29 16 30 17 31 18 32 19 33 20 34 21 35
REMARK SMILES IDX 22 37 23 38 24 39 85 40 25 41 84 42 26 43 27 44 28 45 78 46
REMARK SMILES IDX 29 47 83 48 77 49 79 50 30 51 82 52 76 53 75 54 31 56 63 57
REMARK SMILES IDX 43 58 62 59 44 60 47 61 61 62 80 63 45 64 46 65 60 67 81 68
REMARK SMILES IDX 48 69 32 70 33 71 41 72 34 73 35 74 39 75 42 76 36 77 37 78
REMARK SMILES IDX 40 79 38 80 64 81 65 82 73 83 66 84 67 85 71 86 74 87 68 88
REMARK SMILES IDX 69 89 72 90 70 91 49 92 50 93 58 94 51 95 52 96 56 97 59 98
REMARK SMILES IDX 53 99 54 100 57 101 55 102
REMARK H PARENT 13 6 4 11 6 15 20 36 79 55 47 66
REMARK Flexibility Score: inf
ROOT
ATOM      1  C   UNL A   1      36.161  21.311  25.542  1.00  0.00     0.021 C 
ENDROOT
BRANCH   1   2
ATOM      2  C   UNL A   1      35.753  20.060  24.777  1.00  0.00     0.116 C 
BRANCH   2   3
ATOM      3  N   UNL A   1      34.490  19.509  25.220  1.00  0.00    -0.356 N 
ATOM      4  C   UNL A   1      33.224  19.898  24.896  1.00  0.00     0.221 C 
ATOM      5  O   UNL A   1      32.266  19.294  25.374  1.00  0.00    -0.275 OA
ATOM      6  H   UNL A   1      34.553  18.747  25.841  1.00  0.00     0.163 HD
BRANCH   4   7
ATOM      7  C   UNL A   1      33.020  21.056  23.947  1.00  0.00     0.127 C 
BRANCH   7   8
ATOM      8  C   UNL A   1      31.905  21.993  24.398  1.00  0.00     0.183 C 
ATOM      9  N   UNL A   1      33.129  25.511  23.572  1.00  0.00    -0.142 N 
ATOM     10  C   UNL A   1      32.602  24.448  24.072  1.00  0.00     0.337 C 
ATOM     11  H   UNL A   1      33.024  25.745  22.622  1.00  0.00     0.343 HD
ATOM     12  N   UNL A   1      32.684  24.044  25.356  1.00  0.00    -0.202 N 
ATOM     13  S   UNL A   1      31.726  23.294  23.111  1.00  0.00    -0.020 SA
ATOM     14  C   UNL A   1      32.232  22.792  25.653  1.00  0.00     0.322 C 
ATOM     15  H   UNL A   1      33.055  24.632  26.054  1.00  0.00     0.316 HD
ATOM     16  O   UNL A   1      32.169  22.362  26.797  1.00  0.00    -0.246 OA
BRANCH   9  17
ATOM     17  N   UNL A   1      33.859  26.317  24.450  1.00  0.00    -0.090 NA
ATOM     18  C   UNL A   1      34.073  28.234  25.876  1.00  0.00     0.071 C 
ATOM     19  C   UNL A   1      33.322  27.451  24.813  1.00  0.00     0.088 C 
BRANCH  19  20
ATOM     20  C   UNL A   1      32.114  28.104  24.211  1.00  0.00    -0.000 A 
ATOM     21  C   UNL A   1      30.818  27.787  24.608  1.00  0.00     0.014 A 
ATOM     22  C   UNL A   1      32.281  28.954  23.113  1.00  0.00     0.014 A 
ATOM     23  C   UNL A   1      29.723  28.211  23.841  1.00  0.00     0.047 A 
ATOM     24  C   UNL A   1      31.173  29.394  22.366  1.00  0.00     0.047 A 
ATOM     25  C   UNL A   1      29.888  28.990  22.690  1.00  0.00     0.119 A 
BRANCH  25  26
ATOM     26  O   UNL A   1      28.738  29.224  22.011  1.00  0.00    -0.491 OA
BRANCH  26  27
ATOM     27  C   UNL A   1      27.929  30.405  21.998  1.00  0.00     0.167 C 
ATOM     28  C   UNL A   1      27.653  31.087  23.332  1.00  0.00     0.052 C 
ATOM     29  C   UNL A   1      28.313  31.390  20.897  1.00  0.00     0.052 C 
ENDBRANCH  26  27
ENDBRANCH  25  26
ENDBRANCH  19  20
ENDBRANCH   9  17
ENDBRANCH   7   8
ENDBRANCH   4   7
ENDBRANCH   2   3
ENDBRANCH   1   2
BRANCH   1  30
ATOM     30  C   UNL A   1      37.422  21.999  25.008  1.00  0.00     0.002 C 
BRANCH  30  31
ATOM     31  C   UNL A   1      38.498  22.345  26.044  1.00  0.00     0.002 C 
BRANCH  31  32
ATOM     32  C   UNL A   1      39.409  21.199  26.471  1.00  0.00     0.021 C 
BRANCH  32  33
ATOM     33  C   UNL A   1      39.525  20.063  25.470  1.00  0.00     0.116 C 
BRANCH  33  34
ATOM     34  N   UNL A   1      40.494  19.068  25.886  1.00  0.00    -0.352 N 
ATOM     35  C   UNL A   1      41.810  19.229  26.244  1.00  0.00     0.251 C 
ATOM     36  H   UNL A   1      40.161  18.142  25.916  1.00  0.00     0.163 HD
ATOM     37  O   UNL A   1      42.544  18.255  26.353  1.00  0.00    -0.269 OA
BRANCH  35  38
ATOM     38  C   UNL A   1      42.347  20.589  26.473  1.00  0.00     0.039 A 
ATOM     39  C   UNL A   1      42.550  21.429  25.376  1.00  0.00     0.014 A 
ATOM     40  C   UNL A   1      42.654  21.035  27.762  1.00  0.00     0.014 A 
ATOM     41  C   UNL A   1      43.006  22.734  25.580  1.00  0.00     0.010 A 
ATOM     42  C   UNL A   1      43.003  22.364  27.972  1.00  0.00     0.010 A 
ATOM     43  C   UNL A   1      43.202  23.223  26.882  1.00  0.00    -0.014 A 
BRANCH  43  44
ATOM     44  C   UNL A   1      43.646  24.620  27.124  1.00  0.00     0.031 A 
ATOM     45  C   UNL A   1      42.664  25.643  27.627  1.00  0.00     0.074 A 
ATOM     46  C   UNL A   1      44.912  24.980  26.838  1.00  0.00     0.049 A 
ATOM     47  N   UNL A   1      42.834  26.925  27.835  1.00  0.00    -0.248 NA
ATOM     48  C   UNL A   1      41.297  25.170  27.903  1.00  0.00     0.031 C 
ATOM     49  C   UNL A   1      45.944  24.092  26.303  1.00  0.00     0.029 A 
ATOM     50  N   UNL A   1      45.545  26.193  26.951  1.00  0.00    -0.354 N 
ATOM     51  C   UNL A   1      41.599  27.408  28.248  1.00  0.00     0.074 A 
ATOM     52  C   UNL A   1      40.672  26.299  28.199  1.00  0.00     0.031 C 
ATOM     53  C   UNL A   1      47.088  24.780  26.161  1.00  0.00     0.029 A 
ATOM     54  C   UNL A   1      46.859  26.168  26.552  1.00  0.00     0.049 A 
ATOM     55  H   UNL A   1      45.099  27.005  27.286  1.00  0.00     0.167 HD
ATOM     56  C   UNL A   1      41.274  28.656  28.660  1.00  0.00     0.037 A 
ATOM     57  C   UNL A   1      47.774  27.155  26.500  1.00  0.00     0.037 A 
ATOM     58  C   UNL A   1      42.207  29.748  28.734  1.00  0.00     0.049 A 
ATOM     59  C   UNL A   1      47.383  28.538  26.950  1.00  0.00     0.074 A 
ATOM     60  C   UNL A   1      41.994  31.035  29.194  1.00  0.00     0.029 A 
ATOM     61  N   UNL A   1      43.534  29.680  28.331  1.00  0.00    -0.354 N 
ATOM     62  N   UNL A   1      46.231  28.966  27.407  1.00  0.00    -0.248 NA
ATOM     63  C   UNL A   1      48.423  29.574  26.883  1.00  0.00     0.031 C 
ATOM     64  C   UNL A   1      43.175  31.763  29.015  1.00  0.00     0.029 A 
ATOM     65  C   UNL A   1      44.144  30.912  28.506  1.00  0.00     0.049 A 
ATOM     66  H   UNL A   1      43.976  28.877  27.975  1.00  0.00     0.167 HD
ATOM     67  C   UNL A   1      46.414  30.308  27.710  1.00  0.00     0.074 A 
ATOM     68  C   UNL A   1      47.794  30.620  27.401  1.00  0.00     0.031 C 
ATOM     69  C   UNL A   1      45.521  31.203  28.201  1.00  0.00     0.037 A 
BRANCH  56  70
ATOM     70  C   UNL A   1      39.849  28.907  29.065  1.00  0.00     0.064 A 
ATOM     71  C   UNL A   1      38.886  29.354  28.146  1.00  0.00     0.173 A 
ATOM     72  C   UNL A   1      39.431  28.668  30.383  1.00  0.00     0.173 A 
ATOM     73  F   UNL A   1      39.234  29.612  26.875  1.00  0.00    -0.203 F 
ATOM     74  C   UNL A   1      37.570  29.583  28.539  1.00  0.00     0.198 A 
ATOM     75  C   UNL A   1      38.106  28.862  30.763  1.00  0.00     0.198 A 
ATOM     76  F   UNL A   1      40.307  28.235  31.302  1.00  0.00    -0.203 F 
ATOM     77  F   UNL A   1      36.683  30.065  27.656  1.00  0.00    -0.200 F 
ATOM     78  C   UNL A   1      37.178  29.329  29.844  1.00  0.00     0.200 A 
ATOM     79  F   UNL A   1      37.727  28.602  32.022  1.00  0.00    -0.200 F 
ATOM     80  F   UNL A   1      35.909  29.540  30.219  1.00  0.00    -0.200 F 
ENDBRANCH  56  70
BRANCH  57  81
ATOM     81  C   UNL A   1      49.153  26.869  26.022  1.00  0.00     0.064 A 
ATOM     82  C   UNL A   1      50.165  26.497  26.919  1.00  0.00     0.173 A 
ATOM     83  C   UNL A   1      49.492  26.971  24.665  1.00  0.00     0.173 A 
ATOM     84  F   UNL A   1      49.897  26.403  28.229  1.00  0.00    -0.203 F 
ATOM     85  C   UNL A   1      51.467  26.263  26.480  1.00  0.00     0.198 A 
ATOM     86  C   UNL A   1      50.786  26.705  24.223  1.00  0.00     0.198 A 
ATOM     87  F   UNL A   1      48.560  27.317  23.764  1.00  0.00    -0.203 F 
ATOM     88  F   UNL A   1      52.425  25.957  27.365  1.00  0.00    -0.200 F 
ATOM     89  C   UNL A   1      51.775  26.360  25.132  1.00  0.00     0.200 A 
ATOM     90  F   UNL A   1      51.074  26.783  22.917  1.00  0.00    -0.200 F 
ATOM     91  F   UNL A   1      53.026  26.130  24.709  1.00  0.00    -0.200 F 
ENDBRANCH  57  81
BRANCH  69  92
ATOM     92  C   UNL A   1      46.016  32.594  28.474  1.00  0.00     0.064 A 
ATOM     93  C   UNL A   1      45.971  33.601  27.498  1.00  0.00     0.173 A 
ATOM     94  C   UNL A   1      46.502  32.936  29.747  1.00  0.00     0.173 A 
ATOM     95  F   UNL A   1      45.529  33.324  26.263  1.00  0.00    -0.203 F 
ATOM     96  C   UNL A   1      46.418  34.889  27.778  1.00  0.00     0.198 A 
ATOM     97  C   UNL A   1      46.915  34.234  30.033  1.00  0.00     0.198 A 
ATOM     98  F   UNL A   1      46.559  32.013  30.719  1.00  0.00    -0.203 F 
ATOM     99  F   UNL A   1      46.413  35.821  26.815  1.00  0.00    -0.200 F 
ATOM    100  C   UNL A   1      46.880  35.207  29.047  1.00  0.00     0.200 A 
ATOM    101  F   UNL A   1      47.344  34.542  31.265  1.00  0.00    -0.200 F 
ATOM    102  F   UNL A   1      47.300  36.450  29.316  1.00  0.00    -0.200 F 
ENDBRANCH  69  92
ENDBRANCH  43  44
ENDBRANCH  35  38
ENDBRANCH  33  34
ENDBRANCH  32  33
ENDBRANCH  31  32
ENDBRANCH  30  31
ENDBRANCH   1  30
TORSDOF 18
ENDMDL
MODEL 3
REMARK VINA RESULT:     -11.5      4.415      9.616
REMARK SMILES C/C(=N/[NH+]=C1\NC(=O)[C@H](CC(=O)NCCCCCCNC(=O)c2ccc(-c3c4nc(c(-c5c(F)c(F)c(F)c(F)c5F)c5ccc([nH]5)c(-c5c(F)c(F)c(F)c(F)c5F)c5nc(c(-c6c(F)c(F)c(F)c(F)c6F)c6ccc3[nH]6)C=C5)C=C4)cc2)S1)c1ccc(OC(C)C)cc1
REMARK SMILES IDX 15 1 14 2 13 3 11 4 12 5 10 7 9 8 4 9 5 10 6 12 86 13 7 14
REMARK SMILES IDX 8 16 3 17 1 18 2 19 87 20 88 21 96 22 89 23 95 24 90 25
REMARK SMILES IDX 91 26 92 27 93 28 94 29 16 30 17 31 18 32 19 33 20 34 21 35
REMARK SMILES IDX 22 37 23 38 24 39 85 40 25 41 84 42 26 43 27 44 28 45 78 46
REMARK SMILES IDX 29 47 83 48 77 49 79 50 30 51 82 52 76 53 75 54 31 56 63 57
REMARK SMILES IDX 43 58 62 59 44 60 47 61 61 62 80 63 45 64 46 65 60 67 81 68
REMARK SMILES IDX 48 69 32 70 33 71 41 72 34 73 35 74 39 75 42 76 36 77 37 78
REMARK SMILES IDX 40 79 38 80 64 81 65 82 73 83 66 84 67 85 71 86 74 87 68 88
REMARK SMILES IDX 69 89 72 90 70 91 49 92 50 93 58 94 51 95 52 96 56 97 59 98
REMARK SMILES IDX 53 99 54 100 57 101 55 102
REMARK H PARENT 13 6 4 11 6 15 20 36 79 55 47 66
REMARK Flexibility Score: inf
ROOT
ATOM      1  C   UNL A   1      36.164  21.205  25.557  1.00  0.00     0.021 C 
ENDROOT
BRANCH   1   2
ATOM      2  C   UNL A   1      35.697  20.010  24.736  1.00  0.00     0.116 C 
BRANCH   2   3
ATOM      3  N   UNL A   1      34.447  19.451  25.208  1.00  0.00    -0.356 N 
ATOM      4  C   UNL A   1      33.172  19.826  24.902  1.00  0.00     0.221 C 
ATOM      5  O   UNL A   1      32.228  19.216  25.403  1.00  0.00    -0.275 OA
ATOM      6  H   UNL A   1      34.528  18.696  25.834  1.00  0.00     0.163 HD
BRANCH   4   7
ATOM      7  C   UNL A   1      32.940  20.972  23.947  1.00  0.00     0.127 C 
BRANCH   7   8
ATOM      8  C   UNL A   1      31.863  21.934  24.437  1.00  0.00     0.183 C 
ATOM      9  N   UNL A   1      33.056  25.412  23.415  1.00  0.00    -0.142 N 
ATOM     10  C   UNL A   1      32.555  24.371  23.984  1.00  0.00     0.337 C 
ATOM     11  H   UNL A   1      32.892  25.614  22.467  1.00  0.00     0.343 HD
ATOM     12  N   UNL A   1      32.717  24.009  25.273  1.00  0.00    -0.202 N 
ATOM     13  S   UNL A   1      31.611  23.193  23.121  1.00  0.00    -0.020 SA
ATOM     14  C   UNL A   1      32.276  22.771  25.640  1.00  0.00     0.322 C 
ATOM     15  H   UNL A   1      33.136  24.615  25.925  1.00  0.00     0.316 HD
ATOM     16  O   UNL A   1      32.284  22.380  26.800  1.00  0.00    -0.246 OA
BRANCH   9  17
ATOM     17  N   UNL A   1      33.847  26.238  24.217  1.00  0.00    -0.090 NA
ATOM     18  C   UNL A   1      34.159  28.185  25.584  1.00  0.00     0.071 C 
ATOM     19  C   UNL A   1      33.333  27.377  24.599  1.00  0.00     0.088 C 
BRANCH  19  20
ATOM     20  C   UNL A   1      32.076  28.011  24.081  1.00  0.00    -0.000 A 
ATOM     21  C   UNL A   1      30.810  27.614  24.504  1.00  0.00     0.014 A 
ATOM     22  C   UNL A   1      32.166  28.931  23.032  1.00  0.00     0.014 A 
ATOM     23  C   UNL A   1      29.670  28.034  23.804  1.00  0.00     0.047 A 
ATOM     24  C   UNL A   1      31.012  29.366  22.353  1.00  0.00     0.047 A 
ATOM     25  C   UNL A   1      29.758  28.886  22.697  1.00  0.00     0.119 A 
BRANCH  25  26
ATOM     26  O   UNL A   1      28.575  29.110  22.075  1.00  0.00    -0.491 OA
BRANCH  26  27
ATOM     27  C   UNL A   1      27.799  30.312  22.030  1.00  0.00     0.167 C 
ATOM     28  C   UNL A   1      27.685  31.129  23.311  1.00  0.00     0.052 C 
ATOM     29  C   UNL A   1      28.085  31.172  20.802  1.00  0.00     0.052 C 
ENDBRANCH  26  27
ENDBRANCH  25  26
ENDBRANCH  19  20
ENDBRANCH   9  17
ENDBRANCH   7   8
ENDBRANCH   4   7
ENDBRANCH   2   3
ENDBRANCH   1   2
BRANCH   1  30
ATOM     30  C   UNL A   1      37.400  21.915  24.995  1.00  0.00     0.002 C 
BRANCH  30  31
ATOM     31  C   UNL A   1      38.523  22.217  25.995  1.00  0.00     0.002 C 
BRANCH  31  32
ATOM     32  C   UNL A   1      39.317  21.013  26.492  1.00  0.00     0.021 C 
BRANCH  32  33
ATOM     33  C   UNL A   1      39.547  19.923  25.459  1.00  0.00     0.116 C 
BRANCH  33  34
ATOM     34  N   UNL A   1      40.573  18.987  25.875  1.00  0.00    -0.352 N 
ATOM     35  C   UNL A   1      41.866  19.230  26.266  1.00  0.00     0.251 C 
ATOM     36  H   UNL A   1      40.303  18.041  25.877  1.00  0.00     0.163 HD
ATOM     37  O   UNL A   1      42.663  18.306  26.370  1.00  0.00    -0.269 OA
BRANCH  35  38
ATOM     38  C   UNL A   1      42.304  20.617  26.538  1.00  0.00     0.039 A 
ATOM     39  C   UNL A   1      42.605  21.454  25.461  1.00  0.00     0.014 A 
ATOM     40  C   UNL A   1      42.421  21.092  27.847  1.00  0.00     0.014 A 
ATOM     41  C   UNL A   1      42.967  22.781  25.698  1.00  0.00     0.010 A 
ATOM     42  C   UNL A   1      42.677  22.439  28.076  1.00  0.00     0.010 A 
ATOM     43  C   UNL A   1      42.972  23.295  27.005  1.00  0.00    -0.014 A 
BRANCH  43  44
ATOM     44  C   UNL A   1      43.313  24.715  27.277  1.00  0.00     0.031 A 
ATOM     45  C   UNL A   1      44.711  25.212  27.027  1.00  0.00     0.074 A 
ATOM     46  C   UNL A   1      42.385  25.539  27.800  1.00  0.00     0.049 A 
ATOM     47  N   UNL A   1      45.227  26.392  27.265  1.00  0.00    -0.248 NA
ATOM     48  C   UNL A   1      45.668  24.244  26.466  1.00  0.00     0.031 C 
ATOM     49  C   UNL A   1      41.009  25.164  28.129  1.00  0.00     0.029 A 
ATOM     50  N   UNL A   1      42.461  26.863  28.155  1.00  0.00    -0.354 N 
ATOM     51  C   UNL A   1      46.564  26.300  26.898  1.00  0.00     0.074 A 
ATOM     52  C   UNL A   1      46.798  24.935  26.484  1.00  0.00     0.031 C 
ATOM     53  C   UNL A   1      40.362  26.239  28.610  1.00  0.00     0.029 A 
ATOM     54  C   UNL A   1      41.289  27.365  28.666  1.00  0.00     0.049 A 
ATOM     55  H   UNL A   1      43.279  27.402  28.054  1.00  0.00     0.167 HD
ATOM     56  C   UNL A   1      47.504  27.274  26.879  1.00  0.00     0.037 A 
ATOM     57  C   UNL A   1      40.997  28.594  29.133  1.00  0.00     0.037 A 
ATOM     58  C   UNL A   1      47.259  28.638  27.264  1.00  0.00     0.049 A 
ATOM     59  C   UNL A   1      42.064  29.656  29.115  1.00  0.00     0.074 A 
ATOM     60  C   UNL A   1      48.125  29.715  27.224  1.00  0.00     0.029 A 
ATOM     61  N   UNL A   1      46.054  29.111  27.766  1.00  0.00    -0.354 N 
ATOM     62  N   UNL A   1      43.305  29.575  28.698  1.00  0.00    -0.248 NA
ATOM     63  C   UNL A   1      41.689  30.981  29.626  1.00  0.00     0.031 C 
ATOM     64  C   UNL A   1      47.464  30.827  27.757  1.00  0.00     0.029 A 
ATOM     65  C   UNL A   1      46.164  30.459  28.066  1.00  0.00     0.049 A 
ATOM     66  H   UNL A   1      45.241  28.570  27.889  1.00  0.00     0.167 HD
ATOM     67  C   UNL A   1      43.848  30.842  28.867  1.00  0.00     0.074 A 
ATOM     68  C   UNL A   1      42.796  31.677  29.409  1.00  0.00     0.031 C 
ATOM     69  C   UNL A   1      45.104  31.277  28.597  1.00  0.00     0.037 A 
BRANCH  56  70
ATOM     70  C   UNL A   1      48.886  26.900  26.423  1.00  0.00     0.064 A 
ATOM     71  C   UNL A   1      49.852  26.407  27.316  1.00  0.00     0.173 A 
ATOM     72  C   UNL A   1      49.243  27.004  25.070  1.00  0.00     0.173 A 
ATOM     73  F   UNL A   1      49.569  26.299  28.624  1.00  0.00    -0.203 F 
ATOM     74  C   UNL A   1      51.128  26.066  26.878  1.00  0.00     0.198 A 
ATOM     75  C   UNL A   1      50.508  26.628  24.629  1.00  0.00     0.198 A 
ATOM     76  F   UNL A   1      48.358  27.464  24.172  1.00  0.00    -0.203 F 
ATOM     77  F   UNL A   1      52.050  25.652  27.759  1.00  0.00    -0.200 F 
ATOM     78  C   UNL A   1      51.454  26.168  25.533  1.00  0.00     0.200 A 
ATOM     79  F   UNL A   1      50.815  26.714  23.327  1.00  0.00    -0.200 F 
ATOM     80  F   UNL A   1      52.679  25.830  25.111  1.00  0.00    -0.200 F 
ENDBRANCH  56  70
BRANCH  57  81
ATOM     81  C   UNL A   1      39.631  28.894  29.641  1.00  0.00     0.064 A 
ATOM     82  C   UNL A   1      38.647  29.423  28.794  1.00  0.00     0.173 A 
ATOM     83  C   UNL A   1      39.284  28.668  30.981  1.00  0.00     0.173 A 
ATOM     84  F   UNL A   1      38.934  29.673  27.509  1.00  0.00    -0.203 F 
ATOM     85  C   UNL A   1      37.377  29.738  29.274  1.00  0.00     0.198 A 
ATOM     86  C   UNL A   1      38.004  28.953  31.452  1.00  0.00     0.198 A 
ATOM     87  F   UNL A   1      40.186  28.157  31.832  1.00  0.00    -0.203 F 
ATOM     88  F   UNL A   1      36.472  30.289  28.455  1.00  0.00    -0.200 F 
ATOM     89  C   UNL A   1      37.054  29.497  30.601  1.00  0.00     0.200 A 
ATOM     90  F   UNL A   1      37.692  28.701  32.731  1.00  0.00    -0.200 F 
ATOM     91  F   UNL A   1      35.831  29.795  31.061  1.00  0.00    -0.200 F 
ENDBRANCH  57  81
BRANCH  69  92
ATOM     92  C   UNL A   1      45.401  32.728  28.844  1.00  0.00     0.064 A 
ATOM     93  C   UNL A   1      45.966  33.173  30.049  1.00  0.00     0.173 A 
ATOM     94  C   UNL A   1      45.157  33.682  27.843  1.00  0.00     0.173 A 
ATOM     95  F   UNL A   1      46.206  32.306  31.043  1.00  0.00    -0.203 F 
ATOM     96  C   UNL A   1      46.251  34.521  30.250  1.00  0.00     0.198 A 
ATOM     97  C   UNL A   1      45.476  35.023  28.035  1.00  0.00     0.198 A 
ATOM     98  F   UNL A   1      44.625  33.308  26.669  1.00  0.00    -0.203 F 
ATOM     99  F   UNL A   1      46.742  34.930  31.428  1.00  0.00    -0.200 F 
ATOM    100  C   UNL A   1      46.015  35.443  29.241  1.00  0.00     0.200 A 
ATOM    101  F   UNL A   1      45.263  35.908  27.051  1.00  0.00    -0.200 F 
ATOM    102  F   UNL A   1      46.299  36.737  29.433  1.00  0.00    -0.200 F 
ENDBRANCH  69  92
ENDBRANCH  43  44
ENDBRANCH  35  38
ENDBRANCH  33  34
ENDBRANCH  32  33
ENDBRANCH  31  32
ENDBRANCH  30  31
ENDBRANCH   1  30
TORSDOF 18
ENDMDL
