MODEL 1
REMARK VINA RESULT:     -13.6      0.000      0.000
REMARK SMILES O=C(C[N@@H+]1CCC[C@@H]1c1nc2ccccc2s1)Nc1sc2c(c1C(=O)NCCCCCCNC(=O)c1ccc(-c3c4nc(c(-c5c(F)c(F)c(F)c(F)c5F)c5ccc([nH]5)c(-c5c(F)c(F)c(F)c(F)c5F)c5nc(c(-c6c(F)c(F)c(F)c(F)c6F)c6ccc3[nH]6)C=C5)C=C4)cc1)CCCC2
REMARK SMILES IDX 28 1 27 2 26 3 24 4 25 5 23 7 19 8 20 9 21 10 22 11 102 12
REMARK SMILES IDX 99 13 101 14 100 15 18 16 1 17 2 18 3 20 4 21 5 22 8 23 6 25
REMARK SMILES IDX 7 26 9 27 10 28 17 29 11 30 16 31 12 32 15 33 13 34 14 35
REMARK SMILES IDX 29 36 30 37 31 38 32 39 33 40 34 41 35 43 36 44 37 45 98 46
REMARK SMILES IDX 38 47 97 48 39 49 40 50 41 51 91 52 42 53 96 54 90 55 92 56
REMARK SMILES IDX 43 57 95 58 89 59 88 60 44 62 76 63 56 64 75 65 57 66 60 67
REMARK SMILES IDX 74 68 93 69 58 70 59 71 73 73 94 74 61 75 45 76 46 77 54 78
REMARK SMILES IDX 47 79 48 80 52 81 55 82 49 83 50 84 53 85 51 86 77 87 78 88
REMARK SMILES IDX 86 89 79 90 80 91 84 92 87 93 81 94 82 95 85 96 83 97 62 98
REMARK SMILES IDX 63 99 71 100 64 101 65 102 69 103 72 104 66 105 67 106
REMARK SMILES IDX 70 107 68 108
REMARK H PARENT 26 6 18 19 4 24 33 42 92 61 60 72
REMARK Flexibility Score: inf
ROOT
ATOM      1  C   UNL A   1      36.634  22.770  24.235  1.00  0.00     0.021 C 
ENDROOT
BRANCH   1   2
ATOM      2  C   UNL A   1      36.181  23.977  25.064  1.00  0.00     0.116 C 
BRANCH   2   3
ATOM      3  N   UNL A   1      35.452  23.525  26.223  1.00  0.00    -0.352 N 
ATOM      4  C   UNL A   1      34.318  22.786  26.402  1.00  0.00     0.254 C 
ATOM      5  O   UNL A   1      34.080  22.513  27.584  1.00  0.00    -0.269 OA
ATOM      6  H   UNL A   1      35.862  23.813  27.071  1.00  0.00     0.163 HD
BRANCH   4   7
ATOM      7  C   UNL A   1      33.462  22.263  25.318  1.00  0.00     0.078 A 
ATOM      8  C   UNL A   1      32.644  23.172  24.630  1.00  0.00     0.109 A 
ATOM      9  S   UNL A   1      31.781  22.468  23.357  1.00  0.00    -0.122 S 
ATOM     10  C   UNL A   1      32.454  20.949  23.636  1.00  0.00     0.011 A 
ATOM     11  C   UNL A   1      33.325  20.928  24.715  1.00  0.00    -0.019 A 
ATOM     12  C   UNL A   1      32.127  19.799  22.731  1.00  0.00     0.047 C 
ATOM     13  C   UNL A   1      33.987  19.625  25.084  1.00  0.00     0.037 C 
ATOM     14  C   UNL A   1      32.445  18.475  23.424  1.00  0.00     0.006 C 
ATOM     15  C   UNL A   1      33.852  18.518  24.024  1.00  0.00     0.005 C 
BRANCH   8  16
ATOM     16  N   UNL A   1      32.517  24.536  24.880  1.00  0.00    -0.312 N 
ATOM     17  O   UNL A   1      31.229  24.606  26.827  1.00  0.00    -0.268 OA
ATOM     18  C   UNL A   1      31.815  25.158  25.894  1.00  0.00     0.280 C 
ATOM     19  H   UNL A   1      32.987  25.133  24.253  1.00  0.00     0.170 HD
BRANCH  18  20
ATOM     20  C   UNL A   1      31.796  26.701  25.829  1.00  0.00     0.364 C 
BRANCH  20  21
ATOM     21  N   UNL A   1      33.063  27.300  25.321  1.00  0.00    -0.319 N 
ATOM     22  C   UNL A   1      34.035  27.372  26.436  1.00  0.00     0.263 C 
ATOM     23  C   UNL A   1      32.959  28.734  24.857  1.00  0.00     0.245 C 
ATOM     24  H   UNL A   1      33.327  26.705  24.535  1.00  0.00     0.349 HD
ATOM     25  C   UNL A   1      33.674  28.642  27.179  1.00  0.00     0.068 C 
ATOM     26  C   UNL A   1      33.389  29.611  26.051  1.00  0.00     0.079 C 
BRANCH  23  27
ATOM     27  C   UNL A   1      31.671  29.221  24.219  1.00  0.00     0.151 A 
ATOM     28  N   UNL A   1      30.921  30.202  24.670  1.00  0.00    -0.235 NA
ATOM     29  S   UNL A   1      31.080  28.475  22.777  1.00  0.00    -0.113 S 
ATOM     30  C   UNL A   1      29.842  30.421  23.843  1.00  0.00     0.082 A 
ATOM     31  C   UNL A   1      29.776  29.598  22.721  1.00  0.00     0.055 A 
ATOM     32  C   UNL A   1      28.851  31.400  24.039  1.00  0.00     0.030 A 
ATOM     33  C   UNL A   1      28.761  29.743  21.761  1.00  0.00     0.021 A 
ATOM     34  C   UNL A   1      27.834  31.552  23.093  1.00  0.00     0.002 A 
ATOM     35  C   UNL A   1      27.797  30.738  21.965  1.00  0.00     0.002 A 
ENDBRANCH  23  27
ENDBRANCH  20  21
ENDBRANCH  18  20
ENDBRANCH   8  16
ENDBRANCH   4   7
ENDBRANCH   2   3
ENDBRANCH   1   2
BRANCH   1  36
ATOM     36  C   UNL A   1      37.471  21.765  25.032  1.00  0.00     0.002 C 
BRANCH  36  37
ATOM     37  C   UNL A   1      37.138  20.299  24.735  1.00  0.00     0.002 C 
BRANCH  37  38
ATOM     38  C   UNL A   1      38.260  19.302  25.043  1.00  0.00     0.021 C 
BRANCH  38  39
ATOM     39  C   UNL A   1      39.436  19.885  25.822  1.00  0.00     0.116 C 
BRANCH  39  40
ATOM     40  N   UNL A   1      40.528  18.932  25.940  1.00  0.00    -0.352 N 
ATOM     41  C   UNL A   1      41.877  19.158  26.050  1.00  0.00     0.251 C 
ATOM     42  H   UNL A   1      40.260  17.985  25.942  1.00  0.00     0.163 HD
ATOM     43  O   UNL A   1      42.673  18.240  25.888  1.00  0.00    -0.269 OA
BRANCH  41  44
ATOM     44  C   UNL A   1      42.374  20.514  26.362  1.00  0.00     0.039 A 
ATOM     45  C   UNL A   1      42.851  21.317  25.323  1.00  0.00     0.014 A 
ATOM     46  C   UNL A   1      42.402  20.977  27.680  1.00  0.00     0.014 A 
ATOM     47  C   UNL A   1      43.312  22.606  25.600  1.00  0.00     0.010 A 
ATOM     48  C   UNL A   1      42.796  22.286  27.946  1.00  0.00     0.010 A 
ATOM     49  C   UNL A   1      43.263  23.110  26.910  1.00  0.00    -0.014 A 
BRANCH  49  50
ATOM     50  C   UNL A   1      43.703  24.492  27.220  1.00  0.00     0.031 A 
ATOM     51  C   UNL A   1      42.708  25.511  27.702  1.00  0.00     0.074 A 
ATOM     52  C   UNL A   1      44.982  24.848  26.995  1.00  0.00     0.049 A 
ATOM     53  N   UNL A   1      42.880  26.785  27.949  1.00  0.00    -0.248 NA
ATOM     54  C   UNL A   1      41.329  25.041  27.903  1.00  0.00     0.031 C 
ATOM     55  C   UNL A   1      46.026  23.963  26.478  1.00  0.00     0.029 A 
ATOM     56  N   UNL A   1      45.618  26.053  27.158  1.00  0.00    -0.354 N 
ATOM     57  C   UNL A   1      41.631  27.271  28.312  1.00  0.00     0.074 A 
ATOM     58  C   UNL A   1      40.701  26.167  28.206  1.00  0.00     0.031 C 
ATOM     59  C   UNL A   1      47.174  24.651  26.377  1.00  0.00     0.029 A 
ATOM     60  C   UNL A   1      46.940  26.032  26.789  1.00  0.00     0.049 A 
ATOM     61  H   UNL A   1      45.168  26.857  27.505  1.00  0.00     0.167 HD
ATOM     62  C   UNL A   1      41.296  28.520  28.716  1.00  0.00     0.037 A 
ATOM     63  C   UNL A   1      47.857  27.017  26.776  1.00  0.00     0.037 A 
ATOM     64  C   UNL A   1      42.233  29.604  28.850  1.00  0.00     0.049 A 
ATOM     65  C   UNL A   1      47.464  28.391  27.248  1.00  0.00     0.074 A 
ATOM     66  C   UNL A   1      42.011  30.884  29.326  1.00  0.00     0.029 A 
ATOM     67  N   UNL A   1      43.574  29.535  28.500  1.00  0.00    -0.354 N 
ATOM     68  N   UNL A   1      46.299  28.820  27.665  1.00  0.00    -0.248 NA
ATOM     69  C   UNL A   1      48.519  29.415  27.256  1.00  0.00     0.031 C 
ATOM     70  C   UNL A   1      43.206  31.604  29.221  1.00  0.00     0.029 A 
ATOM     71  C   UNL A   1      44.186  30.757  28.727  1.00  0.00     0.049 A 
ATOM     72  H   UNL A   1      44.025  28.736  28.143  1.00  0.00     0.167 HD
ATOM     73  C   UNL A   1      46.482  30.152  28.007  1.00  0.00     0.074 A 
ATOM     74  C   UNL A   1      47.877  30.457  27.764  1.00  0.00     0.031 C 
ATOM     75  C   UNL A   1      45.577  31.043  28.482  1.00  0.00     0.037 A 
BRANCH  62  76
ATOM     76  C   UNL A   1      39.854  28.781  29.041  1.00  0.00     0.064 A 
ATOM     77  C   UNL A   1      39.352  28.634  30.343  1.00  0.00     0.173 A 
ATOM     78  C   UNL A   1      38.968  29.214  28.043  1.00  0.00     0.173 A 
ATOM     79  F   UNL A   1      40.153  28.212  31.333  1.00  0.00    -0.203 F 
ATOM     80  C   UNL A   1      38.010  28.879  30.627  1.00  0.00     0.198 A 
ATOM     81  C   UNL A   1      37.635  29.489  28.337  1.00  0.00     0.198 A 
ATOM     82  F   UNL A   1      39.396  29.378  26.782  1.00  0.00    -0.203 F 
ATOM     83  F   UNL A   1      37.543  28.681  31.867  1.00  0.00    -0.200 F 
ATOM     84  C   UNL A   1      37.155  29.313  29.625  1.00  0.00     0.200 A 
ATOM     85  F   UNL A   1      36.813  29.921  27.370  1.00  0.00    -0.200 F 
ATOM     86  F   UNL A   1      35.865  29.554  29.901  1.00  0.00    -0.200 F 
ENDBRANCH  62  76
BRANCH  63  87
ATOM     87  C   UNL A   1      49.241  26.729  26.322  1.00  0.00     0.064 A 
ATOM     88  C   UNL A   1      50.190  26.187  27.200  1.00  0.00     0.173 A 
ATOM     89  C   UNL A   1      49.641  26.975  25.000  1.00  0.00     0.173 A 
ATOM     90  F   UNL A   1      49.860  25.952  28.479  1.00  0.00    -0.203 F 
ATOM     91  C   UNL A   1      51.490  25.916  26.779  1.00  0.00     0.198 A 
ATOM     92  C   UNL A   1      50.934  26.677  24.572  1.00  0.00     0.198 A 
ATOM     93  F   UNL A   1      48.769  27.485  24.118  1.00  0.00    -0.203 F 
ATOM     94  F   UNL A   1      52.387  25.435  27.649  1.00  0.00    -0.200 F 
ATOM     95  C   UNL A   1      51.859  26.155  25.463  1.00  0.00     0.200 A 
ATOM     96  F   UNL A   1      51.281  26.895  23.296  1.00  0.00    -0.200 F 
ATOM     97  F   UNL A   1      53.107  25.887  25.056  1.00  0.00    -0.200 F 
ENDBRANCH  63  87
BRANCH  75  98
ATOM     98  C   UNL A   1      46.071  32.425  28.797  1.00  0.00     0.064 A 
ATOM     99  C   UNL A   1      46.034  33.453  27.846  1.00  0.00     0.173 A 
ATOM    100  C   UNL A   1      46.548  32.732  30.081  1.00  0.00     0.173 A 
ATOM    101  F   UNL A   1      45.602  33.207  26.600  1.00  0.00    -0.203 F 
ATOM    102  C   UNL A   1      46.478  34.735  28.162  1.00  0.00     0.198 A 
ATOM    103  C   UNL A   1      46.962  34.020  30.402  1.00  0.00     0.198 A 
ATOM    104  F   UNL A   1      46.597  31.783  31.029  1.00  0.00    -0.203 F 
ATOM    105  F   UNL A   1      46.476  35.693  27.225  1.00  0.00    -0.200 F 
ATOM    106  C   UNL A   1      46.934  35.019  29.441  1.00  0.00     0.200 A 
ATOM    107  F   UNL A   1      47.390  34.296  31.642  1.00  0.00    -0.200 F 
ATOM    108  F   UNL A   1      47.353  36.255  29.746  1.00  0.00    -0.200 F 
ENDBRANCH  75  98
ENDBRANCH  49  50
ENDBRANCH  41  44
ENDBRANCH  39  40
ENDBRANCH  38  39
ENDBRANCH  37  38
ENDBRANCH  36  37
ENDBRANCH   1  36
TORSDOF 17
ENDMDL
MODEL 2
REMARK VINA RESULT:     -13.2      0.749      6.944
REMARK SMILES O=C(C[N@@H+]1CCC[C@@H]1c1nc2ccccc2s1)Nc1sc2c(c1C(=O)NCCCCCCNC(=O)c1ccc(-c3c4nc(c(-c5c(F)c(F)c(F)c(F)c5F)c5ccc([nH]5)c(-c5c(F)c(F)c(F)c(F)c5F)c5nc(c(-c6c(F)c(F)c(F)c(F)c6F)c6ccc3[nH]6)C=C5)C=C4)cc1)CCCC2
REMARK SMILES IDX 28 1 27 2 26 3 24 4 25 5 23 7 19 8 20 9 21 10 22 11 102 12
REMARK SMILES IDX 99 13 101 14 100 15 18 16 1 17 2 18 3 20 4 21 5 22 8 23 6 25
REMARK SMILES IDX 7 26 9 27 10 28 17 29 11 30 16 31 12 32 15 33 13 34 14 35
REMARK SMILES IDX 29 36 30 37 31 38 32 39 33 40 34 41 35 43 36 44 37 45 98 46
REMARK SMILES IDX 38 47 97 48 39 49 40 50 41 51 91 52 42 53 96 54 90 55 92 56
REMARK SMILES IDX 43 57 95 58 89 59 88 60 44 62 76 63 56 64 75 65 57 66 60 67
REMARK SMILES IDX 74 68 93 69 58 70 59 71 73 73 94 74 61 75 45 76 46 77 54 78
REMARK SMILES IDX 47 79 48 80 52 81 55 82 49 83 50 84 53 85 51 86 77 87 78 88
REMARK SMILES IDX 86 89 79 90 80 91 84 92 87 93 81 94 82 95 85 96 83 97 62 98
REMARK SMILES IDX 63 99 71 100 64 101 65 102 69 103 72 104 66 105 67 106
REMARK SMILES IDX 70 107 68 108
REMARK H PARENT 26 6 18 19 4 24 33 42 92 61 60 72
REMARK Flexibility Score: inf
ROOT
ATOM      1  C   UNL A   1      36.530  22.576  24.349  1.00  0.00     0.021 C 
ENDROOT
BRANCH   1   2
ATOM      2  C   UNL A   1      36.257  23.796  25.237  1.00  0.00     0.116 C 
BRANCH   2   3
ATOM      3  N   UNL A   1      35.434  23.408  26.356  1.00  0.00    -0.352 N 
ATOM      4  C   UNL A   1      34.247  22.743  26.474  1.00  0.00     0.254 C 
ATOM      5  O   UNL A   1      33.923  22.504  27.644  1.00  0.00    -0.269 OA
ATOM      6  H   UNL A   1      35.810  23.682  27.223  1.00  0.00     0.163 HD
BRANCH   4   7
ATOM      7  C   UNL A   1      33.425  22.257  25.348  1.00  0.00     0.078 A 
ATOM      8  C   UNL A   1      32.647  23.194  24.651  1.00  0.00     0.109 A 
ATOM      9  S   UNL A   1      31.823  22.531  23.330  1.00  0.00    -0.122 S 
ATOM     10  C   UNL A   1      32.464  20.997  23.599  1.00  0.00     0.011 A 
ATOM     11  C   UNL A   1      33.293  20.938  24.709  1.00  0.00    -0.019 A 
ATOM     12  C   UNL A   1      32.155  19.873  22.656  1.00  0.00     0.047 C 
ATOM     13  C   UNL A   1      33.922  19.619  25.072  1.00  0.00     0.037 C 
ATOM     14  C   UNL A   1      32.428  18.529  23.329  1.00  0.00     0.006 C 
ATOM     15  C   UNL A   1      33.812  18.538  23.983  1.00  0.00     0.005 C 
BRANCH   8  16
ATOM     16  N   UNL A   1      32.529  24.554  24.927  1.00  0.00    -0.312 N 
ATOM     17  O   UNL A   1      31.034  24.608  26.721  1.00  0.00    -0.268 OA
ATOM     18  C   UNL A   1      31.735  25.168  25.876  1.00  0.00     0.280 C 
ATOM     19  H   UNL A   1      33.082  25.153  24.375  1.00  0.00     0.170 HD
BRANCH  18  20
ATOM     20  C   UNL A   1      31.765  26.712  25.858  1.00  0.00     0.364 C 
BRANCH  20  21
ATOM     21  N   UNL A   1      33.052  27.286  25.371  1.00  0.00    -0.319 N 
ATOM     22  C   UNL A   1      34.006  27.340  26.503  1.00  0.00     0.263 C 
ATOM     23  C   UNL A   1      32.985  28.721  24.904  1.00  0.00     0.245 C 
ATOM     24  H   UNL A   1      33.318  26.685  24.591  1.00  0.00     0.349 HD
ATOM     25  C   UNL A   1      33.657  28.617  27.239  1.00  0.00     0.068 C 
ATOM     26  C   UNL A   1      33.411  29.591  26.105  1.00  0.00     0.079 C 
BRANCH  23  27
ATOM     27  C   UNL A   1      31.717  29.232  24.243  1.00  0.00     0.151 A 
ATOM     28  N   UNL A   1      30.928  30.164  24.729  1.00  0.00    -0.235 NA
ATOM     29  S   UNL A   1      31.208  28.585  22.725  1.00  0.00    -0.113 S 
ATOM     30  C   UNL A   1      29.884  30.426  23.870  1.00  0.00     0.082 A 
ATOM     31  C   UNL A   1      29.885  29.687  22.690  1.00  0.00     0.055 A 
ATOM     32  C   UNL A   1      28.865  31.371  24.090  1.00  0.00     0.030 A 
ATOM     33  C   UNL A   1      28.914  29.886  21.695  1.00  0.00     0.021 A 
ATOM     34  C   UNL A   1      27.890  31.575  23.111  1.00  0.00     0.002 A 
ATOM     35  C   UNL A   1      27.921  30.847  21.926  1.00  0.00     0.002 A 
ENDBRANCH  23  27
ENDBRANCH  20  21
ENDBRANCH  18  20
ENDBRANCH   8  16
ENDBRANCH   4   7
ENDBRANCH   2   3
ENDBRANCH   1   2
BRANCH   1  36
ATOM     36  C   UNL A   1      37.590  21.632  24.924  1.00  0.00     0.002 C 
BRANCH  36  37
ATOM     37  C   UNL A   1      37.294  20.145  24.693  1.00  0.00     0.002 C 
BRANCH  37  38
ATOM     38  C   UNL A   1      38.396  19.184  25.149  1.00  0.00     0.021 C 
BRANCH  38  39
ATOM     39  C   UNL A   1      39.444  19.805  26.071  1.00  0.00     0.116 C 
BRANCH  39  40
ATOM     40  N   UNL A   1      40.671  19.026  26.091  1.00  0.00    -0.352 N 
ATOM     41  C   UNL A   1      41.975  19.451  26.126  1.00  0.00     0.251 C 
ATOM     42  H   UNL A   1      40.549  18.049  26.078  1.00  0.00     0.163 HD
ATOM     43  O   UNL A   1      42.888  18.668  25.886  1.00  0.00    -0.269 OA
BRANCH  41  44
ATOM     44  C   UNL A   1      42.283  20.859  26.452  1.00  0.00     0.039 A 
ATOM     45  C   UNL A   1      42.351  21.246  27.793  1.00  0.00     0.014 A 
ATOM     46  C   UNL A   1      42.466  21.801  25.436  1.00  0.00     0.014 A 
ATOM     47  C   UNL A   1      42.653  22.570  28.116  1.00  0.00     0.010 A 
ATOM     48  C   UNL A   1      42.835  23.105  25.759  1.00  0.00     0.010 A 
ATOM     49  C   UNL A   1      42.923  23.503  27.102  1.00  0.00    -0.014 A 
BRANCH  49  50
ATOM     50  C   UNL A   1      43.292  24.904  27.423  1.00  0.00     0.031 A 
ATOM     51  C   UNL A   1      44.737  25.320  27.438  1.00  0.00     0.074 A 
ATOM     52  C   UNL A   1      42.332  25.780  27.775  1.00  0.00     0.049 A 
ATOM     53  N   UNL A   1      45.264  26.471  27.769  1.00  0.00    -0.248 NA
ATOM     54  C   UNL A   1      45.721  24.295  27.058  1.00  0.00     0.031 C 
ATOM     55  C   UNL A   1      40.901  25.479  27.851  1.00  0.00     0.029 A 
ATOM     56  N   UNL A   1      42.415  27.097  28.151  1.00  0.00    -0.354 N 
ATOM     57  C   UNL A   1      46.638  26.302  27.660  1.00  0.00     0.074 A 
ATOM     58  C   UNL A   1      46.865  24.925  27.278  1.00  0.00     0.031 C 
ATOM     59  C   UNL A   1      40.241  26.582  28.237  1.00  0.00     0.029 A 
ATOM     60  C   UNL A   1      41.202  27.656  28.468  1.00  0.00     0.049 A 
ATOM     61  H   UNL A   1      43.265  27.593  28.191  1.00  0.00     0.167 HD
ATOM     62  C   UNL A   1      47.619  27.219  27.842  1.00  0.00     0.037 A 
ATOM     63  C   UNL A   1      40.901  28.893  28.905  1.00  0.00     0.037 A 
ATOM     64  C   UNL A   1      47.382  28.596  28.190  1.00  0.00     0.049 A 
ATOM     65  C   UNL A   1      42.006  29.899  29.081  1.00  0.00     0.074 A 
ATOM     66  C   UNL A   1      48.301  29.623  28.319  1.00  0.00     0.029 A 
ATOM     67  N   UNL A   1      46.135  29.136  28.469  1.00  0.00    -0.354 N 
ATOM     68  N   UNL A   1      43.295  29.751  28.897  1.00  0.00    -0.248 NA
ATOM     69  C   UNL A   1      41.612  31.247  29.514  1.00  0.00     0.031 C 
ATOM     70  C   UNL A   1      47.615  30.774  28.722  1.00  0.00     0.029 A 
ATOM     71  C   UNL A   1      46.263  30.477  28.794  1.00  0.00     0.049 A 
ATOM     72  H   UNL A   1      45.286  28.640  28.440  1.00  0.00     0.167 HD
ATOM     73  C   UNL A   1      43.863  30.987  29.169  1.00  0.00     0.074 A 
ATOM     74  C   UNL A   1      42.777  31.880  29.514  1.00  0.00     0.031 C 
ATOM     75  C   UNL A   1      45.169  31.352  29.133  1.00  0.00     0.037 A 
BRANCH  62  76
ATOM     76  C   UNL A   1      49.038  26.762  27.670  1.00  0.00     0.064 A 
ATOM     77  C   UNL A   1      49.625  26.639  26.401  1.00  0.00     0.173 A 
ATOM     78  C   UNL A   1      49.832  26.472  28.789  1.00  0.00     0.173 A 
ATOM     79  F   UNL A   1      48.908  26.893  25.296  1.00  0.00    -0.203 F 
ATOM     80  C   UNL A   1      50.944  26.211  26.259  1.00  0.00     0.198 A 
ATOM     81  C   UNL A   1      51.159  26.075  28.645  1.00  0.00     0.198 A 
ATOM     82  F   UNL A   1      49.324  26.579  30.026  1.00  0.00    -0.203 F 
ATOM     83  F   UNL A   1      51.466  26.051  25.035  1.00  0.00    -0.200 F 
ATOM     84  C   UNL A   1      51.712  25.937  27.381  1.00  0.00     0.200 A 
ATOM     85  F   UNL A   1      51.903  25.823  29.731  1.00  0.00    -0.200 F 
ATOM     86  F   UNL A   1      52.981  25.531  27.243  1.00  0.00    -0.200 F 
ENDBRANCH  62  76
BRANCH  63  87
ATOM     87  C   UNL A   1      39.486  29.252  29.183  1.00  0.00     0.064 A 
ATOM     88  C   UNL A   1      38.622  29.631  28.146  1.00  0.00     0.173 A 
ATOM     89  C   UNL A   1      38.965  29.210  30.484  1.00  0.00     0.173 A 
ATOM     90  F   UNL A   1      39.080  29.703  26.887  1.00  0.00    -0.203 F 
ATOM     91  C   UNL A   1      37.295  29.969  28.401  1.00  0.00     0.198 A 
ATOM     92  C   UNL A   1      37.630  29.522  30.735  1.00  0.00     0.198 A 
ATOM     93  F   UNL A   1      39.748  28.846  31.510  1.00  0.00    -0.203 F 
ATOM     94  F   UNL A   1      36.502  30.366  27.397  1.00  0.00    -0.200 F 
ATOM     95  C   UNL A   1      36.798  29.908  29.695  1.00  0.00     0.200 A 
ATOM     96  F   UNL A   1      37.150  29.446  31.984  1.00  0.00    -0.200 F 
ATOM     97  F   UNL A   1      35.520  30.226  29.939  1.00  0.00    -0.200 F 
ENDBRANCH  63  87
BRANCH  75  98
ATOM     98  C   UNL A   1      45.493  32.783  29.449  1.00  0.00     0.064 A 
ATOM     99  C   UNL A   1      45.480  33.775  28.459  1.00  0.00     0.173 A 
ATOM    100  C   UNL A   1      45.776  33.171  30.768  1.00  0.00     0.173 A 
ATOM    101  F   UNL A   1      45.230  33.453  27.182  1.00  0.00    -0.203 F 
ATOM    102  C   UNL A   1      45.763  35.102  28.774  1.00  0.00     0.198 A 
ATOM    103  C   UNL A   1      46.028  34.502  31.084  1.00  0.00     0.198 A 
ATOM    104  F   UNL A   1      45.794  32.259  31.752  1.00  0.00    -0.203 F 
ATOM    105  F   UNL A   1      45.790  36.028  27.806  1.00  0.00    -0.200 F 
ATOM    106  C   UNL A   1      46.028  35.466  30.087  1.00  0.00     0.200 A 
ATOM    107  F   UNL A   1      46.271  34.854  32.354  1.00  0.00    -0.200 F 
ATOM    108  F   UNL A   1      46.291  36.744  30.389  1.00  0.00    -0.200 F 
ENDBRANCH  75  98
ENDBRANCH  49  50
ENDBRANCH  41  44
ENDBRANCH  39  40
ENDBRANCH  38  39
ENDBRANCH  37  38
ENDBRANCH  36  37
ENDBRANCH   1  36
TORSDOF 17
ENDMDL
MODEL 3
REMARK VINA RESULT:     -12.7      0.740      1.758
REMARK SMILES O=C(C[N@@H+]1CCC[C@@H]1c1nc2ccccc2s1)Nc1sc2c(c1C(=O)NCCCCCCNC(=O)c1ccc(-c3c4nc(c(-c5c(F)c(F)c(F)c(F)c5F)c5ccc([nH]5)c(-c5c(F)c(F)c(F)c(F)c5F)c5nc(c(-c6c(F)c(F)c(F)c(F)c6F)c6ccc3[nH]6)C=C5)C=C4)cc1)CCCC2
REMARK SMILES IDX 28 1 27 2 26 3 24 4 25 5 23 7 19 8 20 9 21 10 22 11 102 12
REMARK SMILES IDX 99 13 101 14 100 15 18 16 1 17 2 18 3 20 4 21 5 22 8 23 6 25
REMARK SMILES IDX 7 26 9 27 10 28 17 29 11 30 16 31 12 32 15 33 13 34 14 35
REMARK SMILES IDX 29 36 30 37 31 38 32 39 33 40 34 41 35 43 36 44 37 45 98 46
REMARK SMILES IDX 38 47 97 48 39 49 40 50 41 51 91 52 42 53 96 54 90 55 92 56
REMARK SMILES IDX 43 57 95 58 89 59 88 60 44 62 76 63 56 64 75 65 57 66 60 67
REMARK SMILES IDX 74 68 93 69 58 70 59 71 73 73 94 74 61 75 45 76 46 77 54 78
REMARK SMILES IDX 47 79 48 80 52 81 55 82 49 83 50 84 53 85 51 86 77 87 78 88
REMARK SMILES IDX 86 89 79 90 80 91 84 92 87 93 81 94 82 95 85 96 83 97 62 98
REMARK SMILES IDX 63 99 71 100 64 101 65 102 69 103 72 104 66 105 67 106
REMARK SMILES IDX 70 107 68 108
REMARK H PARENT 26 6 18 19 4 24 33 42 92 61 60 72
REMARK Flexibility Score: inf
ROOT
ATOM      1  C   UNL A   1      35.564  22.290  25.941  1.00  0.00     0.021 C 
ENDROOT
BRANCH   1   2
ATOM      2  C   UNL A   1      35.097  21.769  27.306  1.00  0.00     0.116 C 
BRANCH   2   3
ATOM      3  N   UNL A   1      33.831  22.368  27.648  1.00  0.00    -0.352 N 
ATOM      4  C   UNL A   1      32.646  22.524  26.988  1.00  0.00     0.254 C 
ATOM      5  O   UNL A   1      31.744  23.002  27.685  1.00  0.00    -0.269 OA
ATOM      6  H   UNL A   1      33.818  22.748  28.556  1.00  0.00     0.163 HD
BRANCH   4   7
ATOM      7  C   UNL A   1      32.383  22.103  25.596  1.00  0.00     0.078 A 
ATOM      8  C   UNL A   1      32.072  23.099  24.657  1.00  0.00     0.109 A 
ATOM      9  S   UNL A   1      31.882  22.502  23.086  1.00  0.00    -0.122 S 
ATOM     10  C   UNL A   1      32.218  20.921  23.561  1.00  0.00     0.011 A 
ATOM     11  C   UNL A   1      32.454  20.798  24.922  1.00  0.00    -0.019 A 
ATOM     12  C   UNL A   1      32.282  19.823  22.541  1.00  0.00     0.047 C 
ATOM     13  C   UNL A   1      32.754  19.432  25.483  1.00  0.00     0.037 C 
ATOM     14  C   UNL A   1      32.124  18.463  23.219  1.00  0.00     0.006 C 
ATOM     15  C   UNL A   1      33.064  18.361  24.423  1.00  0.00     0.005 C 
BRANCH   8  16
ATOM     16  N   UNL A   1      31.944  24.464  24.898  1.00  0.00    -0.312 N 
ATOM     17  O   UNL A   1      29.888  24.625  25.993  1.00  0.00    -0.268 OA
ATOM     18  C   UNL A   1      30.890  25.134  25.489  1.00  0.00     0.280 C 
ATOM     19  H   UNL A   1      32.702  25.024  24.610  1.00  0.00     0.170 HD
BRANCH  18  20
ATOM     20  C   UNL A   1      31.022  26.671  25.517  1.00  0.00     0.364 C 
BRANCH  20  21
ATOM     21  N   UNL A   1      32.392  27.167  25.201  1.00  0.00    -0.319 N 
ATOM     22  C   UNL A   1      33.223  27.076  26.423  1.00  0.00     0.263 C 
ATOM     23  C   UNL A   1      32.481  28.628  24.827  1.00  0.00     0.245 C 
ATOM     24  H   UNL A   1      32.692  26.594  24.412  1.00  0.00     0.349 HD
ATOM     25  C   UNL A   1      32.895  28.332  27.205  1.00  0.00     0.068 C 
ATOM     26  C   UNL A   1      32.843  29.388  26.120  1.00  0.00     0.079 C 
BRANCH  23  27
ATOM     27  C   UNL A   1      31.332  29.279  24.079  1.00  0.00     0.151 A 
ATOM     28  N   UNL A   1      30.533  30.203  24.564  1.00  0.00    -0.235 NA
ATOM     29  S   UNL A   1      30.985  28.819  22.450  1.00  0.00    -0.113 S 
ATOM     30  C   UNL A   1      29.618  30.613  23.621  1.00  0.00     0.082 A 
ATOM     31  C   UNL A   1      29.731  29.997  22.376  1.00  0.00     0.055 A 
ATOM     32  C   UNL A   1      28.626  31.591  23.819  1.00  0.00     0.030 A 
ATOM     33  C   UNL A   1      28.901  30.354  21.301  1.00  0.00     0.021 A 
ATOM     34  C   UNL A   1      27.791  31.951  22.758  1.00  0.00     0.002 A 
ATOM     35  C   UNL A   1      27.934  31.345  21.514  1.00  0.00     0.002 A 
ENDBRANCH  23  27
ENDBRANCH  20  21
ENDBRANCH  18  20
ENDBRANCH   8  16
ENDBRANCH   4   7
ENDBRANCH   2   3
ENDBRANCH   1   2
BRANCH   1  36
ATOM     36  C   UNL A   1      35.950  21.175  24.965  1.00  0.00     0.002 C 
BRANCH  36  37
ATOM     37  C   UNL A   1      37.409  21.234  24.495  1.00  0.00     0.002 C 
BRANCH  37  38
ATOM     38  C   UNL A   1      38.237  19.978  24.787  1.00  0.00     0.021 C 
BRANCH  38  39
ATOM     39  C   UNL A   1      39.055  20.038  26.075  1.00  0.00     0.116 C 
BRANCH  39  40
ATOM     40  N   UNL A   1      40.208  19.153  26.020  1.00  0.00    -0.352 N 
ATOM     41  C   UNL A   1      41.545  19.461  26.017  1.00  0.00     0.251 C 
ATOM     42  H   UNL A   1      39.999  18.192  25.980  1.00  0.00     0.163 HD
ATOM     43  O   UNL A   1      42.375  18.611  25.715  1.00  0.00    -0.269 OA
BRANCH  41  44
ATOM     44  C   UNL A   1      41.989  20.824  26.376  1.00  0.00     0.039 A 
ATOM     45  C   UNL A   1      42.274  21.115  27.712  1.00  0.00     0.014 A 
ATOM     46  C   UNL A   1      42.087  21.821  25.401  1.00  0.00     0.014 A 
ATOM     47  C   UNL A   1      42.706  22.395  28.065  1.00  0.00     0.010 A 
ATOM     48  C   UNL A   1      42.584  23.076  25.742  1.00  0.00     0.010 A 
ATOM     49  C   UNL A   1      42.889  23.378  27.078  1.00  0.00    -0.014 A 
BRANCH  49  50
ATOM     50  C   UNL A   1      43.392  24.730  27.423  1.00  0.00     0.031 A 
ATOM     51  C   UNL A   1      42.459  25.759  27.999  1.00  0.00     0.074 A 
ATOM     52  C   UNL A   1      44.670  25.054  27.147  1.00  0.00     0.049 A 
ATOM     53  N   UNL A   1      42.688  27.014  28.290  1.00  0.00    -0.248 NA
ATOM     54  C   UNL A   1      41.076  25.326  28.252  1.00  0.00     0.031 C 
ATOM     55  C   UNL A   1      45.655  24.159  26.538  1.00  0.00     0.029 A 
ATOM     56  N   UNL A   1      45.355  26.230  27.327  1.00  0.00    -0.354 N 
ATOM     57  C   UNL A   1      41.476  27.524  28.738  1.00  0.00     0.074 A 
ATOM     58  C   UNL A   1      40.505  26.457  28.635  1.00  0.00     0.031 C 
ATOM     59  C   UNL A   1      46.819  24.814  26.407  1.00  0.00     0.029 A 
ATOM     60  C   UNL A   1      46.655  26.182  26.888  1.00  0.00     0.049 A 
ATOM     61  H   UNL A   1      44.951  27.032  27.731  1.00  0.00     0.167 HD
ATOM     62  C   UNL A   1      41.206  28.764  29.212  1.00  0.00     0.037 A 
ATOM     63  C   UNL A   1      47.603  27.137  26.870  1.00  0.00     0.037 A 
ATOM     64  C   UNL A   1      42.186  29.810  29.342  1.00  0.00     0.049 A 
ATOM     65  C   UNL A   1      47.283  28.500  27.419  1.00  0.00     0.074 A 
ATOM     66  C   UNL A   1      42.032  31.075  29.884  1.00  0.00     0.029 A 
ATOM     67  N   UNL A   1      43.504  29.713  28.920  1.00  0.00    -0.354 N 
ATOM     68  N   UNL A   1      46.156  28.948  27.914  1.00  0.00    -0.248 NA
ATOM     69  C   UNL A   1      48.372  29.488  27.415  1.00  0.00     0.031 C 
ATOM     70  C   UNL A   1      43.244  31.759  29.747  1.00  0.00     0.029 A 
ATOM     71  C   UNL A   1      44.168  30.904  29.167  1.00  0.00     0.049 A 
ATOM     72  H   UNL A   1      43.908  28.917  28.507  1.00  0.00     0.167 HD
ATOM     73  C   UNL A   1      46.402  30.257  28.302  1.00  0.00     0.074 A 
ATOM     74  C   UNL A   1      47.793  30.527  28.000  1.00  0.00     0.031 C 
ATOM     75  C   UNL A   1      45.554  31.155  28.861  1.00  0.00     0.037 A 
BRANCH  62  76
ATOM     76  C   UNL A   1      39.792  29.058  29.623  1.00  0.00     0.064 A 
ATOM     77  C   UNL A   1      38.819  29.453  28.691  1.00  0.00     0.173 A 
ATOM     78  C   UNL A   1      39.396  28.914  30.961  1.00  0.00     0.173 A 
ATOM     79  F   UNL A   1      39.147  29.617  27.400  1.00  0.00    -0.203 F 
ATOM     80  C   UNL A   1      37.512  29.724  29.090  1.00  0.00     0.198 A 
ATOM     81  C   UNL A   1      38.081  29.154  31.350  1.00  0.00     0.198 A 
ATOM     82  F   UNL A   1      40.283  28.533  31.892  1.00  0.00    -0.203 F 
ATOM     83  F   UNL A   1      36.614  30.150  28.191  1.00  0.00    -0.200 F 
ATOM     84  C   UNL A   1      37.142  29.567  30.417  1.00  0.00     0.200 A 
ATOM     85  F   UNL A   1      37.723  28.991  32.631  1.00  0.00    -0.200 F 
ATOM     86  F   UNL A   1      35.883  29.823  30.798  1.00  0.00    -0.200 F 
ENDBRANCH  62  76
BRANCH  63  87
ATOM     87  C   UNL A   1      48.952  26.824  26.331  1.00  0.00     0.064 A 
ATOM     88  C   UNL A   1      49.277  27.103  24.996  1.00  0.00     0.173 A 
ATOM     89  C   UNL A   1      49.947  26.256  27.140  1.00  0.00     0.173 A 
ATOM     90  F   UNL A   1      48.353  27.629  24.179  1.00  0.00    -0.203 F 
ATOM     91  C   UNL A   1      50.540  26.810  24.487  1.00  0.00     0.198 A 
ATOM     92  C   UNL A   1      51.219  25.990  26.637  1.00  0.00     0.198 A 
ATOM     93  F   UNL A   1      49.689  25.978  28.426  1.00  0.00    -0.203 F 
ATOM     94  F   UNL A   1      50.812  27.050  23.197  1.00  0.00    -0.200 F 
ATOM     95  C   UNL A   1      51.512  26.260  25.309  1.00  0.00     0.200 A 
ATOM     96  F   UNL A   1      52.160  25.472  27.439  1.00  0.00    -0.200 F 
ATOM     97  F   UNL A   1      52.730  25.987  24.821  1.00  0.00    -0.200 F 
ENDBRANCH  63  87
BRANCH  75  98
ATOM     98  C   UNL A   1      46.112  32.505  29.208  1.00  0.00     0.064 A 
ATOM     99  C   UNL A   1      46.063  33.574  28.304  1.00  0.00     0.173 A 
ATOM    100  C   UNL A   1      46.662  32.740  30.478  1.00  0.00     0.173 A 
ATOM    101  F   UNL A   1      45.561  33.397  27.073  1.00  0.00    -0.203 F 
ATOM    102  C   UNL A   1      46.567  34.826  28.650  1.00  0.00     0.198 A 
ATOM    103  C   UNL A   1      47.136  33.999  30.831  1.00  0.00     0.198 A 
ATOM    104  F   UNL A   1      46.724  31.750  31.381  1.00  0.00    -0.203 F 
ATOM    105  F   UNL A   1      46.552  35.824  27.755  1.00  0.00    -0.200 F 
ATOM    106  C   UNL A   1      47.095  35.039  29.915  1.00  0.00     0.200 A 
ATOM    107  F   UNL A   1      47.633  34.207  32.058  1.00  0.00    -0.200 F 
ATOM    108  F   UNL A   1      47.571  36.246  30.249  1.00  0.00    -0.200 F 
ENDBRANCH  75  98
ENDBRANCH  49  50
ENDBRANCH  41  44
ENDBRANCH  39  40
ENDBRANCH  38  39
ENDBRANCH  37  38
ENDBRANCH  36  37
ENDBRANCH   1  36
TORSDOF 17
ENDMDL
