MODEL 1
REMARK VINA RESULT:     -12.8      0.000      0.000
REMARK SMILES Cc1nc(N2CCN(c3ccccc3)CC2)nc(OCC(=O)NCCCCCCNC(=O)c2ccc(-c3c4nc(c(-c5c(F)c(F)c(F)c(F)c5F)c5ccc([nH]5)c(-c5c(F)c(F)c(F)c(F)c5F)c5nc(c(-c6c(F)c(F)c(F)c(F)c6F)c6ccc3[nH]6)C=C5)C=C4)cc2)c1C
REMARK SMILES IDX 25 1 24 2 23 3 21 4 22 5 20 7 19 8 18 9 1 10 2 11 3 12 96 13
REMARK SMILES IDX 4 14 97 15 17 16 5 17 6 18 16 19 7 20 15 21 8 22 9 23 10 24
REMARK SMILES IDX 14 25 11 26 13 27 12 28 26 29 27 30 28 31 29 32 30 33 31 34
REMARK SMILES IDX 32 36 33 37 34 38 95 39 35 40 94 41 36 42 37 43 38 44 88 45
REMARK SMILES IDX 39 46 93 47 87 48 89 49 40 50 92 51 86 52 85 53 41 55 73 56
REMARK SMILES IDX 53 57 72 58 54 59 57 60 71 61 90 62 55 63 56 64 70 66 91 67
REMARK SMILES IDX 58 68 42 69 43 70 51 71 44 72 45 73 49 74 52 75 46 76 47 77
REMARK SMILES IDX 50 78 48 79 74 80 75 81 83 82 76 83 77 84 81 85 84 86 78 87
REMARK SMILES IDX 79 88 82 89 80 90 59 91 60 92 68 93 61 94 62 95 66 96 69 97
REMARK SMILES IDX 63 98 64 99 67 100 65 101
REMARK H PARENT 23 6 30 35 89 54 57 65
REMARK Flexibility Score: inf
ROOT
ATOM      1  C   UNL A   1      33.100  28.624  26.437  1.00  0.00     0.021 C 
ENDROOT
BRANCH   1   2
ATOM      2  C   UNL A   1      31.772  27.872  26.387  1.00  0.00     0.116 C 
BRANCH   2   3
ATOM      3  N   UNL A   1      31.886  26.513  26.875  1.00  0.00    -0.353 N 
ATOM      4  C   UNL A   1      31.009  25.479  26.741  1.00  0.00     0.258 C 
ATOM      5  O   UNL A   1      31.364  24.359  27.114  1.00  0.00    -0.271 OA
ATOM      6  H   UNL A   1      32.710  26.308  27.373  1.00  0.00     0.163 HD
BRANCH   4   7
ATOM      7  C   UNL A   1      29.645  25.701  26.082  1.00  0.00     0.331 C 
BRANCH   7   8
ATOM      8  O   UNL A   1      29.557  25.823  24.688  1.00  0.00    -0.467 OA
BRANCH   8   9
ATOM      9  C   UNL A   1      30.490  25.437  23.793  1.00  0.00     0.221 A 
ATOM     10  C   UNL A   1      32.952  26.015  21.008  1.00  0.00     0.067 C 
ATOM     11  C   UNL A   1      32.124  25.420  22.114  1.00  0.00     0.050 A 
ATOM     12  N   UNL A   1      32.411  24.130  22.381  1.00  0.00    -0.218 NA
ATOM     13  C   UNL A   1      31.160  26.155  22.814  1.00  0.00     0.033 A 
ATOM     14  C   UNL A   1      31.685  23.513  23.311  1.00  0.00     0.229 A 
ATOM     15  C   UNL A   1      30.985  27.610  22.518  1.00  0.00     0.052 C 
ATOM     16  N   UNL A   1      30.720  24.124  23.995  1.00  0.00    -0.177 NA
BRANCH  14  17
ATOM     17  N   UNL A   1      31.967  22.213  23.652  1.00  0.00    -0.337 N 
ATOM     18  C   UNL A   1      32.692  21.965  24.896  1.00  0.00     0.141 C 
ATOM     19  C   UNL A   1      32.290  21.319  22.536  1.00  0.00     0.141 C 
ATOM     20  C   UNL A   1      32.456  20.501  25.337  1.00  0.00     0.138 C 
ATOM     21  C   UNL A   1      32.144  19.839  22.960  1.00  0.00     0.138 C 
ATOM     22  N   UNL A   1      32.826  19.587  24.245  1.00  0.00    -0.368 N 
BRANCH  22  23
ATOM     23  C   UNL A   1      33.195  18.284  24.529  1.00  0.00     0.037 A 
ATOM     24  C   UNL A   1      34.229  17.622  23.859  1.00  0.00     0.026 A 
ATOM     25  C   UNL A   1      32.490  17.578  25.513  1.00  0.00     0.026 A 
ATOM     26  C   UNL A   1      34.541  16.291  24.155  1.00  0.00     0.002 A 
ATOM     27  C   UNL A   1      32.784  16.245  25.802  1.00  0.00     0.002 A 
ATOM     28  C   UNL A   1      33.812  15.599  25.120  1.00  0.00     0.000 A 
ENDBRANCH  22  23
ENDBRANCH  14  17
ENDBRANCH   8   9
ENDBRANCH   7   8
ENDBRANCH   4   7
ENDBRANCH   2   3
ENDBRANCH   1   2
BRANCH   1  29
ATOM     29  C   UNL A   1      32.999  30.154  26.347  1.00  0.00     0.002 C 
BRANCH  29  30
ATOM     30  C   UNL A   1      31.595  30.730  26.133  1.00  0.00     0.002 C 
BRANCH  30  31
ATOM     31  C   UNL A   1      31.395  32.180  26.575  1.00  0.00     0.021 C 
BRANCH  31  32
ATOM     32  C   UNL A   1      32.599  32.821  27.254  1.00  0.00     0.116 C 
BRANCH  32  33
ATOM     33  N   UNL A   1      32.364  34.208  27.617  1.00  0.00    -0.352 N 
ATOM     34  C   UNL A   1      32.965  34.971  28.591  1.00  0.00     0.251 C 
ATOM     35  H   UNL A   1      31.673  34.670  27.088  1.00  0.00     0.163 HD
ATOM     36  O   UNL A   1      32.535  36.083  28.863  1.00  0.00    -0.269 OA
BRANCH  34  37
ATOM     37  C   UNL A   1      34.125  34.430  29.334  1.00  0.00     0.039 A 
ATOM     38  C   UNL A   1      33.910  33.846  30.585  1.00  0.00     0.014 A 
ATOM     39  C   UNL A   1      35.417  34.497  28.803  1.00  0.00     0.014 A 
ATOM     40  C   UNL A   1      34.979  33.270  31.274  1.00  0.00     0.010 A 
ATOM     41  C   UNL A   1      36.468  33.860  29.456  1.00  0.00     0.010 A 
ATOM     42  C   UNL A   1      36.261  33.244  30.699  1.00  0.00    -0.014 A 
BRANCH  42  43
ATOM     43  C   UNL A   1      37.395  32.584  31.394  1.00  0.00     0.031 A 
ATOM     44  C   UNL A   1      38.128  31.453  30.730  1.00  0.00     0.074 A 
ATOM     45  C   UNL A   1      37.740  32.978  32.634  1.00  0.00     0.049 A 
ATOM     46  N   UNL A   1      39.122  30.731  31.186  1.00  0.00    -0.248 NA
ATOM     47  C   UNL A   1      37.675  31.067  29.384  1.00  0.00     0.031 C 
ATOM     48  C   UNL A   1      37.082  34.040  33.397  1.00  0.00     0.029 A 
ATOM     49  N   UNL A   1      38.731  32.532  33.474  1.00  0.00    -0.354 N 
ATOM     50  C   UNL A   1      39.407  29.811  30.186  1.00  0.00     0.074 A 
ATOM     51  C   UNL A   1      38.447  30.022  29.126  1.00  0.00     0.031 C 
ATOM     52  C   UNL A   1      37.706  34.186  34.575  1.00  0.00     0.029 A 
ATOM     53  C   UNL A   1      38.786  33.208  34.669  1.00  0.00     0.049 A 
ATOM     54  H   UNL A   1      39.344  31.797  33.243  1.00  0.00     0.167 HD
ATOM     55  C   UNL A   1      40.402  28.894  30.145  1.00  0.00     0.037 A 
ATOM     56  C   UNL A   1      39.614  33.054  35.720  1.00  0.00     0.037 A 
ATOM     57  C   UNL A   1      41.370  28.700  31.191  1.00  0.00     0.049 A 
ATOM     58  C   UNL A   1      40.692  32.006  35.661  1.00  0.00     0.074 A 
ATOM     59  C   UNL A   1      42.442  27.826  31.221  1.00  0.00     0.029 A 
ATOM     60  N   UNL A   1      41.383  29.392  32.392  1.00  0.00    -0.354 N 
ATOM     61  N   UNL A   1      40.987  31.179  34.689  1.00  0.00    -0.248 NA
ATOM     62  C   UNL A   1      41.551  31.868  36.846  1.00  0.00     0.031 C 
ATOM     63  C   UNL A   1      43.079  27.959  32.459  1.00  0.00     0.029 A 
ATOM     64  C   UNL A   1      42.432  28.948  33.181  1.00  0.00     0.049 A 
ATOM     65  H   UNL A   1      40.742  30.095  32.648  1.00  0.00     0.167 HD
ATOM     66  C   UNL A   1      42.076  30.440  35.131  1.00  0.00     0.074 A 
ATOM     67  C   UNL A   1      42.399  30.926  36.456  1.00  0.00     0.031 C 
ATOM     68  C   UNL A   1      42.744  29.446  34.496  1.00  0.00     0.037 A 
BRANCH  55  69
ATOM     69  C   UNL A   1      40.510  28.040  28.916  1.00  0.00     0.064 A 
ATOM     70  C   UNL A   1      39.820  26.823  28.810  1.00  0.00     0.173 A 
ATOM     71  C   UNL A   1      41.261  28.467  27.811  1.00  0.00     0.173 A 
ATOM     72  F   UNL A   1      39.097  26.365  29.844  1.00  0.00    -0.203 F 
ATOM     73  C   UNL A   1      39.892  26.056  27.650  1.00  0.00     0.198 A 
ATOM     74  C   UNL A   1      41.309  27.711  26.642  1.00  0.00     0.198 A 
ATOM     75  F   UNL A   1      41.936  29.625  27.858  1.00  0.00    -0.203 F 
ATOM     76  F   UNL A   1      39.254  24.879  27.588  1.00  0.00    -0.200 F 
ATOM     77  C   UNL A   1      40.628  26.505  26.565  1.00  0.00     0.200 A 
ATOM     78  F   UNL A   1      42.009  28.151  25.588  1.00  0.00    -0.200 F 
ATOM     79  F   UNL A   1      40.685  25.772  25.445  1.00  0.00    -0.200 F 
ENDBRANCH  55  69
BRANCH  56  80
ATOM     80  C   UNL A   1      39.481  33.947  36.901  1.00  0.00     0.064 A 
ATOM     81  C   UNL A   1      38.766  33.533  38.033  1.00  0.00     0.173 A 
ATOM     82  C   UNL A   1      40.077  35.216  36.933  1.00  0.00     0.173 A 
ATOM     83  F   UNL A   1      38.162  32.336  38.043  1.00  0.00    -0.203 F 
ATOM     84  C   UNL A   1      38.645  34.358  39.150  1.00  0.00     0.198 A 
ATOM     85  C   UNL A   1      39.976  36.030  38.059  1.00  0.00     0.198 A 
ATOM     86  F   UNL A   1      40.773  35.658  35.875  1.00  0.00    -0.203 F 
ATOM     87  F   UNL A   1      37.928  33.951  40.207  1.00  0.00    -0.200 F 
ATOM     88  C   UNL A   1      39.256  35.602  39.165  1.00  0.00     0.200 A 
ATOM     89  F   UNL A   1      40.579  37.226  38.075  1.00  0.00    -0.200 F 
ATOM     90  F   UNL A   1      39.148  36.392  40.243  1.00  0.00    -0.200 F 
ENDBRANCH  56  80
BRANCH  68  91
ATOM     91  C   UNL A   1      43.903  28.819  35.213  1.00  0.00     0.064 A 
ATOM     92  C   UNL A   1      45.207  29.315  35.068  1.00  0.00     0.173 A 
ATOM     93  C   UNL A   1      43.695  27.767  36.119  1.00  0.00     0.173 A 
ATOM     94  F   UNL A   1      45.458  30.310  34.206  1.00  0.00    -0.203 F 
ATOM     95  C   UNL A   1      46.262  28.775  35.799  1.00  0.00     0.198 A 
ATOM     96  C   UNL A   1      44.747  27.249  36.868  1.00  0.00     0.198 A 
ATOM     97  F   UNL A   1      42.465  27.263  36.298  1.00  0.00    -0.203 F 
ATOM     98  F   UNL A   1      47.504  29.245  35.625  1.00  0.00    -0.200 F 
ATOM     99  C   UNL A   1      46.029  27.751  36.706  1.00  0.00     0.200 A 
ATOM    100  F   UNL A   1      44.518  26.270  37.755  1.00  0.00    -0.200 F 
ATOM    101  F   UNL A   1      47.042  27.247  37.423  1.00  0.00    -0.200 F 
ENDBRANCH  68  91
ENDBRANCH  42  43
ENDBRANCH  34  37
ENDBRANCH  32  33
ENDBRANCH  31  32
ENDBRANCH  30  31
ENDBRANCH  29  30
ENDBRANCH   1  29
TORSDOF 17
ENDMDL
MODEL 2
REMARK VINA RESULT:     -12.7      1.790      2.430
REMARK SMILES Cc1nc(N2CCN(c3ccccc3)CC2)nc(OCC(=O)NCCCCCCNC(=O)c2ccc(-c3c4nc(c(-c5c(F)c(F)c(F)c(F)c5F)c5ccc([nH]5)c(-c5c(F)c(F)c(F)c(F)c5F)c5nc(c(-c6c(F)c(F)c(F)c(F)c6F)c6ccc3[nH]6)C=C5)C=C4)cc2)c1C
REMARK SMILES IDX 25 1 24 2 23 3 21 4 22 5 20 7 19 8 18 9 1 10 2 11 3 12 96 13
REMARK SMILES IDX 4 14 97 15 17 16 5 17 6 18 16 19 7 20 15 21 8 22 9 23 10 24
REMARK SMILES IDX 14 25 11 26 13 27 12 28 26 29 27 30 28 31 29 32 30 33 31 34
REMARK SMILES IDX 32 36 33 37 34 38 95 39 35 40 94 41 36 42 37 43 38 44 88 45
REMARK SMILES IDX 39 46 93 47 87 48 89 49 40 50 92 51 86 52 85 53 41 55 73 56
REMARK SMILES IDX 53 57 72 58 54 59 57 60 71 61 90 62 55 63 56 64 70 66 91 67
REMARK SMILES IDX 58 68 42 69 43 70 51 71 44 72 45 73 49 74 52 75 46 76 47 77
REMARK SMILES IDX 50 78 48 79 74 80 75 81 83 82 76 83 77 84 81 85 84 86 78 87
REMARK SMILES IDX 79 88 82 89 80 90 59 91 60 92 68 93 61 94 62 95 66 96 69 97
REMARK SMILES IDX 63 98 64 99 67 100 65 101
REMARK H PARENT 23 6 30 35 89 54 57 65
REMARK Flexibility Score: inf
ROOT
ATOM      1  C   UNL A   1      32.849  28.217  26.641  1.00  0.00     0.021 C 
ENDROOT
BRANCH   1   2
ATOM      2  C   UNL A   1      31.432  27.647  26.653  1.00  0.00     0.116 C 
BRANCH   2   3
ATOM      3  N   UNL A   1      31.385  26.289  27.155  1.00  0.00    -0.353 N 
ATOM      4  C   UNL A   1      30.776  25.198  26.615  1.00  0.00     0.258 C 
ATOM      5  O   UNL A   1      30.977  24.098  27.136  1.00  0.00    -0.271 OA
ATOM      6  H   UNL A   1      31.858  26.135  28.005  1.00  0.00     0.163 HD
BRANCH   4   7
ATOM      7  C   UNL A   1      29.920  25.333  25.353  1.00  0.00     0.331 C 
BRANCH   7   8
ATOM      8  O   UNL A   1      30.521  25.236  24.090  1.00  0.00    -0.467 OA
BRANCH   8   9
ATOM      9  C   UNL A   1      31.649  25.862  23.693  1.00  0.00     0.221 A 
ATOM     10  C   UNL A   1      33.619  28.803  22.421  1.00  0.00     0.067 C 
ATOM     11  C   UNL A   1      33.191  27.466  22.962  1.00  0.00     0.050 A 
ATOM     12  N   UNL A   1      34.214  26.623  23.211  1.00  0.00    -0.218 NA
ATOM     13  C   UNL A   1      31.851  27.143  23.204  1.00  0.00     0.033 A 
ATOM     14  C   UNL A   1      33.918  25.399  23.640  1.00  0.00     0.229 A 
ATOM     15  C   UNL A   1      30.795  28.180  22.996  1.00  0.00     0.052 C 
ATOM     16  N   UNL A   1      32.667  24.994  23.856  1.00  0.00    -0.177 NA
BRANCH  14  17
ATOM     17  N   UNL A   1      34.923  24.517  23.952  1.00  0.00    -0.337 N 
ATOM     18  C   UNL A   1      35.144  23.377  23.066  1.00  0.00     0.141 C 
ATOM     19  C   UNL A   1      35.124  24.262  25.381  1.00  0.00     0.141 C 
ATOM     20  C   UNL A   1      36.576  22.834  23.285  1.00  0.00     0.138 C 
ATOM     21  C   UNL A   1      36.517  23.642  25.637  1.00  0.00     0.138 C 
ATOM     22  N   UNL A   1      36.776  22.523  24.709  1.00  0.00    -0.368 N 
BRANCH  22  23
ATOM     23  C   UNL A   1      37.722  21.586  25.086  1.00  0.00     0.037 A 
ATOM     24  C   UNL A   1      37.569  20.215  24.856  1.00  0.00     0.026 A 
ATOM     25  C   UNL A   1      38.877  22.017  25.752  1.00  0.00     0.026 A 
ATOM     26  C   UNL A   1      38.536  19.301  25.289  1.00  0.00     0.002 A 
ATOM     27  C   UNL A   1      39.838  21.110  26.201  1.00  0.00     0.002 A 
ATOM     28  C   UNL A   1      39.667  19.749  25.970  1.00  0.00     0.000 A 
ENDBRANCH  22  23
ENDBRANCH  14  17
ENDBRANCH   8   9
ENDBRANCH   7   8
ENDBRANCH   4   7
ENDBRANCH   2   3
ENDBRANCH   1   2
BRANCH   1  29
ATOM     29  C   UNL A   1      32.952  29.730  26.401  1.00  0.00     0.002 C 
BRANCH  29  30
ATOM     30  C   UNL A   1      31.670  30.434  25.942  1.00  0.00     0.002 C 
BRANCH  30  31
ATOM     31  C   UNL A   1      31.424  31.822  26.533  1.00  0.00     0.021 C 
BRANCH  31  32
ATOM     32  C   UNL A   1      32.637  32.472  27.185  1.00  0.00     0.116 C 
BRANCH  32  33
ATOM     33  N   UNL A   1      32.418  33.872  27.508  1.00  0.00    -0.352 N 
ATOM     34  C   UNL A   1      33.032  34.658  28.455  1.00  0.00     0.251 C 
ATOM     35  H   UNL A   1      31.728  34.325  26.969  1.00  0.00     0.163 HD
ATOM     36  O   UNL A   1      32.613  35.782  28.696  1.00  0.00    -0.269 OA
BRANCH  34  37
ATOM     37  C   UNL A   1      34.190  34.129  29.208  1.00  0.00     0.039 A 
ATOM     38  C   UNL A   1      33.956  33.312  30.317  1.00  0.00     0.014 A 
ATOM     39  C   UNL A   1      35.500  34.434  28.825  1.00  0.00     0.014 A 
ATOM     40  C   UNL A   1      35.034  32.748  31.003  1.00  0.00     0.010 A 
ATOM     41  C   UNL A   1      36.571  33.814  29.463  1.00  0.00     0.010 A 
ATOM     42  C   UNL A   1      36.349  32.969  30.560  1.00  0.00    -0.014 A 
BRANCH  42  43
ATOM     43  C   UNL A   1      37.502  32.329  31.243  1.00  0.00     0.031 A 
ATOM     44  C   UNL A   1      38.250  31.213  30.571  1.00  0.00     0.074 A 
ATOM     45  C   UNL A   1      37.850  32.727  32.481  1.00  0.00     0.049 A 
ATOM     46  N   UNL A   1      39.260  30.509  31.015  1.00  0.00    -0.248 NA
ATOM     47  C   UNL A   1      37.791  30.821  29.228  1.00  0.00     0.031 C 
ATOM     48  C   UNL A   1      37.179  33.775  33.251  1.00  0.00     0.029 A 
ATOM     49  N   UNL A   1      38.857  32.298  33.311  1.00  0.00    -0.354 N 
ATOM     50  C   UNL A   1      39.554  29.596  30.012  1.00  0.00     0.074 A 
ATOM     51  C   UNL A   1      38.581  29.791  28.961  1.00  0.00     0.031 C 
ATOM     52  C   UNL A   1      37.811  33.931  34.424  1.00  0.00     0.029 A 
ATOM     53  C   UNL A   1      38.910  32.972  34.507  1.00  0.00     0.049 A 
ATOM     54  H   UNL A   1      39.481  31.575  33.072  1.00  0.00     0.167 HD
ATOM     55  C   UNL A   1      40.565  28.698  29.960  1.00  0.00     0.037 A 
ATOM     56  C   UNL A   1      39.750  32.833  35.550  1.00  0.00     0.037 A 
ATOM     57  C   UNL A   1      41.546  28.520  30.997  1.00  0.00     0.049 A 
ATOM     58  C   UNL A   1      40.846  31.805  35.479  1.00  0.00     0.074 A 
ATOM     59  C   UNL A   1      42.635  27.666  31.015  1.00  0.00     0.029 A 
ATOM     60  N   UNL A   1      41.557  29.210  32.199  1.00  0.00    -0.354 N 
ATOM     61  N   UNL A   1      41.148  30.985  34.503  1.00  0.00    -0.248 NA
ATOM     62  C   UNL A   1      41.719  31.680  36.656  1.00  0.00     0.031 C 
ATOM     63  C   UNL A   1      43.280  27.809  32.248  1.00  0.00     0.029 A 
ATOM     64  C   UNL A   1      42.621  28.784  32.978  1.00  0.00     0.049 A 
ATOM     65  H   UNL A   1      40.905  29.900  32.462  1.00  0.00     0.167 HD
ATOM     66  C   UNL A   1      42.255  30.266  34.933  1.00  0.00     0.074 A 
ATOM     67  C   UNL A   1      42.581  30.756  36.257  1.00  0.00     0.031 C 
ATOM     68  C   UNL A   1      42.936  29.286  34.291  1.00  0.00     0.037 A 
BRANCH  55  69
ATOM     69  C   UNL A   1      40.679  27.848  28.728  1.00  0.00     0.064 A 
ATOM     70  C   UNL A   1      39.976  26.640  28.609  1.00  0.00     0.173 A 
ATOM     71  C   UNL A   1      41.446  28.272  27.634  1.00  0.00     0.173 A 
ATOM     72  F   UNL A   1      39.236  26.185  29.632  1.00  0.00    -0.203 F 
ATOM     73  C   UNL A   1      40.053  25.877  27.446  1.00  0.00     0.198 A 
ATOM     74  C   UNL A   1      41.500  27.520  26.462  1.00  0.00     0.198 A 
ATOM     75  F   UNL A   1      42.133  29.422  27.694  1.00  0.00    -0.203 F 
ATOM     76  F   UNL A   1      39.403  24.707  27.371  1.00  0.00    -0.200 F 
ATOM     77  C   UNL A   1      40.807  26.323  26.372  1.00  0.00     0.200 A 
ATOM     78  F   UNL A   1      42.217  27.958  25.419  1.00  0.00    -0.200 F 
ATOM     79  F   UNL A   1      40.869  25.594  25.249  1.00  0.00    -0.200 F 
ENDBRANCH  55  69
BRANCH  56  80
ATOM     80  C   UNL A   1      39.611  33.720  36.734  1.00  0.00     0.064 A 
ATOM     81  C   UNL A   1      40.227  34.979  36.761  1.00  0.00     0.173 A 
ATOM     82  C   UNL A   1      38.848  33.342  37.849  1.00  0.00     0.173 A 
ATOM     83  F   UNL A   1      40.983  35.376  35.727  1.00  0.00    -0.203 F 
ATOM     84  C   UNL A   1      40.093  35.822  37.862  1.00  0.00     0.198 A 
ATOM     85  C   UNL A   1      38.695  34.197  38.938  1.00  0.00     0.198 A 
ATOM     86  F   UNL A   1      38.236  32.149  37.871  1.00  0.00    -0.203 F 
ATOM     87  F   UNL A   1      40.721  37.007  37.876  1.00  0.00    -0.200 F 
ATOM     88  C   UNL A   1      39.321  35.434  38.946  1.00  0.00     0.200 A 
ATOM     89  F   UNL A   1      37.937  33.824  39.978  1.00  0.00    -0.200 F 
ATOM     90  F   UNL A   1      39.185  36.251  40.001  1.00  0.00    -0.200 F 
ENDBRANCH  56  80
BRANCH  68  91
ATOM     91  C   UNL A   1      44.113  28.679  34.996  1.00  0.00     0.064 A 
ATOM     92  C   UNL A   1      45.393  29.242  34.899  1.00  0.00     0.173 A 
ATOM     93  C   UNL A   1      43.941  27.574  35.846  1.00  0.00     0.173 A 
ATOM     94  F   UNL A   1      45.609  30.290  34.090  1.00  0.00    -0.203 F 
ATOM     95  C   UNL A   1      46.461  28.717  35.620  1.00  0.00     0.198 A 
ATOM     96  C   UNL A   1      45.005  27.070  36.586  1.00  0.00     0.198 A 
ATOM     97  F   UNL A   1      42.735  27.005  35.979  1.00  0.00    -0.203 F 
ATOM     98  F   UNL A   1      47.683  29.253  35.491  1.00  0.00    -0.200 F 
ATOM     99  C   UNL A   1      46.264  27.640  36.471  1.00  0.00     0.200 A 
ATOM    100  F   UNL A   1      44.811  26.039  37.420  1.00  0.00    -0.200 F 
ATOM    101  F   UNL A   1      47.290  27.149  37.181  1.00  0.00    -0.200 F 
ENDBRANCH  68  91
ENDBRANCH  42  43
ENDBRANCH  34  37
ENDBRANCH  32  33
ENDBRANCH  31  32
ENDBRANCH  30  31
ENDBRANCH  29  30
ENDBRANCH   1  29
TORSDOF 17
ENDMDL
MODEL 3
REMARK VINA RESULT:     -12.4      5.187     10.977
REMARK SMILES Cc1nc(N2CCN(c3ccccc3)CC2)nc(OCC(=O)NCCCCCCNC(=O)c2ccc(-c3c4nc(c(-c5c(F)c(F)c(F)c(F)c5F)c5ccc([nH]5)c(-c5c(F)c(F)c(F)c(F)c5F)c5nc(c(-c6c(F)c(F)c(F)c(F)c6F)c6ccc3[nH]6)C=C5)C=C4)cc2)c1C
REMARK SMILES IDX 25 1 24 2 23 3 21 4 22 5 20 7 19 8 18 9 1 10 2 11 3 12 96 13
REMARK SMILES IDX 4 14 97 15 17 16 5 17 6 18 16 19 7 20 15 21 8 22 9 23 10 24
REMARK SMILES IDX 14 25 11 26 13 27 12 28 26 29 27 30 28 31 29 32 30 33 31 34
REMARK SMILES IDX 32 36 33 37 34 38 95 39 35 40 94 41 36 42 37 43 38 44 88 45
REMARK SMILES IDX 39 46 93 47 87 48 89 49 40 50 92 51 86 52 85 53 41 55 73 56
REMARK SMILES IDX 53 57 72 58 54 59 57 60 71 61 90 62 55 63 56 64 70 66 91 67
REMARK SMILES IDX 58 68 42 69 43 70 51 71 44 72 45 73 49 74 52 75 46 76 47 77
REMARK SMILES IDX 50 78 48 79 74 80 75 81 83 82 76 83 77 84 81 85 84 86 78 87
REMARK SMILES IDX 79 88 82 89 80 90 59 91 60 92 68 93 61 94 62 95 66 96 69 97
REMARK SMILES IDX 63 98 64 99 67 100 65 101
REMARK H PARENT 23 6 30 35 89 54 57 65
REMARK Flexibility Score: inf
ROOT
ATOM      1  C   UNL A   1      35.249  23.670  24.403  1.00  0.00     0.021 C 
ENDROOT
BRANCH   1   2
ATOM      2  C   UNL A   1      35.131  23.922  25.905  1.00  0.00     0.116 C 
BRANCH   2   3
ATOM      3  N   UNL A   1      35.047  22.693  26.668  1.00  0.00    -0.353 N 
ATOM      4  C   UNL A   1      34.014  22.220  27.417  1.00  0.00     0.258 C 
ATOM      5  O   UNL A   1      34.098  21.078  27.876  1.00  0.00    -0.271 OA
ATOM      6  H   UNL A   1      35.849  22.122  26.641  1.00  0.00     0.163 HD
BRANCH   4   7
ATOM      7  C   UNL A   1      32.755  23.068  27.624  1.00  0.00     0.331 C 
BRANCH   7   8
ATOM      8  O   UNL A   1      31.651  22.892  26.778  1.00  0.00    -0.467 OA
BRANCH   8   9
ATOM      9  C   UNL A   1      31.664  22.939  25.429  1.00  0.00     0.221 A 
ATOM     10  C   UNL A   1      32.040  21.450  21.995  1.00  0.00     0.067 C 
ATOM     11  C   UNL A   1      31.781  22.365  23.161  1.00  0.00     0.050 A 
ATOM     12  N   UNL A   1      31.364  23.598  22.809  1.00  0.00    -0.218 NA
ATOM     13  C   UNL A   1      31.940  21.957  24.490  1.00  0.00     0.033 A 
ATOM     14  C   UNL A   1      31.164  24.486  23.780  1.00  0.00     0.229 A 
ATOM     15  C   UNL A   1      32.305  20.538  24.786  1.00  0.00     0.052 C 
ATOM     16  N   UNL A   1      31.333  24.195  25.068  1.00  0.00    -0.177 NA
BRANCH  14  17
ATOM     17  N   UNL A   1      30.696  25.741  23.478  1.00  0.00    -0.337 N 
ATOM     18  C   UNL A   1      31.667  26.791  23.182  1.00  0.00     0.141 C 
ATOM     19  C   UNL A   1      29.501  26.166  24.214  1.00  0.00     0.141 C 
ATOM     20  C   UNL A   1      30.967  27.923  22.395  1.00  0.00     0.138 C 
ATOM     21  C   UNL A   1      28.813  27.354  23.501  1.00  0.00     0.138 C 
ATOM     22  N   UNL A   1      29.794  28.398  23.146  1.00  0.00    -0.368 N 
BRANCH  22  23
ATOM     23  C   UNL A   1      29.317  29.681  22.944  1.00  0.00     0.037 A 
ATOM     24  C   UNL A   1      29.516  30.720  23.860  1.00  0.00     0.026 A 
ATOM     25  C   UNL A   1      28.578  29.957  21.786  1.00  0.00     0.026 A 
ATOM     26  C   UNL A   1      28.983  31.993  23.630  1.00  0.00     0.002 A 
ATOM     27  C   UNL A   1      28.029  31.219  21.558  1.00  0.00     0.002 A 
ATOM     28  C   UNL A   1      28.231  32.240  22.483  1.00  0.00     0.000 A 
ENDBRANCH  22  23
ENDBRANCH  14  17
ENDBRANCH   8   9
ENDBRANCH   7   8
ENDBRANCH   4   7
ENDBRANCH   2   3
ENDBRANCH   1   2
BRANCH   1  29
ATOM     29  C   UNL A   1      35.588  22.228  23.998  1.00  0.00     0.002 C 
BRANCH  29  30
ATOM     30  C   UNL A   1      37.077  21.877  23.915  1.00  0.00     0.002 C 
BRANCH  30  31
ATOM     31  C   UNL A   1      37.507  20.614  24.662  1.00  0.00     0.021 C 
BRANCH  31  32
ATOM     32  C   UNL A   1      38.530  20.834  25.770  1.00  0.00     0.116 C 
BRANCH  32  33
ATOM     33  N   UNL A   1      39.488  19.747  25.871  1.00  0.00    -0.352 N 
ATOM     34  C   UNL A   1      40.845  19.795  26.091  1.00  0.00     0.251 C 
ATOM     35  H   UNL A   1      39.111  18.843  25.767  1.00  0.00     0.163 HD
ATOM     36  O   UNL A   1      41.526  18.784  25.993  1.00  0.00    -0.269 OA
BRANCH  34  37
ATOM     37  C   UNL A   1      41.489  21.086  26.422  1.00  0.00     0.039 A 
ATOM     38  C   UNL A   1      41.882  21.929  25.378  1.00  0.00     0.014 A 
ATOM     39  C   UNL A   1      41.706  21.465  27.750  1.00  0.00     0.014 A 
ATOM     40  C   UNL A   1      42.431  23.179  25.668  1.00  0.00     0.010 A 
ATOM     41  C   UNL A   1      42.185  22.739  28.037  1.00  0.00     0.010 A 
ATOM     42  C   UNL A   1      42.556  23.608  27.000  1.00  0.00    -0.014 A 
BRANCH  42  43
ATOM     43  C   UNL A   1      43.083  24.958  27.321  1.00  0.00     0.031 A 
ATOM     44  C   UNL A   1      42.184  25.990  27.941  1.00  0.00     0.074 A 
ATOM     45  C   UNL A   1      44.359  25.266  27.022  1.00  0.00     0.049 A 
ATOM     46  N   UNL A   1      42.449  27.230  28.265  1.00  0.00    -0.248 NA
ATOM     47  C   UNL A   1      40.797  25.581  28.216  1.00  0.00     0.031 C 
ATOM     48  C   UNL A   1      45.320  24.362  26.387  1.00  0.00     0.029 A 
ATOM     49  N   UNL A   1      45.071  26.425  27.211  1.00  0.00    -0.354 N 
ATOM     50  C   UNL A   1      41.267  27.746  28.778  1.00  0.00     0.074 A 
ATOM     51  C   UNL A   1      40.266  26.708  28.667  1.00  0.00     0.031 C 
ATOM     52  C   UNL A   1      46.501  24.987  26.270  1.00  0.00     0.029 A 
ATOM     53  C   UNL A   1      46.376  26.347  26.788  1.00  0.00     0.049 A 
ATOM     54  H   UNL A   1      44.682  27.237  27.611  1.00  0.00     0.167 HD
ATOM     55  C   UNL A   1      41.045  28.966  29.322  1.00  0.00     0.037 A 
ATOM     56  C   UNL A   1      47.358  27.267  26.817  1.00  0.00     0.037 A 
ATOM     57  C   UNL A   1      42.048  29.989  29.451  1.00  0.00     0.049 A 
ATOM     58  C   UNL A   1      47.077  28.626  27.398  1.00  0.00     0.074 A 
ATOM     59  C   UNL A   1      41.930  31.241  30.029  1.00  0.00     0.029 A 
ATOM     60  N   UNL A   1      43.353  29.878  28.996  1.00  0.00    -0.354 N 
ATOM     61  N   UNL A   1      45.971  29.084  27.930  1.00  0.00    -0.248 NA
ATOM     62  C   UNL A   1      48.180  29.598  27.381  1.00  0.00     0.031 C 
ATOM     63  C   UNL A   1      43.153  31.904  29.885  1.00  0.00     0.029 A 
ATOM     64  C   UNL A   1      44.045  31.049  29.260  1.00  0.00     0.049 A 
ATOM     65  H   UNL A   1      43.732  29.085  28.552  1.00  0.00     0.167 HD
ATOM     66  C   UNL A   1      46.247  30.383  28.332  1.00  0.00     0.074 A 
ATOM     67  C   UNL A   1      47.633  30.638  27.995  1.00  0.00     0.031 C 
ATOM     68  C   UNL A   1      45.426  31.285  28.923  1.00  0.00     0.037 A 
BRANCH  55  69
ATOM     69  C   UNL A   1      39.668  29.257  29.840  1.00  0.00     0.064 A 
ATOM     70  C   UNL A   1      39.350  29.097  31.197  1.00  0.00     0.173 A 
ATOM     71  C   UNL A   1      38.673  29.759  28.988  1.00  0.00     0.173 A 
ATOM     72  F   UNL A   1      40.263  28.610  32.052  1.00  0.00    -0.203 F 
ATOM     73  C   UNL A   1      38.081  29.409  31.678  1.00  0.00     0.198 A 
ATOM     74  C   UNL A   1      37.414  30.096  29.478  1.00  0.00     0.198 A 
ATOM     75  F   UNL A   1      38.927  29.936  27.683  1.00  0.00    -0.203 F 
ATOM     76  F   UNL A   1      37.790  29.212  32.972  1.00  0.00    -0.200 F 
ATOM     77  C   UNL A   1      37.118  29.917  30.820  1.00  0.00     0.200 A 
ATOM     78  F   UNL A   1      36.488  30.600  28.651  1.00  0.00    -0.200 F 
ATOM     79  F   UNL A   1      35.902  30.231  31.288  1.00  0.00    -0.200 F 
ENDBRANCH  55  69
BRANCH  56  80
ATOM     80  C   UNL A   1      48.713  26.916  26.316  1.00  0.00     0.064 A 
ATOM     81  C   UNL A   1      49.686  26.404  27.184  1.00  0.00     0.173 A 
ATOM     82  C   UNL A   1      49.056  27.066  24.964  1.00  0.00     0.173 A 
ATOM     83  F   UNL A   1      49.411  26.262  28.489  1.00  0.00    -0.203 F 
ATOM     84  C   UNL A   1      50.956  26.062  26.721  1.00  0.00     0.198 A 
ATOM     85  C   UNL A   1      50.318  26.700  24.498  1.00  0.00     0.198 A 
ATOM     86  F   UNL A   1      48.160  27.550  24.092  1.00  0.00    -0.203 F 
ATOM     87  F   UNL A   1      51.879  25.605  27.579  1.00  0.00    -0.200 F 
ATOM     88  C   UNL A   1      51.268  26.203  25.378  1.00  0.00     0.200 A 
ATOM     89  F   UNL A   1      50.611  26.825  23.197  1.00  0.00    -0.200 F 
ATOM     90  F   UNL A   1      52.486  25.864  24.932  1.00  0.00    -0.200 F 
ENDBRANCH  56  80
BRANCH  68  91
ATOM     91  C   UNL A   1      45.996  32.631  29.261  1.00  0.00     0.064 A 
ATOM     92  C   UNL A   1      45.898  33.710  28.372  1.00  0.00     0.173 A 
ATOM     93  C   UNL A   1      46.569  32.865  30.522  1.00  0.00     0.173 A 
ATOM     94  F   UNL A   1      45.370  33.533  27.152  1.00  0.00    -0.203 F 
ATOM     95  C   UNL A   1      46.360  34.974  28.729  1.00  0.00     0.198 A 
ATOM     96  C   UNL A   1      47.004  34.135  30.885  1.00  0.00     0.198 A 
ATOM     97  F   UNL A   1      46.678  31.866  31.410  1.00  0.00    -0.203 F 
ATOM     98  F   UNL A   1      46.282  35.985  27.853  1.00  0.00    -0.200 F 
ATOM     99  C   UNL A   1      46.901  35.188  29.988  1.00  0.00     0.200 A 
ATOM    100  F   UNL A   1      47.513  34.344  32.107  1.00  0.00    -0.200 F 
ATOM    101  F   UNL A   1      47.327  36.410  30.336  1.00  0.00    -0.200 F 
ENDBRANCH  68  91
ENDBRANCH  42  43
ENDBRANCH  34  37
ENDBRANCH  32  33
ENDBRANCH  31  32
ENDBRANCH  30  31
ENDBRANCH  29  30
ENDBRANCH   1  29
TORSDOF 17
ENDMDL
