MODEL 1
REMARK VINA RESULT:     -13.1      0.000      0.000
REMARK SMILES Cc1cc(C)c(S(=O)(=O)Nc2ccc(N3CC[NH+](C)CC3)c(C(=O)NCCCCCCNC(=O)c3ccc(-c4c5nc(c(-c6c(F)c(F)c(F)c(F)c6F)c6ccc([nH]6)c(-c6c(F)c(F)c(F)c(F)c6F)c6nc(c(-c7c(F)c(F)c(F)c(F)c7F)c7ccc4[nH]7)C=C6)C=C5)cc3)c2)c(C)c1
REMARK SMILES IDX 28 1 27 2 26 3 25 4 23 5 24 6 22 8 11 9 12 10 98 11 13 12
REMARK SMILES IDX 14 13 10 14 7 16 8 17 9 18 6 19 1 20 2 21 3 22 101 23 4 24
REMARK SMILES IDX 99 25 5 26 100 27 15 28 16 29 21 30 17 31 20 32 18 33 19 34
REMARK SMILES IDX 29 36 30 37 31 38 32 39 33 40 34 42 35 43 36 44 97 45 37 46
REMARK SMILES IDX 96 47 38 48 39 49 40 50 90 51 41 52 95 53 89 54 91 55 42 56
REMARK SMILES IDX 94 57 88 58 87 59 43 61 75 62 55 63 74 64 56 65 59 66 73 67
REMARK SMILES IDX 92 68 57 69 58 70 72 72 93 73 60 74 44 75 45 76 53 77 46 78
REMARK SMILES IDX 47 79 51 80 54 81 48 82 49 83 52 84 50 85 76 86 77 87 85 88
REMARK SMILES IDX 78 89 79 90 83 91 86 92 80 93 81 94 84 95 82 96 61 97 62 98
REMARK SMILES IDX 70 99 63 100 64 101 68 102 71 103 65 104 66 105 69 106
REMARK SMILES IDX 67 107
REMARK H PARENT 25 7 10 15 18 35 32 41 91 60 59 71
REMARK Flexibility Score: inf
ROOT
ATOM      1  C   UNL A   1      37.558  21.960  24.653  1.00  0.00     0.002 C 
ENDROOT
BRANCH   1   2
ATOM      2  C   UNL A   1      37.437  22.835  25.909  1.00  0.00     0.021 C 
BRANCH   2   3
ATOM      3  C   UNL A   1      36.426  23.972  25.740  1.00  0.00     0.116 C 
BRANCH   3   4
ATOM      4  N   UNL A   1      35.851  23.908  24.414  1.00  0.00    -0.352 N 
ATOM      5  C   UNL A   1      34.560  23.828  23.955  1.00  0.00     0.253 C 
ATOM      6  O   UNL A   1      34.449  23.386  22.812  1.00  0.00    -0.269 OA
ATOM      7  H   UNL A   1      36.523  23.925  23.695  1.00  0.00     0.163 HD
BRANCH   5   8
ATOM      8  C   UNL A   1      33.360  24.256  24.753  1.00  0.00     0.065 A 
ATOM      9  C   UNL A   1      31.608  25.887  25.157  1.00  0.00     0.050 A 
ATOM     10  C   UNL A   1      31.038  25.056  26.115  1.00  0.00     0.029 A 
ATOM     11  C   UNL A   1      32.852  25.563  24.628  1.00  0.00     0.042 A 
ATOM     12  C   UNL A   1      31.571  23.791  26.325  1.00  0.00     0.029 A 
ATOM     13  C   UNL A   1      32.659  23.321  25.567  1.00  0.00     0.050 A 
BRANCH   9  14
ATOM     14  N   UNL A   1      30.795  26.957  24.699  1.00  0.00    -0.280 N 
ATOM     15  H   UNL A   1      30.874  27.809  25.188  1.00  0.00     0.180 HD
BRANCH  14  16
ATOM     16  S   UNL A   1      29.722  26.929  23.419  1.00  0.00     0.262 S 
ATOM     17  O   UNL A   1      28.528  26.256  23.901  1.00  0.00    -0.201 OA
ATOM     18  O   UNL A   1      30.482  26.392  22.311  1.00  0.00    -0.201 OA
BRANCH  16  19
ATOM     19  C   UNL A   1      29.191  28.577  22.902  1.00  0.00     0.093 A 
ATOM     20  C   UNL A   1      28.128  32.045  20.530  1.00  0.00     0.044 C 
ATOM     21  C   UNL A   1      28.502  30.876  21.391  1.00  0.00    -0.051 A 
ATOM     22  C   UNL A   1      29.838  30.558  21.614  1.00  0.00     0.008 A 
ATOM     23  C   UNL A   1      27.528  30.135  22.061  1.00  0.00     0.008 A 
ATOM     24  C   UNL A   1      30.202  29.420  22.361  1.00  0.00    -0.030 A 
ATOM     25  C   UNL A   1      27.854  29.017  22.863  1.00  0.00    -0.030 A 
ATOM     26  C   UNL A   1      31.679  29.262  22.630  1.00  0.00     0.046 C 
ATOM     27  C   UNL A   1      26.714  28.454  23.657  1.00  0.00     0.046 C 
ENDBRANCH  16  19
ENDBRANCH  14  16
ENDBRANCH   9  14
BRANCH  13  28
ATOM     28  N   UNL A   1      32.877  21.954  25.536  1.00  0.00    -0.360 N 
ATOM     29  C   UNL A   1      33.803  21.294  26.465  1.00  0.00     0.178 C 
ATOM     30  C   UNL A   1      31.847  21.058  24.995  1.00  0.00     0.178 C 
ATOM     31  C   UNL A   1      34.469  20.099  25.735  1.00  0.00     0.283 C 
ATOM     32  C   UNL A   1      32.514  19.838  24.323  1.00  0.00     0.283 C 
ATOM     33  N   UNL A   1      33.470  19.130  25.205  1.00  0.00    -0.334 N 
ATOM     34  C   UNL A   1      34.139  18.063  24.462  1.00  0.00     0.332 C 
ATOM     35  H   UNL A   1      32.965  18.712  25.987  1.00  0.00     0.347 HD
ENDBRANCH  13  28
ENDBRANCH   5   8
ENDBRANCH   3   4
ENDBRANCH   2   3
ENDBRANCH   1   2
BRANCH   1  36
ATOM     36  C   UNL A   1      37.212  20.483  24.876  1.00  0.00     0.002 C 
BRANCH  36  37
ATOM     37  C   UNL A   1      38.416  19.538  24.891  1.00  0.00     0.021 C 
BRANCH  37  38
ATOM     38  C   UNL A   1      39.484  19.894  25.921  1.00  0.00     0.116 C 
BRANCH  38  39
ATOM     39  N   UNL A   1      40.570  18.927  25.934  1.00  0.00    -0.352 N 
ATOM     40  C   UNL A   1      41.919  19.144  26.029  1.00  0.00     0.251 C 
ATOM     41  H   UNL A   1      40.297  17.983  25.863  1.00  0.00     0.163 HD
ATOM     42  O   UNL A   1      42.713  18.228  25.843  1.00  0.00    -0.269 OA
BRANCH  40  43
ATOM     43  C   UNL A   1      42.421  20.498  26.343  1.00  0.00     0.039 A 
ATOM     44  C   UNL A   1      42.897  21.297  25.301  1.00  0.00     0.014 A 
ATOM     45  C   UNL A   1      42.438  20.965  27.661  1.00  0.00     0.014 A 
ATOM     46  C   UNL A   1      43.350  22.588  25.574  1.00  0.00     0.010 A 
ATOM     47  C   UNL A   1      42.841  22.271  27.925  1.00  0.00     0.010 A 
ATOM     48  C   UNL A   1      43.306  23.089  26.884  1.00  0.00    -0.014 A 
BRANCH  48  49
ATOM     49  C   UNL A   1      43.754  24.468  27.189  1.00  0.00     0.031 A 
ATOM     50  C   UNL A   1      42.769  25.488  27.680  1.00  0.00     0.074 A 
ATOM     51  C   UNL A   1      45.032  24.817  26.952  1.00  0.00     0.049 A 
ATOM     52  N   UNL A   1      42.952  26.757  27.938  1.00  0.00    -0.248 NA
ATOM     53  C   UNL A   1      41.389  25.023  27.882  1.00  0.00     0.031 C 
ATOM     54  C   UNL A   1      46.064  23.930  26.419  1.00  0.00     0.029 A 
ATOM     55  N   UNL A   1      45.672  26.019  27.112  1.00  0.00    -0.354 N 
ATOM     56  C   UNL A   1      41.708  27.248  28.310  1.00  0.00     0.074 A 
ATOM     57  C   UNL A   1      40.771  26.149  28.208  1.00  0.00     0.031 C 
ATOM     58  C   UNL A   1      47.212  24.615  26.299  1.00  0.00     0.029 A 
ATOM     59  C   UNL A   1      46.989  25.994  26.727  1.00  0.00     0.049 A 
ATOM     60  H   UNL A   1      45.230  26.824  27.467  1.00  0.00     0.167 HD
ATOM     61  C   UNL A   1      41.381  28.497  28.716  1.00  0.00     0.037 A 
ATOM     62  C   UNL A   1      47.910  26.975  26.716  1.00  0.00     0.037 A 
ATOM     63  C   UNL A   1      42.321  29.579  28.848  1.00  0.00     0.049 A 
ATOM     64  C   UNL A   1      47.535  28.343  27.207  1.00  0.00     0.074 A 
ATOM     65  C   UNL A   1      42.107  30.857  29.333  1.00  0.00     0.029 A 
ATOM     66  N   UNL A   1      43.659  29.505  28.490  1.00  0.00    -0.354 N 
ATOM     67  N   UNL A   1      46.374  28.778  27.632  1.00  0.00    -0.248 NA
ATOM     68  C   UNL A   1      48.600  29.355  27.229  1.00  0.00     0.031 C 
ATOM     69  C   UNL A   1      43.310  31.567  29.238  1.00  0.00     0.029 A 
ATOM     70  C   UNL A   1      44.280  30.721  28.725  1.00  0.00     0.049 A 
ATOM     71  H   UNL A   1      44.103  28.706  28.122  1.00  0.00     0.167 HD
ATOM     72  C   UNL A   1      46.568  30.106  27.983  1.00  0.00     0.074 A 
ATOM     73  C   UNL A   1      47.965  30.404  27.736  1.00  0.00     0.031 C 
ATOM     74  C   UNL A   1      45.670  30.999  28.468  1.00  0.00     0.037 A 
BRANCH  61  75
ATOM     75  C   UNL A   1      39.941  28.757  29.044  1.00  0.00     0.064 A 
ATOM     76  C   UNL A   1      39.440  28.577  30.342  1.00  0.00     0.173 A 
ATOM     77  C   UNL A   1      39.053  29.196  28.051  1.00  0.00     0.173 A 
ATOM     78  F   UNL A   1      40.246  28.144  31.323  1.00  0.00    -0.203 F 
ATOM     79  C   UNL A   1      38.094  28.793  30.626  1.00  0.00     0.198 A 
ATOM     80  C   UNL A   1      37.714  29.437  28.345  1.00  0.00     0.198 A 
ATOM     81  F   UNL A   1      39.483  29.388  26.795  1.00  0.00    -0.203 F 
ATOM     82  F   UNL A   1      37.626  28.563  31.861  1.00  0.00    -0.200 F 
ATOM     83  C   UNL A   1      37.233  29.226  29.629  1.00  0.00     0.200 A 
ATOM     84  F   UNL A   1      36.884  29.864  27.383  1.00  0.00    -0.200 F 
ATOM     85  F   UNL A   1      35.938  29.432  29.903  1.00  0.00    -0.200 F 
ENDBRANCH  61  75
BRANCH  62  86
ATOM     86  C   UNL A   1      49.286  26.675  26.250  1.00  0.00     0.064 A 
ATOM     87  C   UNL A   1      49.667  26.935  24.927  1.00  0.00     0.173 A 
ATOM     88  C   UNL A   1      50.253  26.163  27.125  1.00  0.00     0.173 A 
ATOM     89  F   UNL A   1      48.768  27.408  24.052  1.00  0.00    -0.203 F 
ATOM     90  C   UNL A   1      50.968  26.688  24.495  1.00  0.00     0.198 A 
ATOM     91  C   UNL A   1      51.559  25.937  26.696  1.00  0.00     0.198 A 
ATOM     92  F   UNL A   1      49.936  25.905  28.402  1.00  0.00    -0.203 F 
ATOM     93  F   UNL A   1      51.305  26.926  23.219  1.00  0.00    -0.200 F 
ATOM     94  C   UNL A   1      51.915  26.198  25.381  1.00  0.00     0.200 A 
ATOM     95  F   UNL A   1      52.475  25.474  27.559  1.00  0.00    -0.200 F 
ATOM     96  F   UNL A   1      53.170  25.974  24.968  1.00  0.00    -0.200 F 
ENDBRANCH  62  86
BRANCH  74  97
ATOM     97  C   UNL A   1      46.173  32.377  28.772  1.00  0.00     0.064 A 
ATOM     98  C   UNL A   1      46.781  32.676  30.000  1.00  0.00     0.173 A 
ATOM     99  C   UNL A   1      46.084  33.395  27.812  1.00  0.00     0.173 A 
ATOM    100  F   UNL A   1      46.875  31.738  30.954  1.00  0.00    -0.203 F 
ATOM    101  C   UNL A   1      47.268  33.954  30.261  1.00  0.00     0.198 A 
ATOM    102  C   UNL A   1      46.591  34.666  28.070  1.00  0.00     0.198 A 
ATOM    103  F   UNL A   1      45.514  33.155  26.623  1.00  0.00    -0.203 F 
ATOM    104  F   UNL A   1      47.814  34.229  31.454  1.00  0.00    -0.200 F 
ATOM    105  C   UNL A   1      47.178  34.945  29.295  1.00  0.00     0.200 A 
ATOM    106  F   UNL A   1      46.511  35.620  27.133  1.00  0.00    -0.200 F 
ATOM    107  F   UNL A   1      47.652  36.173  29.547  1.00  0.00    -0.200 F 
ENDBRANCH  74  97
ENDBRANCH  48  49
ENDBRANCH  40  43
ENDBRANCH  38  39
ENDBRANCH  37  38
ENDBRANCH  36  37
ENDBRANCH   1  36
TORSDOF 17
ENDMDL
MODEL 2
REMARK VINA RESULT:     -13.0      1.032      2.006
REMARK SMILES Cc1cc(C)c(S(=O)(=O)Nc2ccc(N3CC[NH+](C)CC3)c(C(=O)NCCCCCCNC(=O)c3ccc(-c4c5nc(c(-c6c(F)c(F)c(F)c(F)c6F)c6ccc([nH]6)c(-c6c(F)c(F)c(F)c(F)c6F)c6nc(c(-c7c(F)c(F)c(F)c(F)c7F)c7ccc4[nH]7)C=C6)C=C5)cc3)c2)c(C)c1
REMARK SMILES IDX 28 1 27 2 26 3 25 4 23 5 24 6 22 8 11 9 12 10 98 11 13 12
REMARK SMILES IDX 14 13 10 14 7 16 8 17 9 18 6 19 1 20 2 21 3 22 101 23 4 24
REMARK SMILES IDX 99 25 5 26 100 27 15 28 16 29 21 30 17 31 20 32 18 33 19 34
REMARK SMILES IDX 29 36 30 37 31 38 32 39 33 40 34 42 35 43 36 44 97 45 37 46
REMARK SMILES IDX 96 47 38 48 39 49 40 50 90 51 41 52 95 53 89 54 91 55 42 56
REMARK SMILES IDX 94 57 88 58 87 59 43 61 75 62 55 63 74 64 56 65 59 66 73 67
REMARK SMILES IDX 92 68 57 69 58 70 72 72 93 73 60 74 44 75 45 76 53 77 46 78
REMARK SMILES IDX 47 79 51 80 54 81 48 82 49 83 52 84 50 85 76 86 77 87 85 88
REMARK SMILES IDX 78 89 79 90 83 91 86 92 80 93 81 94 84 95 82 96 61 97 62 98
REMARK SMILES IDX 70 99 63 100 64 101 68 102 71 103 65 104 66 105 69 106
REMARK SMILES IDX 67 107
REMARK H PARENT 25 7 10 15 18 35 32 41 91 60 59 71
REMARK Flexibility Score: inf
ROOT
ATOM      1  C   UNL A   1      37.664  21.678  24.588  1.00  0.00     0.002 C 
ENDROOT
BRANCH   1   2
ATOM      2  C   UNL A   1      37.445  22.695  25.716  1.00  0.00     0.021 C 
BRANCH   2   3
ATOM      3  C   UNL A   1      36.012  23.232  25.755  1.00  0.00     0.116 C 
BRANCH   3   4
ATOM      4  N   UNL A   1      35.529  23.408  24.402  1.00  0.00    -0.352 N 
ATOM      5  C   UNL A   1      34.309  23.204  23.809  1.00  0.00     0.253 C 
ATOM      6  O   UNL A   1      34.351  23.063  22.587  1.00  0.00    -0.269 OA
ATOM      7  H   UNL A   1      36.217  23.741  23.782  1.00  0.00     0.163 HD
BRANCH   5   8
ATOM      8  C   UNL A   1      33.008  23.169  24.561  1.00  0.00     0.065 A 
ATOM      9  C   UNL A   1      31.016  24.331  25.320  1.00  0.00     0.050 A 
ATOM     10  C   UNL A   1      30.507  23.146  25.837  1.00  0.00     0.029 A 
ATOM     11  C   UNL A   1      32.328  24.365  24.860  1.00  0.00     0.042 A 
ATOM     12  C   UNL A   1      31.200  21.959  25.635  1.00  0.00     0.029 A 
ATOM     13  C   UNL A   1      32.394  21.928  24.891  1.00  0.00     0.050 A 
BRANCH   9  14
ATOM     14  N   UNL A   1      30.092  25.401  25.190  1.00  0.00    -0.280 N 
ATOM     15  H   UNL A   1      29.360  25.432  25.847  1.00  0.00     0.180 HD
BRANCH  14  16
ATOM     16  S   UNL A   1      30.115  26.616  24.042  1.00  0.00     0.262 S 
ATOM     17  O   UNL A   1      28.726  26.919  23.741  1.00  0.00    -0.201 OA
ATOM     18  O   UNL A   1      31.012  26.136  23.014  1.00  0.00    -0.201 OA
BRANCH  16  19
ATOM     19  C   UNL A   1      30.840  28.154  24.653  1.00  0.00     0.093 A 
ATOM     20  C   UNL A   1      31.403  32.038  26.492  1.00  0.00     0.044 C 
ATOM     21  C   UNL A   1      31.252  30.702  25.830  1.00  0.00    -0.051 A 
ATOM     22  C   UNL A   1      30.677  30.597  24.566  1.00  0.00     0.008 A 
ATOM     23  C   UNL A   1      31.762  29.545  26.419  1.00  0.00     0.008 A 
ATOM     24  C   UNL A   1      30.463  29.341  23.964  1.00  0.00    -0.030 A 
ATOM     25  C   UNL A   1      31.615  28.271  25.823  1.00  0.00    -0.030 A 
ATOM     26  C   UNL A   1      29.947  29.378  22.546  1.00  0.00     0.046 C 
ATOM     27  C   UNL A   1      32.381  27.168  26.489  1.00  0.00     0.046 C 
ENDBRANCH  16  19
ENDBRANCH  14  16
ENDBRANCH   9  14
BRANCH  13  28
ATOM     28  N   UNL A   1      32.807  20.705  24.392  1.00  0.00    -0.360 N 
ATOM     29  C   UNL A   1      32.402  20.230  23.063  1.00  0.00     0.178 C 
ATOM     30  C   UNL A   1      34.050  20.094  24.882  1.00  0.00     0.178 C 
ATOM     31  C   UNL A   1      32.252  18.688  23.112  1.00  0.00     0.283 C 
ATOM     32  C   UNL A   1      33.917  18.555  24.870  1.00  0.00     0.283 C 
ATOM     33  N   UNL A   1      33.501  18.010  23.558  1.00  0.00    -0.334 N 
ATOM     34  C   UNL A   1      33.289  16.567  23.660  1.00  0.00     0.332 C 
ATOM     35  H   UNL A   1      34.235  18.181  22.870  1.00  0.00     0.347 HD
ENDBRANCH  13  28
ENDBRANCH   5   8
ENDBRANCH   3   4
ENDBRANCH   2   3
ENDBRANCH   1   2
BRANCH   1  36
ATOM     36  C   UNL A   1      37.310  20.234  24.961  1.00  0.00     0.002 C 
BRANCH  36  37
ATOM     37  C   UNL A   1      38.504  19.279  25.037  1.00  0.00     0.021 C 
BRANCH  37  38
ATOM     38  C   UNL A   1      39.573  19.686  26.047  1.00  0.00     0.116 C 
BRANCH  38  39
ATOM     39  N   UNL A   1      40.741  18.823  25.978  1.00  0.00    -0.352 N 
ATOM     40  C   UNL A   1      42.069  19.164  25.996  1.00  0.00     0.251 C 
ATOM     41  H   UNL A   1      40.553  17.860  25.909  1.00  0.00     0.163 HD
ATOM     42  O   UNL A   1      42.930  18.327  25.747  1.00  0.00    -0.269 OA
BRANCH  40  43
ATOM     43  C   UNL A   1      42.462  20.554  26.302  1.00  0.00     0.039 A 
ATOM     44  C   UNL A   1      42.553  20.949  27.639  1.00  0.00     0.014 A 
ATOM     45  C   UNL A   1      42.721  21.466  25.273  1.00  0.00     0.014 A 
ATOM     46  C   UNL A   1      42.949  22.251  27.948  1.00  0.00     0.010 A 
ATOM     47  C   UNL A   1      43.166  22.747  25.583  1.00  0.00     0.010 A 
ATOM     48  C   UNL A   1      43.277  23.151  26.922  1.00  0.00    -0.014 A 
BRANCH  48  49
ATOM     49  C   UNL A   1      43.728  24.528  27.231  1.00  0.00     0.031 A 
ATOM     50  C   UNL A   1      42.743  25.551  27.718  1.00  0.00     0.074 A 
ATOM     51  C   UNL A   1      45.008  24.873  27.003  1.00  0.00     0.049 A 
ATOM     52  N   UNL A   1      42.928  26.819  27.979  1.00  0.00    -0.248 NA
ATOM     53  C   UNL A   1      41.360  25.090  27.910  1.00  0.00     0.031 C 
ATOM     54  C   UNL A   1      46.041  23.983  26.476  1.00  0.00     0.029 A 
ATOM     55  N   UNL A   1      45.651  26.073  27.168  1.00  0.00    -0.354 N 
ATOM     56  C   UNL A   1      41.683  27.314  28.343  1.00  0.00     0.074 A 
ATOM     57  C   UNL A   1      40.743  26.218  28.233  1.00  0.00     0.031 C 
ATOM     58  C   UNL A   1      47.191  24.665  26.365  1.00  0.00     0.029 A 
ATOM     59  C   UNL A   1      46.970  26.044  26.792  1.00  0.00     0.049 A 
ATOM     60  H   UNL A   1      45.209  26.878  27.522  1.00  0.00     0.167 HD
ATOM     61  C   UNL A   1      41.358  28.563  28.748  1.00  0.00     0.037 A 
ATOM     62  C   UNL A   1      47.894  27.021  26.788  1.00  0.00     0.037 A 
ATOM     63  C   UNL A   1      42.301  29.642  28.888  1.00  0.00     0.049 A 
ATOM     64  C   UNL A   1      47.521  28.391  27.279  1.00  0.00     0.074 A 
ATOM     65  C   UNL A   1      42.088  30.920  29.373  1.00  0.00     0.029 A 
ATOM     66  N   UNL A   1      43.641  29.564  28.538  1.00  0.00    -0.354 N 
ATOM     67  N   UNL A   1      46.359  28.829  27.696  1.00  0.00    -0.248 NA
ATOM     68  C   UNL A   1      48.589  29.399  27.309  1.00  0.00     0.031 C 
ATOM     69  C   UNL A   1      43.294  31.626  29.286  1.00  0.00     0.029 A 
ATOM     70  C   UNL A   1      44.265  30.777  28.779  1.00  0.00     0.049 A 
ATOM     71  H   UNL A   1      44.084  28.764  28.172  1.00  0.00     0.167 HD
ATOM     72  C   UNL A   1      46.556  30.156  28.051  1.00  0.00     0.074 A 
ATOM     73  C   UNL A   1      47.955  30.449  27.813  1.00  0.00     0.031 C 
ATOM     74  C   UNL A   1      45.657  31.051  28.531  1.00  0.00     0.037 A 
BRANCH  61  75
ATOM     75  C   UNL A   1      39.917  28.828  29.067  1.00  0.00     0.064 A 
ATOM     76  C   UNL A   1      39.404  28.633  30.358  1.00  0.00     0.173 A 
ATOM     77  C   UNL A   1      39.040  29.286  28.073  1.00  0.00     0.173 A 
ATOM     78  F   UNL A   1      40.198  28.182  31.340  1.00  0.00    -0.203 F 
ATOM     79  C   UNL A   1      38.056  28.854  30.634  1.00  0.00     0.198 A 
ATOM     80  C   UNL A   1      37.700  29.532  28.358  1.00  0.00     0.198 A 
ATOM     81  F   UNL A   1      39.483  29.492  26.823  1.00  0.00    -0.203 F 
ATOM     82  F   UNL A   1      37.576  28.610  31.861  1.00  0.00    -0.200 F 
ATOM     83  C   UNL A   1      37.207  29.306  29.635  1.00  0.00     0.200 A 
ATOM     84  F   UNL A   1      36.881  29.976  27.395  1.00  0.00    -0.200 F 
ATOM     85  F   UNL A   1      35.910  29.516  29.900  1.00  0.00    -0.200 F 
ENDBRANCH  61  75
BRANCH  62  86
ATOM     86  C   UNL A   1      49.273  26.717  26.331  1.00  0.00     0.064 A 
ATOM     87  C   UNL A   1      49.658  26.962  25.006  1.00  0.00     0.173 A 
ATOM     88  C   UNL A   1      50.237  26.217  27.216  1.00  0.00     0.173 A 
ATOM     89  F   UNL A   1      48.762  27.423  24.123  1.00  0.00    -0.203 F 
ATOM     90  C   UNL A   1      50.961  26.712  24.582  1.00  0.00     0.198 A 
ATOM     91  C   UNL A   1      51.545  25.987  26.794  1.00  0.00     0.198 A 
ATOM     92  F   UNL A   1      49.916  25.975  28.494  1.00  0.00    -0.203 F 
ATOM     93  F   UNL A   1      51.302  26.934  23.305  1.00  0.00    -0.200 F 
ATOM     94  C   UNL A   1      51.905  26.233  25.478  1.00  0.00     0.200 A 
ATOM     95  F   UNL A   1      52.459  25.537  27.665  1.00  0.00    -0.200 F 
ATOM     96  F   UNL A   1      53.162  26.006  25.071  1.00  0.00    -0.200 F 
ENDBRANCH  62  86
BRANCH  74  97
ATOM     97  C   UNL A   1      46.163  32.427  28.840  1.00  0.00     0.064 A 
ATOM     98  C   UNL A   1      46.119  33.452  27.885  1.00  0.00     0.173 A 
ATOM     99  C   UNL A   1      46.656  32.733  30.117  1.00  0.00     0.173 A 
ATOM    100  F   UNL A   1      45.670  33.202  26.646  1.00  0.00    -0.203 F 
ATOM    101  C   UNL A   1      46.569  34.733  28.193  1.00  0.00     0.198 A 
ATOM    102  C   UNL A   1      47.085  34.020  30.427  1.00  0.00     0.198 A 
ATOM    103  F   UNL A   1      46.715  31.786  31.064  1.00  0.00    -0.203 F 
ATOM    104  F   UNL A   1      46.551  35.690  27.255  1.00  0.00    -0.200 F 
ATOM    105  C   UNL A   1      47.045  35.018  29.464  1.00  0.00     0.200 A 
ATOM    106  F   UNL A   1      47.537  34.296  31.658  1.00  0.00    -0.200 F 
ATOM    107  F   UNL A   1      47.471  36.253  29.760  1.00  0.00    -0.200 F 
ENDBRANCH  74  97
ENDBRANCH  48  49
ENDBRANCH  40  43
ENDBRANCH  38  39
ENDBRANCH  37  38
ENDBRANCH  36  37
ENDBRANCH   1  36
TORSDOF 17
ENDMDL
MODEL 3
REMARK VINA RESULT:     -12.9      1.087      1.991
REMARK SMILES Cc1cc(C)c(S(=O)(=O)Nc2ccc(N3CC[NH+](C)CC3)c(C(=O)NCCCCCCNC(=O)c3ccc(-c4c5nc(c(-c6c(F)c(F)c(F)c(F)c6F)c6ccc([nH]6)c(-c6c(F)c(F)c(F)c(F)c6F)c6nc(c(-c7c(F)c(F)c(F)c(F)c7F)c7ccc4[nH]7)C=C6)C=C5)cc3)c2)c(C)c1
REMARK SMILES IDX 28 1 27 2 26 3 25 4 23 5 24 6 22 8 11 9 12 10 98 11 13 12
REMARK SMILES IDX 14 13 10 14 7 16 8 17 9 18 6 19 1 20 2 21 3 22 101 23 4 24
REMARK SMILES IDX 99 25 5 26 100 27 15 28 16 29 21 30 17 31 20 32 18 33 19 34
REMARK SMILES IDX 29 36 30 37 31 38 32 39 33 40 34 42 35 43 36 44 97 45 37 46
REMARK SMILES IDX 96 47 38 48 39 49 40 50 90 51 41 52 95 53 89 54 91 55 42 56
REMARK SMILES IDX 94 57 88 58 87 59 43 61 75 62 55 63 74 64 56 65 59 66 73 67
REMARK SMILES IDX 92 68 57 69 58 70 72 72 93 73 60 74 44 75 45 76 53 77 46 78
REMARK SMILES IDX 47 79 51 80 54 81 48 82 49 83 52 84 50 85 76 86 77 87 85 88
REMARK SMILES IDX 78 89 79 90 83 91 86 92 80 93 81 94 84 95 82 96 61 97 62 98
REMARK SMILES IDX 70 99 63 100 64 101 68 102 71 103 65 104 66 105 69 106
REMARK SMILES IDX 67 107
REMARK H PARENT 25 7 10 15 18 35 32 41 91 60 59 71
REMARK Flexibility Score: inf
ROOT
ATOM      1  C   UNL A   1      37.771  21.369  24.651  1.00  0.00     0.002 C 
ENDROOT
BRANCH   1   2
ATOM      2  C   UNL A   1      37.865  22.288  25.876  1.00  0.00     0.021 C 
BRANCH   2   3
ATOM      3  C   UNL A   1      37.279  23.678  25.617  1.00  0.00     0.116 C 
BRANCH   3   4
ATOM      4  N   UNL A   1      36.528  23.658  24.380  1.00  0.00    -0.352 N 
ATOM      5  C   UNL A   1      35.187  23.718  24.097  1.00  0.00     0.253 C 
ATOM      6  O   UNL A   1      34.876  23.272  22.993  1.00  0.00    -0.269 OA
ATOM      7  H   UNL A   1      37.096  23.586  23.580  1.00  0.00     0.163 HD
BRANCH   5   8
ATOM      8  C   UNL A   1      34.160  24.294  25.032  1.00  0.00     0.065 A 
ATOM      9  C   UNL A   1      33.049  26.249  25.947  1.00  0.00     0.050 A 
ATOM     10  C   UNL A   1      32.173  25.434  26.656  1.00  0.00     0.029 A 
ATOM     11  C   UNL A   1      34.137  25.676  25.299  1.00  0.00     0.042 A 
ATOM     12  C   UNL A   1      32.227  24.057  26.480  1.00  0.00     0.029 A 
ATOM     13  C   UNL A   1      33.133  23.471  25.577  1.00  0.00     0.050 A 
BRANCH   9  14
ATOM     14  N   UNL A   1      32.680  27.616  25.842  1.00  0.00    -0.280 N 
ATOM     15  H   UNL A   1      32.487  28.085  26.686  1.00  0.00     0.180 HD
BRANCH  14  16
ATOM     16  S   UNL A   1      32.541  28.515  24.441  1.00  0.00     0.262 S 
ATOM     17  O   UNL A   1      32.665  27.576  23.339  1.00  0.00    -0.201 OA
ATOM     18  O   UNL A   1      33.484  29.600  24.603  1.00  0.00    -0.201 OA
BRANCH  16  19
ATOM     19  C   UNL A   1      30.921  29.292  24.255  1.00  0.00     0.093 A 
ATOM     20  C   UNL A   1      27.689  31.929  23.077  1.00  0.00     0.044 C 
ATOM     21  C   UNL A   1      28.778  31.001  23.524  1.00  0.00    -0.051 A 
ATOM     22  C   UNL A   1      29.686  31.392  24.504  1.00  0.00     0.008 A 
ATOM     23  C   UNL A   1      28.857  29.696  23.038  1.00  0.00     0.008 A 
ATOM     24  C   UNL A   1      30.757  30.559  24.881  1.00  0.00    -0.030 A 
ATOM     25  C   UNL A   1      29.886  28.809  23.431  1.00  0.00    -0.030 A 
ATOM     26  C   UNL A   1      31.592  31.053  26.038  1.00  0.00     0.046 C 
ATOM     27  C   UNL A   1      29.715  27.394  22.964  1.00  0.00     0.046 C 
ENDBRANCH  16  19
ENDBRANCH  14  16
ENDBRANCH   9  14
BRANCH  13  28
ATOM     28  N   UNL A   1      32.873  22.179  25.155  1.00  0.00    -0.360 N 
ATOM     29  C   UNL A   1      33.155  21.013  26.001  1.00  0.00     0.178 C 
ATOM     30  C   UNL A   1      31.842  21.932  24.138  1.00  0.00     0.178 C 
ATOM     31  C   UNL A   1      33.579  19.832  25.092  1.00  0.00     0.283 C 
ATOM     32  C   UNL A   1      32.240  20.716  23.274  1.00  0.00     0.283 C 
ATOM     33  N   UNL A   1      32.548  19.505  24.068  1.00  0.00    -0.334 N 
ATOM     34  C   UNL A   1      33.022  18.438  23.189  1.00  0.00     0.332 C 
ATOM     35  H   UNL A   1      31.702  19.183  24.540  1.00  0.00     0.347 HD
ENDBRANCH  13  28
ENDBRANCH   5   8
ENDBRANCH   3   4
ENDBRANCH   2   3
ENDBRANCH   1   2
BRANCH   1  36
ATOM     36  C   UNL A   1      37.367  19.925  24.973  1.00  0.00     0.002 C 
BRANCH  36  37
ATOM     37  C   UNL A   1      38.536  18.986  25.280  1.00  0.00     0.021 C 
BRANCH  37  38
ATOM     38  C   UNL A   1      39.732  19.664  25.942  1.00  0.00     0.116 C 
BRANCH  38  39
ATOM     39  N   UNL A   1      40.903  18.801  25.961  1.00  0.00    -0.352 N 
ATOM     40  C   UNL A   1      42.227  19.144  26.037  1.00  0.00     0.251 C 
ATOM     41  H   UNL A   1      40.718  17.835  25.913  1.00  0.00     0.163 HD
ATOM     42  O   UNL A   1      43.100  18.301  25.859  1.00  0.00    -0.269 OA
BRANCH  40  43
ATOM     43  C   UNL A   1      42.605  20.544  26.318  1.00  0.00     0.039 A 
ATOM     44  C   UNL A   1      42.499  21.019  27.628  1.00  0.00     0.014 A 
ATOM     45  C   UNL A   1      43.041  21.387  25.291  1.00  0.00     0.014 A 
ATOM     46  C   UNL A   1      42.876  22.330  27.919  1.00  0.00     0.010 A 
ATOM     47  C   UNL A   1      43.465  22.678  25.591  1.00  0.00     0.010 A 
ATOM     48  C   UNL A   1      43.379  23.161  26.906  1.00  0.00    -0.014 A 
BRANCH  48  49
ATOM     49  C   UNL A   1      43.813  24.546  27.201  1.00  0.00     0.031 A 
ATOM     50  C   UNL A   1      42.815  25.561  27.679  1.00  0.00     0.074 A 
ATOM     51  C   UNL A   1      45.088  24.907  26.966  1.00  0.00     0.049 A 
ATOM     52  N   UNL A   1      42.983  26.834  27.927  1.00  0.00    -0.248 NA
ATOM     53  C   UNL A   1      41.438  25.084  27.878  1.00  0.00     0.031 C 
ATOM     54  C   UNL A   1      46.131  24.026  26.446  1.00  0.00     0.029 A 
ATOM     55  N   UNL A   1      45.715  26.117  27.119  1.00  0.00    -0.354 N 
ATOM     56  C   UNL A   1      41.732  27.315  28.289  1.00  0.00     0.074 A 
ATOM     57  C   UNL A   1      40.807  26.206  28.192  1.00  0.00     0.031 C 
ATOM     58  C   UNL A   1      47.272  24.722  26.326  1.00  0.00     0.029 A 
ATOM     59  C   UNL A   1      47.033  26.102  26.740  1.00  0.00     0.049 A 
ATOM     60  H   UNL A   1      45.262  26.920  27.465  1.00  0.00     0.167 HD
ATOM     61  C   UNL A   1      41.391  28.564  28.683  1.00  0.00     0.037 A 
ATOM     62  C   UNL A   1      47.944  27.092  26.725  1.00  0.00     0.037 A 
ATOM     63  C   UNL A   1      42.319  29.656  28.810  1.00  0.00     0.049 A 
ATOM     64  C   UNL A   1      47.554  28.461  27.203  1.00  0.00     0.074 A 
ATOM     65  C   UNL A   1      42.090  30.936  29.283  1.00  0.00     0.029 A 
ATOM     66  N   UNL A   1      43.660  29.593  28.459  1.00  0.00    -0.354 N 
ATOM     67  N   UNL A   1      46.386  28.887  27.619  1.00  0.00    -0.248 NA
ATOM     68  C   UNL A   1      48.608  29.483  27.221  1.00  0.00     0.031 C 
ATOM     69  C   UNL A   1      43.286  31.658  29.188  1.00  0.00     0.029 A 
ATOM     70  C   UNL A   1      44.268  30.817  28.687  1.00  0.00     0.049 A 
ATOM     71  H   UNL A   1      44.113  28.796  28.100  1.00  0.00     0.167 HD
ATOM     72  C   UNL A   1      46.565  30.220  27.960  1.00  0.00     0.074 A 
ATOM     73  C   UNL A   1      47.960  30.529  27.717  1.00  0.00     0.031 C 
ATOM     74  C   UNL A   1      45.656  31.107  28.433  1.00  0.00     0.037 A 
BRANCH  61  75
ATOM     75  C   UNL A   1      39.947  28.812  29.002  1.00  0.00     0.064 A 
ATOM     76  C   UNL A   1      39.434  28.601  30.290  1.00  0.00     0.173 A 
ATOM     77  C   UNL A   1      39.068  29.270  28.011  1.00  0.00     0.173 A 
ATOM     78  F   UNL A   1      40.231  28.149  31.270  1.00  0.00    -0.203 F 
ATOM     79  C   UNL A   1      38.084  28.807  30.566  1.00  0.00     0.198 A 
ATOM     80  C   UNL A   1      37.725  29.501  28.296  1.00  0.00     0.198 A 
ATOM     81  F   UNL A   1      39.510  29.492  26.763  1.00  0.00    -0.203 F 
ATOM     82  F   UNL A   1      37.605  28.548  31.791  1.00  0.00    -0.200 F 
ATOM     83  C   UNL A   1      37.232  29.260  29.570  1.00  0.00     0.200 A 
ATOM     84  F   UNL A   1      36.903  29.947  27.335  1.00  0.00    -0.200 F 
ATOM     85  F   UNL A   1      35.933  29.455  29.836  1.00  0.00    -0.200 F 
ENDBRANCH  61  75
BRANCH  62  86
ATOM     86  C   UNL A   1      49.326  26.802  26.268  1.00  0.00     0.064 A 
ATOM     87  C   UNL A   1      50.282  26.291  27.155  1.00  0.00     0.173 A 
ATOM     88  C   UNL A   1      49.702  26.990  24.931  1.00  0.00     0.173 A 
ATOM     89  F   UNL A   1      49.968  26.113  28.447  1.00  0.00    -0.203 F 
ATOM     90  C   UNL A   1      51.569  25.984  26.722  1.00  0.00     0.198 A 
ATOM     91  C   UNL A   1      50.984  26.662  24.495  1.00  0.00     0.198 A 
ATOM     92  F   UNL A   1      48.818  27.469  24.044  1.00  0.00    -0.203 F 
ATOM     93  F   UNL A   1      52.473  25.516  27.594  1.00  0.00    -0.200 F 
ATOM     94  C   UNL A   1      51.917  26.161  25.391  1.00  0.00     0.200 A 
ATOM     95  F   UNL A   1      51.313  26.822  23.206  1.00  0.00    -0.200 F 
ATOM     96  F   UNL A   1      53.152  25.851  24.973  1.00  0.00    -0.200 F 
ENDBRANCH  62  86
BRANCH  74  97
ATOM     97  C   UNL A   1      46.143  32.493  28.728  1.00  0.00     0.064 A 
ATOM     98  C   UNL A   1      46.093  33.505  27.760  1.00  0.00     0.173 A 
ATOM     99  C   UNL A   1      46.626  32.821  30.004  1.00  0.00     0.173 A 
ATOM    100  F   UNL A   1      45.654  33.235  26.522  1.00  0.00    -0.203 F 
ATOM    101  C   UNL A   1      46.526  34.796  28.054  1.00  0.00     0.198 A 
ATOM    102  C   UNL A   1      47.037  34.117  30.300  1.00  0.00     0.198 A 
ATOM    103  F   UNL A   1      46.690  31.887  30.963  1.00  0.00    -0.203 F 
ATOM    104  F   UNL A   1      46.502  35.741  27.104  1.00  0.00    -0.200 F 
ATOM    105  C   UNL A   1      46.991  35.102  29.325  1.00  0.00     0.200 A 
ATOM    106  F   UNL A   1      47.479  34.413  31.530  1.00  0.00    -0.200 F 
ATOM    107  F   UNL A   1      47.401  36.346  29.607  1.00  0.00    -0.200 F 
ENDBRANCH  74  97
ENDBRANCH  48  49
ENDBRANCH  40  43
ENDBRANCH  38  39
ENDBRANCH  37  38
ENDBRANCH  36  37
ENDBRANCH   1  36
TORSDOF 17
ENDMDL
