MODEL 1
REMARK VINA RESULT:     -12.4      0.000      0.000
REMARK SMILES CC(C)(C)OC(=O)N1CCC[C@H]1C(=O)N[C@@H](Cc1ccccc1)C(=O)NCCCCCCNC(=O)c1ccc(-c2c3nc(c(-c4c(F)c(F)c(F)c(F)c4F)c4ccc([nH]4)c(-c4c(F)c(F)c(F)c(F)c4F)c4nc(c(-c5c(F)c(F)c(F)c(F)c5F)c5ccc2[nH]5)C=C4)C=C3)cc1
REMARK SMILES IDX 28 1 27 2 26 3 24 4 25 5 16 7 15 8 13 9 14 10 12 12 8 13
REMARK SMILES IDX 9 14 10 15 11 16 6 17 7 18 5 19 2 20 1 21 3 22 4 23 17 24
REMARK SMILES IDX 18 25 19 26 23 27 20 28 22 29 21 30 29 31 30 32 31 33 32 34
REMARK SMILES IDX 33 35 34 36 35 38 36 39 37 40 98 41 38 42 97 43 39 44 40 45
REMARK SMILES IDX 41 46 91 47 42 48 96 49 90 50 92 51 43 52 95 53 89 54 88 55
REMARK SMILES IDX 44 57 76 58 56 59 75 60 57 61 60 62 74 63 93 64 58 65 59 66
REMARK SMILES IDX 73 68 94 69 61 70 45 71 46 72 54 73 47 74 48 75 52 76 55 77
REMARK SMILES IDX 49 78 50 79 53 80 51 81 77 82 78 83 86 84 79 85 80 86 84 87
REMARK SMILES IDX 87 88 81 89 82 90 85 91 83 92 62 93 63 94 71 95 64 96 65 97
REMARK SMILES IDX 69 98 72 99 66 100 67 101 70 102 68 103
REMARK H PARENT 26 6 15 11 33 37 92 56 60 67
REMARK Flexibility Score: inf
ROOT
ATOM      1  C   UNL A   1      36.447  23.100  24.668  1.00  0.00     0.021 C 
ENDROOT
BRANCH   1   2
ATOM      2  C   UNL A   1      34.950  23.077  24.922  1.00  0.00     0.116 C 
BRANCH   2   3
ATOM      3  N   UNL A   1      34.587  22.883  26.302  1.00  0.00    -0.354 N 
ATOM      4  C   UNL A   1      33.563  22.151  26.818  1.00  0.00     0.242 C 
ATOM      5  O   UNL A   1      33.653  21.829  28.009  1.00  0.00    -0.273 OA
ATOM      6  H   UNL A   1      35.155  23.343  26.962  1.00  0.00     0.163 HD
BRANCH   4   7
ATOM      7  C   UNL A   1      32.361  21.646  25.982  1.00  0.00     0.175 C 
BRANCH   7   8
ATOM      8  N   UNL A   1      31.098  22.369  26.164  1.00  0.00    -0.342 N 
ATOM      9  C   UNL A   1      30.836  23.701  26.302  1.00  0.00     0.243 C 
ATOM     10  O   UNL A   1      29.771  23.950  26.879  1.00  0.00    -0.273 OA
ATOM     11  H   UNL A   1      30.301  21.792  26.192  1.00  0.00     0.164 HD
BRANCH   9  12
ATOM     12  C   UNL A   1      31.707  24.814  25.644  1.00  0.00     0.178 C 
ATOM     13  N   UNL A   1      31.002  25.479  24.539  1.00  0.00    -0.296 N 
ATOM     14  C   UNL A   1      30.759  26.878  24.826  1.00  0.00     0.124 C 
ATOM     15  C   UNL A   1      31.960  27.240  25.668  1.00  0.00     0.024 C 
ATOM     16  C   UNL A   1      32.122  25.996  26.532  1.00  0.00     0.037 C 
BRANCH  13  17
ATOM     17  C   UNL A   1      30.855  24.893  23.304  1.00  0.00     0.410 C 
ATOM     18  O   UNL A   1      30.437  23.762  23.132  1.00  0.00    -0.224 OA
BRANCH  17  19
ATOM     19  O   UNL A   1      31.301  25.718  22.323  1.00  0.00    -0.444 OA
BRANCH  19  20
ATOM     20  C   UNL A   1      32.641  25.656  21.776  1.00  0.00     0.106 C 
ATOM     21  C   UNL A   1      33.280  26.997  22.172  1.00  0.00     0.056 C 
ATOM     22  C   UNL A   1      32.525  25.575  20.254  1.00  0.00     0.056 C 
ATOM     23  C   UNL A   1      33.513  24.528  22.337  1.00  0.00     0.056 C 
ENDBRANCH  19  20
ENDBRANCH  17  19
ENDBRANCH  13  17
ENDBRANCH   9  12
ENDBRANCH   7   8
BRANCH   7  24
ATOM     24  C   UNL A   1      32.677  21.362  24.486  1.00  0.00     0.070 C 
BRANCH  24  25
ATOM     25  C   UNL A   1      32.915  19.944  24.015  1.00  0.00    -0.045 A 
ATOM     26  C   UNL A   1      33.847  19.137  24.686  1.00  0.00     0.004 A 
ATOM     27  C   UNL A   1      32.202  19.386  22.942  1.00  0.00     0.004 A 
ATOM     28  C   UNL A   1      34.116  17.838  24.248  1.00  0.00     0.000 A 
ATOM     29  C   UNL A   1      32.500  18.099  22.480  1.00  0.00     0.000 A 
ATOM     30  C   UNL A   1      33.462  17.329  23.130  1.00  0.00     0.000 A 
ENDBRANCH  24  25
ENDBRANCH   7  24
ENDBRANCH   4   7
ENDBRANCH   2   3
ENDBRANCH   1   2
BRANCH   1  31
ATOM     31  C   UNL A   1      37.018  21.814  24.078  1.00  0.00     0.002 C 
BRANCH  31  32
ATOM     32  C   UNL A   1      36.787  20.540  24.899  1.00  0.00     0.002 C 
BRANCH  32  33
ATOM     33  C   UNL A   1      37.978  19.583  25.001  1.00  0.00     0.021 C 
BRANCH  33  34
ATOM     34  C   UNL A   1      39.185  20.124  25.759  1.00  0.00     0.116 C 
BRANCH  34  35
ATOM     35  N   UNL A   1      40.225  19.123  25.923  1.00  0.00    -0.352 N 
ATOM     36  C   UNL A   1      41.573  19.277  26.126  1.00  0.00     0.251 C 
ATOM     37  H   UNL A   1      39.915  18.191  25.884  1.00  0.00     0.163 HD
ATOM     38  O   UNL A   1      42.318  18.306  26.046  1.00  0.00    -0.269 OA
BRANCH  36  39
ATOM     39  C   UNL A   1      42.136  20.611  26.421  1.00  0.00     0.039 A 
ATOM     40  C   UNL A   1      42.516  21.430  25.354  1.00  0.00     0.014 A 
ATOM     41  C   UNL A   1      42.317  21.047  27.736  1.00  0.00     0.014 A 
ATOM     42  C   UNL A   1      43.019  22.708  25.605  1.00  0.00     0.010 A 
ATOM     43  C   UNL A   1      42.746  22.349  27.983  1.00  0.00     0.010 A 
ATOM     44  C   UNL A   1      43.104  23.192  26.920  1.00  0.00    -0.014 A 
BRANCH  44  45
ATOM     45  C   UNL A   1      43.560  24.577  27.201  1.00  0.00     0.031 A 
ATOM     46  C   UNL A   1      42.593  25.604  27.720  1.00  0.00     0.074 A 
ATOM     47  C   UNL A   1      44.832  24.926  26.926  1.00  0.00     0.049 A 
ATOM     48  N   UNL A   1      42.783  26.878  27.954  1.00  0.00    -0.248 NA
ATOM     49  C   UNL A   1      41.221  25.144  27.986  1.00  0.00     0.031 C 
ATOM     50  C   UNL A   1      45.853  24.031  26.378  1.00  0.00     0.029 A 
ATOM     51  N   UNL A   1      45.480  26.129  27.055  1.00  0.00    -0.354 N 
ATOM     52  C   UNL A   1      41.557  27.372  28.378  1.00  0.00     0.074 A 
ATOM     53  C   UNL A   1      40.616  26.275  28.320  1.00  0.00     0.031 C 
ATOM     54  C   UNL A   1      47.002  24.710  26.236  1.00  0.00     0.029 A 
ATOM     55  C   UNL A   1      46.789  26.097  26.639  1.00  0.00     0.049 A 
ATOM     56  H   UNL A   1      45.048  26.938  27.413  1.00  0.00     0.167 HD
ATOM     57  C   UNL A   1      41.250  28.623  28.796  1.00  0.00     0.037 A 
ATOM     58  C   UNL A   1      47.709  27.079  26.575  1.00  0.00     0.037 A 
ATOM     59  C   UNL A   1      42.196  29.705  28.874  1.00  0.00     0.049 A 
ATOM     60  C   UNL A   1      47.338  28.464  27.031  1.00  0.00     0.074 A 
ATOM     61  C   UNL A   1      42.001  30.989  29.353  1.00  0.00     0.029 A 
ATOM     62  N   UNL A   1      43.516  29.632  28.452  1.00  0.00    -0.354 N 
ATOM     63  N   UNL A   1      46.196  28.900  27.504  1.00  0.00    -0.248 NA
ATOM     64  C   UNL A   1      48.384  29.492  26.949  1.00  0.00     0.031 C 
ATOM     65  C   UNL A   1      43.186  31.709  29.167  1.00  0.00     0.029 A 
ATOM     66  C   UNL A   1      44.137  30.858  28.628  1.00  0.00     0.049 A 
ATOM     67  H   UNL A   1      43.947  28.828  28.083  1.00  0.00     0.167 HD
ATOM     68  C   UNL A   1      46.392  30.243  27.797  1.00  0.00     0.074 A 
ATOM     69  C   UNL A   1      47.768  30.545  27.466  1.00  0.00     0.031 C 
ATOM     70  C   UNL A   1      45.510  31.144  28.296  1.00  0.00     0.037 A 
BRANCH  57  71
ATOM     71  C   UNL A   1      39.829  28.893  29.201  1.00  0.00     0.064 A 
ATOM     72  C   UNL A   1      38.866  29.325  28.277  1.00  0.00     0.173 A 
ATOM     73  C   UNL A   1      39.413  28.675  30.525  1.00  0.00     0.173 A 
ATOM     74  F   UNL A   1      39.210  29.557  27.001  1.00  0.00    -0.203 F 
ATOM     75  C   UNL A   1      37.550  29.560  28.668  1.00  0.00     0.198 A 
ATOM     76  C   UNL A   1      38.090  28.879  30.905  1.00  0.00     0.198 A 
ATOM     77  F   UNL A   1      40.291  28.254  31.449  1.00  0.00    -0.203 F 
ATOM     78  F   UNL A   1      36.661  30.023  27.777  1.00  0.00    -0.200 F 
ATOM     79  C   UNL A   1      37.161  29.330  29.978  1.00  0.00     0.200 A 
ATOM     80  F   UNL A   1      37.713  28.642  32.169  1.00  0.00    -0.200 F 
ATOM     81  F   UNL A   1      35.892  29.548  30.351  1.00  0.00    -0.200 F 
ENDBRANCH  57  71
BRANCH  58  82
ATOM     82  C   UNL A   1      49.074  26.782  26.067  1.00  0.00     0.064 A 
ATOM     83  C   UNL A   1      49.404  26.995  24.721  1.00  0.00     0.173 A 
ATOM     84  C   UNL A   1      50.075  26.279  26.911  1.00  0.00     0.173 A 
ATOM     85  F   UNL A   1      48.477  27.455  23.868  1.00  0.00    -0.203 F 
ATOM     86  C   UNL A   1      50.676  26.697  24.235  1.00  0.00     0.198 A 
ATOM     87  C   UNL A   1      51.355  26.011  26.431  1.00  0.00     0.198 A 
ATOM     88  F   UNL A   1      49.813  26.063  28.208  1.00  0.00    -0.203 F 
ATOM     89  F   UNL A   1      50.951  26.866  22.935  1.00  0.00    -0.200 F 
ATOM     90  C   UNL A   1      51.653  26.211  25.092  1.00  0.00     0.200 A 
ATOM     91  F   UNL A   1      52.300  25.559  27.266  1.00  0.00    -0.200 F 
ATOM     92  F   UNL A   1      52.877  25.932  24.626  1.00  0.00    -0.200 F 
ENDBRANCH  58  82
BRANCH  70  93
ATOM     93  C   UNL A   1      46.012  32.539  28.539  1.00  0.00     0.064 A 
ATOM     94  C   UNL A   1      45.902  33.542  27.565  1.00  0.00     0.173 A 
ATOM     95  C   UNL A   1      46.565  32.887  29.782  1.00  0.00     0.173 A 
ATOM     96  F   UNL A   1      45.396  33.256  26.356  1.00  0.00    -0.203 F 
ATOM     97  C   UNL A   1      46.347  34.836  27.818  1.00  0.00     0.198 A 
ATOM     98  C   UNL A   1      46.979  34.190  30.042  1.00  0.00     0.198 A 
ATOM     99  F   UNL A   1      46.687  31.966  30.750  1.00  0.00    -0.203 F 
ATOM    100  F   UNL A   1      46.274  35.767  26.857  1.00  0.00    -0.200 F 
ATOM    101  C   UNL A   1      46.876  35.162  29.059  1.00  0.00     0.200 A 
ATOM    102  F   UNL A   1      47.475  34.506  31.246  1.00  0.00    -0.200 F 
ATOM    103  F   UNL A   1      47.294  36.412  29.304  1.00  0.00    -0.200 F 
ENDBRANCH  70  93
ENDBRANCH  44  45
ENDBRANCH  36  39
ENDBRANCH  34  35
ENDBRANCH  33  34
ENDBRANCH  32  33
ENDBRANCH  31  32
ENDBRANCH   1  31
TORSDOF 20
ENDMDL
MODEL 2
REMARK VINA RESULT:     -12.1      1.741      3.728
REMARK SMILES CC(C)(C)OC(=O)N1CCC[C@H]1C(=O)N[C@@H](Cc1ccccc1)C(=O)NCCCCCCNC(=O)c1ccc(-c2c3nc(c(-c4c(F)c(F)c(F)c(F)c4F)c4ccc([nH]4)c(-c4c(F)c(F)c(F)c(F)c4F)c4nc(c(-c5c(F)c(F)c(F)c(F)c5F)c5ccc2[nH]5)C=C4)C=C3)cc1
REMARK SMILES IDX 28 1 27 2 26 3 24 4 25 5 16 7 15 8 13 9 14 10 12 12 8 13
REMARK SMILES IDX 9 14 10 15 11 16 6 17 7 18 5 19 2 20 1 21 3 22 4 23 17 24
REMARK SMILES IDX 18 25 19 26 23 27 20 28 22 29 21 30 29 31 30 32 31 33 32 34
REMARK SMILES IDX 33 35 34 36 35 38 36 39 37 40 98 41 38 42 97 43 39 44 40 45
REMARK SMILES IDX 41 46 91 47 42 48 96 49 90 50 92 51 43 52 95 53 89 54 88 55
REMARK SMILES IDX 44 57 76 58 56 59 75 60 57 61 60 62 74 63 93 64 58 65 59 66
REMARK SMILES IDX 73 68 94 69 61 70 45 71 46 72 54 73 47 74 48 75 52 76 55 77
REMARK SMILES IDX 49 78 50 79 53 80 51 81 77 82 78 83 86 84 79 85 80 86 84 87
REMARK SMILES IDX 87 88 81 89 82 90 85 91 83 92 62 93 63 94 71 95 64 96 65 97
REMARK SMILES IDX 69 98 72 99 66 100 67 101 70 102 68 103
REMARK H PARENT 26 6 15 11 33 37 92 56 60 67
REMARK Flexibility Score: inf
ROOT
ATOM      1  C   UNL A   1      36.109  23.460  24.226  1.00  0.00     0.021 C 
ENDROOT
BRANCH   1   2
ATOM      2  C   UNL A   1      34.840  23.675  23.420  1.00  0.00     0.116 C 
BRANCH   2   3
ATOM      3  N   UNL A   1      33.756  22.797  23.778  1.00  0.00    -0.354 N 
ATOM      4  C   UNL A   1      32.487  23.119  24.146  1.00  0.00     0.242 C 
ATOM      5  O   UNL A   1      31.637  22.225  24.055  1.00  0.00    -0.273 OA
ATOM      6  H   UNL A   1      33.961  21.834  23.754  1.00  0.00     0.163 HD
BRANCH   4   7
ATOM      7  C   UNL A   1      32.054  24.539  24.587  1.00  0.00     0.175 C 
BRANCH   7   8
ATOM      8  N   UNL A   1      30.667  24.911  24.294  1.00  0.00    -0.342 N 
ATOM      9  C   UNL A   1      30.139  26.019  23.697  1.00  0.00     0.243 C 
ATOM     10  O   UNL A   1      28.962  26.245  23.998  1.00  0.00    -0.273 OA
ATOM     11  H   UNL A   1      29.999  24.246  24.578  1.00  0.00     0.164 HD
BRANCH   9  12
ATOM     12  C   UNL A   1      30.889  26.835  22.599  1.00  0.00     0.178 C 
ATOM     13  N   UNL A   1      31.487  28.063  23.144  1.00  0.00    -0.296 N 
ATOM     14  C   UNL A   1      32.932  28.036  23.057  1.00  0.00     0.124 C 
ATOM     15  C   UNL A   1      33.158  27.233  21.798  1.00  0.00     0.024 C 
ATOM     16  C   UNL A   1      32.086  26.157  21.918  1.00  0.00     0.037 C 
BRANCH  13  17
ATOM     17  C   UNL A   1      30.736  29.179  23.432  1.00  0.00     0.410 C 
ATOM     18  O   UNL A   1      30.742  29.743  24.511  1.00  0.00    -0.224 OA
BRANCH  17  19
ATOM     19  O   UNL A   1      29.949  29.515  22.379  1.00  0.00    -0.444 OA
BRANCH  19  20
ATOM     20  C   UNL A   1      28.620  30.074  22.522  1.00  0.00     0.106 C 
ATOM     21  C   UNL A   1      28.234  30.515  21.101  1.00  0.00     0.056 C 
ATOM     22  C   UNL A   1      28.720  31.300  23.429  1.00  0.00     0.056 C 
ATOM     23  C   UNL A   1      27.558  29.087  23.020  1.00  0.00     0.056 C 
ENDBRANCH  19  20
ENDBRANCH  17  19
ENDBRANCH  13  17
ENDBRANCH   9  12
ENDBRANCH   7   8
BRANCH   7  24
ATOM     24  C   UNL A   1      32.490  24.940  26.025  1.00  0.00     0.070 C 
BRANCH  24  25
ATOM     25  C   UNL A   1      32.608  26.400  26.404  1.00  0.00    -0.045 A 
ATOM     26  C   UNL A   1      33.820  27.077  26.193  1.00  0.00     0.004 A 
ATOM     27  C   UNL A   1      31.526  27.124  26.931  1.00  0.00     0.004 A 
ATOM     28  C   UNL A   1      33.969  28.413  26.572  1.00  0.00     0.000 A 
ATOM     29  C   UNL A   1      31.688  28.450  27.345  1.00  0.00     0.000 A 
ATOM     30  C   UNL A   1      32.912  29.092  27.171  1.00  0.00     0.000 A 
ENDBRANCH  24  25
ENDBRANCH   7  24
ENDBRANCH   4   7
ENDBRANCH   2   3
ENDBRANCH   1   2
BRANCH   1  31
ATOM     31  C   UNL A   1      36.895  22.201  23.864  1.00  0.00     0.002 C 
BRANCH  31  32
ATOM     32  C   UNL A   1      36.712  21.006  24.806  1.00  0.00     0.002 C 
BRANCH  32  33
ATOM     33  C   UNL A   1      37.874  20.009  24.855  1.00  0.00     0.021 C 
BRANCH  33  34
ATOM     34  C   UNL A   1      38.974  20.340  25.857  1.00  0.00     0.116 C 
BRANCH  34  35
ATOM     35  N   UNL A   1      40.030  19.342  25.865  1.00  0.00    -0.352 N 
ATOM     36  C   UNL A   1      41.381  19.490  26.048  1.00  0.00     0.251 C 
ATOM     37  H   UNL A   1      39.729  18.417  25.717  1.00  0.00     0.163 HD
ATOM     38  O   UNL A   1      42.135  18.547  25.826  1.00  0.00    -0.269 OA
BRANCH  36  39
ATOM     39  C   UNL A   1      41.938  20.784  26.493  1.00  0.00     0.039 A 
ATOM     40  C   UNL A   1      42.354  21.703  25.525  1.00  0.00     0.014 A 
ATOM     41  C   UNL A   1      42.077  21.086  27.850  1.00  0.00     0.014 A 
ATOM     42  C   UNL A   1      42.852  22.947  25.918  1.00  0.00     0.010 A 
ATOM     43  C   UNL A   1      42.501  22.354  28.239  1.00  0.00     0.010 A 
ATOM     44  C   UNL A   1      42.896  23.297  27.277  1.00  0.00    -0.014 A 
BRANCH  44  45
ATOM     45  C   UNL A   1      43.346  24.644  27.710  1.00  0.00     0.031 A 
ATOM     46  C   UNL A   1      42.340  25.708  28.048  1.00  0.00     0.074 A 
ATOM     47  C   UNL A   1      44.663  24.928  27.734  1.00  0.00     0.049 A 
ATOM     48  N   UNL A   1      42.536  26.961  28.373  1.00  0.00    -0.248 NA
ATOM     49  C   UNL A   1      40.922  25.320  27.989  1.00  0.00     0.031 C 
ATOM     50  C   UNL A   1      45.734  23.994  27.385  1.00  0.00     0.029 A 
ATOM     51  N   UNL A   1      45.325  26.088  28.053  1.00  0.00    -0.354 N 
ATOM     52  C   UNL A   1      41.272  27.511  28.539  1.00  0.00     0.074 A 
ATOM     53  C   UNL A   1      40.314  26.472  28.231  1.00  0.00     0.031 C 
ATOM     54  C   UNL A   1      46.918  24.610  27.526  1.00  0.00     0.029 A 
ATOM     55  C   UNL A   1      46.690  25.993  27.932  1.00  0.00     0.049 A 
ATOM     56  H   UNL A   1      44.865  26.908  28.342  1.00  0.00     0.167 HD
ATOM     57  C   UNL A   1      40.943  28.765  28.934  1.00  0.00     0.037 A 
ATOM     58  C   UNL A   1      47.648  26.923  28.112  1.00  0.00     0.037 A 
ATOM     59  C   UNL A   1      41.900  29.788  29.262  1.00  0.00     0.049 A 
ATOM     60  C   UNL A   1      47.254  28.311  28.535  1.00  0.00     0.074 A 
ATOM     61  C   UNL A   1      41.668  31.065  29.741  1.00  0.00     0.029 A 
ATOM     62  N   UNL A   1      43.275  29.653  29.136  1.00  0.00    -0.354 N 
ATOM     63  N   UNL A   1      46.059  28.797  28.765  1.00  0.00    -0.248 NA
ATOM     64  C   UNL A   1      48.342  29.280  28.727  1.00  0.00     0.031 C 
ATOM     65  C   UNL A   1      42.898  31.722  29.849  1.00  0.00     0.029 A 
ATOM     66  C   UNL A   1      43.902  30.835  29.495  1.00  0.00     0.049 A 
ATOM     67  H   UNL A   1      43.737  28.837  28.835  1.00  0.00     0.167 HD
ATOM     68  C   UNL A   1      46.251  30.117  29.151  1.00  0.00     0.074 A 
ATOM     69  C   UNL A   1      47.680  30.351  29.141  1.00  0.00     0.031 C 
ATOM     70  C   UNL A   1      45.327  31.052  29.483  1.00  0.00     0.037 A 
BRANCH  57  71
ATOM     71  C   UNL A   1      39.482  29.103  29.030  1.00  0.00     0.064 A 
ATOM     72  C   UNL A   1      38.731  29.467  27.902  1.00  0.00     0.173 A 
ATOM     73  C   UNL A   1      38.813  29.020  30.262  1.00  0.00     0.173 A 
ATOM     74  F   UNL A   1      39.322  29.569  26.701  1.00  0.00    -0.203 F 
ATOM     75  C   UNL A   1      37.375  29.766  28.008  1.00  0.00     0.198 A 
ATOM     76  C   UNL A   1      37.450  29.288  30.358  1.00  0.00     0.198 A 
ATOM     77  F   UNL A   1      39.480  28.670  31.372  1.00  0.00    -0.203 F 
ATOM     78  F   UNL A   1      36.692  30.162  26.924  1.00  0.00    -0.200 F 
ATOM     79  C   UNL A   1      36.734  29.670  29.233  1.00  0.00     0.200 A 
ATOM     80  F   UNL A   1      36.830  29.180  31.541  1.00  0.00    -0.200 F 
ATOM     81  F   UNL A   1      35.427  29.950  29.332  1.00  0.00    -0.200 F 
ENDBRANCH  57  71
BRANCH  58  82
ATOM     82  C   UNL A   1      49.076  26.564  27.901  1.00  0.00     0.064 A 
ATOM     83  C   UNL A   1      49.909  26.254  28.986  1.00  0.00     0.173 A 
ATOM     84  C   UNL A   1      49.636  26.523  26.616  1.00  0.00     0.173 A 
ATOM     85  F   UNL A   1      49.426  26.299  30.236  1.00  0.00    -0.203 F 
ATOM     86  C   UNL A   1      51.253  25.939  28.795  1.00  0.00     0.198 A 
ATOM     87  C   UNL A   1      50.972  26.178  26.424  1.00  0.00     0.198 A 
ATOM     88  F   UNL A   1      48.882  26.804  25.544  1.00  0.00    -0.203 F 
ATOM     89  F   UNL A   1      52.038  25.694  29.852  1.00  0.00    -0.200 F 
ATOM     90  C   UNL A   1      51.782  25.894  27.513  1.00  0.00     0.200 A 
ATOM     91  F   UNL A   1      51.475  26.118  25.183  1.00  0.00    -0.200 F 
ATOM     92  F   UNL A   1      53.072  25.584  27.329  1.00  0.00    -0.200 F 
ENDBRANCH  58  82
BRANCH  70  93
ATOM     93  C   UNL A   1      45.830  32.407  29.889  1.00  0.00     0.064 A 
ATOM     94  C   UNL A   1      46.180  32.695  31.216  1.00  0.00     0.173 A 
ATOM     95  C   UNL A   1      46.012  33.414  28.928  1.00  0.00     0.173 A 
ATOM     96  F   UNL A   1      46.009  31.773  32.175  1.00  0.00    -0.203 F 
ATOM     97  C   UNL A   1      46.672  33.949  31.570  1.00  0.00     0.198 A 
ATOM     98  C   UNL A   1      46.535  34.655  29.280  1.00  0.00     0.198 A 
ATOM     99  F   UNL A   1      45.699  33.188  27.643  1.00  0.00    -0.203 F 
ATOM    100  F   UNL A   1      46.956  34.218  32.852  1.00  0.00    -0.200 F 
ATOM    101  C   UNL A   1      46.858  34.925  30.601  1.00  0.00     0.200 A 
ATOM    102  F   UNL A   1      46.728  35.590  28.339  1.00  0.00    -0.200 F 
ATOM    103  F   UNL A   1      47.342  36.126  30.942  1.00  0.00    -0.200 F 
ENDBRANCH  70  93
ENDBRANCH  44  45
ENDBRANCH  36  39
ENDBRANCH  34  35
ENDBRANCH  33  34
ENDBRANCH  32  33
ENDBRANCH  31  32
ENDBRANCH   1  31
TORSDOF 20
ENDMDL
MODEL 3
REMARK VINA RESULT:     -12.1      5.470     11.072
REMARK SMILES CC(C)(C)OC(=O)N1CCC[C@H]1C(=O)N[C@@H](Cc1ccccc1)C(=O)NCCCCCCNC(=O)c1ccc(-c2c3nc(c(-c4c(F)c(F)c(F)c(F)c4F)c4ccc([nH]4)c(-c4c(F)c(F)c(F)c(F)c4F)c4nc(c(-c5c(F)c(F)c(F)c(F)c5F)c5ccc2[nH]5)C=C4)C=C3)cc1
REMARK SMILES IDX 28 1 27 2 26 3 24 4 25 5 16 7 15 8 13 9 14 10 12 12 8 13
REMARK SMILES IDX 9 14 10 15 11 16 6 17 7 18 5 19 2 20 1 21 3 22 4 23 17 24
REMARK SMILES IDX 18 25 19 26 23 27 20 28 22 29 21 30 29 31 30 32 31 33 32 34
REMARK SMILES IDX 33 35 34 36 35 38 36 39 37 40 98 41 38 42 97 43 39 44 40 45
REMARK SMILES IDX 41 46 91 47 42 48 96 49 90 50 92 51 43 52 95 53 89 54 88 55
REMARK SMILES IDX 44 57 76 58 56 59 75 60 57 61 60 62 74 63 93 64 58 65 59 66
REMARK SMILES IDX 73 68 94 69 61 70 45 71 46 72 54 73 47 74 48 75 52 76 55 77
REMARK SMILES IDX 49 78 50 79 53 80 51 81 77 82 78 83 86 84 79 85 80 86 84 87
REMARK SMILES IDX 87 88 81 89 82 90 85 91 83 92 62 93 63 94 71 95 64 96 65 97
REMARK SMILES IDX 69 98 72 99 66 100 67 101 70 102 68 103
REMARK H PARENT 26 6 15 11 33 37 92 56 60 67
REMARK Flexibility Score: inf
ROOT
ATOM      1  C   UNL A   1      33.291  29.170  26.760  1.00  0.00     0.021 C 
ENDROOT
BRANCH   1   2
ATOM      2  C   UNL A   1      32.940  29.477  25.315  1.00  0.00     0.116 C 
BRANCH   2   3
ATOM      3  N   UNL A   1      33.906  29.003  24.358  1.00  0.00    -0.354 N 
ATOM      4  C   UNL A   1      33.695  28.534  23.099  1.00  0.00     0.242 C 
ATOM      5  O   UNL A   1      34.670  28.528  22.337  1.00  0.00    -0.273 OA
ATOM      6  H   UNL A   1      34.844  29.019  24.655  1.00  0.00     0.163 HD
BRANCH   4   7
ATOM      7  C   UNL A   1      32.310  28.096  22.564  1.00  0.00     0.175 C 
BRANCH   7   8
ATOM      8  N   UNL A   1      32.307  26.981  21.613  1.00  0.00    -0.342 N 
ATOM      9  C   UNL A   1      32.906  25.755  21.661  1.00  0.00     0.243 C 
ATOM     10  O   UNL A   1      33.093  25.239  20.554  1.00  0.00    -0.273 OA
ATOM     11  H   UNL A   1      31.782  27.145  20.797  1.00  0.00     0.164 HD
BRANCH   9  12
ATOM     12  C   UNL A   1      33.178  24.991  22.993  1.00  0.00     0.178 C 
ATOM     13  N   UNL A   1      32.248  23.868  23.178  1.00  0.00    -0.296 N 
ATOM     14  C   UNL A   1      32.940  22.596  23.176  1.00  0.00     0.124 C 
ATOM     15  C   UNL A   1      34.273  22.961  23.786  1.00  0.00     0.024 C 
ATOM     16  C   UNL A   1      34.548  24.316  23.146  1.00  0.00     0.037 C 
BRANCH  13  17
ATOM     17  C   UNL A   1      30.943  24.053  23.574  1.00  0.00     0.410 C 
ATOM     18  O   UNL A   1      30.150  24.771  22.993  1.00  0.00    -0.224 OA
BRANCH  17  19
ATOM     19  O   UNL A   1      30.692  23.384  24.728  1.00  0.00    -0.444 OA
BRANCH  19  20
ATOM     20  C   UNL A   1      30.784  23.993  26.040  1.00  0.00     0.106 C 
ATOM     21  C   UNL A   1      30.037  23.022  26.968  1.00  0.00     0.056 C 
ATOM     22  C   UNL A   1      30.042  25.328  25.993  1.00  0.00     0.056 C 
ATOM     23  C   UNL A   1      32.212  24.158  26.572  1.00  0.00     0.056 C 
ENDBRANCH  19  20
ENDBRANCH  17  19
ENDBRANCH  13  17
ENDBRANCH   9  12
ENDBRANCH   7   8
BRANCH   7  24
ATOM     24  C   UNL A   1      31.203  27.959  23.649  1.00  0.00     0.070 C 
BRANCH  24  25
ATOM     25  C   UNL A   1      29.884  28.683  23.485  1.00  0.00    -0.045 A 
ATOM     26  C   UNL A   1      28.713  27.948  23.248  1.00  0.00     0.004 A 
ATOM     27  C   UNL A   1      29.781  30.079  23.603  1.00  0.00     0.004 A 
ATOM     28  C   UNL A   1      27.489  28.593  23.053  1.00  0.00     0.000 A 
ATOM     29  C   UNL A   1      28.563  30.726  23.369  1.00  0.00     0.000 A 
ATOM     30  C   UNL A   1      27.419  29.983  23.088  1.00  0.00     0.000 A 
ENDBRANCH  24  25
ENDBRANCH   7  24
ENDBRANCH   4   7
ENDBRANCH   2   3
ENDBRANCH   1   2
BRANCH   1  31
ATOM     31  C   UNL A   1      34.526  29.895  27.290  1.00  0.00     0.002 C 
BRANCH  31  32
ATOM     32  C   UNL A   1      34.257  31.158  28.115  1.00  0.00     0.002 C 
BRANCH  32  33
ATOM     33  C   UNL A   1      33.825  32.396  27.323  1.00  0.00     0.021 C 
BRANCH  33  34
ATOM     34  C   UNL A   1      32.401  32.874  27.586  1.00  0.00     0.116 C 
BRANCH  34  35
ATOM     35  N   UNL A   1      32.336  34.306  27.824  1.00  0.00    -0.352 N 
ATOM     36  C   UNL A   1      33.057  35.091  28.686  1.00  0.00     0.251 C 
ATOM     37  H   UNL A   1      31.671  34.786  27.281  1.00  0.00     0.163 HD
ATOM     38  O   UNL A   1      32.719  36.254  28.882  1.00  0.00    -0.269 OA
BRANCH  36  39
ATOM     39  C   UNL A   1      34.229  34.538  29.398  1.00  0.00     0.039 A 
ATOM     40  C   UNL A   1      34.025  33.877  30.612  1.00  0.00     0.014 A 
ATOM     41  C   UNL A   1      35.522  34.691  28.892  1.00  0.00     0.014 A 
ATOM     42  C   UNL A   1      35.111  33.315  31.287  1.00  0.00     0.010 A 
ATOM     43  C   UNL A   1      36.593  34.065  29.525  1.00  0.00     0.010 A 
ATOM     44  C   UNL A   1      36.399  33.373  30.731  1.00  0.00    -0.014 A 
BRANCH  44  45
ATOM     45  C   UNL A   1      37.552  32.713  31.393  1.00  0.00     0.031 A 
ATOM     46  C   UNL A   1      38.233  31.542  30.742  1.00  0.00     0.074 A 
ATOM     47  C   UNL A   1      37.943  33.127  32.615  1.00  0.00     0.049 A 
ATOM     48  N   UNL A   1      39.204  30.790  31.196  1.00  0.00    -0.248 NA
ATOM     49  C   UNL A   1      37.740  31.146  29.414  1.00  0.00     0.031 C 
ATOM     50  C   UNL A   1      37.333  34.223  33.369  1.00  0.00     0.029 A 
ATOM     51  N   UNL A   1      38.937  32.667  33.443  1.00  0.00    -0.354 N 
ATOM     52  C   UNL A   1      39.425  29.827  30.220  1.00  0.00     0.074 A 
ATOM     53  C   UNL A   1      38.455  30.057  29.172  1.00  0.00     0.031 C 
ATOM     54  C   UNL A   1      37.977  34.363  34.539  1.00  0.00     0.029 A 
ATOM     55  C   UNL A   1      39.013  33.341  34.638  1.00  0.00     0.049 A 
ATOM     56  H   UNL A   1      39.538  31.926  33.202  1.00  0.00     0.167 HD
ATOM     57  C   UNL A   1      40.366  28.854  30.193  1.00  0.00     0.037 A 
ATOM     58  C   UNL A   1      39.819  33.145  35.699  1.00  0.00     0.037 A 
ATOM     59  C   UNL A   1      41.345  28.645  31.228  1.00  0.00     0.049 A 
ATOM     60  C   UNL A   1      40.845  32.046  35.650  1.00  0.00     0.074 A 
ATOM     61  C   UNL A   1      42.385  27.733  31.260  1.00  0.00     0.029 A 
ATOM     62  N   UNL A   1      41.397  29.353  32.420  1.00  0.00    -0.354 N 
ATOM     63  N   UNL A   1      41.097  31.193  34.687  1.00  0.00    -0.248 NA
ATOM     64  C   UNL A   1      41.703  31.886  36.832  1.00  0.00     0.031 C 
ATOM     65  C   UNL A   1      43.031  27.850  32.496  1.00  0.00     0.029 A 
ATOM     66  C   UNL A   1      42.431  28.875  33.209  1.00  0.00     0.049 A 
ATOM     67  H   UNL A   1      40.789  30.086  32.668  1.00  0.00     0.167 HD
ATOM     68  C   UNL A   1      42.153  30.412  35.137  1.00  0.00     0.074 A 
ATOM     69  C   UNL A   1      42.508  30.905  36.450  1.00  0.00     0.031 C 
ATOM     70  C   UNL A   1      42.774  29.378  34.515  1.00  0.00     0.037 A 
BRANCH  57  71
ATOM     71  C   UNL A   1      40.384  27.935  29.005  1.00  0.00     0.064 A 
ATOM     72  C   UNL A   1      41.160  28.209  27.869  1.00  0.00     0.173 A 
ATOM     73  C   UNL A   1      39.646  26.740  29.019  1.00  0.00     0.173 A 
ATOM     74  F   UNL A   1      41.878  29.341  27.799  1.00  0.00    -0.203 F 
ATOM     75  C   UNL A   1      41.173  27.340  26.780  1.00  0.00     0.198 A 
ATOM     76  C   UNL A   1      39.686  25.858  27.943  1.00  0.00     0.198 A 
ATOM     77  F   UNL A   1      38.892  26.424  30.083  1.00  0.00    -0.203 F 
ATOM     78  F   UNL A   1      41.882  27.651  25.686  1.00  0.00    -0.200 F 
ATOM     79  C   UNL A   1      40.443  26.163  26.821  1.00  0.00     0.200 A 
ATOM     80  F   UNL A   1      38.992  24.713  27.991  1.00  0.00    -0.200 F 
ATOM     81  F   UNL A   1      40.462  25.323  25.776  1.00  0.00    -0.200 F 
ENDBRANCH  57  71
BRANCH  58  82
ATOM     82  C   UNL A   1      39.690  34.018  36.896  1.00  0.00     0.064 A 
ATOM     83  C   UNL A   1      40.372  35.241  36.973  1.00  0.00     0.173 A 
ATOM     84  C   UNL A   1      38.888  33.649  37.986  1.00  0.00     0.173 A 
ATOM     85  F   UNL A   1      41.168  35.629  35.965  1.00  0.00    -0.203 F 
ATOM     86  C   UNL A   1      40.272  36.052  38.102  1.00  0.00     0.198 A 
ATOM     87  C   UNL A   1      38.764  34.476  39.101  1.00  0.00     0.198 A 
ATOM     88  F   UNL A   1      38.210  32.493  37.961  1.00  0.00    -0.203 F 
ATOM     89  F   UNL A   1      40.970  37.193  38.168  1.00  0.00    -0.200 F 
ATOM     90  C   UNL A   1      39.463  35.672  39.163  1.00  0.00     0.200 A 
ATOM     91  F   UNL A   1      37.967  34.113  40.116  1.00  0.00    -0.200 F 
ATOM     92  F   UNL A   1      39.361  36.455  40.245  1.00  0.00    -0.200 F 
ENDBRANCH  58  82
BRANCH  70  93
ATOM     93  C   UNL A   1      43.918  28.726  35.237  1.00  0.00     0.064 A 
ATOM     94  C   UNL A   1      43.720  27.640  36.102  1.00  0.00     0.173 A 
ATOM     95  C   UNL A   1      45.235  29.162  35.020  1.00  0.00     0.173 A 
ATOM     96  F   UNL A   1      42.481  27.196  36.355  1.00  0.00    -0.203 F 
ATOM     97  C   UNL A   1      44.797  27.030  36.741  1.00  0.00     0.198 A 
ATOM     98  C   UNL A   1      46.311  28.529  35.635  1.00  0.00     0.198 A 
ATOM     99  F   UNL A   1      45.479  30.194  34.197  1.00  0.00    -0.203 F 
ATOM    100  F   UNL A   1      44.580  26.023  37.599  1.00  0.00    -0.200 F 
ATOM    101  C   UNL A   1      46.091  27.468  36.500  1.00  0.00     0.200 A 
ATOM    102  F   UNL A   1      47.561  28.944  35.389  1.00  0.00    -0.200 F 
ATOM    103  F   UNL A   1      47.126  26.871  37.108  1.00  0.00    -0.200 F 
ENDBRANCH  70  93
ENDBRANCH  44  45
ENDBRANCH  36  39
ENDBRANCH  34  35
ENDBRANCH  33  34
ENDBRANCH  32  33
ENDBRANCH  31  32
ENDBRANCH   1  31
TORSDOF 20
ENDMDL
