MODEL 1
REMARK VINA RESULT:     -11.9      0.000      0.000
REMARK SMILES C[NH2+][C@]1(C(=O)NCCCCCCNC(=O)c2ccc(-c3c4nc(c(-c5c(F)c(F)c(F)c(F)c5F)c5ccc([nH]5)c(-c5c(F)c(F)c(F)c(F)c5F)c5nc(c(-c6c(F)c(F)c(F)c(F)c6F)c6ccc3[nH]6)C=C5)C=C4)cc2)CC[C@@H](OCCCc2ccccc2)C1
REMARK SMILES IDX 8 1 7 2 6 3 4 4 5 5 3 7 79 8 92 9 80 10 81 11 2 12 1 13
REMARK SMILES IDX 82 16 83 17 84 18 85 19 86 20 87 21 91 22 88 23 90 24 89 25
REMARK SMILES IDX 9 26 10 27 11 28 12 29 13 30 14 31 15 33 16 34 17 35 78 36
REMARK SMILES IDX 18 37 77 38 19 39 20 40 21 41 71 42 22 43 76 44 70 45 72 46
REMARK SMILES IDX 23 47 75 48 69 49 68 50 24 52 56 53 36 54 55 55 37 56 40 57
REMARK SMILES IDX 54 58 73 59 38 60 39 61 53 63 74 64 41 65 25 66 26 67 34 68
REMARK SMILES IDX 27 69 28 70 32 71 35 72 29 73 30 74 33 75 31 76 57 77 58 78
REMARK SMILES IDX 66 79 59 80 60 81 64 82 67 83 61 84 62 85 65 86 63 87 42 88
REMARK SMILES IDX 43 89 51 90 44 91 45 92 49 93 52 94 46 95 47 96 50 97 48 98
REMARK H PARENT 6 6 2 14 2 15 13 32 72 51 40 62
REMARK Flexibility Score: inf
ROOT
ATOM      1  C   UNL A   1      32.927  28.597  27.131  1.00  0.00     0.021 C 
ENDROOT
BRANCH   1   2
ATOM      2  C   UNL A   1      34.179  29.319  26.655  1.00  0.00     0.116 C 
BRANCH   2   3
ATOM      3  N   UNL A   1      34.490  28.927  25.120  1.00  0.00    -0.351 N 
ATOM      4  C   UNL A   1      33.684  28.359  23.437  1.00  0.00     0.281 C 
ATOM      5  O   UNL A   1      34.231  28.413  22.272  1.00  0.00    -0.268 OA
ATOM      6  H   UNL A   1      35.462  29.004  24.980  1.00  0.00     0.163 HD
BRANCH   4   7
ATOM      7  C   UNL A   1      32.004  27.616  23.044  1.00  0.00     0.177 C 
ATOM      8  C   UNL A   1      31.870  26.267  22.256  1.00  0.00     0.082 C 
ATOM      9  C   UNL A   1      30.806  27.573  24.073  1.00  0.00     0.111 C 
ATOM     10  C   UNL A   1      30.740  25.436  22.868  1.00  0.00     0.039 C 
ATOM     11  C   UNL A   1      30.246  26.148  24.110  1.00  0.00     0.125 C 
BRANCH   7  12
ATOM     12  N   UNL A   1      31.433  28.663  22.034  1.00  0.00    -0.336 N 
ATOM     13  C   UNL A   1      30.165  29.299  22.442  1.00  0.00     0.331 C 
ATOM     14  H   UNL A   1      32.130  29.398  21.912  1.00  0.00     0.346 HD
ATOM     15  H   UNL A   1      31.230  28.149  21.176  1.00  0.00     0.346 HD
ENDBRANCH   7  12
BRANCH  11  16
ATOM     16  O   UNL A   1      30.295  25.299  25.248  1.00  0.00    -0.378 OA
BRANCH  16  17
ATOM     17  C   UNL A   1      31.207  25.469  26.305  1.00  0.00     0.161 C 
BRANCH  17  18
ATOM     18  C   UNL A   1      32.236  24.365  26.463  1.00  0.00     0.033 C 
BRANCH  18  19
ATOM     19  C   UNL A   1      32.618  23.536  25.246  1.00  0.00     0.038 C 
BRANCH  19  20
ATOM     20  C   UNL A   1      34.069  23.180  24.961  1.00  0.00    -0.048 A 
ATOM     21  C   UNL A   1      35.522  24.319  25.168  1.00  0.00     0.004 A 
ATOM     22  C   UNL A   1      34.390  21.378  24.810  1.00  0.00     0.004 A 
ATOM     23  C   UNL A   1      37.215  23.643  25.272  1.00  0.00     0.000 A 
ATOM     24  C   UNL A   1      36.083  20.722  24.933  1.00  0.00     0.000 A 
ATOM     25  C   UNL A   1      37.504  21.853  25.192  1.00  0.00     0.000 A 
ENDBRANCH  19  20
ENDBRANCH  18  19
ENDBRANCH  17  18
ENDBRANCH  16  17
ENDBRANCH  11  16
ENDBRANCH   4   7
ENDBRANCH   2   3
ENDBRANCH   1   2
BRANCH   1  26
ATOM     26  C   UNL A   1      31.702  29.510  27.173  1.00  0.00     0.002 C 
BRANCH  26  27
ATOM     27  C   UNL A   1      31.778  30.723  26.235  1.00  0.00     0.002 C 
BRANCH  27  28
ATOM     28  C   UNL A   1      31.517  32.071  26.914  1.00  0.00     0.021 C 
BRANCH  28  29
ATOM     29  C   UNL A   1      32.782  32.839  27.243  1.00  0.00     0.116 C 
BRANCH  29  30
ATOM     30  N   UNL A   1      32.493  34.220  27.576  1.00  0.00    -0.352 N 
ATOM     31  C   UNL A   1      33.001  34.948  28.616  1.00  0.00     0.251 C 
ATOM     32  H   UNL A   1      31.857  34.687  26.987  1.00  0.00     0.163 HD
ATOM     33  O   UNL A   1      32.524  36.029  28.933  1.00  0.00    -0.269 OA
BRANCH  31  34
ATOM     34  C   UNL A   1      34.135  34.375  29.355  1.00  0.00     0.039 A 
ATOM     35  C   UNL A   1      33.880  33.613  30.492  1.00  0.00     0.014 A 
ATOM     36  C   UNL A   1      35.438  34.538  28.866  1.00  0.00     0.014 A 
ATOM     37  C   UNL A   1      34.942  32.996  31.141  1.00  0.00     0.010 A 
ATOM     38  C   UNL A   1      36.481  33.848  29.462  1.00  0.00     0.010 A 
ATOM     39  C   UNL A   1      36.245  33.095  30.621  1.00  0.00    -0.014 A 
BRANCH  39  40
ATOM     40  C   UNL A   1      37.383  32.449  31.314  1.00  0.00     0.031 A 
ATOM     41  C   UNL A   1      38.096  31.302  30.659  1.00  0.00     0.074 A 
ATOM     42  C   UNL A   1      37.747  32.882  32.535  1.00  0.00     0.049 A 
ATOM     43  N   UNL A   1      39.102  30.593  31.102  1.00  0.00    -0.248 NA
ATOM     44  C   UNL A   1      37.593  30.872  29.343  1.00  0.00     0.031 C 
ATOM     45  C   UNL A   1      37.090  33.955  33.282  1.00  0.00     0.029 A 
ATOM     46  N   UNL A   1      38.758  32.468  33.363  1.00  0.00    -0.354 N 
ATOM     47  C   UNL A   1      39.342  29.635  30.126  1.00  0.00     0.074 A 
ATOM     48  C   UNL A   1      38.336  29.804  29.103  1.00  0.00     0.031 C 
ATOM     49  C   UNL A   1      37.735  34.139  34.444  1.00  0.00     0.029 A 
ATOM     50  C   UNL A   1      38.820  33.168  34.542  1.00  0.00     0.049 A 
ATOM     51  H   UNL A   1      39.380  31.741  33.134  1.00  0.00     0.167 HD
ATOM     52  C   UNL A   1      40.335  28.716  30.076  1.00  0.00     0.037 A 
ATOM     53  C   UNL A   1      39.659  33.032  35.587  1.00  0.00     0.037 A 
ATOM     54  C   UNL A   1      41.340  28.569  31.095  1.00  0.00     0.049 A 
ATOM     55  C   UNL A   1      40.744  31.991  35.515  1.00  0.00     0.074 A 
ATOM     56  C   UNL A   1      42.424  27.711  31.121  1.00  0.00     0.029 A 
ATOM     57  N   UNL A   1      41.376  29.297  32.277  1.00  0.00    -0.354 N 
ATOM     58  N   UNL A   1      41.014  31.142  34.552  1.00  0.00    -0.248 NA
ATOM     59  C   UNL A   1      41.645  31.895  36.670  1.00  0.00     0.031 C 
ATOM     60  C   UNL A   1      43.076  27.872  32.346  1.00  0.00     0.029 A 
ATOM     61  C   UNL A   1      42.445  28.883  33.054  1.00  0.00     0.049 A 
ATOM     62  H   UNL A   1      40.737  30.004  32.525  1.00  0.00     0.167 HD
ATOM     63  C   UNL A   1      42.130  30.431  34.971  1.00  0.00     0.074 A 
ATOM     64  C   UNL A   1      42.498  30.963  36.268  1.00  0.00     0.031 C 
ATOM     65  C   UNL A   1      42.794  29.430  34.342  1.00  0.00     0.037 A 
BRANCH  52  66
ATOM     66  C   UNL A   1      40.371  27.795  28.889  1.00  0.00     0.064 A 
ATOM     67  C   UNL A   1      41.116  28.099  27.738  1.00  0.00     0.173 A 
ATOM     68  C   UNL A   1      39.668  26.582  28.910  1.00  0.00     0.173 A 
ATOM     69  F   UNL A   1      41.797  29.252  27.658  1.00  0.00    -0.203 F 
ATOM     70  C   UNL A   1      41.124  27.242  26.641  1.00  0.00     0.198 A 
ATOM     71  C   UNL A   1      39.708  25.709  27.825  1.00  0.00     0.198 A 
ATOM     72  F   UNL A   1      38.941  26.238  29.984  1.00  0.00    -0.203 F 
ATOM     73  F   UNL A   1      41.792  27.584  25.529  1.00  0.00    -0.200 F 
ATOM     74  C   UNL A   1      40.427  26.044  26.688  1.00  0.00     0.200 A 
ATOM     75  F   UNL A   1      39.045  24.546  27.879  1.00  0.00    -0.200 F 
ATOM     76  F   UNL A   1      40.440  25.217  25.634  1.00  0.00    -0.200 F 
ENDBRANCH  52  66
BRANCH  53  77
ATOM     77  C   UNL A   1      39.511  33.911  36.777  1.00  0.00     0.064 A 
ATOM     78  C   UNL A   1      40.094  35.185  36.815  1.00  0.00     0.173 A 
ATOM     79  C   UNL A   1      38.784  33.495  37.903  1.00  0.00     0.173 A 
ATOM     80  F   UNL A   1      40.811  35.624  35.770  1.00  0.00    -0.203 F 
ATOM     81  C   UNL A   1      39.978  35.998  37.941  1.00  0.00     0.198 A 
ATOM     82  C   UNL A   1      38.639  34.321  39.014  1.00  0.00     0.198 A 
ATOM     83  F   UNL A   1      38.198  32.289  37.915  1.00  0.00    -0.203 F 
ATOM     84  F   UNL A   1      40.588  37.190  37.969  1.00  0.00    -0.200 F 
ATOM     85  C   UNL A   1      39.246  35.568  39.037  1.00  0.00     0.200 A 
ATOM     86  F   UNL A   1      37.914  33.909  40.063  1.00  0.00    -0.200 F 
ATOM     87  F   UNL A   1      39.129  36.351  40.118  1.00  0.00    -0.200 F 
ENDBRANCH  53  77
BRANCH  65  88
ATOM     88  C   UNL A   1      44.006  28.868  35.029  1.00  0.00     0.064 A 
ATOM     89  C   UNL A   1      43.920  27.777  35.907  1.00  0.00     0.173 A 
ATOM     90  C   UNL A   1      45.277  29.405  34.771  1.00  0.00     0.173 A 
ATOM     91  F   UNL A   1      42.727  27.236  36.197  1.00  0.00    -0.203 F 
ATOM     92  C   UNL A   1      45.058  27.264  36.524  1.00  0.00     0.198 A 
ATOM     93  C   UNL A   1      46.416  28.865  35.360  1.00  0.00     0.198 A 
ATOM     94  F   UNL A   1      45.416  30.442  33.933  1.00  0.00    -0.203 F 
ATOM     95  F   UNL A   1      44.945  26.258  37.402  1.00  0.00    -0.200 F 
ATOM     96  C   UNL A   1      46.305  27.802  36.243  1.00  0.00     0.200 A 
ATOM     97  F   UNL A   1      47.623  29.374  35.073  1.00  0.00    -0.200 F 
ATOM     98  F   UNL A   1      47.401  27.301  36.830  1.00  0.00    -0.200 F 
ENDBRANCH  65  88
ENDBRANCH  39  40
ENDBRANCH  31  34
ENDBRANCH  29  30
ENDBRANCH  28  29
ENDBRANCH  27  28
ENDBRANCH  26  27
ENDBRANCH   1  26
TORSDOF 19
ENDMDL
MODEL 2
REMARK VINA RESULT:     -11.9      0.719      7.236
REMARK SMILES C[NH2+][C@]1(C(=O)NCCCCCCNC(=O)c2ccc(-c3c4nc(c(-c5c(F)c(F)c(F)c(F)c5F)c5ccc([nH]5)c(-c5c(F)c(F)c(F)c(F)c5F)c5nc(c(-c6c(F)c(F)c(F)c(F)c6F)c6ccc3[nH]6)C=C5)C=C4)cc2)CC[C@@H](OCCCc2ccccc2)C1
REMARK SMILES IDX 8 1 7 2 6 3 4 4 5 5 3 7 79 8 92 9 80 10 81 11 2 12 1 13
REMARK SMILES IDX 82 16 83 17 84 18 85 19 86 20 87 21 91 22 88 23 90 24 89 25
REMARK SMILES IDX 9 26 10 27 11 28 12 29 13 30 14 31 15 33 16 34 17 35 78 36
REMARK SMILES IDX 18 37 77 38 19 39 20 40 21 41 71 42 22 43 76 44 70 45 72 46
REMARK SMILES IDX 23 47 75 48 69 49 68 50 24 52 56 53 36 54 55 55 37 56 40 57
REMARK SMILES IDX 54 58 73 59 38 60 39 61 53 63 74 64 41 65 25 66 26 67 34 68
REMARK SMILES IDX 27 69 28 70 32 71 35 72 29 73 30 74 33 75 31 76 57 77 58 78
REMARK SMILES IDX 66 79 59 80 60 81 64 82 67 83 61 84 62 85 65 86 63 87 42 88
REMARK SMILES IDX 43 89 51 90 44 91 45 92 49 93 52 94 46 95 47 96 50 97 48 98
REMARK H PARENT 6 6 2 14 2 15 13 32 72 51 40 62
REMARK Flexibility Score: inf
ROOT
ATOM      1  C   UNL A   1      33.004  28.596  27.072  1.00  0.00     0.021 C 
ENDROOT
BRANCH   1   2
ATOM      2  C   UNL A   1      34.207  29.332  26.499  1.00  0.00     0.116 C 
BRANCH   2   3
ATOM      3  N   UNL A   1      34.449  28.883  24.967  1.00  0.00    -0.351 N 
ATOM      4  C   UNL A   1      33.566  28.281  23.335  1.00  0.00     0.281 C 
ATOM      5  O   UNL A   1      34.068  28.284  22.150  1.00  0.00    -0.268 OA
ATOM      6  H   UNL A   1      35.416  28.930  24.788  1.00  0.00     0.163 HD
BRANCH   4   7
ATOM      7  C   UNL A   1      31.854  27.570  23.031  1.00  0.00     0.177 C 
ATOM      8  C   UNL A   1      31.657  26.179  22.333  1.00  0.00     0.082 C 
ATOM      9  C   UNL A   1      30.682  27.629  24.090  1.00  0.00     0.111 C 
ATOM     10  C   UNL A   1      30.519  25.425  23.023  1.00  0.00     0.039 C 
ATOM     11  C   UNL A   1      30.080  26.228  24.230  1.00  0.00     0.125 C 
BRANCH   7  12
ATOM     12  N   UNL A   1      31.288  28.570  21.971  1.00  0.00    -0.336 N 
ATOM     13  C   UNL A   1      30.245  29.487  22.470  1.00  0.00     0.331 C 
ATOM     14  H   UNL A   1      32.064  29.133  21.622  1.00  0.00     0.346 HD
ATOM     15  H   UNL A   1      30.844  28.000  21.251  1.00  0.00     0.346 HD
ENDBRANCH   7  12
BRANCH  11  16
ATOM     16  O   UNL A   1      30.133  25.450  25.417  1.00  0.00    -0.378 OA
BRANCH  16  17
ATOM     17  C   UNL A   1      31.204  25.495  26.328  1.00  0.00     0.161 C 
BRANCH  17  18
ATOM     18  C   UNL A   1      32.510  24.904  25.827  1.00  0.00     0.033 C 
BRANCH  18  19
ATOM     19  C   UNL A   1      32.541  23.444  25.399  1.00  0.00     0.038 C 
BRANCH  19  20
ATOM     20  C   UNL A   1      33.798  22.823  24.810  1.00  0.00    -0.048 A 
ATOM     21  C   UNL A   1      34.821  23.548  23.439  1.00  0.00     0.004 A 
ATOM     22  C   UNL A   1      34.539  21.494  25.839  1.00  0.00     0.004 A 
ATOM     23  C   UNL A   1      36.535  22.978  23.168  1.00  0.00     0.000 A 
ATOM     24  C   UNL A   1      36.253  20.953  25.566  1.00  0.00     0.000 A 
ATOM     25  C   UNL A   1      37.271  21.714  24.242  1.00  0.00     0.000 A 
ENDBRANCH  19  20
ENDBRANCH  18  19
ENDBRANCH  17  18
ENDBRANCH  16  17
ENDBRANCH  11  16
ENDBRANCH   4   7
ENDBRANCH   2   3
ENDBRANCH   1   2
BRANCH   1  26
ATOM     26  C   UNL A   1      31.758  29.476  27.149  1.00  0.00     0.002 C 
BRANCH  26  27
ATOM     27  C   UNL A   1      31.726  30.626  26.133  1.00  0.00     0.002 C 
BRANCH  27  28
ATOM     28  C   UNL A   1      31.486  32.011  26.744  1.00  0.00     0.021 C 
BRANCH  28  29
ATOM     29  C   UNL A   1      32.758  32.702  27.195  1.00  0.00     0.116 C 
BRANCH  29  30
ATOM     30  N   UNL A   1      32.503  34.072  27.595  1.00  0.00    -0.352 N 
ATOM     31  C   UNL A   1      33.075  34.755  28.632  1.00  0.00     0.251 C 
ATOM     32  H   UNL A   1      31.843  34.567  27.059  1.00  0.00     0.163 HD
ATOM     33  O   UNL A   1      32.628  35.827  29.015  1.00  0.00    -0.269 OA
BRANCH  31  34
ATOM     34  C   UNL A   1      34.240  34.142  29.287  1.00  0.00     0.039 A 
ATOM     35  C   UNL A   1      34.028  33.228  30.316  1.00  0.00     0.014 A 
ATOM     36  C   UNL A   1      35.529  34.427  28.821  1.00  0.00     0.014 A 
ATOM     37  C   UNL A   1      35.123  32.580  30.877  1.00  0.00     0.010 A 
ATOM     38  C   UNL A   1      36.607  33.713  29.319  1.00  0.00     0.010 A 
ATOM     39  C   UNL A   1      36.416  32.805  30.371  1.00  0.00    -0.014 A 
BRANCH  39  40
ATOM     40  C   UNL A   1      37.587  32.128  30.970  1.00  0.00     0.031 A 
ATOM     41  C   UNL A   1      38.049  32.522  32.343  1.00  0.00     0.074 A 
ATOM     42  C   UNL A   1      38.240  31.185  30.266  1.00  0.00     0.049 A 
ATOM     43  N   UNL A   1      39.057  32.064  33.040  1.00  0.00    -0.248 NA
ATOM     44  C   UNL A   1      37.296  33.595  33.014  1.00  0.00     0.031 C 
ATOM     45  C   UNL A   1      37.905  30.763  28.906  1.00  0.00     0.029 A 
ATOM     46  N   UNL A   1      39.324  30.415  30.598  1.00  0.00    -0.354 N 
ATOM     47  C   UNL A   1      39.062  32.797  34.218  1.00  0.00     0.074 A 
ATOM     48  C   UNL A   1      38.005  33.777  34.117  1.00  0.00     0.031 C 
ATOM     49  C   UNL A   1      38.745  29.786  28.531  1.00  0.00     0.029 A 
ATOM     50  C   UNL A   1      39.702  29.546  29.606  1.00  0.00     0.049 A 
ATOM     51  H   UNL A   1      39.785  30.478  31.466  1.00  0.00     0.167 HD
ATOM     52  C   UNL A   1      39.860  32.644  35.301  1.00  0.00     0.037 A 
ATOM     53  C   UNL A   1      40.715  28.659  29.570  1.00  0.00     0.037 A 
ATOM     54  C   UNL A   1      40.898  31.653  35.395  1.00  0.00     0.049 A 
ATOM     55  C   UNL A   1      41.600  28.520  30.780  1.00  0.00     0.074 A 
ATOM     56  C   UNL A   1      41.728  31.371  36.464  1.00  0.00     0.029 A 
ATOM     57  N   UNL A   1      41.253  30.785  34.371  1.00  0.00    -0.354 N 
ATOM     58  N   UNL A   1      41.547  29.163  31.923  1.00  0.00    -0.248 NA
ATOM     59  C   UNL A   1      42.678  27.527  30.699  1.00  0.00     0.031 C 
ATOM     60  C   UNL A   1      42.629  30.380  36.065  1.00  0.00     0.029 A 
ATOM     61  C   UNL A   1      42.314  29.991  34.772  1.00  0.00     0.049 A 
ATOM     62  H   UNL A   1      40.816  30.741  33.490  1.00  0.00     0.167 HD
ATOM     63  C   UNL A   1      42.563  28.634  32.706  1.00  0.00     0.074 A 
ATOM     64  C   UNL A   1      43.204  27.604  31.914  1.00  0.00     0.031 C 
ATOM     65  C   UNL A   1      42.935  28.968  33.967  1.00  0.00     0.037 A 
BRANCH  52  66
ATOM     66  C   UNL A   1      39.645  33.576  36.460  1.00  0.00     0.064 A 
ATOM     67  C   UNL A   1      38.826  33.231  37.547  1.00  0.00     0.173 A 
ATOM     68  C   UNL A   1      40.284  34.824  36.495  1.00  0.00     0.173 A 
ATOM     69  F   UNL A   1      38.180  32.055  37.561  1.00  0.00    -0.203 F 
ATOM     70  C   UNL A   1      38.626  34.115  38.604  1.00  0.00     0.198 A 
ATOM     71  C   UNL A   1      40.112  35.691  37.572  1.00  0.00     0.198 A 
ATOM     72  F   UNL A   1      41.080  35.206  35.485  1.00  0.00    -0.203 F 
ATOM     73  F   UNL A   1      37.789  33.788  39.600  1.00  0.00    -0.200 F 
ATOM     74  C   UNL A   1      39.274  35.340  38.620  1.00  0.00     0.200 A 
ATOM     75  F   UNL A   1      40.751  36.868  37.591  1.00  0.00    -0.200 F 
ATOM     76  F   UNL A   1      39.086  36.187  39.641  1.00  0.00    -0.200 F 
ENDBRANCH  52  66
BRANCH  53  77
ATOM     77  C   UNL A   1      40.936  27.833  28.354  1.00  0.00     0.064 A 
ATOM     78  C   UNL A   1      41.733  28.294  27.298  1.00  0.00     0.173 A 
ATOM     79  C   UNL A   1      40.352  26.564  28.222  1.00  0.00     0.173 A 
ATOM     80  F   UNL A   1      42.301  29.507  27.368  1.00  0.00    -0.203 F 
ATOM     81  C   UNL A   1      41.917  27.531  26.147  1.00  0.00     0.198 A 
ATOM     82  C   UNL A   1      40.565  25.786  27.086  1.00  0.00     0.198 A 
ATOM     83  F   UNL A   1      39.589  26.069  29.207  1.00  0.00    -0.203 F 
ATOM     84  F   UNL A   1      42.643  28.019  25.131  1.00  0.00    -0.200 F 
ATOM     85  C   UNL A   1      41.339  26.276  26.044  1.00  0.00     0.200 A 
ATOM     86  F   UNL A   1      40.020  24.565  27.001  1.00  0.00    -0.200 F 
ATOM     87  F   UNL A   1      41.520  25.539  24.940  1.00  0.00    -0.200 F 
ENDBRANCH  53  77
BRANCH  65  88
ATOM     88  C   UNL A   1      44.062  28.188  34.582  1.00  0.00     0.064 A 
ATOM     89  C   UNL A   1      43.840  26.986  35.270  1.00  0.00     0.173 A 
ATOM     90  C   UNL A   1      45.387  28.630  34.442  1.00  0.00     0.173 A 
ATOM     91  F   UNL A   1      42.592  26.526  35.443  1.00  0.00    -0.203 F 
ATOM     92  C   UNL A   1      44.901  26.272  35.823  1.00  0.00     0.198 A 
ATOM     93  C   UNL A   1      46.447  27.894  34.962  1.00  0.00     0.198 A 
ATOM     94  F   UNL A   1      45.655  29.768  33.785  1.00  0.00    -0.203 F 
ATOM     95  F   UNL A   1      44.660  25.156  36.524  1.00  0.00    -0.200 F 
ATOM     96  C   UNL A   1      46.203  26.722  35.660  1.00  0.00     0.200 A 
ATOM     97  F   UNL A   1      47.706  28.320  34.788  1.00  0.00    -0.200 F 
ATOM     98  F   UNL A   1      47.223  26.028  36.184  1.00  0.00    -0.200 F 
ENDBRANCH  65  88
ENDBRANCH  39  40
ENDBRANCH  31  34
ENDBRANCH  29  30
ENDBRANCH  28  29
ENDBRANCH  27  28
ENDBRANCH  26  27
ENDBRANCH   1  26
TORSDOF 19
ENDMDL
MODEL 3
REMARK VINA RESULT:     -11.2      6.405     11.092
REMARK SMILES C[NH2+][C@]1(C(=O)NCCCCCCNC(=O)c2ccc(-c3c4nc(c(-c5c(F)c(F)c(F)c(F)c5F)c5ccc([nH]5)c(-c5c(F)c(F)c(F)c(F)c5F)c5nc(c(-c6c(F)c(F)c(F)c(F)c6F)c6ccc3[nH]6)C=C5)C=C4)cc2)CC[C@@H](OCCCc2ccccc2)C1
REMARK SMILES IDX 8 1 7 2 6 3 4 4 5 5 3 7 79 8 92 9 80 10 81 11 2 12 1 13
REMARK SMILES IDX 82 16 83 17 84 18 85 19 86 20 87 21 91 22 88 23 90 24 89 25
REMARK SMILES IDX 9 26 10 27 11 28 12 29 13 30 14 31 15 33 16 34 17 35 78 36
REMARK SMILES IDX 18 37 77 38 19 39 20 40 21 41 71 42 22 43 76 44 70 45 72 46
REMARK SMILES IDX 23 47 75 48 69 49 68 50 24 52 56 53 36 54 55 55 37 56 40 57
REMARK SMILES IDX 54 58 73 59 38 60 39 61 53 63 74 64 41 65 25 66 26 67 34 68
REMARK SMILES IDX 27 69 28 70 32 71 35 72 29 73 30 74 33 75 31 76 57 77 58 78
REMARK SMILES IDX 66 79 59 80 60 81 64 82 67 83 61 84 62 85 65 86 63 87 42 88
REMARK SMILES IDX 43 89 51 90 44 91 45 92 49 93 52 94 46 95 47 96 50 97 48 98
REMARK H PARENT 6 6 2 14 2 15 13 32 72 51 40 62
REMARK Flexibility Score: inf
ROOT
ATOM      1  C   UNL A   1      40.497  22.335  27.224  1.00  0.00     0.021 C 
ENDROOT
BRANCH   1   2
ATOM      2  C   UNL A   1      39.453  21.651  26.353  1.00  0.00     0.116 C 
BRANCH   2   3
ATOM      3  N   UNL A   1      38.438  22.750  25.745  1.00  0.00    -0.351 N 
ATOM      4  C   UNL A   1      36.569  23.301  25.658  1.00  0.00     0.281 C 
ATOM      5  O   UNL A   1      36.130  24.454  25.290  1.00  0.00    -0.268 OA
ATOM      6  H   UNL A   1      38.967  23.387  25.212  1.00  0.00     0.163 HD
BRANCH   4   7
ATOM      7  C   UNL A   1      34.977  22.385  26.050  1.00  0.00     0.177 C 
ATOM      8  C   UNL A   1      34.256  22.550  27.432  1.00  0.00     0.082 C 
ATOM      9  C   UNL A   1      33.788  22.221  25.022  1.00  0.00     0.111 C 
ATOM     10  C   UNL A   1      32.743  22.601  27.209  1.00  0.00     0.039 C 
ATOM     11  C   UNL A   1      32.483  22.620  25.718  1.00  0.00     0.125 C 
BRANCH   7  12
ATOM     12  N   UNL A   1      35.476  20.905  26.096  1.00  0.00    -0.336 N 
ATOM     13  C   UNL A   1      34.989  20.045  25.001  1.00  0.00     0.331 C 
ATOM     14  H   UNL A   1      36.496  20.914  26.062  1.00  0.00     0.346 HD
ATOM     15  H   UNL A   1      35.103  20.506  26.958  1.00  0.00     0.346 HD
ENDBRANCH   7  12
BRANCH  11  16
ATOM     16  O   UNL A   1      31.686  23.735  25.344  1.00  0.00    -0.378 OA
BRANCH  16  17
ATOM     17  C   UNL A   1      31.003  23.824  24.118  1.00  0.00     0.161 C 
BRANCH  17  18
ATOM     18  C   UNL A   1      31.694  24.647  23.045  1.00  0.00     0.033 C 
BRANCH  18  19
ATOM     19  C   UNL A   1      32.773  25.637  23.458  1.00  0.00     0.038 C 
BRANCH  19  20
ATOM     20  C   UNL A   1      32.517  26.670  24.545  1.00  0.00    -0.048 A 
ATOM     21  C   UNL A   1      33.481  26.839  26.124  1.00  0.00     0.004 A 
ATOM     22  C   UNL A   1      31.453  28.072  24.020  1.00  0.00     0.004 A 
ATOM     23  C   UNL A   1      33.403  28.387  27.090  1.00  0.00     0.000 A 
ATOM     24  C   UNL A   1      31.403  29.613  24.986  1.00  0.00     0.000 A 
ATOM     25  C   UNL A   1      32.402  29.787  26.516  1.00  0.00     0.000 A 
ENDBRANCH  19  20
ENDBRANCH  18  19
ENDBRANCH  17  18
ENDBRANCH  16  17
ENDBRANCH  11  16
ENDBRANCH   4   7
ENDBRANCH   2   3
ENDBRANCH   1   2
BRANCH   1  26
ATOM     26  C   UNL A   1      41.747  21.480  27.425  1.00  0.00     0.002 C 
BRANCH  26  27
ATOM     27  C   UNL A   1      41.471  19.983  27.629  1.00  0.00     0.002 C 
BRANCH  27  28
ATOM     28  C   UNL A   1      42.323  19.053  26.760  1.00  0.00     0.021 C 
BRANCH  28  29
ATOM     29  C   UNL A   1      42.560  19.582  25.358  1.00  0.00     0.116 C 
BRANCH  29  30
ATOM     30  N   UNL A   1      43.712  18.954  24.743  1.00  0.00    -0.352 N 
ATOM     31  C   UNL A   1      44.871  19.558  24.340  1.00  0.00     0.251 C 
ATOM     32  H   UNL A   1      43.655  17.982  24.598  1.00  0.00     0.163 HD
ATOM     33  O   UNL A   1      45.684  18.975  23.635  1.00  0.00    -0.269 OA
BRANCH  31  34
ATOM     34  C   UNL A   1      45.098  20.946  24.769  1.00  0.00     0.039 A 
ATOM     35  C   UNL A   1      44.824  21.978  23.875  1.00  0.00     0.014 A 
ATOM     36  C   UNL A   1      45.508  21.209  26.082  1.00  0.00     0.014 A 
ATOM     37  C   UNL A   1      44.952  23.293  24.307  1.00  0.00     0.010 A 
ATOM     38  C   UNL A   1      45.546  22.518  26.534  1.00  0.00     0.010 A 
ATOM     39  C   UNL A   1      45.296  23.571  25.642  1.00  0.00    -0.014 A 
BRANCH  39  40
ATOM     40  C   UNL A   1      45.445  24.969  26.105  1.00  0.00     0.031 A 
ATOM     41  C   UNL A   1      46.788  25.636  26.031  1.00  0.00     0.074 A 
ATOM     42  C   UNL A   1      44.380  25.617  26.613  1.00  0.00     0.049 A 
ATOM     43  N   UNL A   1      47.133  26.843  26.397  1.00  0.00    -0.248 NA
ATOM     44  C   UNL A   1      47.901  24.829  25.503  1.00  0.00     0.031 C 
ATOM     45  C   UNL A   1      43.043  25.045  26.776  1.00  0.00     0.029 A 
ATOM     46  N   UNL A   1      44.257  26.896  27.087  1.00  0.00    -0.354 N 
ATOM     47  C   UNL A   1      48.496  26.934  26.152  1.00  0.00     0.074 A 
ATOM     48  C   UNL A   1      48.932  25.641  25.675  1.00  0.00     0.031 C 
ATOM     49  C   UNL A   1      42.225  25.981  27.282  1.00  0.00     0.029 A 
ATOM     50  C   UNL A   1      42.990  27.200  27.519  1.00  0.00     0.049 A 
ATOM     51  H   UNL A   1      45.004  27.536  27.114  1.00  0.00     0.167 HD
ATOM     52  C   UNL A   1      49.305  28.011  26.285  1.00  0.00     0.037 A 
ATOM     53  C   UNL A   1      42.506  28.338  28.054  1.00  0.00     0.037 A 
ATOM     54  C   UNL A   1      48.855  29.297  26.746  1.00  0.00     0.049 A 
ATOM     55  C   UNL A   1      43.431  29.516  28.208  1.00  0.00     0.074 A 
ATOM     56  C   UNL A   1      49.573  30.471  26.865  1.00  0.00     0.029 A 
ATOM     57  N   UNL A   1      47.562  29.572  27.173  1.00  0.00    -0.354 N 
ATOM     58  N   UNL A   1      44.701  29.618  27.898  1.00  0.00    -0.248 NA
ATOM     59  C   UNL A   1      42.852  30.740  28.777  1.00  0.00     0.031 C 
ATOM     60  C   UNL A   1      48.736  31.438  27.428  1.00  0.00     0.029 A 
ATOM     61  C   UNL A   1      47.473  30.889  27.589  1.00  0.00     0.049 A 
ATOM     62  H   UNL A   1      46.820  28.925  27.179  1.00  0.00     0.167 HD
ATOM     63  C   UNL A   1      45.067  30.921  28.207  1.00  0.00     0.074 A 
ATOM     64  C   UNL A   1      43.878  31.577  28.711  1.00  0.00     0.031 C 
ATOM     65  C   UNL A   1      46.276  31.523  28.086  1.00  0.00     0.037 A 
BRANCH  52  66
ATOM     66  C   UNL A   1      50.757  27.837  25.938  1.00  0.00     0.064 A 
ATOM     67  C   UNL A   1      51.223  27.950  24.619  1.00  0.00     0.173 A 
ATOM     68  C   UNL A   1      51.700  27.573  26.942  1.00  0.00     0.173 A 
ATOM     69  F   UNL A   1      50.364  28.189  23.616  1.00  0.00    -0.203 F 
ATOM     70  C   UNL A   1      52.569  27.770  24.314  1.00  0.00     0.198 A 
ATOM     71  C   UNL A   1      53.052  27.429  26.640  1.00  0.00     0.198 A 
ATOM     72  F   UNL A   1      51.313  27.456  28.222  1.00  0.00    -0.203 F 
ATOM     73  F   UNL A   1      52.980  27.821  23.038  1.00  0.00    -0.200 F 
ATOM     74  C   UNL A   1      53.484  27.517  25.325  1.00  0.00     0.200 A 
ATOM     75  F   UNL A   1      53.935  27.200  27.620  1.00  0.00    -0.200 F 
ATOM     76  F   UNL A   1      54.781  27.349  25.032  1.00  0.00    -0.200 F 
ENDBRANCH  52  66
BRANCH  53  77
ATOM     77  C   UNL A   1      41.081  28.416  28.467  1.00  0.00     0.064 A 
ATOM     78  C   UNL A   1      40.098  28.905  27.595  1.00  0.00     0.173 A 
ATOM     79  C   UNL A   1      40.670  28.006  29.744  1.00  0.00     0.173 A 
ATOM     80  F   UNL A   1      40.441  29.325  26.368  1.00  0.00    -0.203 F 
ATOM     81  C   UNL A   1      38.767  29.004  27.992  1.00  0.00     0.198 A 
ATOM     82  C   UNL A   1      39.334  28.072  30.129  1.00  0.00     0.198 A 
ATOM     83  F   UNL A   1      41.568  27.520  30.615  1.00  0.00    -0.203 F 
ATOM     84  F   UNL A   1      37.857  29.523  27.156  1.00  0.00    -0.200 F 
ATOM     85  C   UNL A   1      38.384  28.582  29.256  1.00  0.00     0.200 A 
ATOM     86  F   UNL A   1      38.966  27.643  31.344  1.00  0.00    -0.200 F 
ATOM     87  F   UNL A   1      37.102  28.671  29.637  1.00  0.00    -0.200 F 
ENDBRANCH  53  77
BRANCH  65  88
ATOM     88  C   UNL A   1      46.366  32.973  28.469  1.00  0.00     0.064 A 
ATOM     89  C   UNL A   1      46.122  33.999  27.543  1.00  0.00     0.173 A 
ATOM     90  C   UNL A   1      46.656  33.338  29.793  1.00  0.00     0.173 A 
ATOM     91  F   UNL A   1      45.853  33.703  26.263  1.00  0.00    -0.203 F 
ATOM     92  C   UNL A   1      46.198  35.337  27.922  1.00  0.00     0.198 A 
ATOM     93  C   UNL A   1      46.693  34.675  30.176  1.00  0.00     0.198 A 
ATOM     94  F   UNL A   1      46.887  32.396  30.719  1.00  0.00    -0.203 F 
ATOM     95  F   UNL A   1      46.018  36.300  27.009  1.00  0.00    -0.200 F 
ATOM     96  C   UNL A   1      46.474  35.673  29.239  1.00  0.00     0.200 A 
ATOM     97  F   UNL A   1      46.942  34.997  31.453  1.00  0.00    -0.200 F 
ATOM     98  F   UNL A   1      46.537  36.961  29.605  1.00  0.00    -0.200 F 
ENDBRANCH  65  88
ENDBRANCH  39  40
ENDBRANCH  31  34
ENDBRANCH  29  30
ENDBRANCH  28  29
ENDBRANCH  27  28
ENDBRANCH  26  27
ENDBRANCH   1  26
TORSDOF 19
ENDMDL
