MODEL 1
REMARK VINA RESULT:     -12.1      0.000      0.000
REMARK SMILES O=C(C[N@@H+](C1CCCC1)[C@@H]1CCOC2(CCC2)C1)NCCCCCCNC(=O)c1ccc(-c2c3nc(c(-c4c(F)c(F)c(F)c(F)c4F)c4ccc([nH]4)c(-c4c(F)c(F)c(F)c(F)c4F)c4nc(c(-c5c(F)c(F)c(F)c(F)c5F)c5ccc2[nH]5)C=C4)C=C3)cc1
REMARK SMILES IDX 22 1 21 2 20 3 19 4 1 5 2 6 3 8 4 9 5 11 6 12 9 13 7 14 8 15
REMARK SMILES IDX 10 16 11 17 18 18 12 19 14 20 13 21 15 22 17 23 16 24 23 25
REMARK SMILES IDX 24 26 25 27 26 28 27 29 28 31 29 32 30 33 91 34 31 35 90 36
REMARK SMILES IDX 32 37 33 38 34 39 84 40 35 41 89 42 83 43 85 44 36 45 88 46
REMARK SMILES IDX 82 47 81 48 37 50 69 51 49 52 68 53 50 54 53 55 67 56 86 57
REMARK SMILES IDX 51 58 52 59 66 61 87 62 54 63 38 64 39 65 47 66 40 67 41 68
REMARK SMILES IDX 45 69 48 70 42 71 43 72 46 73 44 74 70 75 71 76 79 77 72 78
REMARK SMILES IDX 73 79 77 80 80 81 74 82 75 83 78 84 76 85 55 86 56 87 64 88
REMARK SMILES IDX 57 89 58 90 62 91 65 92 59 93 60 94 63 95 61 96
REMARK H PARENT 19 7 4 10 26 30 85 49 53 60
REMARK Flexibility Score: inf
ROOT
ATOM      1  C   UNL A   1      31.625  30.058  25.348  1.00  0.00     0.002 C 
ENDROOT
BRANCH   1   2
ATOM      2  C   UNL A   1      32.955  29.418  24.946  1.00  0.00     0.021 C 
BRANCH   2   3
ATOM      3  C   UNL A   1      33.033  29.063  23.463  1.00  0.00     0.116 C 
BRANCH   3   4
ATOM      4  N   UNL A   1      32.475  27.762  23.165  1.00  0.00    -0.351 N 
ATOM      5  O   UNL A   1      33.991  27.318  21.523  1.00  0.00    -0.269 OA
ATOM      6  C   UNL A   1      33.081  26.933  22.259  1.00  0.00     0.275 C 
ATOM      7  H   UNL A   1      31.650  27.469  23.617  1.00  0.00     0.163 HD
BRANCH   6   8
ATOM      8  C   UNL A   1      32.540  25.520  22.145  1.00  0.00     0.363 C 
BRANCH   8   9
ATOM      9  N   UNL A   1      32.791  24.560  23.250  1.00  0.00    -0.322 N 
ATOM     10  H   UNL A   1      33.608  24.940  23.727  1.00  0.00     0.349 HD
BRANCH   9  11
ATOM     11  C   UNL A   1      31.603  24.548  24.173  1.00  0.00     0.184 C 
ATOM     12  C   UNL A   1      31.794  25.211  25.561  1.00  0.00     0.065 C 
ATOM     13  C   UNL A   1      30.195  24.995  23.715  1.00  0.00     0.065 C 
ATOM     14  C   UNL A   1      30.502  25.911  25.943  1.00  0.00     0.006 C 
ATOM     15  C   UNL A   1      29.739  26.110  24.652  1.00  0.00     0.006 C 
ENDBRANCH   9  11
BRANCH   9  16
ATOM     16  C   UNL A   1      33.437  23.244  22.984  1.00  0.00     0.189 C 
ATOM     17  C   UNL A   1      32.852  21.962  23.619  1.00  0.00     0.093 C 
ATOM     18  C   UNL A   1      34.974  23.133  23.021  1.00  0.00     0.100 C 
ATOM     19  C   UNL A   1      33.447  21.617  24.973  1.00  0.00     0.167 C 
ATOM     20  C   UNL A   1      35.535  22.728  24.380  1.00  0.00     0.074 C 
ATOM     21  O   UNL A   1      34.861  21.545  24.873  1.00  0.00    -0.375 OA
ATOM     22  C   UNL A   1      37.085  22.556  24.351  1.00  0.00     0.036 C 
ATOM     23  C   UNL A   1      35.780  23.888  25.382  1.00  0.00     0.036 C 
ATOM     24  C   UNL A   1      37.143  23.274  25.709  1.00  0.00     0.006 C 
ENDBRANCH   9  16
ENDBRANCH   8   9
ENDBRANCH   6   8
ENDBRANCH   3   4
ENDBRANCH   2   3
ENDBRANCH   1   2
BRANCH   1  25
ATOM     25  C   UNL A   1      31.613  30.662  26.753  1.00  0.00     0.002 C 
BRANCH  25  26
ATOM     26  C   UNL A   1      31.475  32.185  26.794  1.00  0.00     0.021 C 
BRANCH  26  27
ATOM     27  C   UNL A   1      32.753  32.929  27.168  1.00  0.00     0.116 C 
BRANCH  27  28
ATOM     28  N   UNL A   1      32.488  34.293  27.597  1.00  0.00    -0.352 N 
ATOM     29  C   UNL A   1      33.022  34.994  28.643  1.00  0.00     0.251 C 
ATOM     30  H   UNL A   1      31.828  34.783  27.055  1.00  0.00     0.163 HD
ATOM     31  O   UNL A   1      32.536  36.078  28.974  1.00  0.00    -0.269 OA
BRANCH  29  32
ATOM     32  C   UNL A   1      34.165  34.445  29.397  1.00  0.00     0.039 A 
ATOM     33  C   UNL A   1      33.919  33.775  30.598  1.00  0.00     0.014 A 
ATOM     34  C   UNL A   1      35.474  34.592  28.928  1.00  0.00     0.014 A 
ATOM     35  C   UNL A   1      34.982  33.202  31.297  1.00  0.00     0.010 A 
ATOM     36  C   UNL A   1      36.523  33.954  29.586  1.00  0.00     0.010 A 
ATOM     37  C   UNL A   1      36.286  33.255  30.779  1.00  0.00    -0.014 A 
BRANCH  37  38
ATOM     38  C   UNL A   1      37.401  32.561  31.470  1.00  0.00     0.031 A 
ATOM     39  C   UNL A   1      38.100  31.399  30.822  1.00  0.00     0.074 A 
ATOM     40  C   UNL A   1      37.753  32.956  32.708  1.00  0.00     0.049 A 
ATOM     41  N   UNL A   1      39.102  30.684  31.269  1.00  0.00    -0.248 NA
ATOM     42  C   UNL A   1      37.592  30.966  29.513  1.00  0.00     0.031 C 
ATOM     43  C   UNL A   1      37.109  34.031  33.464  1.00  0.00     0.029 A 
ATOM     44  N   UNL A   1      38.741  32.505  33.546  1.00  0.00    -0.354 N 
ATOM     45  C   UNL A   1      39.337  29.715  30.303  1.00  0.00     0.074 A 
ATOM     46  C   UNL A   1      38.336  29.896  29.273  1.00  0.00     0.031 C 
ATOM     47  C   UNL A   1      37.744  34.185  34.636  1.00  0.00     0.029 A 
ATOM     48  C   UNL A   1      38.815  33.198  34.729  1.00  0.00     0.049 A 
ATOM     49  H   UNL A   1      39.339  31.756  33.321  1.00  0.00     0.167 HD
ATOM     50  C   UNL A   1      40.313  28.776  30.267  1.00  0.00     0.037 A 
ATOM     51  C   UNL A   1      39.656  33.056  35.771  1.00  0.00     0.037 A 
ATOM     52  C   UNL A   1      41.315  28.611  31.289  1.00  0.00     0.049 A 
ATOM     53  C   UNL A   1      40.727  32.002  35.707  1.00  0.00     0.074 A 
ATOM     54  C   UNL A   1      42.392  27.741  31.311  1.00  0.00     0.029 A 
ATOM     55  N   UNL A   1      41.354  29.324  32.479  1.00  0.00    -0.354 N 
ATOM     56  N   UNL A   1      41.000  31.154  34.747  1.00  0.00    -0.248 NA
ATOM     57  C   UNL A   1      41.613  31.895  36.875  1.00  0.00     0.031 C 
ATOM     58  C   UNL A   1      43.045  27.886  32.541  1.00  0.00     0.029 A 
ATOM     59  C   UNL A   1      42.415  28.889  33.259  1.00  0.00     0.049 A 
ATOM     60  H   UNL A   1      40.722  30.035  32.732  1.00  0.00     0.167 HD
ATOM     61  C   UNL A   1      42.100  30.426  35.181  1.00  0.00     0.074 A 
ATOM     62  C   UNL A   1      42.457  30.951  36.483  1.00  0.00     0.031 C 
ATOM     63  C   UNL A   1      42.753  29.413  34.560  1.00  0.00     0.037 A 
BRANCH  50  64
ATOM     64  C   UNL A   1      40.337  27.847  29.085  1.00  0.00     0.064 A 
ATOM     65  C   UNL A   1      39.599  26.653  29.067  1.00  0.00     0.173 A 
ATOM     66  C   UNL A   1      41.091  28.166  27.945  1.00  0.00     0.173 A 
ATOM     67  F   UNL A   1      38.868  26.294  30.133  1.00  0.00    -0.203 F 
ATOM     68  C   UNL A   1      39.647  25.796  27.970  1.00  0.00     0.198 A 
ATOM     69  C   UNL A   1      41.109  27.323  26.836  1.00  0.00     0.198 A 
ATOM     70  F   UNL A   1      41.810  29.298  27.903  1.00  0.00    -0.203 F 
ATOM     71  F   UNL A   1      38.982  24.633  28.003  1.00  0.00    -0.200 F 
ATOM     72  C   UNL A   1      40.396  26.134  26.855  1.00  0.00     0.200 A 
ATOM     73  F   UNL A   1      41.822  27.659  25.753  1.00  0.00    -0.200 F 
ATOM     74  F   UNL A   1      40.439  25.309  25.799  1.00  0.00    -0.200 F 
ENDBRANCH  50  64
BRANCH  51  75
ATOM     75  C   UNL A   1      39.544  33.965  36.940  1.00  0.00     0.064 A 
ATOM     76  C   UNL A   1      38.800  33.593  38.068  1.00  0.00     0.173 A 
ATOM     77  C   UNL A   1      40.183  35.213  36.963  1.00  0.00     0.173 A 
ATOM     78  F   UNL A   1      38.155  32.417  38.087  1.00  0.00    -0.203 F 
ATOM     79  C   UNL A   1      38.683  34.443  39.167  1.00  0.00     0.198 A 
ATOM     80  C   UNL A   1      40.090  36.049  38.073  1.00  0.00     0.198 A 
ATOM     81  F   UNL A   1      40.913  35.613  35.910  1.00  0.00    -0.203 F 
ATOM     82  F   UNL A   1      37.931  34.079  40.215  1.00  0.00    -0.200 F 
ATOM     83  C   UNL A   1      39.336  35.666  39.171  1.00  0.00     0.200 A 
ATOM     84  F   UNL A   1      40.735  37.223  38.080  1.00  0.00    -0.200 F 
ATOM     85  F   UNL A   1      39.231  36.479  40.231  1.00  0.00    -0.200 F 
ENDBRANCH  51  75
BRANCH  63  86
ATOM     86  C   UNL A   1      43.932  28.820  35.277  1.00  0.00     0.064 A 
ATOM     87  C   UNL A   1      45.235  29.300  35.073  1.00  0.00     0.173 A 
ATOM     88  C   UNL A   1      43.757  27.768  36.189  1.00  0.00     0.173 A 
ATOM     89  F   UNL A   1      45.460  30.294  34.200  1.00  0.00    -0.203 F 
ATOM     90  C   UNL A   1      46.322  28.722  35.726  1.00  0.00     0.198 A 
ATOM     91  C   UNL A   1      44.842  27.217  36.866  1.00  0.00     0.198 A 
ATOM     92  F   UNL A   1      42.532  27.275  36.427  1.00  0.00    -0.203 F 
ATOM     93  F   UNL A   1      47.563  29.156  35.467  1.00  0.00    -0.200 F 
ATOM     94  C   UNL A   1      46.123  27.687  36.626  1.00  0.00     0.200 A 
ATOM     95  F   UNL A   1      44.646  26.226  37.747  1.00  0.00    -0.200 F 
ATOM     96  F   UNL A   1      47.170  27.133  37.254  1.00  0.00    -0.200 F 
ENDBRANCH  63  86
ENDBRANCH  37  38
ENDBRANCH  29  32
ENDBRANCH  27  28
ENDBRANCH  26  27
ENDBRANCH  25  26
ENDBRANCH   1  25
TORSDOF 16
ENDMDL
MODEL 2
REMARK VINA RESULT:     -11.9      0.777      7.347
REMARK SMILES O=C(C[N@@H+](C1CCCC1)[C@@H]1CCOC2(CCC2)C1)NCCCCCCNC(=O)c1ccc(-c2c3nc(c(-c4c(F)c(F)c(F)c(F)c4F)c4ccc([nH]4)c(-c4c(F)c(F)c(F)c(F)c4F)c4nc(c(-c5c(F)c(F)c(F)c(F)c5F)c5ccc2[nH]5)C=C4)C=C3)cc1
REMARK SMILES IDX 22 1 21 2 20 3 19 4 1 5 2 6 3 8 4 9 5 11 6 12 9 13 7 14 8 15
REMARK SMILES IDX 10 16 11 17 18 18 12 19 14 20 13 21 15 22 17 23 16 24 23 25
REMARK SMILES IDX 24 26 25 27 26 28 27 29 28 31 29 32 30 33 91 34 31 35 90 36
REMARK SMILES IDX 32 37 33 38 34 39 84 40 35 41 89 42 83 43 85 44 36 45 88 46
REMARK SMILES IDX 82 47 81 48 37 50 69 51 49 52 68 53 50 54 53 55 67 56 86 57
REMARK SMILES IDX 51 58 52 59 66 61 87 62 54 63 38 64 39 65 47 66 40 67 41 68
REMARK SMILES IDX 45 69 48 70 42 71 43 72 46 73 44 74 70 75 71 76 79 77 72 78
REMARK SMILES IDX 73 79 77 80 80 81 74 82 75 83 78 84 76 85 55 86 56 87 64 88
REMARK SMILES IDX 57 89 58 90 62 91 65 92 59 93 60 94 63 95 61 96
REMARK H PARENT 19 7 4 10 26 30 85 49 53 60
REMARK Flexibility Score: inf
ROOT
ATOM      1  C   UNL A   1      31.407  29.903  25.047  1.00  0.00     0.002 C 
ENDROOT
BRANCH   1   2
ATOM      2  C   UNL A   1      32.672  29.371  24.371  1.00  0.00     0.021 C 
BRANCH   2   3
ATOM      3  C   UNL A   1      32.452  28.949  22.921  1.00  0.00     0.116 C 
BRANCH   3   4
ATOM      4  N   UNL A   1      32.070  27.559  22.790  1.00  0.00    -0.351 N 
ATOM      5  O   UNL A   1      33.970  26.984  21.670  1.00  0.00    -0.269 OA
ATOM      6  C   UNL A   1      32.934  26.646  22.245  1.00  0.00     0.275 C 
ATOM      7  H   UNL A   1      31.181  27.267  23.094  1.00  0.00     0.163 HD
BRANCH   6   8
ATOM      8  C   UNL A   1      32.530  25.186  22.316  1.00  0.00     0.363 C 
BRANCH   8   9
ATOM      9  N   UNL A   1      33.070  24.341  23.412  1.00  0.00    -0.322 N 
ATOM     10  H   UNL A   1      33.980  24.752  23.616  1.00  0.00     0.349 HD
BRANCH   9  11
ATOM     11  C   UNL A   1      32.166  24.447  24.610  1.00  0.00     0.184 C 
ATOM     12  C   UNL A   1      32.633  25.385  25.752  1.00  0.00     0.065 C 
ATOM     13  C   UNL A   1      30.648  24.714  24.478  1.00  0.00     0.065 C 
ATOM     14  C   UNL A   1      31.414  26.074  26.339  1.00  0.00     0.006 C 
ATOM     15  C   UNL A   1      30.329  25.967  25.289  1.00  0.00     0.006 C 
ENDBRANCH   9  11
BRANCH   9  16
ATOM     16  C   UNL A   1      33.635  22.992  23.127  1.00  0.00     0.189 C 
ATOM     17  C   UNL A   1      32.997  21.742  23.774  1.00  0.00     0.093 C 
ATOM     18  C   UNL A   1      35.164  22.796  23.123  1.00  0.00     0.100 C 
ATOM     19  C   UNL A   1      33.607  21.360  25.112  1.00  0.00     0.167 C 
ATOM     20  C   UNL A   1      35.737  22.356  24.466  1.00  0.00     0.074 C 
ATOM     21  O   UNL A   1      35.012  21.210  24.974  1.00  0.00    -0.375 OA
ATOM     22  C   UNL A   1      37.274  22.099  24.396  1.00  0.00     0.036 C 
ATOM     23  C   UNL A   1      36.072  23.497  25.463  1.00  0.00     0.036 C 
ATOM     24  C   UNL A   1      37.407  22.808  25.753  1.00  0.00     0.006 C 
ENDBRANCH   9  16
ENDBRANCH   8   9
ENDBRANCH   6   8
ENDBRANCH   3   4
ENDBRANCH   2   3
ENDBRANCH   1   2
BRANCH   1  25
ATOM     25  C   UNL A   1      31.623  30.436  26.465  1.00  0.00     0.002 C 
BRANCH  25  26
ATOM     26  C   UNL A   1      31.484  31.953  26.606  1.00  0.00     0.021 C 
BRANCH  26  27
ATOM     27  C   UNL A   1      32.757  32.669  27.044  1.00  0.00     0.116 C 
BRANCH  27  28
ATOM     28  N   UNL A   1      32.488  34.008  27.545  1.00  0.00    -0.352 N 
ATOM     29  C   UNL A   1      33.050  34.669  28.603  1.00  0.00     0.251 C 
ATOM     30  H   UNL A   1      31.803  34.512  27.050  1.00  0.00     0.163 HD
ATOM     31  O   UNL A   1      32.561  35.729  29.000  1.00  0.00    -0.269 OA
BRANCH  29  32
ATOM     32  C   UNL A   1      34.228  34.104  29.289  1.00  0.00     0.039 A 
ATOM     33  C   UNL A   1      34.028  33.225  30.355  1.00  0.00     0.014 A 
ATOM     34  C   UNL A   1      35.525  34.442  28.888  1.00  0.00     0.014 A 
ATOM     35  C   UNL A   1      35.128  32.639  30.981  1.00  0.00     0.010 A 
ATOM     36  C   UNL A   1      36.618  33.798  29.463  1.00  0.00     0.010 A 
ATOM     37  C   UNL A   1      36.430  32.892  30.517  1.00  0.00    -0.014 A 
BRANCH  37  38
ATOM     38  C   UNL A   1      37.593  32.193  31.116  1.00  0.00     0.031 A 
ATOM     39  C   UNL A   1      38.066  32.535  32.500  1.00  0.00     0.074 A 
ATOM     40  C   UNL A   1      38.253  31.273  30.385  1.00  0.00     0.049 A 
ATOM     41  N   UNL A   1      39.052  32.018  33.189  1.00  0.00    -0.248 NA
ATOM     42  C   UNL A   1      37.355  33.619  33.194  1.00  0.00     0.031 C 
ATOM     43  C   UNL A   1      37.926  30.899  29.008  1.00  0.00     0.029 A 
ATOM     44  N   UNL A   1      39.329  30.483  30.698  1.00  0.00    -0.354 N 
ATOM     45  C   UNL A   1      39.085  32.716  34.388  1.00  0.00     0.074 A 
ATOM     46  C   UNL A   1      38.058  33.733  34.311  1.00  0.00     0.031 C 
ATOM     47  C   UNL A   1      38.756  29.923  28.610  1.00  0.00     0.029 A 
ATOM     48  C   UNL A   1      39.695  29.628  29.688  1.00  0.00     0.049 A 
ATOM     49  H   UNL A   1      39.796  30.525  31.565  1.00  0.00     0.167 HD
ATOM     50  C   UNL A   1      39.883  32.511  35.464  1.00  0.00     0.037 A 
ATOM     51  C   UNL A   1      40.674  28.706  29.638  1.00  0.00     0.037 A 
ATOM     52  C   UNL A   1      40.894  31.487  35.538  1.00  0.00     0.049 A 
ATOM     53  C   UNL A   1      41.549  28.503  30.845  1.00  0.00     0.074 A 
ATOM     54  C   UNL A   1      41.703  31.148  36.609  1.00  0.00     0.029 A 
ATOM     55  N   UNL A   1      41.245  30.645  34.492  1.00  0.00    -0.354 N 
ATOM     56  N   UNL A   1      41.509  29.103  32.009  1.00  0.00    -0.248 NA
ATOM     57  C   UNL A   1      42.601  27.484  30.729  1.00  0.00     0.031 C 
ATOM     58  C   UNL A   1      42.583  30.143  36.191  1.00  0.00     0.029 A 
ATOM     59  C   UNL A   1      42.282  29.812  34.880  1.00  0.00     0.049 A 
ATOM     60  H   UNL A   1      40.818  30.641  33.605  1.00  0.00     0.167 HD
ATOM     61  C   UNL A   1      42.513  28.524  32.772  1.00  0.00     0.074 A 
ATOM     62  C   UNL A   1      43.129  27.506  31.944  1.00  0.00     0.031 C 
ATOM     63  C   UNL A   1      42.894  28.810  34.042  1.00  0.00     0.037 A 
BRANCH  50  64
ATOM     64  C   UNL A   1      39.699  33.422  36.645  1.00  0.00     0.064 A 
ATOM     65  C   UNL A   1      38.820  33.108  37.693  1.00  0.00     0.173 A 
ATOM     66  C   UNL A   1      40.430  34.617  36.743  1.00  0.00     0.173 A 
ATOM     67  F   UNL A   1      38.089  31.984  37.647  1.00  0.00    -0.203 F 
ATOM     68  C   UNL A   1      38.648  33.972  38.772  1.00  0.00     0.198 A 
ATOM     69  C   UNL A   1      40.282  35.462  37.840  1.00  0.00     0.198 A 
ATOM     70  F   UNL A   1      41.291  34.965  35.775  1.00  0.00    -0.203 F 
ATOM     71  F   UNL A   1      37.757  33.679  39.728  1.00  0.00    -0.200 F 
ATOM     72  C   UNL A   1      39.384  35.145  38.847  1.00  0.00     0.200 A 
ATOM     73  F   UNL A   1      41.005  36.588  37.919  1.00  0.00    -0.200 F 
ATOM     74  F   UNL A   1      39.221  35.974  39.887  1.00  0.00    -0.200 F 
ENDBRANCH  50  64
BRANCH  51  75
ATOM     75  C   UNL A   1      40.848  27.877  28.418  1.00  0.00     0.064 A 
ATOM     76  C   UNL A   1      41.666  28.312  27.366  1.00  0.00     0.173 A 
ATOM     77  C   UNL A   1      40.213  26.634  28.280  1.00  0.00     0.173 A 
ATOM     78  F   UNL A   1      42.279  29.502  27.443  1.00  0.00    -0.203 F 
ATOM     79  C   UNL A   1      41.828  27.544  26.215  1.00  0.00     0.198 A 
ATOM     80  C   UNL A   1      40.400  25.854  27.141  1.00  0.00     0.198 A 
ATOM     81  F   UNL A   1      39.424  26.170  29.261  1.00  0.00    -0.203 F 
ATOM     82  F   UNL A   1      42.584  28.003  25.208  1.00  0.00    -0.200 F 
ATOM     83  C   UNL A   1      41.202  26.311  26.107  1.00  0.00     0.200 A 
ATOM     84  F   UNL A   1      39.805  24.656  27.048  1.00  0.00    -0.200 F 
ATOM     85  F   UNL A   1      41.365  25.569  25.004  1.00  0.00    -0.200 F 
ENDBRANCH  51  75
BRANCH  63  86
ATOM     86  C   UNL A   1      44.017  27.996  34.617  1.00  0.00     0.064 A 
ATOM     87  C   UNL A   1      43.785  26.773  35.265  1.00  0.00     0.173 A 
ATOM     88  C   UNL A   1      45.346  28.437  34.509  1.00  0.00     0.173 A 
ATOM     89  F   UNL A   1      42.532  26.313  35.410  1.00  0.00    -0.203 F 
ATOM     90  C   UNL A   1      44.834  26.042  35.817  1.00  0.00     0.198 A 
ATOM     91  C   UNL A   1      46.396  27.686  35.030  1.00  0.00     0.198 A 
ATOM     92  F   UNL A   1      45.626  29.595  33.892  1.00  0.00    -0.203 F 
ATOM     93  F   UNL A   1      44.580  24.910  36.486  1.00  0.00    -0.200 F 
ATOM     94  C   UNL A   1      46.138  26.496  35.693  1.00  0.00     0.200 A 
ATOM     95  F   UNL A   1      47.657  28.118  34.896  1.00  0.00    -0.200 F 
ATOM     96  F   UNL A   1      47.147  25.791  36.223  1.00  0.00    -0.200 F 
ENDBRANCH  63  86
ENDBRANCH  37  38
ENDBRANCH  29  32
ENDBRANCH  27  28
ENDBRANCH  26  27
ENDBRANCH  25  26
ENDBRANCH   1  25
TORSDOF 16
ENDMDL
MODEL 3
REMARK VINA RESULT:     -11.9      1.745      7.700
REMARK SMILES O=C(C[N@@H+](C1CCCC1)[C@@H]1CCOC2(CCC2)C1)NCCCCCCNC(=O)c1ccc(-c2c3nc(c(-c4c(F)c(F)c(F)c(F)c4F)c4ccc([nH]4)c(-c4c(F)c(F)c(F)c(F)c4F)c4nc(c(-c5c(F)c(F)c(F)c(F)c5F)c5ccc2[nH]5)C=C4)C=C3)cc1
REMARK SMILES IDX 22 1 21 2 20 3 19 4 1 5 2 6 3 8 4 9 5 11 6 12 9 13 7 14 8 15
REMARK SMILES IDX 10 16 11 17 18 18 12 19 14 20 13 21 15 22 17 23 16 24 23 25
REMARK SMILES IDX 24 26 25 27 26 28 27 29 28 31 29 32 30 33 91 34 31 35 90 36
REMARK SMILES IDX 32 37 33 38 34 39 84 40 35 41 89 42 83 43 85 44 36 45 88 46
REMARK SMILES IDX 82 47 81 48 37 50 69 51 49 52 68 53 50 54 53 55 67 56 86 57
REMARK SMILES IDX 51 58 52 59 66 61 87 62 54 63 38 64 39 65 47 66 40 67 41 68
REMARK SMILES IDX 45 69 48 70 42 71 43 72 46 73 44 74 70 75 71 76 79 77 72 78
REMARK SMILES IDX 73 79 77 80 80 81 74 82 75 83 78 84 76 85 55 86 56 87 64 88
REMARK SMILES IDX 57 89 58 90 62 91 65 92 59 93 60 94 63 95 61 96
REMARK H PARENT 19 7 4 10 26 30 85 49 53 60
REMARK Flexibility Score: inf
ROOT
ATOM      1  C   UNL A   1      34.642  32.340  29.080  1.00  0.00     0.002 C 
ENDROOT
BRANCH   1   2
ATOM      2  C   UNL A   1      34.809  31.482  27.824  1.00  0.00     0.021 C 
BRANCH   2   3
ATOM      3  C   UNL A   1      33.495  30.899  27.309  1.00  0.00     0.116 C 
BRANCH   3   4
ATOM      4  N   UNL A   1      33.680  29.981  26.206  1.00  0.00    -0.351 N 
ATOM      5  O   UNL A   1      31.479  30.007  25.616  1.00  0.00    -0.269 OA
ATOM      6  C   UNL A   1      32.641  29.681  25.366  1.00  0.00     0.275 C 
ATOM      7  H   UNL A   1      34.561  29.568  26.058  1.00  0.00     0.163 HD
BRANCH   6   8
ATOM      8  C   UNL A   1      32.964  28.861  24.132  1.00  0.00     0.363 C 
BRANCH   8   9
ATOM      9  N   UNL A   1      32.611  27.418  24.111  1.00  0.00    -0.322 N 
ATOM     10  H   UNL A   1      32.456  27.187  25.092  1.00  0.00     0.349 HD
BRANCH   9  11
ATOM     11  C   UNL A   1      31.342  27.231  23.323  1.00  0.00     0.184 C 
ATOM     12  C   UNL A   1      30.127  26.647  24.088  1.00  0.00     0.065 C 
ATOM     13  C   UNL A   1      30.747  28.351  22.438  1.00  0.00     0.065 C 
ATOM     14  C   UNL A   1      28.866  27.318  23.575  1.00  0.00     0.006 C 
ATOM     15  C   UNL A   1      29.318  28.601  22.911  1.00  0.00     0.006 C 
ENDBRANCH   9  11
BRANCH   9  16
ATOM     16  C   UNL A   1      33.661  26.378  23.930  1.00  0.00     0.189 C 
ATOM     17  C   UNL A   1      33.573  25.398  22.739  1.00  0.00     0.093 C 
ATOM     18  C   UNL A   1      34.166  25.590  25.156  1.00  0.00     0.100 C 
ATOM     19  C   UNL A   1      32.815  24.118  23.047  1.00  0.00     0.167 C 
ATOM     20  C   UNL A   1      33.422  24.282  25.403  1.00  0.00     0.074 C 
ATOM     21  O   UNL A   1      33.375  23.491  24.191  1.00  0.00    -0.375 OA
ATOM     22  C   UNL A   1      34.015  23.484  26.605  1.00  0.00     0.036 C 
ATOM     23  C   UNL A   1      32.122  24.394  26.243  1.00  0.00     0.036 C 
ATOM     24  C   UNL A   1      32.576  23.173  27.047  1.00  0.00     0.006 C 
ENDBRANCH   9  16
ENDBRANCH   8   9
ENDBRANCH   6   8
ENDBRANCH   3   4
ENDBRANCH   2   3
ENDBRANCH   1   2
BRANCH   1  25
ATOM     25  C   UNL A   1      34.773  33.845  28.839  1.00  0.00     0.002 C 
BRANCH  25  26
ATOM     26  C   UNL A   1      33.448  34.610  28.837  1.00  0.00     0.021 C 
BRANCH  26  27
ATOM     27  C   UNL A   1      33.490  35.954  29.556  1.00  0.00     0.116 C 
BRANCH  27  28
ATOM     28  N   UNL A   1      32.534  36.021  30.650  1.00  0.00    -0.352 N 
ATOM     29  C   UNL A   1      32.602  35.467  31.900  1.00  0.00     0.251 C 
ATOM     30  H   UNL A   1      31.718  36.539  30.464  1.00  0.00     0.163 HD
ATOM     31  O   UNL A   1      31.610  35.467  32.631  1.00  0.00    -0.269 OA
BRANCH  29  32
ATOM     32  C   UNL A   1      33.857  34.848  32.368  1.00  0.00     0.039 A 
ATOM     33  C   UNL A   1      33.818  33.544  32.867  1.00  0.00     0.014 A 
ATOM     34  C   UNL A   1      35.067  35.548  32.320  1.00  0.00     0.014 A 
ATOM     35  C   UNL A   1      35.001  32.922  33.264  1.00  0.00     0.010 A 
ATOM     36  C   UNL A   1      36.256  34.899  32.645  1.00  0.00     0.010 A 
ATOM     37  C   UNL A   1      36.234  33.580  33.122  1.00  0.00    -0.014 A 
BRANCH  37  38
ATOM     38  C   UNL A   1      37.503  32.884  33.449  1.00  0.00     0.031 A 
ATOM     39  C   UNL A   1      38.239  33.188  34.723  1.00  0.00     0.074 A 
ATOM     40  C   UNL A   1      38.014  32.004  32.567  1.00  0.00     0.049 A 
ATOM     41  N   UNL A   1      39.350  32.667  35.181  1.00  0.00    -0.248 NA
ATOM     42  C   UNL A   1      37.667  34.232  35.586  1.00  0.00     0.031 C 
ATOM     43  C   UNL A   1      37.423  31.671  31.270  1.00  0.00     0.029 A 
ATOM     44  N   UNL A   1      39.141  31.226  32.629  1.00  0.00    -0.354 N 
ATOM     45  C   UNL A   1      39.613  33.324  36.375  1.00  0.00     0.074 A 
ATOM     46  C   UNL A   1      38.579  34.322  36.544  1.00  0.00     0.031 C 
ATOM     47  C   UNL A   1      38.169  30.727  30.677  1.00  0.00     0.029 A 
ATOM     48  C   UNL A   1      39.308  30.414  31.534  1.00  0.00     0.049 A 
ATOM     49  H   UNL A   1      39.772  31.247  33.385  1.00  0.00     0.167 HD
ATOM     50  C   UNL A   1      40.613  33.098  37.261  1.00  0.00     0.037 A 
ATOM     51  C   UNL A   1      40.270  29.514  31.254  1.00  0.00     0.037 A 
ATOM     52  C   UNL A   1      41.632  32.093  37.093  1.00  0.00     0.049 A 
ATOM     53  C   UNL A   1      41.371  29.287  32.253  1.00  0.00     0.074 A 
ATOM     54  C   UNL A   1      42.643  31.734  37.967  1.00  0.00     0.029 A 
ATOM     55  N   UNL A   1      41.776  31.295  35.967  1.00  0.00    -0.354 N 
ATOM     56  N   UNL A   1      41.557  29.846  33.424  1.00  0.00    -0.248 NA
ATOM     57  C   UNL A   1      42.392  28.295  31.891  1.00  0.00     0.031 C 
ATOM     58  C   UNL A   1      43.434  30.761  37.344  1.00  0.00     0.029 A 
ATOM     59  C   UNL A   1      42.881  30.470  36.108  1.00  0.00     0.049 A 
ATOM     60  H   UNL A   1      41.180  31.313  35.183  1.00  0.00     0.167 HD
ATOM     61  C   UNL A   1      42.702  29.261  33.948  1.00  0.00     0.074 A 
ATOM     62  C   UNL A   1      43.153  28.285  32.976  1.00  0.00     0.031 C 
ATOM     63  C   UNL A   1      43.325  29.510  35.126  1.00  0.00     0.037 A 
BRANCH  50  64
ATOM     64  C   UNL A   1      40.658  33.964  38.489  1.00  0.00     0.064 A 
ATOM     65  C   UNL A   1      41.405  35.152  38.531  1.00  0.00     0.173 A 
ATOM     66  C   UNL A   1      39.925  33.613  39.634  1.00  0.00     0.173 A 
ATOM     67  F   UNL A   1      42.131  35.531  37.469  1.00  0.00    -0.203 F 
ATOM     68  C   UNL A   1      41.449  35.932  39.684  1.00  0.00     0.198 A 
ATOM     69  C   UNL A   1      39.944  34.414  40.773  1.00  0.00     0.198 A 
ATOM     70  F   UNL A   1      39.188  32.493  39.649  1.00  0.00    -0.203 F 
ATOM     71  F   UNL A   1      42.218  37.029  39.719  1.00  0.00    -0.200 F 
ATOM     72  C   UNL A   1      40.714  35.567  40.801  1.00  0.00     0.200 A 
ATOM     73  F   UNL A   1      39.221  34.067  41.847  1.00  0.00    -0.200 F 
ATOM     74  F   UNL A   1      40.755  36.320  41.908  1.00  0.00    -0.200 F 
ENDBRANCH  50  64
BRANCH  51  75
ATOM     75  C   UNL A   1      40.206  28.732  29.994  1.00  0.00     0.064 A 
ATOM     76  C   UNL A   1      40.805  29.212  28.821  1.00  0.00     0.173 A 
ATOM     77  C   UNL A   1      39.558  27.489  29.934  1.00  0.00     0.173 A 
ATOM     78  F   UNL A   1      41.421  30.404  28.823  1.00  0.00    -0.203 F 
ATOM     79  C   UNL A   1      40.744  28.488  27.632  1.00  0.00     0.198 A 
ATOM     80  C   UNL A   1      39.523  26.753  28.752  1.00  0.00     0.198 A 
ATOM     81  F   UNL A   1      38.974  26.983  31.030  1.00  0.00    -0.203 F 
ATOM     82  F   UNL A   1      41.290  28.989  26.516  1.00  0.00    -0.200 F 
ATOM     83  C   UNL A   1      40.110  27.254  27.601  1.00  0.00     0.200 A 
ATOM     84  F   UNL A   1      38.923  25.554  28.731  1.00  0.00    -0.200 F 
ATOM     85  F   UNL A   1      40.058  26.554  26.460  1.00  0.00    -0.200 F 
ENDBRANCH  51  75
BRANCH  63  86
ATOM     86  C   UNL A   1      44.552  28.700  35.434  1.00  0.00     0.064 A 
ATOM     87  C   UNL A   1      45.836  29.143  35.081  1.00  0.00     0.173 A 
ATOM     88  C   UNL A   1      44.444  27.470  36.103  1.00  0.00     0.173 A 
ATOM     89  F   UNL A   1      45.993  30.304  34.427  1.00  0.00    -0.203 F 
ATOM     90  C   UNL A   1      46.961  28.368  35.350  1.00  0.00     0.198 A 
ATOM     91  C   UNL A   1      45.575  26.715  36.402  1.00  0.00     0.198 A 
ATOM     92  F   UNL A   1      43.242  27.002  36.470  1.00  0.00    -0.203 F 
ATOM     93  F   UNL A   1      48.170  28.783  34.947  1.00  0.00    -0.200 F 
ATOM     94  C   UNL A   1      46.830  27.158  36.016  1.00  0.00     0.200 A 
ATOM     95  F   UNL A   1      45.449  25.553  37.058  1.00  0.00    -0.200 F 
ATOM     96  F   UNL A   1      47.914  26.414  36.275  1.00  0.00    -0.200 F 
ENDBRANCH  63  86
ENDBRANCH  37  38
ENDBRANCH  29  32
ENDBRANCH  27  28
ENDBRANCH  26  27
ENDBRANCH  25  26
ENDBRANCH   1  25
TORSDOF 16
ENDMDL
