MODEL 1
REMARK VINA RESULT:     -12.9      0.000      0.000
REMARK SMILES Cc1ccc2c(c1)C=C(C(=O)NCCCCCCNC(=O)c1ccc(-c3c4nc(c(-c5c(F)c(F)c(F)c(F)c5F)c5ccc([nH]5)c(-c5c(F)c(F)c(F)c(F)c5F)c5nc(c(-c6c(F)c(F)c(F)c(F)c6F)c6ccc3[nH]6)C=C5)C=C4)cc1)[C@@H](C(F)(F)F)O2
REMARK SMILES IDX 16 1 15 2 14 3 13 4 12 5 10 6 11 7 9 9 1 10 2 11 3 12 7 13
REMARK SMILES IDX 4 14 6 15 5 16 8 17 90 18 85 19 86 20 87 21 88 22 89 23
REMARK SMILES IDX 17 24 18 25 19 26 20 27 21 29 22 30 23 31 84 32 24 33 83 34
REMARK SMILES IDX 25 35 26 36 27 37 77 38 28 39 82 40 76 41 78 42 29 43 81 44
REMARK SMILES IDX 75 45 74 46 30 48 62 49 42 50 61 51 43 52 46 53 60 54 79 55
REMARK SMILES IDX 44 56 45 57 59 59 80 60 47 61 31 62 32 63 40 64 33 65 34 66
REMARK SMILES IDX 38 67 41 68 35 69 36 70 39 71 37 72 63 73 64 74 72 75 65 76
REMARK SMILES IDX 66 77 70 78 73 79 67 80 68 81 71 82 69 83 48 84 49 85 57 86
REMARK SMILES IDX 50 87 51 88 55 89 58 90 52 91 53 92 56 93 54 94
REMARK H PARENT 12 8 19 28 78 47 46 58
REMARK Flexibility Score: inf
ROOT
ATOM      1  C   UNL A   1      31.567  30.700  26.339  1.00  0.00     0.002 C 
ENDROOT
BRANCH   1   2
ATOM      2  C   UNL A   1      32.641  29.942  27.132  1.00  0.00     0.002 C 
BRANCH   2   3
ATOM      3  C   UNL A   1      33.711  29.246  26.285  1.00  0.00     0.021 C 
BRANCH   3   4
ATOM      4  C   UNL A   1      33.736  27.731  26.448  1.00  0.00     0.116 C 
BRANCH   4   5
ATOM      5  N   UNL A   1      33.891  27.053  25.174  1.00  0.00    -0.352 N 
ATOM      6  C   UNL A   1      33.112  26.754  24.109  1.00  0.00     0.251 C 
ATOM      7  O   UNL A   1      33.691  26.165  23.189  1.00  0.00    -0.270 OA
ATOM      8  H   UNL A   1      34.810  26.721  25.052  1.00  0.00     0.163 HD
BRANCH   6   9
ATOM      9  C   UNL A   1      31.659  27.076  23.982  1.00  0.00     0.067 C 
ATOM     10  C   UNL A   1      27.868  31.816  22.729  1.00  0.00     0.044 C 
ATOM     11  C   UNL A   1      28.268  30.399  23.012  1.00  0.00    -0.050 A 
ATOM     12  C   UNL A   1      27.284  29.407  23.092  1.00  0.00     0.007 A 
ATOM     13  C   UNL A   1      29.617  30.047  23.175  1.00  0.00     0.015 A 
ATOM     14  C   UNL A   1      27.640  28.084  23.346  1.00  0.00     0.047 A 
ATOM     15  C   UNL A   1      29.976  28.721  23.436  1.00  0.00     0.017 A 
ATOM     16  C   UNL A   1      28.979  27.751  23.528  1.00  0.00     0.128 A 
ATOM     17  C   UNL A   1      31.372  28.325  23.570  1.00  0.00     0.025 C 
ATOM     18  O   UNL A   1      29.245  26.434  23.755  1.00  0.00    -0.475 OA
ATOM     19  C   UNL A   1      30.548  26.119  24.312  1.00  0.00     0.314 C 
BRANCH  19  20
ATOM     20  C   UNL A   1      30.400  25.882  25.827  1.00  0.00     0.429 C 
ATOM     21  F   UNL A   1      31.291  24.949  26.248  1.00  0.00    -0.167 F 
ATOM     22  F   UNL A   1      30.648  26.995  26.557  1.00  0.00    -0.167 F 
ATOM     23  F   UNL A   1      29.167  25.452  26.172  1.00  0.00    -0.167 F 
ENDBRANCH  19  20
ENDBRANCH   6   9
ENDBRANCH   4   5
ENDBRANCH   3   4
ENDBRANCH   2   3
ENDBRANCH   1   2
BRANCH   1  24
ATOM     24  C   UNL A   1      31.405  32.177  26.701  1.00  0.00     0.021 C 
BRANCH  24  25
ATOM     25  C   UNL A   1      32.672  32.845  27.221  1.00  0.00     0.116 C 
BRANCH  25  26
ATOM     26  N   UNL A   1      32.436  34.213  27.655  1.00  0.00    -0.352 N 
ATOM     27  C   UNL A   1      33.035  34.927  28.662  1.00  0.00     0.251 C 
ATOM     28  H   UNL A   1      31.743  34.698  27.152  1.00  0.00     0.163 HD
ATOM     29  O   UNL A   1      32.575  36.013  29.007  1.00  0.00    -0.269 OA
BRANCH  27  30
ATOM     30  C   UNL A   1      34.222  34.379  29.349  1.00  0.00     0.039 A 
ATOM     31  C   UNL A   1      35.504  34.602  28.844  1.00  0.00     0.014 A 
ATOM     32  C   UNL A   1      34.050  33.631  30.517  1.00  0.00     0.014 A 
ATOM     33  C   UNL A   1      36.591  33.946  29.408  1.00  0.00     0.010 A 
ATOM     34  C   UNL A   1      35.158  33.052  31.142  1.00  0.00     0.010 A 
ATOM     35  C   UNL A   1      36.433  33.170  30.567  1.00  0.00    -0.014 A 
BRANCH  35  36
ATOM     36  C   UNL A   1      37.623  32.512  31.166  1.00  0.00     0.031 A 
ATOM     37  C   UNL A   1      38.089  32.868  32.551  1.00  0.00     0.074 A 
ATOM     38  C   UNL A   1      38.249  31.544  30.470  1.00  0.00     0.049 A 
ATOM     39  N   UNL A   1      39.082  32.364  33.241  1.00  0.00    -0.248 NA
ATOM     40  C   UNL A   1      37.353  33.930  33.254  1.00  0.00     0.031 C 
ATOM     41  C   UNL A   1      37.883  31.111  29.121  1.00  0.00     0.029 A 
ATOM     42  N   UNL A   1      39.300  30.728  30.806  1.00  0.00    -0.354 N 
ATOM     43  C   UNL A   1      39.094  33.050  34.448  1.00  0.00     0.074 A 
ATOM     44  C   UNL A   1      38.036  34.034  34.385  1.00  0.00     0.031 C 
ATOM     45  C   UNL A   1      38.651  30.069  28.769  1.00  0.00     0.029 A 
ATOM     46  C   UNL A   1      39.609  29.804  29.837  1.00  0.00     0.049 A 
ATOM     47  H   UNL A   1      39.786  30.798  31.659  1.00  0.00     0.167 HD
ATOM     48  C   UNL A   1      39.903  32.860  35.518  1.00  0.00     0.037 A 
ATOM     49  C   UNL A   1      40.562  28.855  29.805  1.00  0.00     0.037 A 
ATOM     50  C   UNL A   1      40.943  31.865  35.579  1.00  0.00     0.049 A 
ATOM     51  C   UNL A   1      41.480  28.702  30.984  1.00  0.00     0.074 A 
ATOM     52  C   UNL A   1      41.804  31.585  36.626  1.00  0.00     0.029 A 
ATOM     53  N   UNL A   1      41.262  30.988  34.553  1.00  0.00    -0.354 N 
ATOM     54  N   UNL A   1      41.469  29.345  32.126  1.00  0.00    -0.248 NA
ATOM     55  C   UNL A   1      42.547  27.699  30.869  1.00  0.00     0.031 C 
ATOM     56  C   UNL A   1      42.677  30.575  36.215  1.00  0.00     0.029 A 
ATOM     57  C   UNL A   1      42.324  30.183  34.934  1.00  0.00     0.049 A 
ATOM     58  H   UNL A   1      40.803  30.944  33.682  1.00  0.00     0.167 HD
ATOM     59  C   UNL A   1      42.509  28.813  32.873  1.00  0.00     0.074 A 
ATOM     60  C   UNL A   1      43.125  27.785  32.060  1.00  0.00     0.031 C 
ATOM     61  C   UNL A   1      42.918  29.153  34.119  1.00  0.00     0.037 A 
BRANCH  48  62
ATOM     62  C   UNL A   1      39.705  33.742  36.717  1.00  0.00     0.064 A 
ATOM     63  C   UNL A   1      40.280  35.019  36.793  1.00  0.00     0.173 A 
ATOM     64  C   UNL A   1      38.867  33.337  37.768  1.00  0.00     0.173 A 
ATOM     65  F   UNL A   1      41.096  35.451  35.820  1.00  0.00    -0.203 F 
ATOM     66  C   UNL A   1      40.036  35.851  37.884  1.00  0.00     0.198 A 
ATOM     67  C   UNL A   1      38.601  34.184  38.841  1.00  0.00     0.198 A 
ATOM     68  F   UNL A   1      38.284  32.129  37.742  1.00  0.00    -0.203 F 
ATOM     69  F   UNL A   1      40.624  37.054  37.949  1.00  0.00    -0.200 F 
ATOM     70  C   UNL A   1      39.190  35.437  38.901  1.00  0.00     0.200 A 
ATOM     71  F   UNL A   1      37.770  33.788  39.816  1.00  0.00    -0.200 F 
ATOM     72  F   UNL A   1      38.942  36.248  39.939  1.00  0.00    -0.200 F 
ENDBRANCH  48  62
BRANCH  49  73
ATOM     73  C   UNL A   1      40.672  27.969  28.617  1.00  0.00     0.064 A 
ATOM     74  C   UNL A   1      39.975  26.755  28.559  1.00  0.00     0.173 A 
ATOM     75  C   UNL A   1      41.433  28.339  27.498  1.00  0.00     0.173 A 
ATOM     76  F   UNL A   1      39.247  26.349  29.610  1.00  0.00    -0.203 F 
ATOM     77  C   UNL A   1      40.037  25.944  27.427  1.00  0.00     0.198 A 
ATOM     78  C   UNL A   1      41.470  27.543  26.356  1.00  0.00     0.198 A 
ATOM     79  F   UNL A   1      42.114  29.495  27.501  1.00  0.00    -0.203 F 
ATOM     80  F   UNL A   1      39.382  24.775  27.407  1.00  0.00    -0.200 F 
ATOM     81  C   UNL A   1      40.775  26.343  26.323  1.00  0.00     0.200 A 
ATOM     82  F   UNL A   1      42.167  27.943  25.284  1.00  0.00    -0.200 F 
ATOM     83  F   UNL A   1      40.817  25.574  25.228  1.00  0.00    -0.200 F 
ENDBRANCH  49  73
BRANCH  61  84
ATOM     84  C   UNL A   1      44.070  28.394  34.708  1.00  0.00     0.064 A 
ATOM     85  C   UNL A   1      45.384  28.877  34.629  1.00  0.00     0.173 A 
ATOM     86  C   UNL A   1      43.842  27.221  35.444  1.00  0.00     0.173 A 
ATOM     87  F   UNL A   1      45.653  29.985  33.923  1.00  0.00    -0.203 F 
ATOM     88  C   UNL A   1      46.429  28.211  35.262  1.00  0.00     0.198 A 
ATOM     89  C   UNL A   1      44.885  26.575  36.101  1.00  0.00     0.198 A 
ATOM     90  F   UNL A   1      42.602  26.723  35.557  1.00  0.00    -0.203 F 
ATOM     91  F   UNL A   1      47.681  28.676  35.153  1.00  0.00    -0.200 F 
ATOM     92  C   UNL A   1      46.177  27.069  36.008  1.00  0.00     0.200 A 
ATOM     93  F   UNL A   1      44.636  25.481  36.835  1.00  0.00    -0.200 F 
ATOM     94  F   UNL A   1      47.181  26.443  36.639  1.00  0.00    -0.200 F 
ENDBRANCH  61  84
ENDBRANCH  35  36
ENDBRANCH  27  30
ENDBRANCH  25  26
ENDBRANCH  24  25
ENDBRANCH   1  24
TORSDOF 14
ENDMDL
MODEL 2
REMARK VINA RESULT:     -12.7      5.975     10.979
REMARK SMILES Cc1ccc2c(c1)C=C(C(=O)NCCCCCCNC(=O)c1ccc(-c3c4nc(c(-c5c(F)c(F)c(F)c(F)c5F)c5ccc([nH]5)c(-c5c(F)c(F)c(F)c(F)c5F)c5nc(c(-c6c(F)c(F)c(F)c(F)c6F)c6ccc3[nH]6)C=C5)C=C4)cc1)[C@@H](C(F)(F)F)O2
REMARK SMILES IDX 16 1 15 2 14 3 13 4 12 5 10 6 11 7 9 9 1 10 2 11 3 12 7 13
REMARK SMILES IDX 4 14 6 15 5 16 8 17 90 18 85 19 86 20 87 21 88 22 89 23
REMARK SMILES IDX 17 24 18 25 19 26 20 27 21 29 22 30 23 31 84 32 24 33 83 34
REMARK SMILES IDX 25 35 26 36 27 37 77 38 28 39 82 40 76 41 78 42 29 43 81 44
REMARK SMILES IDX 75 45 74 46 30 48 62 49 42 50 61 51 43 52 46 53 60 54 79 55
REMARK SMILES IDX 44 56 45 57 59 59 80 60 47 61 31 62 32 63 40 64 33 65 34 66
REMARK SMILES IDX 38 67 41 68 35 69 36 70 39 71 37 72 63 73 64 74 72 75 65 76
REMARK SMILES IDX 66 77 70 78 73 79 67 80 68 81 71 82 69 83 48 84 49 85 57 86
REMARK SMILES IDX 50 87 51 88 55 89 58 90 52 91 53 92 56 93 54 94
REMARK H PARENT 12 8 19 28 78 47 46 58
REMARK Flexibility Score: inf
ROOT
ATOM      1  C   UNL A   1      36.873  20.621  24.902  1.00  0.00     0.002 C 
ENDROOT
BRANCH   1   2
ATOM      2  C   UNL A   1      37.301  22.091  24.799  1.00  0.00     0.002 C 
BRANCH   2   3
ATOM      3  C   UNL A   1      36.726  23.017  25.876  1.00  0.00     0.021 C 
BRANCH   3   4
ATOM      4  C   UNL A   1      35.813  24.107  25.328  1.00  0.00     0.116 C 
BRANCH   4   5
ATOM      5  N   UNL A   1      34.514  24.101  25.976  1.00  0.00    -0.352 N 
ATOM      6  C   UNL A   1      33.354  23.413  25.866  1.00  0.00     0.251 C 
ATOM      7  O   UNL A   1      32.480  23.732  26.680  1.00  0.00    -0.270 OA
ATOM      8  H   UNL A   1      34.464  24.780  26.687  1.00  0.00     0.163 HD
BRANCH   6   9
ATOM      9  C   UNL A   1      33.076  22.339  24.865  1.00  0.00     0.067 C 
ATOM     10  C   UNL A   1      33.895  16.262  23.968  1.00  0.00     0.044 C 
ATOM     11  C   UNL A   1      33.394  17.648  23.693  1.00  0.00    -0.050 A 
ATOM     12  C   UNL A   1      32.634  17.892  22.544  1.00  0.00     0.007 A 
ATOM     13  C   UNL A   1      33.657  18.702  24.583  1.00  0.00     0.015 A 
ATOM     14  C   UNL A   1      32.155  19.172  22.278  1.00  0.00     0.047 A 
ATOM     15  C   UNL A   1      33.182  19.990  24.314  1.00  0.00     0.017 A 
ATOM     16  C   UNL A   1      32.441  20.214  23.155  1.00  0.00     0.128 A 
ATOM     17  C   UNL A   1      33.408  21.091  25.242  1.00  0.00     0.025 C 
ATOM     18  O   UNL A   1      31.921  21.432  22.833  1.00  0.00    -0.475 OA
ATOM     19  C   UNL A   1      32.499  22.584  23.500  1.00  0.00     0.314 C 
BRANCH  19  20
ATOM     20  C   UNL A   1      33.499  23.264  22.546  1.00  0.00     0.429 C 
ATOM     21  F   UNL A   1      33.536  24.602  22.775  1.00  0.00    -0.167 F 
ATOM     22  F   UNL A   1      34.767  22.820  22.714  1.00  0.00    -0.167 F 
ATOM     23  F   UNL A   1      33.188  23.083  21.244  1.00  0.00    -0.167 F 
ENDBRANCH  19  20
ENDBRANCH   6   9
ENDBRANCH   4   5
ENDBRANCH   3   4
ENDBRANCH   2   3
ENDBRANCH   1   2
BRANCH   1  24
ATOM     24  C   UNL A   1      38.018  19.611  25.009  1.00  0.00     0.021 C 
BRANCH  24  25
ATOM     25  C   UNL A   1      39.226  20.103  25.797  1.00  0.00     0.116 C 
BRANCH  25  26
ATOM     26  N   UNL A   1      40.275  19.100  25.881  1.00  0.00    -0.352 N 
ATOM     27  C   UNL A   1      41.618  19.256  26.111  1.00  0.00     0.251 C 
ATOM     28  H   UNL A   1      39.976  18.171  25.755  1.00  0.00     0.163 HD
ATOM     29  O   UNL A   1      42.385  18.308  25.962  1.00  0.00    -0.269 OA
BRANCH  27  30
ATOM     30  C   UNL A   1      42.148  20.575  26.516  1.00  0.00     0.039 A 
ATOM     31  C   UNL A   1      42.266  20.911  27.866  1.00  0.00     0.014 A 
ATOM     32  C   UNL A   1      42.535  21.487  25.531  1.00  0.00     0.014 A 
ATOM     33  C   UNL A   1      42.611  22.207  28.226  1.00  0.00     0.010 A 
ATOM     34  C   UNL A   1      42.976  22.761  25.898  1.00  0.00     0.010 A 
ATOM     35  C   UNL A   1      42.978  23.146  27.248  1.00  0.00    -0.014 A 
BRANCH  35  36
ATOM     36  C   UNL A   1      43.377  24.513  27.669  1.00  0.00     0.031 A 
ATOM     37  C   UNL A   1      44.821  24.932  27.670  1.00  0.00     0.074 A 
ATOM     38  C   UNL A   1      42.417  25.398  27.999  1.00  0.00     0.049 A 
ATOM     39  N   UNL A   1      45.341  26.097  27.968  1.00  0.00    -0.248 NA
ATOM     40  C   UNL A   1      45.814  23.915  27.292  1.00  0.00     0.031 C 
ATOM     41  C   UNL A   1      40.982  25.106  28.030  1.00  0.00     0.029 A 
ATOM     42  N   UNL A   1      42.492  26.725  28.339  1.00  0.00    -0.354 N 
ATOM     43  C   UNL A   1      46.714  25.950  27.824  1.00  0.00     0.074 A 
ATOM     44  C   UNL A   1      46.954  24.573  27.450  1.00  0.00     0.031 C 
ATOM     45  C   UNL A   1      40.310  26.233  28.306  1.00  0.00     0.029 A 
ATOM     46  C   UNL A   1      41.265  27.310  28.540  1.00  0.00     0.049 A 
ATOM     47  H   UNL A   1      43.343  27.212  28.430  1.00  0.00     0.167 HD
ATOM     48  C   UNL A   1      47.683  26.885  27.972  1.00  0.00     0.037 A 
ATOM     49  C   UNL A   1      40.942  28.571  28.883  1.00  0.00     0.037 A 
ATOM     50  C   UNL A   1      47.433  28.258  28.328  1.00  0.00     0.049 A 
ATOM     51  C   UNL A   1      42.040  29.574  29.093  1.00  0.00     0.074 A 
ATOM     52  C   UNL A   1      48.348  29.286  28.485  1.00  0.00     0.029 A 
ATOM     53  N   UNL A   1      46.180  28.797  28.581  1.00  0.00    -0.354 N 
ATOM     54  N   UNL A   1      43.332  29.426  28.936  1.00  0.00    -0.248 NA
ATOM     55  C   UNL A   1      41.638  30.916  29.535  1.00  0.00     0.031 C 
ATOM     56  C   UNL A   1      47.654  30.431  28.883  1.00  0.00     0.029 A 
ATOM     57  C   UNL A   1      46.302  30.136  28.917  1.00  0.00     0.049 A 
ATOM     58  H   UNL A   1      45.331  28.301  28.530  1.00  0.00     0.167 HD
ATOM     59  C   UNL A   1      43.896  30.657  29.238  1.00  0.00     0.074 A 
ATOM     60  C   UNL A   1      42.804  31.546  29.577  1.00  0.00     0.031 C 
ATOM     61  C   UNL A   1      45.204  31.012  29.238  1.00  0.00     0.037 A 
BRANCH  48  62
ATOM     62  C   UNL A   1      49.108  26.465  27.751  1.00  0.00     0.064 A 
ATOM     63  C   UNL A   1      49.654  26.366  26.463  1.00  0.00     0.173 A 
ATOM     64  C   UNL A   1      49.960  26.235  28.843  1.00  0.00     0.173 A 
ATOM     65  F   UNL A   1      48.881  26.567  25.386  1.00  0.00    -0.203 F 
ATOM     66  C   UNL A   1      50.994  26.036  26.276  1.00  0.00     0.198 A 
ATOM     67  C   UNL A   1      51.306  25.935  28.653  1.00  0.00     0.198 A 
ATOM     68  F   UNL A   1      49.492  26.325  30.097  1.00  0.00    -0.203 F 
ATOM     69  F   UNL A   1      51.484  25.915  25.034  1.00  0.00    -0.200 F 
ATOM     70  C   UNL A   1      51.821  25.832  27.369  1.00  0.00     0.200 A 
ATOM     71  F   UNL A   1      52.108  25.754  29.712  1.00  0.00    -0.200 F 
ATOM     72  F   UNL A   1      53.115  25.533  27.186  1.00  0.00    -0.200 F 
ENDBRANCH  48  62
BRANCH  49  73
ATOM     73  C   UNL A   1      39.511  28.946  29.026  1.00  0.00     0.064 A 
ATOM     74  C   UNL A   1      38.761  29.357  27.917  1.00  0.00     0.173 A 
ATOM     75  C   UNL A   1      38.853  28.853  30.262  1.00  0.00     0.173 A 
ATOM     76  F   UNL A   1      39.350  29.478  26.718  1.00  0.00    -0.203 F 
ATOM     77  C   UNL A   1      37.407  29.664  28.038  1.00  0.00     0.198 A 
ATOM     78  C   UNL A   1      37.493  29.130  30.376  1.00  0.00     0.198 A 
ATOM     79  F   UNL A   1      39.524  28.458  31.353  1.00  0.00    -0.203 F 
ATOM     80  F   UNL A   1      36.718  30.080  26.967  1.00  0.00    -0.200 F 
ATOM     81  C   UNL A   1      36.771  29.539  29.264  1.00  0.00     0.200 A 
ATOM     82  F   UNL A   1      36.878  28.988  31.558  1.00  0.00    -0.200 F 
ATOM     83  F   UNL A   1      35.465  29.813  29.376  1.00  0.00    -0.200 F 
ENDBRANCH  49  73
BRANCH  61  84
ATOM     84  C   UNL A   1      45.541  32.432  29.587  1.00  0.00     0.064 A 
ATOM     85  C   UNL A   1      45.545  33.444  28.617  1.00  0.00     0.173 A 
ATOM     86  C   UNL A   1      45.765  32.799  30.923  1.00  0.00     0.173 A 
ATOM     87  F   UNL A   1      45.351  33.140  27.325  1.00  0.00    -0.203 F 
ATOM     88  C   UNL A   1      45.765  34.772  28.971  1.00  0.00     0.198 A 
ATOM     89  C   UNL A   1      45.956  34.131  31.277  1.00  0.00     0.198 A 
ATOM     90  F   UNL A   1      45.764  31.868  31.889  1.00  0.00    -0.203 F 
ATOM     91  F   UNL A   1      45.789  35.720  28.025  1.00  0.00    -0.200 F 
ATOM     92  C   UNL A   1      45.958  35.115  30.301  1.00  0.00     0.200 A 
ATOM     93  F   UNL A   1      46.124  34.463  32.565  1.00  0.00    -0.200 F 
ATOM     94  F   UNL A   1      46.144  36.398  30.643  1.00  0.00    -0.200 F 
ENDBRANCH  61  84
ENDBRANCH  35  36
ENDBRANCH  27  30
ENDBRANCH  25  26
ENDBRANCH  24  25
ENDBRANCH   1  24
TORSDOF 14
ENDMDL
MODEL 3
REMARK VINA RESULT:     -12.7      5.950     11.189
REMARK SMILES Cc1ccc2c(c1)C=C(C(=O)NCCCCCCNC(=O)c1ccc(-c3c4nc(c(-c5c(F)c(F)c(F)c(F)c5F)c5ccc([nH]5)c(-c5c(F)c(F)c(F)c(F)c5F)c5nc(c(-c6c(F)c(F)c(F)c(F)c6F)c6ccc3[nH]6)C=C5)C=C4)cc1)[C@@H](C(F)(F)F)O2
REMARK SMILES IDX 16 1 15 2 14 3 13 4 12 5 10 6 11 7 9 9 1 10 2 11 3 12 7 13
REMARK SMILES IDX 4 14 6 15 5 16 8 17 90 18 85 19 86 20 87 21 88 22 89 23
REMARK SMILES IDX 17 24 18 25 19 26 20 27 21 29 22 30 23 31 84 32 24 33 83 34
REMARK SMILES IDX 25 35 26 36 27 37 77 38 28 39 82 40 76 41 78 42 29 43 81 44
REMARK SMILES IDX 75 45 74 46 30 48 62 49 42 50 61 51 43 52 46 53 60 54 79 55
REMARK SMILES IDX 44 56 45 57 59 59 80 60 47 61 31 62 32 63 40 64 33 65 34 66
REMARK SMILES IDX 38 67 41 68 35 69 36 70 39 71 37 72 63 73 64 74 72 75 65 76
REMARK SMILES IDX 66 77 70 78 73 79 67 80 68 81 71 82 69 83 48 84 49 85 57 86
REMARK SMILES IDX 50 87 51 88 55 89 58 90 52 91 53 92 56 93 54 94
REMARK H PARENT 12 8 19 28 78 47 46 58
REMARK Flexibility Score: inf
ROOT
ATOM      1  C   UNL A   1      36.734  20.613  24.980  1.00  0.00     0.002 C 
ENDROOT
BRANCH   1   2
ATOM      2  C   UNL A   1      37.029  22.108  24.800  1.00  0.00     0.002 C 
BRANCH   2   3
ATOM      3  C   UNL A   1      36.485  23.020  25.905  1.00  0.00     0.021 C 
BRANCH   3   4
ATOM      4  C   UNL A   1      35.653  24.188  25.385  1.00  0.00     0.116 C 
BRANCH   4   5
ATOM      5  N   UNL A   1      34.319  24.198  25.958  1.00  0.00    -0.352 N 
ATOM      6  C   UNL A   1      33.158  23.526  25.780  1.00  0.00     0.251 C 
ATOM      7  O   UNL A   1      32.243  23.855  26.543  1.00  0.00    -0.270 OA
ATOM      8  H   UNL A   1      34.238  24.876  26.667  1.00  0.00     0.163 HD
BRANCH   6   9
ATOM      9  C   UNL A   1      32.923  22.459  24.761  1.00  0.00     0.067 C 
ATOM     10  C   UNL A   1      33.735  16.378  23.881  1.00  0.00     0.044 C 
ATOM     11  C   UNL A   1      33.261  17.770  23.587  1.00  0.00    -0.050 A 
ATOM     12  C   UNL A   1      32.564  18.025  22.401  1.00  0.00     0.007 A 
ATOM     13  C   UNL A   1      33.486  18.818  24.493  1.00  0.00     0.015 A 
ATOM     14  C   UNL A   1      32.110  19.311  22.116  1.00  0.00     0.047 A 
ATOM     15  C   UNL A   1      33.037  20.111  24.206  1.00  0.00     0.017 A 
ATOM     16  C   UNL A   1      32.359  20.346  23.011  1.00  0.00     0.128 A 
ATOM     17  C   UNL A   1      33.224  21.206  25.149  1.00  0.00     0.025 C 
ATOM     18  O   UNL A   1      31.867  21.570  22.668  1.00  0.00    -0.475 OA
ATOM     19  C   UNL A   1      32.420  22.715  23.369  1.00  0.00     0.314 C 
BRANCH  19  20
ATOM     20  C   UNL A   1      33.474  23.389  22.471  1.00  0.00     0.429 C 
ATOM     21  F   UNL A   1      34.698  22.845  22.690  1.00  0.00    -0.167 F 
ATOM     22  F   UNL A   1      33.220  23.225  21.151  1.00  0.00    -0.167 F 
ATOM     23  F   UNL A   1      33.575  24.718  22.690  1.00  0.00    -0.167 F 
ENDBRANCH  19  20
ENDBRANCH   6   9
ENDBRANCH   4   5
ENDBRANCH   3   4
ENDBRANCH   2   3
ENDBRANCH   1   2
BRANCH   1  24
ATOM     24  C   UNL A   1      37.957  19.695  24.949  1.00  0.00     0.021 C 
BRANCH  24  25
ATOM     25  C   UNL A   1      39.116  20.153  25.825  1.00  0.00     0.116 C 
BRANCH  25  26
ATOM     26  N   UNL A   1      40.178  19.163  25.897  1.00  0.00    -0.352 N 
ATOM     27  C   UNL A   1      41.529  19.339  26.064  1.00  0.00     0.251 C 
ATOM     28  H   UNL A   1      39.884  18.227  25.814  1.00  0.00     0.163 HD
ATOM     29  O   UNL A   1      42.298  18.393  25.914  1.00  0.00    -0.269 OA
BRANCH  27  30
ATOM     30  C   UNL A   1      42.062  20.674  26.403  1.00  0.00     0.039 A 
ATOM     31  C   UNL A   1      42.390  20.997  27.721  1.00  0.00     0.014 A 
ATOM     32  C   UNL A   1      42.237  21.617  25.387  1.00  0.00     0.014 A 
ATOM     33  C   UNL A   1      42.734  22.303  28.046  1.00  0.00     0.010 A 
ATOM     34  C   UNL A   1      42.679  22.905  25.703  1.00  0.00     0.010 A 
ATOM     35  C   UNL A   1      42.890  23.270  27.041  1.00  0.00    -0.014 A 
BRANCH  35  36
ATOM     36  C   UNL A   1      43.295  24.649  27.419  1.00  0.00     0.031 A 
ATOM     37  C   UNL A   1      44.689  25.146  27.153  1.00  0.00     0.074 A 
ATOM     38  C   UNL A   1      42.374  25.473  27.956  1.00  0.00     0.049 A 
ATOM     39  N   UNL A   1      45.198  26.332  27.381  1.00  0.00    -0.248 NA
ATOM     40  C   UNL A   1      45.639  24.194  26.559  1.00  0.00     0.031 C 
ATOM     41  C   UNL A   1      40.990  25.101  28.255  1.00  0.00     0.029 A 
ATOM     42  N   UNL A   1      42.448  26.795  28.315  1.00  0.00    -0.354 N 
ATOM     43  C   UNL A   1      46.522  26.264  26.969  1.00  0.00     0.074 A 
ATOM     44  C   UNL A   1      46.753  24.910  26.514  1.00  0.00     0.031 C 
ATOM     45  C   UNL A   1      40.328  26.184  28.690  1.00  0.00     0.029 A 
ATOM     46  C   UNL A   1      41.256  27.307  28.768  1.00  0.00     0.049 A 
ATOM     47  H   UNL A   1      43.275  27.326  28.255  1.00  0.00     0.167 HD
ATOM     48  C   UNL A   1      47.453  27.247  26.956  1.00  0.00     0.037 A 
ATOM     49  C   UNL A   1      40.943  28.541  29.205  1.00  0.00     0.037 A 
ATOM     50  C   UNL A   1      47.209  28.597  27.395  1.00  0.00     0.049 A 
ATOM     51  C   UNL A   1      42.010  29.598  29.229  1.00  0.00     0.074 A 
ATOM     52  C   UNL A   1      48.085  29.670  27.404  1.00  0.00     0.029 A 
ATOM     53  N   UNL A   1      46.005  29.061  27.902  1.00  0.00    -0.354 N 
ATOM     54  N   UNL A   1      43.252  29.525  28.821  1.00  0.00    -0.248 NA
ATOM     55  C   UNL A   1      41.635  30.907  29.782  1.00  0.00     0.031 C 
ATOM     56  C   UNL A   1      47.426  30.767  27.963  1.00  0.00     0.029 A 
ATOM     57  C   UNL A   1      46.122  30.397  28.249  1.00  0.00     0.049 A 
ATOM     58  H   UNL A   1      45.187  28.520  28.001  1.00  0.00     0.167 HD
ATOM     59  C   UNL A   1      43.802  30.778  29.046  1.00  0.00     0.074 A 
ATOM     60  C   UNL A   1      42.754  31.599  29.617  1.00  0.00     0.031 C 
ATOM     61  C   UNL A   1      45.065  31.205  28.804  1.00  0.00     0.037 A 
BRANCH  48  62
ATOM     62  C   UNL A   1      48.827  26.911  26.450  1.00  0.00     0.064 A 
ATOM     63  C   UNL A   1      49.809  26.374  27.295  1.00  0.00     0.173 A 
ATOM     64  C   UNL A   1      49.141  27.055  25.090  1.00  0.00     0.173 A 
ATOM     65  F   UNL A   1      49.564  26.224  28.605  1.00  0.00    -0.203 F 
ATOM     66  C   UNL A   1      51.059  26.008  26.800  1.00  0.00     0.198 A 
ATOM     67  C   UNL A   1      50.380  26.661  24.593  1.00  0.00     0.198 A 
ATOM     68  F   UNL A   1      48.235  27.556  24.236  1.00  0.00    -0.203 F 
ATOM     69  F   UNL A   1      51.992  25.527  27.632  1.00  0.00    -0.200 F 
ATOM     70  C   UNL A   1      51.340  26.142  25.449  1.00  0.00     0.200 A 
ATOM     71  F   UNL A   1      50.643  26.776  23.284  1.00  0.00    -0.200 F 
ATOM     72  F   UNL A   1      52.536  25.772  24.971  1.00  0.00    -0.200 F 
ENDBRANCH  48  62
BRANCH  49  73
ATOM     73  C   UNL A   1      39.551  28.833  29.634  1.00  0.00     0.064 A 
ATOM     74  C   UNL A   1      39.139  28.590  30.951  1.00  0.00     0.173 A 
ATOM     75  C   UNL A   1      38.621  29.407  28.754  1.00  0.00     0.173 A 
ATOM     76  F   UNL A   1      39.986  28.026  31.825  1.00  0.00    -0.203 F 
ATOM     77  C   UNL A   1      37.848  28.907  31.371  1.00  0.00     0.198 A 
ATOM     78  C   UNL A   1      37.342  29.752  29.183  1.00  0.00     0.198 A 
ATOM     79  F   UNL A   1      38.968  29.666  27.485  1.00  0.00    -0.203 F 
ATOM     80  F   UNL A   1      37.470  28.640  32.628  1.00  0.00    -0.200 F 
ATOM     81  C   UNL A   1      36.955  29.498  30.490  1.00  0.00     0.200 A 
ATOM     82  F   UNL A   1      36.489  30.343  28.334  1.00  0.00    -0.200 F 
ATOM     83  F   UNL A   1      35.722  29.823  30.900  1.00  0.00    -0.200 F 
ENDBRANCH  49  73
BRANCH  61  84
ATOM     84  C   UNL A   1      45.393  32.634  29.124  1.00  0.00     0.064 A 
ATOM     85  C   UNL A   1      45.977  32.996  30.347  1.00  0.00     0.173 A 
ATOM     86  C   UNL A   1      45.211  33.636  28.159  1.00  0.00     0.173 A 
ATOM     87  F   UNL A   1      46.157  32.076  31.306  1.00  0.00    -0.203 F 
ATOM     88  C   UNL A   1      46.363  34.310  30.592  1.00  0.00     0.198 A 
ATOM     89  C   UNL A   1      45.625  34.942  28.397  1.00  0.00     0.198 A 
ATOM     90  F   UNL A   1      44.663  33.338  26.971  1.00  0.00    -0.203 F 
ATOM     91  F   UNL A   1      46.897  34.639  31.776  1.00  0.00    -0.200 F 
ATOM     92  C   UNL A   1      46.199  35.279  29.613  1.00  0.00     0.200 A 
ATOM     93  F   UNL A   1      45.481  35.874  27.442  1.00  0.00    -0.200 F 
ATOM     94  F   UNL A   1      46.596  36.539  29.841  1.00  0.00    -0.200 F 
ENDBRANCH  61  84
ENDBRANCH  35  36
ENDBRANCH  27  30
ENDBRANCH  25  26
ENDBRANCH  24  25
ENDBRANCH   1  24
TORSDOF 14
ENDMDL
