MODEL 1
REMARK VINA RESULT:     -12.2      0.000      0.000
REMARK SMILES C[C@@H](Sc1nc(-c2ccc3c(c2)OCO3)ccc1C#N)C(=O)NCCCCCCNC(=O)c1ccc(-c2c3nc(c(-c4c(F)c(F)c(F)c(F)c4F)c4ccc([nH]4)c(-c4c(F)c(F)c(F)c(F)c4F)c4nc(c(-c5c(F)c(F)c(F)c(F)c5F)c5ccc2[nH]5)C=C4)C=C3)cc1
REMARK SMILES IDX 26 1 25 2 24 3 23 4 21 5 22 6 2 8 1 9 3 10 4 11 5 12 18 13
REMARK SMILES IDX 6 14 17 15 16 16 19 17 20 18 7 19 8 20 12 21 9 22 11 23
REMARK SMILES IDX 10 24 13 25 15 26 14 27 27 28 28 29 29 30 30 31 31 32 32 34
REMARK SMILES IDX 33 35 34 36 95 37 35 38 94 39 36 40 37 41 38 42 88 43 39 44
REMARK SMILES IDX 93 45 87 46 89 47 40 48 92 49 86 50 85 51 41 53 73 54 53 55
REMARK SMILES IDX 72 56 54 57 57 58 71 59 90 60 55 61 56 62 70 64 91 65 58 66
REMARK SMILES IDX 42 67 43 68 51 69 44 70 45 71 49 72 52 73 46 74 47 75 50 76
REMARK SMILES IDX 48 77 74 78 75 79 83 80 76 81 77 82 81 83 84 84 78 85 79 86
REMARK SMILES IDX 82 87 80 88 59 89 60 90 68 91 61 92 62 93 66 94 69 95 63 96
REMARK SMILES IDX 64 97 67 98 65 99
REMARK H PARENT 23 7 30 33 89 52 57 63
REMARK Flexibility Score: inf
ROOT
ATOM      1  C   UNL A   1      35.018  33.252  28.918  1.00  0.00     0.002 C 
ENDROOT
BRANCH   1   2
ATOM      2  C   UNL A   1      35.784  32.258  28.040  1.00  0.00     0.021 C 
BRANCH   2   3
ATOM      3  C   UNL A   1      35.033  30.950  27.818  1.00  0.00     0.116 C 
BRANCH   3   4
ATOM      4  N   UNL A   1      33.680  31.210  27.365  1.00  0.00    -0.355 N 
ATOM      5  C   UNL A   1      32.685  30.343  27.023  1.00  0.00     0.233 C 
ATOM      6  O   UNL A   1      31.624  30.826  26.616  1.00  0.00    -0.274 OA
ATOM      7  H   UNL A   1      33.443  32.162  27.293  1.00  0.00     0.163 HD
BRANCH   5   8
ATOM      8  C   UNL A   1      32.872  28.826  27.116  1.00  0.00     0.139 C 
ATOM      9  C   UNL A   1      31.683  28.148  27.790  1.00  0.00     0.030 C 
BRANCH   8  10
ATOM     10  S   UNL A   1      33.337  28.204  25.442  1.00  0.00    -0.092 SA
BRANCH  10  11
ATOM     11  C   UNL A   1      31.749  27.924  24.701  1.00  0.00     0.115 A 
ATOM     12  N   UNL A   1      31.192  29.042  24.162  1.00  0.00    -0.240 NA
ATOM     13  C   UNL A   1      31.168  26.664  24.594  1.00  0.00     0.084 A 
ATOM     14  C   UNL A   1      30.023  28.919  23.490  1.00  0.00     0.072 A 
ATOM     15  C   UNL A   1      29.970  26.552  23.888  1.00  0.00     0.024 A 
ATOM     16  C   UNL A   1      29.394  27.689  23.327  1.00  0.00     0.030 A 
BRANCH  13  17
ATOM     17  C   UNL A   1      31.753  25.490  25.168  1.00  0.00     0.102 C 
ATOM     18  N   UNL A   1      32.190  24.534  25.654  1.00  0.00    -0.192 NA
ENDBRANCH  13  17
BRANCH  14  19
ATOM     19  C   UNL A   1      29.442  30.153  22.943  1.00  0.00     0.004 A 
ATOM     20  C   UNL A   1      29.121  31.234  23.806  1.00  0.00     0.014 A 
ATOM     21  C   UNL A   1      29.155  30.279  21.572  1.00  0.00     0.061 A 
ATOM     22  C   UNL A   1      28.508  32.397  23.331  1.00  0.00     0.051 A 
ATOM     23  C   UNL A   1      28.533  31.432  21.131  1.00  0.00     0.166 A 
ATOM     24  C   UNL A   1      28.216  32.459  21.988  1.00  0.00     0.165 A 
ATOM     25  O   UNL A   1      28.148  31.693  19.852  1.00  0.00    -0.454 OA
ATOM     26  O   UNL A   1      27.597  33.492  21.359  1.00  0.00    -0.454 OA
ATOM     27  C   UNL A   1      27.523  32.984  20.012  1.00  0.00     0.468 C 
ENDBRANCH  14  19
ENDBRANCH  10  11
ENDBRANCH   8  10
ENDBRANCH   5   8
ENDBRANCH   3   4
ENDBRANCH   2   3
ENDBRANCH   1   2
BRANCH   1  28
ATOM     28  C   UNL A   1      35.257  34.725  28.565  1.00  0.00     0.002 C 
BRANCH  28  29
ATOM     29  C   UNL A   1      34.058  35.640  28.819  1.00  0.00     0.021 C 
BRANCH  29  30
ATOM     30  C   UNL A   1      32.919  34.969  29.576  1.00  0.00     0.116 C 
BRANCH  30  31
ATOM     31  N   UNL A   1      32.412  35.816  30.644  1.00  0.00    -0.352 N 
ATOM     32  C   UNL A   1      32.760  35.837  31.971  1.00  0.00     0.251 C 
ATOM     33  H   UNL A   1      31.723  36.467  30.378  1.00  0.00     0.163 HD
ATOM     34  O   UNL A   1      32.074  36.449  32.783  1.00  0.00    -0.269 OA
BRANCH  32  35
ATOM     35  C   UNL A   1      33.960  35.103  32.418  1.00  0.00     0.039 A 
ATOM     36  C   UNL A   1      33.810  33.818  32.944  1.00  0.00     0.014 A 
ATOM     37  C   UNL A   1      35.229  35.681  32.315  1.00  0.00     0.014 A 
ATOM     38  C   UNL A   1      34.941  33.093  33.318  1.00  0.00     0.010 A 
ATOM     39  C   UNL A   1      36.359  34.923  32.604  1.00  0.00     0.010 A 
ATOM     40  C   UNL A   1      36.227  33.624  33.118  1.00  0.00    -0.014 A 
BRANCH  40  41
ATOM     41  C   UNL A   1      37.442  32.839  33.452  1.00  0.00     0.031 A 
ATOM     42  C   UNL A   1      38.202  33.127  34.718  1.00  0.00     0.074 A 
ATOM     43  C   UNL A   1      37.884  31.897  32.596  1.00  0.00     0.049 A 
ATOM     44  N   UNL A   1      39.316  32.596  35.154  1.00  0.00    -0.248 NA
ATOM     45  C   UNL A   1      37.650  34.167  35.603  1.00  0.00     0.031 C 
ATOM     46  C   UNL A   1      37.257  31.552  31.319  1.00  0.00     0.029 A 
ATOM     47  N   UNL A   1      38.972  31.061  32.667  1.00  0.00    -0.354 N 
ATOM     48  C   UNL A   1      39.595  33.234  36.356  1.00  0.00     0.074 A 
ATOM     49  C   UNL A   1      38.574  34.239  36.549  1.00  0.00     0.031 C 
ATOM     50  C   UNL A   1      37.954  30.562  30.740  1.00  0.00     0.029 A 
ATOM     51  C   UNL A   1      39.105  30.236  31.575  1.00  0.00     0.049 A 
ATOM     52  H   UNL A   1      39.597  31.053  33.427  1.00  0.00     0.167 HD
ATOM     53  C   UNL A   1      40.593  32.981  37.234  1.00  0.00     0.037 A 
ATOM     54  C   UNL A   1      40.059  29.335  31.273  1.00  0.00     0.037 A 
ATOM     55  C   UNL A   1      41.603  31.974  37.042  1.00  0.00     0.049 A 
ATOM     56  C   UNL A   1      41.187  29.113  32.248  1.00  0.00     0.074 A 
ATOM     57  C   UNL A   1      42.640  31.622  37.887  1.00  0.00     0.029 A 
ATOM     58  N   UNL A   1      41.705  31.159  35.924  1.00  0.00    -0.354 N 
ATOM     59  N   UNL A   1      41.405  29.681  33.410  1.00  0.00    -0.248 NA
ATOM     60  C   UNL A   1      42.200  28.117  31.872  1.00  0.00     0.031 C 
ATOM     61  C   UNL A   1      43.407  30.640  37.255  1.00  0.00     0.029 A 
ATOM     62  C   UNL A   1      42.803  30.323  36.049  1.00  0.00     0.049 A 
ATOM     63  H   UNL A   1      41.088  31.172  35.156  1.00  0.00     0.167 HD
ATOM     64  C   UNL A   1      42.552  29.083  33.918  1.00  0.00     0.074 A 
ATOM     65  C   UNL A   1      42.973  28.097  32.948  1.00  0.00     0.031 C 
ATOM     66  C   UNL A   1      43.200  29.331  35.083  1.00  0.00     0.037 A 
BRANCH  53  67
ATOM     67  C   UNL A   1      40.645  33.800  38.492  1.00  0.00     0.064 A 
ATOM     68  C   UNL A   1      39.914  33.437  39.634  1.00  0.00     0.173 A 
ATOM     69  C   UNL A   1      41.486  34.919  38.582  1.00  0.00     0.173 A 
ATOM     70  F   UNL A   1      39.086  32.382  39.599  1.00  0.00    -0.203 F 
ATOM     71  C   UNL A   1      40.008  34.175  40.811  1.00  0.00     0.198 A 
ATOM     72  C   UNL A   1      41.606  35.633  39.771  1.00  0.00     0.198 A 
ATOM     73  F   UNL A   1      42.212  35.307  37.523  1.00  0.00    -0.203 F 
ATOM     74  F   UNL A   1      39.269  33.834  41.875  1.00  0.00    -0.200 F 
ATOM     75  C   UNL A   1      40.863  35.265  40.882  1.00  0.00     0.200 A 
ATOM     76  F   UNL A   1      42.446  36.675  39.843  1.00  0.00    -0.200 F 
ATOM     77  F   UNL A   1      40.968  35.962  42.022  1.00  0.00    -0.200 F 
ENDBRANCH  53  67
BRANCH  54  78
ATOM     78  C   UNL A   1      40.006  28.577  29.993  1.00  0.00     0.064 A 
ATOM     79  C   UNL A   1      39.389  27.319  29.918  1.00  0.00     0.173 A 
ATOM     80  C   UNL A   1      40.620  29.067  28.831  1.00  0.00     0.173 A 
ATOM     81  F   UNL A   1      38.802  26.796  31.005  1.00  0.00    -0.203 F 
ATOM     82  C   UNL A   1      39.432  26.562  28.749  1.00  0.00     0.198 A 
ATOM     83  C   UNL A   1      40.626  28.328  27.650  1.00  0.00     0.198 A 
ATOM     84  F   UNL A   1      41.221  30.267  28.841  1.00  0.00    -0.203 F 
ATOM     85  F   UNL A   1      38.907  25.329  28.732  1.00  0.00    -0.200 F 
ATOM     86  C   UNL A   1      40.049  27.069  27.615  1.00  0.00     0.200 A 
ATOM     87  F   UNL A   1      41.207  28.830  26.552  1.00  0.00    -0.200 F 
ATOM     88  F   UNL A   1      40.100  26.336  26.494  1.00  0.00    -0.200 F 
ENDBRANCH  54  78
BRANCH  66  89
ATOM     89  C   UNL A   1      44.396  28.480  35.406  1.00  0.00     0.064 A 
ATOM     90  C   UNL A   1      45.697  28.858  35.042  1.00  0.00     0.173 A 
ATOM     91  C   UNL A   1      44.240  27.285  36.126  1.00  0.00     0.173 A 
ATOM     92  F   UNL A   1      45.904  29.984  34.343  1.00  0.00    -0.203 F 
ATOM     93  C   UNL A   1      46.790  28.053  35.355  1.00  0.00     0.198 A 
ATOM     94  C   UNL A   1      45.338  26.505  36.474  1.00  0.00     0.198 A 
ATOM     95  F   UNL A   1      43.018  26.881  36.509  1.00  0.00    -0.203 F 
ATOM     96  F   UNL A   1      48.017  28.404  34.942  1.00  0.00    -0.200 F 
ATOM     97  C   UNL A   1      46.611  26.883  36.077  1.00  0.00     0.200 A 
ATOM     98  F   UNL A   1      45.164  25.387  37.191  1.00  0.00    -0.200 F 
ATOM     99  F   UNL A   1      47.665  26.117  36.387  1.00  0.00    -0.200 F 
ENDBRANCH  66  89
ENDBRANCH  40  41
ENDBRANCH  32  35
ENDBRANCH  30  31
ENDBRANCH  29  30
ENDBRANCH  28  29
ENDBRANCH   1  28
TORSDOF 17
ENDMDL
MODEL 2
REMARK VINA RESULT:     -12.1      2.002      7.588
REMARK SMILES C[C@@H](Sc1nc(-c2ccc3c(c2)OCO3)ccc1C#N)C(=O)NCCCCCCNC(=O)c1ccc(-c2c3nc(c(-c4c(F)c(F)c(F)c(F)c4F)c4ccc([nH]4)c(-c4c(F)c(F)c(F)c(F)c4F)c4nc(c(-c5c(F)c(F)c(F)c(F)c5F)c5ccc2[nH]5)C=C4)C=C3)cc1
REMARK SMILES IDX 26 1 25 2 24 3 23 4 21 5 22 6 2 8 1 9 3 10 4 11 5 12 18 13
REMARK SMILES IDX 6 14 17 15 16 16 19 17 20 18 7 19 8 20 12 21 9 22 11 23
REMARK SMILES IDX 10 24 13 25 15 26 14 27 27 28 28 29 29 30 30 31 31 32 32 34
REMARK SMILES IDX 33 35 34 36 95 37 35 38 94 39 36 40 37 41 38 42 88 43 39 44
REMARK SMILES IDX 93 45 87 46 89 47 40 48 92 49 86 50 85 51 41 53 73 54 53 55
REMARK SMILES IDX 72 56 54 57 57 58 71 59 90 60 55 61 56 62 70 64 91 65 58 66
REMARK SMILES IDX 42 67 43 68 51 69 44 70 45 71 49 72 52 73 46 74 47 75 50 76
REMARK SMILES IDX 48 77 74 78 75 79 83 80 76 81 77 82 81 83 84 84 78 85 79 86
REMARK SMILES IDX 82 87 80 88 59 89 60 90 68 91 61 92 62 93 66 94 69 95 63 96
REMARK SMILES IDX 64 97 67 98 65 99
REMARK H PARENT 23 7 30 33 89 52 57 63
REMARK Flexibility Score: inf
ROOT
ATOM      1  C   UNL A   1      32.360  29.289  26.543  1.00  0.00     0.002 C 
ENDROOT
BRANCH   1   2
ATOM      2  C   UNL A   1      31.442  28.129  26.940  1.00  0.00     0.021 C 
BRANCH   2   3
ATOM      3  C   UNL A   1      31.972  26.767  26.507  1.00  0.00     0.116 C 
BRANCH   3   4
ATOM      4  N   UNL A   1      31.058  25.714  26.906  1.00  0.00    -0.355 N 
ATOM      5  C   UNL A   1      31.176  24.360  26.798  1.00  0.00     0.233 C 
ATOM      6  O   UNL A   1      30.222  23.674  27.174  1.00  0.00    -0.274 OA
ATOM      7  H   UNL A   1      30.222  26.025  27.318  1.00  0.00     0.163 HD
BRANCH   5   8
ATOM      8  C   UNL A   1      32.433  23.706  26.216  1.00  0.00     0.139 C 
ATOM      9  C   UNL A   1      33.017  22.660  27.161  1.00  0.00     0.030 C 
BRANCH   8  10
ATOM     10  S   UNL A   1      32.042  23.143  24.502  1.00  0.00    -0.092 SA
BRANCH  10  11
ATOM     11  C   UNL A   1      32.362  24.608  23.554  1.00  0.00     0.115 A 
ATOM     12  N   UNL A   1      31.336  25.501  23.562  1.00  0.00    -0.240 NA
ATOM     13  C   UNL A   1      33.583  24.866  22.936  1.00  0.00     0.084 A 
ATOM     14  C   UNL A   1      31.515  26.693  22.945  1.00  0.00     0.072 A 
ATOM     15  C   UNL A   1      33.755  26.104  22.317  1.00  0.00     0.024 A 
ATOM     16  C   UNL A   1      32.714  27.028  22.324  1.00  0.00     0.030 A 
BRANCH  13  17
ATOM     17  C   UNL A   1      34.659  23.922  22.924  1.00  0.00     0.102 C 
ATOM     18  N   UNL A   1      35.540  23.172  22.875  1.00  0.00    -0.192 NA
ENDBRANCH  13  17
BRANCH  14  19
ATOM     19  C   UNL A   1      30.374  27.620  22.956  1.00  0.00     0.004 A 
ATOM     20  C   UNL A   1      29.118  27.199  23.463  1.00  0.00     0.014 A 
ATOM     21  C   UNL A   1      30.488  28.922  22.433  1.00  0.00     0.061 A 
ATOM     22  C   UNL A   1      27.995  28.031  23.430  1.00  0.00     0.051 A 
ATOM     23  C   UNL A   1      29.358  29.718  22.397  1.00  0.00     0.166 A 
ATOM     24  C   UNL A   1      28.147  29.283  22.878  1.00  0.00     0.165 A 
ATOM     25  O   UNL A   1      29.286  30.978  21.887  1.00  0.00    -0.454 OA
ATOM     26  O   UNL A   1      27.163  30.209  22.735  1.00  0.00    -0.454 OA
ATOM     27  C   UNL A   1      27.883  31.268  22.071  1.00  0.00     0.468 C 
ENDBRANCH  14  19
ENDBRANCH  10  11
ENDBRANCH   8  10
ENDBRANCH   5   8
ENDBRANCH   3   4
ENDBRANCH   2   3
ENDBRANCH   1   2
BRANCH   1  28
ATOM     28  C   UNL A   1      31.667  30.404  25.750  1.00  0.00     0.002 C 
BRANCH  28  29
ATOM     29  C   UNL A   1      31.393  31.677  26.552  1.00  0.00     0.021 C 
BRANCH  29  30
ATOM     30  C   UNL A   1      32.647  32.329  27.120  1.00  0.00     0.116 C 
BRANCH  30  31
ATOM     31  N   UNL A   1      32.436  33.738  27.408  1.00  0.00    -0.352 N 
ATOM     32  C   UNL A   1      33.017  34.521  28.373  1.00  0.00     0.251 C 
ATOM     33  H   UNL A   1      31.785  34.197  26.829  1.00  0.00     0.163 HD
ATOM     34  O   UNL A   1      32.560  35.629  28.633  1.00  0.00    -0.269 OA
BRANCH  32  35
ATOM     35  C   UNL A   1      34.191  34.012  29.110  1.00  0.00     0.039 A 
ATOM     36  C   UNL A   1      33.995  33.105  30.152  1.00  0.00     0.014 A 
ATOM     37  C   UNL A   1      35.481  34.429  28.769  1.00  0.00     0.014 A 
ATOM     38  C   UNL A   1      35.099  32.575  30.819  1.00  0.00     0.010 A 
ATOM     39  C   UNL A   1      36.582  33.831  29.373  1.00  0.00     0.010 A 
ATOM     40  C   UNL A   1      36.403  32.906  30.412  1.00  0.00    -0.014 A 
BRANCH  40  41
ATOM     41  C   UNL A   1      37.588  32.301  31.070  1.00  0.00     0.031 A 
ATOM     42  C   UNL A   1      38.338  31.184  30.396  1.00  0.00     0.074 A 
ATOM     43  C   UNL A   1      37.962  32.726  32.293  1.00  0.00     0.049 A 
ATOM     44  N   UNL A   1      39.355  30.487  30.835  1.00  0.00    -0.248 NA
ATOM     45  C   UNL A   1      37.870  30.781  29.060  1.00  0.00     0.031 C 
ATOM     46  C   UNL A   1      37.293  33.774  33.066  1.00  0.00     0.029 A 
ATOM     47  N   UNL A   1      38.994  32.324  33.106  1.00  0.00    -0.354 N 
ATOM     48  C   UNL A   1      39.645  29.569  29.834  1.00  0.00     0.074 A 
ATOM     49  C   UNL A   1      38.656  29.749  28.795  1.00  0.00     0.031 C 
ATOM     50  C   UNL A   1      37.945  33.950  34.226  1.00  0.00     0.029 A 
ATOM     51  C   UNL A   1      39.044  32.994  34.305  1.00  0.00     0.049 A 
ATOM     52  H   UNL A   1      39.637  31.624  32.853  1.00  0.00     0.167 HD
ATOM     53  C   UNL A   1      40.663  28.680  29.773  1.00  0.00     0.037 A 
ATOM     54  C   UNL A   1      39.871  32.839  35.357  1.00  0.00     0.037 A 
ATOM     55  C   UNL A   1      41.650  28.509  30.807  1.00  0.00     0.049 A 
ATOM     56  C   UNL A   1      40.965  31.804  35.280  1.00  0.00     0.074 A 
ATOM     57  C   UNL A   1      42.738  27.654  30.825  1.00  0.00     0.029 A 
ATOM     58  N   UNL A   1      41.668  29.205  32.006  1.00  0.00    -0.354 N 
ATOM     59  N   UNL A   1      41.264  30.984  34.301  1.00  0.00    -0.248 NA
ATOM     60  C   UNL A   1      41.840  31.677  36.453  1.00  0.00     0.031 C 
ATOM     61  C   UNL A   1      43.377  27.786  32.061  1.00  0.00     0.029 A 
ATOM     62  C   UNL A   1      42.734  28.779  32.782  1.00  0.00     0.049 A 
ATOM     63  H   UNL A   1      41.020  29.898  32.267  1.00  0.00     0.167 HD
ATOM     64  C   UNL A   1      42.383  30.278  34.724  1.00  0.00     0.074 A 
ATOM     65  C   UNL A   1      42.720  30.778  36.039  1.00  0.00     0.031 C 
ATOM     66  C   UNL A   1      43.070  29.300  34.082  1.00  0.00     0.037 A 
BRANCH  53  67
ATOM     67  C   UNL A   1      40.773  27.821  28.545  1.00  0.00     0.064 A 
ATOM     68  C   UNL A   1      40.081  26.605  28.436  1.00  0.00     0.173 A 
ATOM     69  C   UNL A   1      41.521  28.250  27.438  1.00  0.00     0.173 A 
ATOM     70  F   UNL A   1      39.360  26.143  29.469  1.00  0.00    -0.203 F 
ATOM     71  C   UNL A   1      40.150  25.842  27.274  1.00  0.00     0.198 A 
ATOM     72  C   UNL A   1      41.559  27.502  26.265  1.00  0.00     0.198 A 
ATOM     73  F   UNL A   1      42.197  29.408  27.486  1.00  0.00    -0.203 F 
ATOM     74  F   UNL A   1      39.515  24.664  27.209  1.00  0.00    -0.200 F 
ATOM     75  C   UNL A   1      40.879  26.296  26.185  1.00  0.00     0.200 A 
ATOM     76  F   UNL A   1      42.249  27.953  25.208  1.00  0.00    -0.200 F 
ATOM     77  F   UNL A   1      40.928  25.571  25.059  1.00  0.00    -0.200 F 
ENDBRANCH  53  67
BRANCH  54  78
ATOM     78  C   UNL A   1      39.703  33.671  36.580  1.00  0.00     0.064 A 
ATOM     79  C   UNL A   1      38.851  33.269  37.621  1.00  0.00     0.173 A 
ATOM     80  C   UNL A   1      40.344  34.912  36.711  1.00  0.00     0.173 A 
ATOM     81  F   UNL A   1      38.200  32.099  37.538  1.00  0.00    -0.203 F 
ATOM     82  C   UNL A   1      38.611  34.095  38.717  1.00  0.00     0.198 A 
ATOM     83  C   UNL A   1      40.135  35.719  37.827  1.00  0.00     0.198 A 
ATOM     84  F   UNL A   1      41.174  35.345  35.750  1.00  0.00    -0.203 F 
ATOM     85  F   UNL A   1      37.728  33.721  39.653  1.00  0.00    -0.200 F 
ATOM     86  C   UNL A   1      39.255  35.319  38.820  1.00  0.00     0.200 A 
ATOM     87  F   UNL A   1      40.775  36.891  37.931  1.00  0.00    -0.200 F 
ATOM     88  F   UNL A   1      39.015  36.118  39.868  1.00  0.00    -0.200 F 
ENDBRANCH  54  78
BRANCH  66  89
ATOM     89  C   UNL A   1      44.291  28.749  34.762  1.00  0.00     0.064 A 
ATOM     90  C   UNL A   1      45.558  29.331  34.604  1.00  0.00     0.173 A 
ATOM     91  C   UNL A   1      44.183  27.641  35.618  1.00  0.00     0.173 A 
ATOM     92  F   UNL A   1      45.721  30.384  33.789  1.00  0.00    -0.203 F 
ATOM     93  C   UNL A   1      46.674  28.802  35.247  1.00  0.00     0.198 A 
ATOM     94  C   UNL A   1      45.293  27.141  36.293  1.00  0.00     0.198 A 
ATOM     95  F   UNL A   1      42.994  27.051  35.815  1.00  0.00    -0.203 F 
ATOM     96  F   UNL A   1      47.885  29.337  35.032  1.00  0.00    -0.200 F 
ATOM     97  C   UNL A   1      46.540  27.715  36.097  1.00  0.00     0.200 A 
ATOM     98  F   UNL A   1      45.156  26.105  37.130  1.00  0.00    -0.200 F 
ATOM     99  F   UNL A   1      47.613  27.215  36.724  1.00  0.00    -0.200 F 
ENDBRANCH  66  89
ENDBRANCH  40  41
ENDBRANCH  32  35
ENDBRANCH  30  31
ENDBRANCH  29  30
ENDBRANCH  28  29
ENDBRANCH   1  28
TORSDOF 17
ENDMDL
MODEL 3
REMARK VINA RESULT:     -12.0      7.700     13.232
REMARK SMILES C[C@@H](Sc1nc(-c2ccc3c(c2)OCO3)ccc1C#N)C(=O)NCCCCCCNC(=O)c1ccc(-c2c3nc(c(-c4c(F)c(F)c(F)c(F)c4F)c4ccc([nH]4)c(-c4c(F)c(F)c(F)c(F)c4F)c4nc(c(-c5c(F)c(F)c(F)c(F)c5F)c5ccc2[nH]5)C=C4)C=C3)cc1
REMARK SMILES IDX 26 1 25 2 24 3 23 4 21 5 22 6 2 8 1 9 3 10 4 11 5 12 18 13
REMARK SMILES IDX 6 14 17 15 16 16 19 17 20 18 7 19 8 20 12 21 9 22 11 23
REMARK SMILES IDX 10 24 13 25 15 26 14 27 27 28 28 29 29 30 30 31 31 32 32 34
REMARK SMILES IDX 33 35 34 36 95 37 35 38 94 39 36 40 37 41 38 42 88 43 39 44
REMARK SMILES IDX 93 45 87 46 89 47 40 48 92 49 86 50 85 51 41 53 73 54 53 55
REMARK SMILES IDX 72 56 54 57 57 58 71 59 90 60 55 61 56 62 70 64 91 65 58 66
REMARK SMILES IDX 42 67 43 68 51 69 44 70 45 71 49 72 52 73 46 74 47 75 50 76
REMARK SMILES IDX 48 77 74 78 75 79 83 80 76 81 77 82 81 83 84 84 78 85 79 86
REMARK SMILES IDX 82 87 80 88 59 89 60 90 68 91 61 92 62 93 66 94 69 95 63 96
REMARK SMILES IDX 64 97 67 98 65 99
REMARK H PARENT 23 7 30 33 89 52 57 63
REMARK Flexibility Score: inf
ROOT
ATOM      1  C   UNL A   1      41.473  21.634  26.341  1.00  0.00     0.002 C 
ENDROOT
BRANCH   1   2
ATOM      2  C   UNL A   1      40.646  22.536  27.262  1.00  0.00     0.021 C 
BRANCH   2   3
ATOM      3  C   UNL A   1      39.266  22.861  26.703  1.00  0.00     0.116 C 
BRANCH   3   4
ATOM      4  N   UNL A   1      38.752  21.745  25.933  1.00  0.00    -0.355 N 
ATOM      5  C   UNL A   1      37.760  21.703  24.999  1.00  0.00     0.233 C 
ATOM      6  O   UNL A   1      37.476  20.602  24.519  1.00  0.00    -0.274 OA
ATOM      7  H   UNL A   1      39.187  20.881  26.114  1.00  0.00     0.163 HD
BRANCH   5   8
ATOM      8  C   UNL A   1      37.006  22.965  24.570  1.00  0.00     0.139 C 
ATOM      9  C   UNL A   1      36.738  22.982  23.067  1.00  0.00     0.030 C 
BRANCH   8  10
ATOM     10  S   UNL A   1      35.539  23.157  25.673  1.00  0.00    -0.092 SA
BRANCH  10  11
ATOM     11  C   UNL A   1      34.312  22.199  24.820  1.00  0.00     0.115 A 
ATOM     12  N   UNL A   1      34.398  20.863  25.060  1.00  0.00    -0.240 NA
ATOM     13  C   UNL A   1      33.297  22.766  24.054  1.00  0.00     0.084 A 
ATOM     14  C   UNL A   1      33.450  20.052  24.530  1.00  0.00     0.072 A 
ATOM     15  C   UNL A   1      32.322  21.919  23.528  1.00  0.00     0.024 A 
ATOM     16  C   UNL A   1      32.396  20.550  23.771  1.00  0.00     0.030 A 
BRANCH  13  17
ATOM     17  C   UNL A   1      33.213  24.172  23.799  1.00  0.00     0.102 C 
ATOM     18  N   UNL A   1      33.105  25.304  23.581  1.00  0.00    -0.192 NA
ENDBRANCH  13  17
BRANCH  14  19
ATOM     19  C   UNL A   1      33.592  18.613  24.792  1.00  0.00     0.004 A 
ATOM     20  C   UNL A   1      34.798  17.943  24.460  1.00  0.00     0.014 A 
ATOM     21  C   UNL A   1      32.532  17.863  25.334  1.00  0.00     0.061 A 
ATOM     22  C   UNL A   1      34.944  16.563  24.635  1.00  0.00     0.051 A 
ATOM     23  C   UNL A   1      32.697  16.498  25.480  1.00  0.00     0.166 A 
ATOM     24  C   UNL A   1      33.869  15.868  25.137  1.00  0.00     0.165 A 
ATOM     25  O   UNL A   1      31.761  15.626  25.945  1.00  0.00    -0.454 OA
ATOM     26  O   UNL A   1      33.821  14.525  25.342  1.00  0.00    -0.454 OA
ATOM     27  C   UNL A   1      32.468  14.373  25.819  1.00  0.00     0.468 C 
ENDBRANCH  14  19
ENDBRANCH  10  11
ENDBRANCH   8  10
ENDBRANCH   5   8
ENDBRANCH   3   4
ENDBRANCH   2   3
ENDBRANCH   1   2
BRANCH   1  28
ATOM     28  C   UNL A   1      41.857  20.282  26.955  1.00  0.00     0.002 C 
BRANCH  28  29
ATOM     29  C   UNL A   1      42.218  19.202  25.934  1.00  0.00     0.021 C 
BRANCH  29  30
ATOM     30  C   UNL A   1      43.623  18.639  26.104  1.00  0.00     0.116 C 
BRANCH  30  31
ATOM     31  N   UNL A   1      44.326  18.557  24.834  1.00  0.00    -0.352 N 
ATOM     32  C   UNL A   1      44.795  19.569  24.036  1.00  0.00     0.251 C 
ATOM     33  H   UNL A   1      44.490  17.645  24.498  1.00  0.00     0.163 HD
ATOM     34  O   UNL A   1      45.158  19.340  22.888  1.00  0.00    -0.269 OA
BRANCH  32  35
ATOM     35  C   UNL A   1      44.844  20.947  24.568  1.00  0.00     0.039 A 
ATOM     36  C   UNL A   1      45.465  21.175  25.797  1.00  0.00     0.014 A 
ATOM     37  C   UNL A   1      44.282  22.008  23.852  1.00  0.00     0.014 A 
ATOM     38  C   UNL A   1      45.568  22.479  26.283  1.00  0.00     0.010 A 
ATOM     39  C   UNL A   1      44.465  23.313  24.294  1.00  0.00     0.010 A 
ATOM     40  C   UNL A   1      45.101  23.562  25.520  1.00  0.00    -0.014 A 
BRANCH  40  41
ATOM     41  C   UNL A   1      45.260  24.960  25.995  1.00  0.00     0.031 A 
ATOM     42  C   UNL A   1      46.613  25.617  25.966  1.00  0.00     0.074 A 
ATOM     43  C   UNL A   1      44.196  25.621  26.492  1.00  0.00     0.049 A 
ATOM     44  N   UNL A   1      46.967  26.802  26.394  1.00  0.00    -0.248 NA
ATOM     45  C   UNL A   1      47.723  24.830  25.404  1.00  0.00     0.031 C 
ATOM     46  C   UNL A   1      42.841  25.078  26.609  1.00  0.00     0.029 A 
ATOM     47  N   UNL A   1      44.088  26.893  27.000  1.00  0.00    -0.354 N 
ATOM     48  C   UNL A   1      48.330  26.901  26.152  1.00  0.00     0.074 A 
ATOM     49  C   UNL A   1      48.757  25.632  25.605  1.00  0.00     0.031 C 
ATOM     50  C   UNL A   1      42.035  26.017  27.128  1.00  0.00     0.029 A 
ATOM     51  C   UNL A   1      42.821  27.208  27.431  1.00  0.00     0.049 A 
ATOM     52  H   UNL A   1      44.845  27.519  27.050  1.00  0.00     0.167 HD
ATOM     53  C   UNL A   1      49.146  27.965  26.339  1.00  0.00     0.037 A 
ATOM     54  C   UNL A   1      42.354  28.324  28.022  1.00  0.00     0.037 A 
ATOM     55  C   UNL A   1      48.717  29.229  26.877  1.00  0.00     0.049 A 
ATOM     56  C   UNL A   1      43.299  29.473  28.265  1.00  0.00     0.074 A 
ATOM     57  C   UNL A   1      49.462  30.377  27.078  1.00  0.00     0.029 A 
ATOM     58  N   UNL A   1      47.427  29.510  27.302  1.00  0.00    -0.354 N 
ATOM     59  N   UNL A   1      44.574  29.574  27.976  1.00  0.00    -0.248 NA
ATOM     60  C   UNL A   1      42.738  30.667  28.911  1.00  0.00     0.031 C 
ATOM     61  C   UNL A   1      48.641  31.331  27.683  1.00  0.00     0.029 A 
ATOM     62  C   UNL A   1      47.363  30.806  27.788  1.00  0.00     0.049 A 
ATOM     63  H   UNL A   1      46.670  28.882  27.264  1.00  0.00     0.167 HD
ATOM     64  C   UNL A   1      44.954  30.852  28.365  1.00  0.00     0.074 A 
ATOM     65  C   UNL A   1      43.771  31.496  28.894  1.00  0.00     0.031 C 
ATOM     66  C   UNL A   1      46.173  31.441  28.293  1.00  0.00     0.037 A 
BRANCH  53  67
ATOM     67  C   UNL A   1      50.591  27.817  25.954  1.00  0.00     0.064 A 
ATOM     68  C   UNL A   1      51.022  28.015  24.633  1.00  0.00     0.173 A 
ATOM     69  C   UNL A   1      51.565  27.544  26.926  1.00  0.00     0.173 A 
ATOM     70  F   UNL A   1      50.130  28.267  23.662  1.00  0.00    -0.203 F 
ATOM     71  C   UNL A   1      52.369  27.925  24.296  1.00  0.00     0.198 A 
ATOM     72  C   UNL A   1      52.916  27.491  26.592  1.00  0.00     0.198 A 
ATOM     73  F   UNL A   1      51.210  27.353  28.205  1.00  0.00    -0.203 F 
ATOM     74  F   UNL A   1      52.752  28.075  23.021  1.00  0.00    -0.200 F 
ATOM     75  C   UNL A   1      53.317  27.675  25.278  1.00  0.00     0.200 A 
ATOM     76  F   UNL A   1      53.831  27.267  27.546  1.00  0.00    -0.200 F 
ATOM     77  F   UNL A   1      54.616  27.609  24.956  1.00  0.00    -0.200 F 
ENDBRANCH  53  67
BRANCH  54  78
ATOM     78  C   UNL A   1      40.927  28.418  28.439  1.00  0.00     0.064 A 
ATOM     79  C   UNL A   1      39.953  28.951  27.581  1.00  0.00     0.173 A 
ATOM     80  C   UNL A   1      40.517  28.031  29.724  1.00  0.00     0.173 A 
ATOM     81  F   UNL A   1      40.295  29.353  26.348  1.00  0.00    -0.203 F 
ATOM     82  C   UNL A   1      38.640  29.138  28.009  1.00  0.00     0.198 A 
ATOM     83  C   UNL A   1      39.195  28.180  30.136  1.00  0.00     0.198 A 
ATOM     84  F   UNL A   1      41.404  27.510  30.585  1.00  0.00    -0.203 F 
ATOM     85  F   UNL A   1      37.752  29.727  27.196  1.00  0.00    -0.200 F 
ATOM     86  C   UNL A   1      38.262  28.750  29.285  1.00  0.00     0.200 A 
ATOM     87  F   UNL A   1      38.831  27.785  31.363  1.00  0.00    -0.200 F 
ATOM     88  F   UNL A   1      37.001  28.940  29.700  1.00  0.00    -0.200 F 
ENDBRANCH  54  78
BRANCH  66  89
ATOM     89  C   UNL A   1      46.280  32.872  28.740  1.00  0.00     0.064 A 
ATOM     90  C   UNL A   1      46.615  33.218  30.057  1.00  0.00     0.173 A 
ATOM     91  C   UNL A   1      46.081  33.915  27.821  1.00  0.00     0.173 A 
ATOM     92  F   UNL A   1      46.806  32.262  30.980  1.00  0.00    -0.203 F 
ATOM     93  C   UNL A   1      46.710  34.552  30.445  1.00  0.00     0.198 A 
ATOM     94  C   UNL A   1      46.218  35.246  28.201  1.00  0.00     0.198 A 
ATOM     95  F   UNL A   1      45.769  33.641  26.544  1.00  0.00    -0.203 F 
ATOM     96  F   UNL A   1      46.970  34.858  31.724  1.00  0.00    -0.200 F 
ATOM     97  C   UNL A   1      46.521  35.564  29.517  1.00  0.00     0.200 A 
ATOM     98  F   UNL A   1      46.056  36.221  27.297  1.00  0.00    -0.200 F 
ATOM     99  F   UNL A   1      46.624  36.846  29.890  1.00  0.00    -0.200 F 
ENDBRANCH  66  89
ENDBRANCH  40  41
ENDBRANCH  32  35
ENDBRANCH  30  31
ENDBRANCH  29  30
ENDBRANCH  28  29
ENDBRANCH   1  28
TORSDOF 17
ENDMDL
