MODEL 1
REMARK VINA RESULT:     -12.1      0.000      0.000
REMARK SMILES CC1=C[C@@H]([C@@H]2N=N[C@H](S)N2/N=C/c2ccc(C(=O)NCCCCCCNC(=O)c3ccc(-c4c5nc(c(-c6c(F)c(F)c(F)c(F)c6F)c6ccc([nH]6)c(-c6c(F)c(F)c(F)c(F)c6F)c6nc(c(-c7c(F)c(F)c(F)c(F)c7F)c7ccc4[nH]7)C=C6)C=C5)cc3)cc2)N=N1
REMARK SMILES IDX 22 1 21 2 20 3 19 4 17 5 18 6 16 8 13 9 14 10 93 11 15 12
REMARK SMILES IDX 92 13 12 14 11 15 10 16 5 17 6 18 7 19 8 20 4 21 1 22 2 23
REMARK SMILES IDX 3 24 95 25 94 26 9 27 23 29 24 30 25 31 26 32 27 33 28 35
REMARK SMILES IDX 29 36 30 37 91 38 31 39 90 40 32 41 33 42 34 43 84 44 35 45
REMARK SMILES IDX 89 46 83 47 85 48 36 49 88 50 82 51 81 52 37 54 69 55 49 56
REMARK SMILES IDX 68 57 50 58 53 59 67 60 86 61 51 62 52 63 66 65 87 66 54 67
REMARK SMILES IDX 38 68 39 69 47 70 40 71 41 72 45 73 48 74 42 75 43 76 46 77
REMARK SMILES IDX 44 78 70 79 71 80 79 81 72 82 73 83 77 84 80 85 74 86 75 87
REMARK SMILES IDX 78 88 76 89 55 90 56 91 64 92 57 93 58 94 62 95 65 96 59 97
REMARK SMILES IDX 60 98 63 99 61 100
REMARK H PARENT 19 7 9 28 26 34 85 53 53 64
REMARK Flexibility Score: inf
ROOT
ATOM      1  C   UNL A   1      40.772  20.123  26.213  1.00  0.00     0.002 C 
ENDROOT
BRANCH   1   2
ATOM      2  C   UNL A   1      40.228  21.457  26.746  1.00  0.00     0.021 C 
BRANCH   2   3
ATOM      3  C   UNL A   1      39.025  21.980  25.956  1.00  0.00     0.116 C 
BRANCH   3   4
ATOM      4  N   UNL A   1      38.281  20.870  25.394  1.00  0.00    -0.352 N 
ATOM      5  C   UNL A   1      36.944  20.659  25.181  1.00  0.00     0.251 C 
ATOM      6  O   UNL A   1      36.610  19.587  24.678  1.00  0.00    -0.269 OA
ATOM      7  H   UNL A   1      38.849  20.119  25.108  1.00  0.00     0.163 HD
BRANCH   5   8
ATOM      8  C   UNL A   1      35.898  21.684  25.454  1.00  0.00     0.039 A 
ATOM      9  C   UNL A   1      34.125  23.809  25.897  1.00  0.00    -0.005 A 
ATOM     10  C   UNL A   1      34.899  23.787  24.737  1.00  0.00     0.010 A 
ATOM     11  C   UNL A   1      34.172  22.745  26.797  1.00  0.00     0.010 A 
ATOM     12  C   UNL A   1      35.791  22.734  24.527  1.00  0.00     0.014 A 
ATOM     13  C   UNL A   1      35.027  21.665  26.549  1.00  0.00     0.014 A 
BRANCH   9  14
ATOM     14  C   UNL A   1      33.279  24.985  26.156  1.00  0.00     0.141 C 
ATOM     15  N   UNL A   1      33.720  26.198  26.016  1.00  0.00    -0.180 NA
BRANCH  15  16
ATOM     16  N   UNL A   1      32.806  27.161  26.262  1.00  0.00    -0.233 NA
ATOM     17  C   UNL A   1      31.684  27.465  25.378  1.00  0.00     0.274 C 
ATOM     18  N   UNL A   1      31.039  28.696  25.914  1.00  0.00    -0.161 NA
ATOM     19  N   UNL A   1      31.737  29.196  26.831  1.00  0.00    -0.153 NA
ATOM     20  C   UNL A   1      32.937  28.368  27.075  1.00  0.00     0.298 C 
BRANCH  17  21
ATOM     21  C   UNL A   1      32.031  27.652  23.877  1.00  0.00     0.201 C 
ATOM     22  C   UNL A   1      30.018  29.884  21.710  1.00  0.00     0.068 C 
ATOM     23  C   UNL A   1      30.763  28.823  22.434  1.00  0.00     0.058 C 
ATOM     24  C   UNL A   1      31.748  29.000  23.312  1.00  0.00     0.031 C 
ATOM     25  N   UNL A   1      30.425  27.503  22.283  1.00  0.00    -0.160 NA
ATOM     26  N   UNL A   1      31.134  26.783  23.046  1.00  0.00    -0.177 NA
ENDBRANCH  17  21
BRANCH  20  27
ATOM     27  S   UNL A   1      34.523  29.243  26.823  1.00  0.00    -0.128 SA
ATOM     28  H   UNL A   1      35.541  28.341  26.803  1.00  0.00     0.106 HD
ENDBRANCH  20  27
ENDBRANCH  15  16
ENDBRANCH   9  14
ENDBRANCH   5   8
ENDBRANCH   3   4
ENDBRANCH   2   3
ENDBRANCH   1   2
BRANCH   1  29
ATOM     29  C   UNL A   1      41.904  19.495  27.044  1.00  0.00     0.002 C 
BRANCH  29  30
ATOM     30  C   UNL A   1      42.675  18.352  26.370  1.00  0.00     0.021 C 
BRANCH  30  31
ATOM     31  C   UNL A   1      44.170  18.610  26.273  1.00  0.00     0.116 C 
BRANCH  31  32
ATOM     32  N   UNL A   1      44.618  18.680  24.883  1.00  0.00    -0.352 N 
ATOM     33  C   UNL A   1      44.646  19.775  24.042  1.00  0.00     0.251 C 
ATOM     34  H   UNL A   1      44.942  17.834  24.496  1.00  0.00     0.163 HD
ATOM     35  O   UNL A   1      44.697  19.646  22.833  1.00  0.00    -0.269 OA
BRANCH  33  36
ATOM     36  C   UNL A   1      44.614  21.114  24.651  1.00  0.00     0.039 A 
ATOM     37  C   UNL A   1      43.513  21.955  24.476  1.00  0.00     0.014 A 
ATOM     38  C   UNL A   1      45.699  21.498  25.434  1.00  0.00     0.014 A 
ATOM     39  C   UNL A   1      43.475  23.161  25.170  1.00  0.00     0.010 A 
ATOM     40  C   UNL A   1      45.598  22.617  26.222  1.00  0.00     0.010 A 
ATOM     41  C   UNL A   1      44.514  23.477  26.058  1.00  0.00    -0.014 A 
BRANCH  41  42
ATOM     42  C   UNL A   1      44.433  24.661  26.905  1.00  0.00     0.031 A 
ATOM     43  C   UNL A   1      45.503  25.679  26.683  1.00  0.00     0.074 A 
ATOM     44  C   UNL A   1      43.344  24.934  27.656  1.00  0.00     0.049 A 
ATOM     45  N   UNL A   1      46.366  26.130  27.533  1.00  0.00    -0.248 NA
ATOM     46  C   UNL A   1      45.694  26.195  25.317  1.00  0.00     0.031 C 
ATOM     47  C   UNL A   1      42.074  24.197  27.717  1.00  0.00     0.029 A 
ATOM     48  N   UNL A   1      43.096  26.015  28.443  1.00  0.00    -0.354 N 
ATOM     49  C   UNL A   1      47.103  27.108  26.864  1.00  0.00     0.074 A 
ATOM     50  C   UNL A   1      46.749  26.998  25.474  1.00  0.00     0.031 C 
ATOM     51  C   UNL A   1      41.128  24.971  28.290  1.00  0.00     0.029 A 
ATOM     52  C   UNL A   1      41.763  26.172  28.796  1.00  0.00     0.049 A 
ATOM     53  H   UNL A   1      43.803  26.633  28.738  1.00  0.00     0.167 HD
ATOM     54  C   UNL A   1      47.780  28.074  27.547  1.00  0.00     0.037 A 
ATOM     55  C   UNL A   1      41.213  27.234  29.432  1.00  0.00     0.037 A 
ATOM     56  C   UNL A   1      47.967  27.698  28.925  1.00  0.00     0.049 A 
ATOM     57  C   UNL A   1      42.317  27.975  30.087  1.00  0.00     0.074 A 
ATOM     58  C   UNL A   1      48.609  26.660  29.571  1.00  0.00     0.029 A 
ATOM     59  N   UNL A   1      47.132  28.255  29.861  1.00  0.00    -0.354 N 
ATOM     60  N   UNL A   1      43.016  27.508  31.084  1.00  0.00    -0.248 NA
ATOM     61  C   UNL A   1      42.938  29.059  29.341  1.00  0.00     0.031 C 
ATOM     62  C   UNL A   1      47.766  26.341  30.677  1.00  0.00     0.029 A 
ATOM     63  C   UNL A   1      46.701  27.244  30.678  1.00  0.00     0.049 A 
ATOM     64  H   UNL A   1      46.887  29.206  29.932  1.00  0.00     0.167 HD
ATOM     65  C   UNL A   1      44.314  27.924  30.827  1.00  0.00     0.074 A 
ATOM     66  C   UNL A   1      44.187  28.954  29.800  1.00  0.00     0.031 C 
ATOM     67  C   UNL A   1      45.383  27.193  31.262  1.00  0.00     0.037 A 
BRANCH  54  68
ATOM     68  C   UNL A   1      47.950  29.504  27.084  1.00  0.00     0.064 A 
ATOM     69  C   UNL A   1      49.224  30.106  27.173  1.00  0.00     0.173 A 
ATOM     70  C   UNL A   1      46.878  30.395  26.862  1.00  0.00     0.173 A 
ATOM     71  F   UNL A   1      50.319  29.362  27.390  1.00  0.00    -0.203 F 
ATOM     72  C   UNL A   1      49.394  31.494  27.144  1.00  0.00     0.198 A 
ATOM     73  C   UNL A   1      47.058  31.775  26.780  1.00  0.00     0.198 A 
ATOM     74  F   UNL A   1      45.605  29.986  26.831  1.00  0.00    -0.203 F 
ATOM     75  F   UNL A   1      50.604  32.021  27.374  1.00  0.00    -0.200 F 
ATOM     76  C   UNL A   1      48.308  32.328  26.957  1.00  0.00     0.200 A 
ATOM     77  F   UNL A   1      45.989  32.568  26.614  1.00  0.00    -0.200 F 
ATOM     78  F   UNL A   1      48.455  33.658  27.001  1.00  0.00    -0.200 F 
ENDBRANCH  54  68
BRANCH  55  79
ATOM     79  C   UNL A   1      39.859  27.808  29.263  1.00  0.00     0.064 A 
ATOM     80  C   UNL A   1      38.987  27.938  30.354  1.00  0.00     0.173 A 
ATOM     81  C   UNL A   1      39.503  28.498  28.087  1.00  0.00     0.173 A 
ATOM     82  F   UNL A   1      39.277  27.347  31.522  1.00  0.00    -0.203 F 
ATOM     83  C   UNL A   1      37.840  28.738  30.284  1.00  0.00     0.198 A 
ATOM     84  C   UNL A   1      38.355  29.290  28.016  1.00  0.00     0.198 A 
ATOM     85  F   UNL A   1      40.311  28.497  27.017  1.00  0.00    -0.203 F 
ATOM     86  F   UNL A   1      37.066  28.891  31.367  1.00  0.00    -0.200 F 
ATOM     87  C   UNL A   1      37.532  29.421  29.119  1.00  0.00     0.200 A 
ATOM     88  F   UNL A   1      38.089  29.976  26.896  1.00  0.00    -0.200 F 
ATOM     89  F   UNL A   1      36.471  30.239  29.073  1.00  0.00    -0.200 F 
ENDBRANCH  55  79
BRANCH  67  90
ATOM     90  C   UNL A   1      45.126  26.092  32.253  1.00  0.00     0.064 A 
ATOM     91  C   UNL A   1      45.061  26.280  33.645  1.00  0.00     0.173 A 
ATOM     92  C   UNL A   1      44.782  24.827  31.759  1.00  0.00     0.173 A 
ATOM     93  F   UNL A   1      45.278  27.481  34.191  1.00  0.00    -0.203 F 
ATOM     94  C   UNL A   1      44.708  25.238  34.500  1.00  0.00     0.198 A 
ATOM     95  C   UNL A   1      44.393  23.799  32.612  1.00  0.00     0.198 A 
ATOM     96  F   UNL A   1      44.773  24.604  30.435  1.00  0.00    -0.203 F 
ATOM     97  F   UNL A   1      44.663  25.440  35.825  1.00  0.00    -0.200 F 
ATOM     98  C   UNL A   1      44.365  24.000  33.982  1.00  0.00     0.200 A 
ATOM     99  F   UNL A   1      44.016  22.619  32.101  1.00  0.00    -0.200 F 
ATOM    100  F   UNL A   1      43.983  23.010  34.800  1.00  0.00    -0.200 F 
ENDBRANCH  67  90
ENDBRANCH  41  42
ENDBRANCH  33  36
ENDBRANCH  31  32
ENDBRANCH  30  31
ENDBRANCH  29  30
ENDBRANCH   1  29
TORSDOF 17
ENDMDL
MODEL 2
REMARK VINA RESULT:     -12.0      4.698      9.451
REMARK SMILES CC1=C[C@@H]([C@@H]2N=N[C@H](S)N2/N=C/c2ccc(C(=O)NCCCCCCNC(=O)c3ccc(-c4c5nc(c(-c6c(F)c(F)c(F)c(F)c6F)c6ccc([nH]6)c(-c6c(F)c(F)c(F)c(F)c6F)c6nc(c(-c7c(F)c(F)c(F)c(F)c7F)c7ccc4[nH]7)C=C6)C=C5)cc3)cc2)N=N1
REMARK SMILES IDX 22 1 21 2 20 3 19 4 17 5 18 6 16 8 13 9 14 10 93 11 15 12
REMARK SMILES IDX 92 13 12 14 11 15 10 16 5 17 6 18 7 19 8 20 4 21 1 22 2 23
REMARK SMILES IDX 3 24 95 25 94 26 9 27 23 29 24 30 25 31 26 32 27 33 28 35
REMARK SMILES IDX 29 36 30 37 91 38 31 39 90 40 32 41 33 42 34 43 84 44 35 45
REMARK SMILES IDX 89 46 83 47 85 48 36 49 88 50 82 51 81 52 37 54 69 55 49 56
REMARK SMILES IDX 68 57 50 58 53 59 67 60 86 61 51 62 52 63 66 65 87 66 54 67
REMARK SMILES IDX 38 68 39 69 47 70 40 71 41 72 45 73 48 74 42 75 43 76 46 77
REMARK SMILES IDX 44 78 70 79 71 80 79 81 72 82 73 83 77 84 80 85 74 86 75 87
REMARK SMILES IDX 78 88 76 89 55 90 56 91 64 92 57 93 58 94 62 95 65 96 59 97
REMARK SMILES IDX 60 98 63 99 61 100
REMARK H PARENT 19 7 9 28 26 34 85 53 53 64
REMARK Flexibility Score: inf
ROOT
ATOM      1  C   UNL A   1      39.387  30.369  32.209  1.00  0.00     0.002 C 
ENDROOT
BRANCH   1   2
ATOM      2  C   UNL A   1      40.753  30.057  32.836  1.00  0.00     0.021 C 
BRANCH   2   3
ATOM      3  C   UNL A   1      40.763  30.182  34.362  1.00  0.00     0.116 C 
BRANCH   3   4
ATOM      4  N   UNL A   1      41.514  31.356  34.759  1.00  0.00    -0.352 N 
ATOM      5  C   UNL A   1      41.216  32.693  34.763  1.00  0.00     0.251 C 
ATOM      6  O   UNL A   1      42.083  33.469  35.163  1.00  0.00    -0.269 OA
ATOM      7  H   UNL A   1      42.418  31.153  35.091  1.00  0.00     0.163 HD
BRANCH   5   8
ATOM      8  C   UNL A   1      39.882  33.238  34.385  1.00  0.00     0.039 A 
ATOM      9  C   UNL A   1      37.257  34.026  33.794  1.00  0.00    -0.005 A 
ATOM     10  C   UNL A   1      37.562  33.545  35.067  1.00  0.00     0.010 A 
ATOM     11  C   UNL A   1      38.263  34.188  32.842  1.00  0.00     0.010 A 
ATOM     12  C   UNL A   1      38.867  33.140  35.353  1.00  0.00     0.014 A 
ATOM     13  C   UNL A   1      39.580  33.834  33.156  1.00  0.00     0.014 A 
BRANCH   9  14
ATOM     14  C   UNL A   1      35.854  34.336  33.476  1.00  0.00     0.141 C 
ATOM     15  N   UNL A   1      35.488  35.496  33.025  1.00  0.00    -0.180 NA
BRANCH  15  16
ATOM     16  N   UNL A   1      34.170  35.603  32.753  1.00  0.00    -0.233 NA
ATOM     17  C   UNL A   1      33.491  34.854  31.700  1.00  0.00     0.274 C 
ATOM     18  N   UNL A   1      32.106  35.396  31.613  1.00  0.00    -0.161 NA
ATOM     19  N   UNL A   1      31.991  36.427  32.322  1.00  0.00    -0.153 NA
ATOM     20  C   UNL A   1      33.264  36.720  33.017  1.00  0.00     0.298 C 
BRANCH  17  21
ATOM     21  C   UNL A   1      34.166  34.880  30.302  1.00  0.00     0.201 C 
ATOM     22  C   UNL A   1      32.508  33.382  27.347  1.00  0.00     0.068 C 
ATOM     23  C   UNL A   1      33.340  33.831  28.492  1.00  0.00     0.058 C 
ATOM     24  C   UNL A   1      33.241  34.990  29.141  1.00  0.00     0.031 C 
ATOM     25  N   UNL A   1      34.291  33.005  29.034  1.00  0.00    -0.160 NA
ATOM     26  N   UNL A   1      34.823  33.557  30.041  1.00  0.00    -0.177 NA
ENDBRANCH  17  21
BRANCH  20  27
ATOM     27  S   UNL A   1      33.986  38.351  32.615  1.00  0.00    -0.128 SA
ATOM     28  H   UNL A   1      33.022  39.158  32.095  1.00  0.00     0.106 HD
ENDBRANCH  20  27
ENDBRANCH  15  16
ENDBRANCH   9  14
ENDBRANCH   5   8
ENDBRANCH   3   4
ENDBRANCH   2   3
ENDBRANCH   1   2
BRANCH   1  29
ATOM     29  C   UNL A   1      38.179  30.205  33.148  1.00  0.00     0.002 C 
BRANCH  29  30
ATOM     30  C   UNL A   1      36.804  30.485  32.526  1.00  0.00     0.021 C 
BRANCH  30  31
ATOM     31  C   UNL A   1      36.885  31.073  31.126  1.00  0.00     0.116 C 
BRANCH  31  32
ATOM     32  N   UNL A   1      35.918  30.454  30.222  1.00  0.00    -0.352 N 
ATOM     33  C   UNL A   1      36.155  29.767  29.048  1.00  0.00     0.251 C 
ATOM     34  H   UNL A   1      34.973  30.538  30.485  1.00  0.00     0.163 HD
ATOM     35  O   UNL A   1      35.282  29.613  28.214  1.00  0.00    -0.269 OA
BRANCH  33  36
ATOM     36  C   UNL A   1      37.504  29.221  28.827  1.00  0.00     0.039 A 
ATOM     37  C   UNL A   1      38.317  29.711  27.804  1.00  0.00     0.014 A 
ATOM     38  C   UNL A   1      37.953  28.229  29.693  1.00  0.00     0.014 A 
ATOM     39  C   UNL A   1      39.627  29.250  27.710  1.00  0.00     0.010 A 
ATOM     40  C   UNL A   1      39.279  27.879  29.688  1.00  0.00     0.010 A 
ATOM     41  C   UNL A   1      40.108  28.347  28.670  1.00  0.00    -0.014 A 
BRANCH  41  42
ATOM     42  C   UNL A   1      41.514  27.957  28.685  1.00  0.00     0.031 A 
ATOM     43  C   UNL A   1      41.834  26.695  27.955  1.00  0.00     0.074 A 
ATOM     44  C   UNL A   1      42.486  28.793  29.112  1.00  0.00     0.049 A 
ATOM     45  N   UNL A   1      42.373  25.616  28.420  1.00  0.00    -0.248 NA
ATOM     46  C   UNL A   1      41.420  26.588  26.545  1.00  0.00     0.031 C 
ATOM     47  C   UNL A   1      42.357  30.191  29.544  1.00  0.00     0.029 A 
ATOM     48  N   UNL A   1      43.831  28.600  29.131  1.00  0.00    -0.354 N 
ATOM     49  C   UNL A   1      42.523  24.752  27.336  1.00  0.00     0.074 A 
ATOM     50  C   UNL A   1      41.787  25.340  26.248  1.00  0.00     0.031 C 
ATOM     51  C   UNL A   1      43.573  30.779  29.542  1.00  0.00     0.029 A 
ATOM     52  C   UNL A   1      44.574  29.762  29.289  1.00  0.00     0.049 A 
ATOM     53  H   UNL A   1      44.244  27.711  29.041  1.00  0.00     0.167 HD
ATOM     54  C   UNL A   1      43.426  23.732  27.364  1.00  0.00     0.037 A 
ATOM     55  C   UNL A   1      45.919  29.884  29.187  1.00  0.00     0.037 A 
ATOM     56  C   UNL A   1      43.834  23.441  28.714  1.00  0.00     0.049 A 
ATOM     57  C   UNL A   1      46.497  28.527  29.335  1.00  0.00     0.074 A 
ATOM     58  C   UNL A   1      43.183  23.020  29.857  1.00  0.00     0.029 A 
ATOM     59  N   UNL A   1      45.046  23.926  29.137  1.00  0.00    -0.354 N 
ATOM     60  N   UNL A   1      46.461  27.836  30.440  1.00  0.00    -0.248 NA
ATOM     61  C   UNL A   1      46.724  27.755  28.123  1.00  0.00     0.031 C 
ATOM     62  C   UNL A   1      43.815  23.731  30.921  1.00  0.00     0.029 A 
ATOM     63  C   UNL A   1      44.854  24.486  30.372  1.00  0.00     0.049 A 
ATOM     64  H   UNL A   1      45.897  23.881  28.644  1.00  0.00     0.167 HD
ATOM     65  C   UNL A   1      46.225  26.533  30.032  1.00  0.00     0.074 A 
ATOM     66  C   UNL A   1      46.496  26.529  28.597  1.00  0.00     0.031 C 
ATOM     67  C   UNL A   1      45.558  25.656  30.839  1.00  0.00     0.037 A 
BRANCH  54  68
ATOM     68  C   UNL A   1      44.220  23.245  26.172  1.00  0.00     0.064 A 
ATOM     69  C   UNL A   1      44.190  21.872  25.842  1.00  0.00     0.173 A 
ATOM     70  C   UNL A   1      45.241  23.991  25.545  1.00  0.00     0.173 A 
ATOM     71  F   UNL A   1      43.268  21.059  26.382  1.00  0.00    -0.203 F 
ATOM     72  C   UNL A   1      45.164  21.280  25.034  1.00  0.00     0.198 A 
ATOM     73  C   UNL A   1      46.181  23.406  24.696  1.00  0.00     0.198 A 
ATOM     74  F   UNL A   1      45.448  25.284  25.813  1.00  0.00    -0.203 F 
ATOM     75  F   UNL A   1      45.173  19.951  24.867  1.00  0.00    -0.200 F 
ATOM     76  C   UNL A   1      46.165  22.047  24.468  1.00  0.00     0.200 A 
ATOM     77  F   UNL A   1      47.153  24.165  24.170  1.00  0.00    -0.200 F 
ATOM     78  F   UNL A   1      47.141  21.474  23.753  1.00  0.00    -0.200 F 
ENDBRANCH  54  68
BRANCH  55  79
ATOM     79  C   UNL A   1      46.703  31.032  28.678  1.00  0.00     0.064 A 
ATOM     80  C   UNL A   1      46.388  31.636  27.451  1.00  0.00     0.173 A 
ATOM     81  C   UNL A   1      47.592  31.735  29.515  1.00  0.00     0.173 A 
ATOM     82  F   UNL A   1      45.516  31.051  26.616  1.00  0.00    -0.203 F 
ATOM     83  C   UNL A   1      46.908  32.885  27.094  1.00  0.00     0.198 A 
ATOM     84  C   UNL A   1      48.115  32.979  29.155  1.00  0.00     0.198 A 
ATOM     85  F   UNL A   1      47.893  31.276  30.738  1.00  0.00    -0.203 F 
ATOM     86  F   UNL A   1      46.533  33.461  25.944  1.00  0.00    -0.200 F 
ATOM     87  C   UNL A   1      47.761  33.560  27.952  1.00  0.00     0.200 A 
ATOM     88  F   UNL A   1      48.909  33.638  30.010  1.00  0.00    -0.200 F 
ATOM     89  F   UNL A   1      48.206  34.785  27.641  1.00  0.00    -0.200 F 
ENDBRANCH  55  79
BRANCH  67  90
ATOM     90  C   UNL A   1      45.336  26.049  32.273  1.00  0.00     0.064 A 
ATOM     91  C   UNL A   1      44.189  26.712  32.744  1.00  0.00     0.173 A 
ATOM     92  C   UNL A   1      46.255  25.599  33.230  1.00  0.00     0.173 A 
ATOM     93  F   UNL A   1      43.216  27.087  31.907  1.00  0.00    -0.203 F 
ATOM     94  C   UNL A   1      43.995  26.948  34.103  1.00  0.00     0.198 A 
ATOM     95  C   UNL A   1      46.041  25.802  34.590  1.00  0.00     0.198 A 
ATOM     96  F   UNL A   1      47.343  24.913  32.845  1.00  0.00    -0.203 F 
ATOM     97  F   UNL A   1      42.897  27.591  34.525  1.00  0.00    -0.200 F 
ATOM     98  C   UNL A   1      44.917  26.484  35.026  1.00  0.00     0.200 A 
ATOM     99  F   UNL A   1      46.913  25.308  35.481  1.00  0.00    -0.200 F 
ATOM    100  F   UNL A   1      44.711  26.671  36.338  1.00  0.00    -0.200 F 
ENDBRANCH  67  90
ENDBRANCH  41  42
ENDBRANCH  33  36
ENDBRANCH  31  32
ENDBRANCH  30  31
ENDBRANCH  29  30
ENDBRANCH   1  29
TORSDOF 17
ENDMDL
MODEL 3
REMARK VINA RESULT:     -11.9      4.640     10.476
REMARK SMILES CC1=C[C@@H]([C@@H]2N=N[C@H](S)N2/N=C/c2ccc(C(=O)NCCCCCCNC(=O)c3ccc(-c4c5nc(c(-c6c(F)c(F)c(F)c(F)c6F)c6ccc([nH]6)c(-c6c(F)c(F)c(F)c(F)c6F)c6nc(c(-c7c(F)c(F)c(F)c(F)c7F)c7ccc4[nH]7)C=C6)C=C5)cc3)cc2)N=N1
REMARK SMILES IDX 22 1 21 2 20 3 19 4 17 5 18 6 16 8 13 9 14 10 93 11 15 12
REMARK SMILES IDX 92 13 12 14 11 15 10 16 5 17 6 18 7 19 8 20 4 21 1 22 2 23
REMARK SMILES IDX 3 24 95 25 94 26 9 27 23 29 24 30 25 31 26 32 27 33 28 35
REMARK SMILES IDX 29 36 30 37 91 38 31 39 90 40 32 41 33 42 34 43 84 44 35 45
REMARK SMILES IDX 89 46 83 47 85 48 36 49 88 50 82 51 81 52 37 54 69 55 49 56
REMARK SMILES IDX 68 57 50 58 53 59 67 60 86 61 51 62 52 63 66 65 87 66 54 67
REMARK SMILES IDX 38 68 39 69 47 70 40 71 41 72 45 73 48 74 42 75 43 76 46 77
REMARK SMILES IDX 44 78 70 79 71 80 79 81 72 82 73 83 77 84 80 85 74 86 75 87
REMARK SMILES IDX 78 88 76 89 55 90 56 91 64 92 57 93 58 94 62 95 65 96 59 97
REMARK SMILES IDX 60 98 63 99 61 100
REMARK H PARENT 19 7 9 28 26 34 85 53 53 64
REMARK Flexibility Score: inf
ROOT
ATOM      1  C   UNL A   1      35.009  32.860  27.657  1.00  0.00     0.002 C 
ENDROOT
BRANCH   1   2
ATOM      2  C   UNL A   1      34.720  31.593  28.474  1.00  0.00     0.021 C 
BRANCH   2   3
ATOM      3  C   UNL A   1      34.266  30.408  27.616  1.00  0.00     0.116 C 
BRANCH   3   4
ATOM      4  N   UNL A   1      33.075  30.764  26.871  1.00  0.00    -0.352 N 
ATOM      5  C   UNL A   1      32.228  30.043  26.072  1.00  0.00     0.251 C 
ATOM      6  O   UNL A   1      31.282  30.640  25.559  1.00  0.00    -0.269 OA
ATOM      7  H   UNL A   1      32.826  31.712  26.955  1.00  0.00     0.163 HD
BRANCH   5   8
ATOM      8  C   UNL A   1      32.350  28.573  25.861  1.00  0.00     0.039 A 
ATOM      9  C   UNL A   1      32.535  25.778  25.747  1.00  0.00    -0.005 A 
ATOM     10  C   UNL A   1      31.490  26.372  26.454  1.00  0.00     0.010 A 
ATOM     11  C   UNL A   1      33.441  26.564  25.036  1.00  0.00     0.010 A 
ATOM     12  C   UNL A   1      31.409  27.764  26.521  1.00  0.00     0.014 A 
ATOM     13  C   UNL A   1      33.319  27.958  25.060  1.00  0.00     0.014 A 
BRANCH   9  14
ATOM     14  C   UNL A   1      32.670  24.314  25.787  1.00  0.00     0.141 C 
ATOM     15  N   UNL A   1      33.232  23.644  24.828  1.00  0.00    -0.180 NA
BRANCH  15  16
ATOM     16  N   UNL A   1      33.305  22.313  25.038  1.00  0.00    -0.233 NA
ATOM     17  C   UNL A   1      34.518  21.618  25.458  1.00  0.00     0.274 C 
ATOM     18  N   UNL A   1      34.221  20.160  25.393  1.00  0.00    -0.161 NA
ATOM     19  N   UNL A   1      33.111  19.960  24.839  1.00  0.00    -0.153 NA
ATOM     20  C   UNL A   1      32.478  21.246  24.476  1.00  0.00     0.298 C 
BRANCH  17  21
ATOM     21  C   UNL A   1      35.803  21.941  24.648  1.00  0.00     0.201 C 
ATOM     22  C   UNL A   1      39.166  21.216  26.024  1.00  0.00     0.068 C 
ATOM     23  C   UNL A   1      37.887  21.725  25.466  1.00  0.00     0.058 C 
ATOM     24  C   UNL A   1      36.946  21.009  24.854  1.00  0.00     0.031 C 
ATOM     25  N   UNL A   1      37.537  23.043  25.606  1.00  0.00    -0.160 NA
ATOM     26  N   UNL A   1      36.381  23.239  25.128  1.00  0.00    -0.177 NA
ENDBRANCH  17  21
BRANCH  20  27
ATOM     27  S   UNL A   1      32.150  21.449  22.688  1.00  0.00    -0.128 SA
ATOM     28  H   UNL A   1      33.322  21.674  22.035  1.00  0.00     0.106 HD
ENDBRANCH  20  27
ENDBRANCH  15  16
ENDBRANCH   9  14
ENDBRANCH   5   8
ENDBRANCH   3   4
ENDBRANCH   2   3
ENDBRANCH   1   2
BRANCH   1  29
ATOM     29  C   UNL A   1      35.549  34.054  28.463  1.00  0.00     0.002 C 
BRANCH  29  30
ATOM     30  C   UNL A   1      34.525  35.141  28.818  1.00  0.00     0.021 C 
BRANCH  30  31
ATOM     31  C   UNL A   1      33.246  34.588  29.424  1.00  0.00     0.116 C 
BRANCH  31  32
ATOM     32  N   UNL A   1      32.935  35.220  30.704  1.00  0.00    -0.352 N 
ATOM     33  C   UNL A   1      33.405  34.895  31.961  1.00  0.00     0.251 C 
ATOM     34  H   UNL A   1      32.308  35.978  30.665  1.00  0.00     0.163 HD
ATOM     35  O   UNL A   1      32.819  35.245  32.969  1.00  0.00    -0.269 OA
BRANCH  33  36
ATOM     36  C   UNL A   1      34.644  34.107  32.053  1.00  0.00     0.039 A 
ATOM     37  C   UNL A   1      34.619  32.715  31.947  1.00  0.00     0.014 A 
ATOM     38  C   UNL A   1      35.843  34.797  32.211  1.00  0.00     0.014 A 
ATOM     39  C   UNL A   1      35.826  32.023  31.918  1.00  0.00     0.010 A 
ATOM     40  C   UNL A   1      37.030  34.132  32.042  1.00  0.00     0.010 A 
ATOM     41  C   UNL A   1      37.031  32.742  31.946  1.00  0.00    -0.014 A 
BRANCH  41  42
ATOM     42  C   UNL A   1      38.308  32.058  31.771  1.00  0.00     0.031 A 
ATOM     43  C   UNL A   1      39.053  31.765  33.031  1.00  0.00     0.074 A 
ATOM     44  C   UNL A   1      38.675  31.514  30.590  1.00  0.00     0.049 A 
ATOM     45  N   UNL A   1      40.237  32.157  33.370  1.00  0.00    -0.248 NA
ATOM     46  C   UNL A   1      38.355  31.013  34.087  1.00  0.00     0.031 C 
ATOM     47  C   UNL A   1      37.896  31.429  29.347  1.00  0.00     0.029 A 
ATOM     48  N   UNL A   1      39.793  30.802  30.288  1.00  0.00    -0.354 N 
ATOM     49  C   UNL A   1      40.508  31.569  34.605  1.00  0.00     0.074 A 
ATOM     50  C   UNL A   1      39.265  31.004  35.063  1.00  0.00     0.031 C 
ATOM     51  C   UNL A   1      38.451  30.512  28.526  1.00  0.00     0.029 A 
ATOM     52  C   UNL A   1      39.711  30.084  29.102  1.00  0.00     0.049 A 
ATOM     53  H   UNL A   1      40.593  30.796  30.861  1.00  0.00     0.167 HD
ATOM     54  C   UNL A   1      41.787  31.405  35.046  1.00  0.00     0.037 A 
ATOM     55  C   UNL A   1      40.604  29.176  28.641  1.00  0.00     0.037 A 
ATOM     56  C   UNL A   1      42.696  32.254  34.319  1.00  0.00     0.049 A 
ATOM     57  C   UNL A   1      41.879  29.407  29.362  1.00  0.00     0.074 A 
ATOM     58  C   UNL A   1      42.828  33.619  34.151  1.00  0.00     0.029 A 
ATOM     59  N   UNL A   1      43.445  31.686  33.320  1.00  0.00    -0.354 N 
ATOM     60  N   UNL A   1      42.614  30.474  29.218  1.00  0.00    -0.248 NA
ATOM     61  C   UNL A   1      42.111  28.648  30.582  1.00  0.00     0.031 C 
ATOM     62  C   UNL A   1      43.221  33.784  32.790  1.00  0.00     0.029 A 
ATOM     63  C   UNL A   1      43.370  32.513  32.231  1.00  0.00     0.049 A 
ATOM     64  H   UNL A   1      43.944  30.839  33.375  1.00  0.00     0.167 HD
ATOM     65  C   UNL A   1      43.074  30.759  30.494  1.00  0.00     0.074 A 
ATOM     66  C   UNL A   1      42.816  29.549  31.270  1.00  0.00     0.031 C 
ATOM     67  C   UNL A   1      43.355  32.042  30.867  1.00  0.00     0.037 A 
BRANCH  54  68
ATOM     68  C   UNL A   1      42.279  30.231  35.863  1.00  0.00     0.064 A 
ATOM     69  C   UNL A   1      43.214  30.458  36.896  1.00  0.00     0.173 A 
ATOM     70  C   UNL A   1      42.123  28.882  35.478  1.00  0.00     0.173 A 
ATOM     71  F   UNL A   1      43.454  31.701  37.341  1.00  0.00    -0.203 F 
ATOM     72  C   UNL A   1      44.000  29.430  37.425  1.00  0.00     0.198 A 
ATOM     73  C   UNL A   1      42.871  27.851  36.046  1.00  0.00     0.198 A 
ATOM     74  F   UNL A   1      41.333  28.515  34.463  1.00  0.00    -0.203 F 
ATOM     75  F   UNL A   1      44.971  29.719  38.302  1.00  0.00    -0.200 F 
ATOM     76  C   UNL A   1      43.834  28.128  36.993  1.00  0.00     0.200 A 
ATOM     77  F   UNL A   1      42.706  26.597  35.601  1.00  0.00    -0.200 F 
ATOM     78  F   UNL A   1      44.633  27.153  37.444  1.00  0.00    -0.200 F 
ENDBRANCH  54  68
BRANCH  55  79
ATOM     79  C   UNL A   1      40.346  27.950  27.853  1.00  0.00     0.064 A 
ATOM     80  C   UNL A   1      41.064  27.682  26.677  1.00  0.00     0.173 A 
ATOM     81  C   UNL A   1      39.594  26.885  28.388  1.00  0.00     0.173 A 
ATOM     82  F   UNL A   1      41.838  28.630  26.129  1.00  0.00    -0.203 F 
ATOM     83  C   UNL A   1      41.055  26.413  26.087  1.00  0.00     0.198 A 
ATOM     84  C   UNL A   1      39.581  25.621  27.794  1.00  0.00     0.198 A 
ATOM     85  F   UNL A   1      38.937  27.022  29.548  1.00  0.00    -0.203 F 
ATOM     86  F   UNL A   1      41.805  26.175  25.003  1.00  0.00    -0.200 F 
ATOM     87  C   UNL A   1      40.323  25.382  26.653  1.00  0.00     0.200 A 
ATOM     88  F   UNL A   1      38.900  24.623  28.373  1.00  0.00    -0.200 F 
ATOM     89  F   UNL A   1      40.368  24.150  26.127  1.00  0.00    -0.200 F 
ENDBRANCH  55  79
BRANCH  67  90
ATOM     90  C   UNL A   1      43.421  33.089  29.791  1.00  0.00     0.064 A 
ATOM     91  C   UNL A   1      42.346  33.918  29.427  1.00  0.00     0.173 A 
ATOM     92  C   UNL A   1      44.668  33.364  29.214  1.00  0.00     0.173 A 
ATOM     93  F   UNL A   1      41.146  33.787  30.004  1.00  0.00    -0.203 F 
ATOM     94  C   UNL A   1      42.505  34.945  28.498  1.00  0.00     0.198 A 
ATOM     95  C   UNL A   1      44.833  34.414  28.316  1.00  0.00     0.198 A 
ATOM     96  F   UNL A   1      45.743  32.641  29.564  1.00  0.00    -0.203 F 
ATOM     97  F   UNL A   1      41.460  35.716  28.161  1.00  0.00    -0.200 F 
ATOM     98  C   UNL A   1      43.751  35.199  27.951  1.00  0.00     0.200 A 
ATOM     99  F   UNL A   1      46.051  34.685  27.827  1.00  0.00    -0.200 F 
ATOM    100  F   UNL A   1      43.916  36.214  27.091  1.00  0.00    -0.200 F 
ENDBRANCH  67  90
ENDBRANCH  41  42
ENDBRANCH  33  36
ENDBRANCH  31  32
ENDBRANCH  30  31
ENDBRANCH  29  30
ENDBRANCH   1  29
TORSDOF 17
ENDMDL
