MODEL 1
REMARK VINA RESULT:     -10.6      0.000      0.000
REMARK SMILES CC[C@@](C)([NH2+]CCC(=O)NC(C)C)C(=O)NCCCCCCNC(=O)c1ccc(-c2c3nc(c(-c4c(F)c(F)c(F)c(F)c4F)c4ccc([nH]4)c(-c4c(F)c(F)c(F)c(F)c4F)c4nc(c(-c5c(F)c(F)c(F)c(F)c5F)c5ccc2[nH]5)C=C4)C=C3)cc1
REMARK SMILES IDX 18 1 17 2 16 3 14 4 15 5 3 7 4 8 2 9 1 10 5 11 6 14 7 15
REMARK SMILES IDX 8 16 9 17 10 18 11 20 12 21 13 22 19 23 20 24 21 25 22 26
REMARK SMILES IDX 23 27 24 28 25 30 26 31 27 32 88 33 28 34 87 35 29 36 30 37
REMARK SMILES IDX 31 38 81 39 32 40 86 41 80 42 82 43 33 44 85 45 79 46 78 47
REMARK SMILES IDX 34 49 66 50 46 51 65 52 47 53 50 54 64 55 83 56 48 57 49 58
REMARK SMILES IDX 63 60 84 61 51 62 35 63 36 64 44 65 37 66 38 67 42 68 45 69
REMARK SMILES IDX 39 70 40 71 43 72 41 73 67 74 68 75 76 76 69 77 70 78 74 79
REMARK SMILES IDX 77 80 71 81 72 82 75 83 73 84 52 85 53 86 61 87 54 88 55 89
REMARK SMILES IDX 59 90 62 91 56 92 57 93 60 94 58 95
REMARK H PARENT 16 6 5 12 5 13 10 19 23 29 82 48 50 59
REMARK Flexibility Score: inf
ROOT
ATOM      1  C   UNL A   1      32.061  28.876  27.117  1.00  0.00     0.021 C 
ENDROOT
BRANCH   1   2
ATOM      2  C   UNL A   1      31.523  28.106  25.915  1.00  0.00     0.116 C 
BRANCH   2   3
ATOM      3  N   UNL A   1      32.378  26.984  25.613  1.00  0.00    -0.351 N 
ATOM      4  C   UNL A   1      32.869  26.536  24.426  1.00  0.00     0.281 C 
ATOM      5  O   UNL A   1      33.408  25.425  24.459  1.00  0.00    -0.268 OA
ATOM      6  H   UNL A   1      32.654  26.457  26.396  1.00  0.00     0.163 HD
BRANCH   4   7
ATOM      7  C   UNL A   1      32.771  27.378  23.108  1.00  0.00     0.172 C 
ATOM      8  C   UNL A   1      33.732  28.576  23.195  1.00  0.00     0.090 C 
BRANCH   7   9
ATOM      9  C   UNL A   1      33.247  26.454  21.921  1.00  0.00     0.075 C 
ATOM     10  C   UNL A   1      32.160  25.891  21.009  1.00  0.00     0.011 C 
ENDBRANCH   7   9
BRANCH   7  11
ATOM     11  N   UNL A   1      31.348  27.594  22.732  1.00  0.00    -0.333 N 
ATOM     12  H   UNL A   1      30.818  27.218  23.518  1.00  0.00     0.347 HD
ATOM     13  H   UNL A   1      31.382  27.192  21.795  1.00  0.00     0.347 HD
BRANCH  11  14
ATOM     14  C   UNL A   1      30.668  28.840  22.397  1.00  0.00     0.271 C 
BRANCH  14  15
ATOM     15  C   UNL A   1      29.597  29.452  23.307  1.00  0.00     0.161 C 
BRANCH  15  16
ATOM     16  C   UNL A   1      28.190  29.544  22.746  1.00  0.00     0.225 C 
ATOM     17  O   UNL A   1      27.392  28.616  22.896  1.00  0.00    -0.275 OA
ATOM     18  N   UNL A   1      27.753  30.690  22.152  1.00  0.00    -0.354 N 
ATOM     19  H   UNL A   1      26.781  30.751  22.000  1.00  0.00     0.163 HD
BRANCH  18  20
ATOM     20  C   UNL A   1      28.535  31.830  21.714  1.00  0.00     0.075 C 
ATOM     21  C   UNL A   1      28.025  32.327  20.367  1.00  0.00     0.030 C 
ATOM     22  C   UNL A   1      28.571  32.937  22.757  1.00  0.00     0.030 C 
ENDBRANCH  18  20
ENDBRANCH  15  16
ENDBRANCH  14  15
ENDBRANCH  11  14
ENDBRANCH   7  11
ENDBRANCH   4   7
ENDBRANCH   2   3
ENDBRANCH   1   2
BRANCH   1  23
ATOM     23  C   UNL A   1      32.487  30.305  26.775  1.00  0.00     0.002 C 
BRANCH  23  24
ATOM     24  C   UNL A   1      31.389  31.155  26.128  1.00  0.00     0.002 C 
BRANCH  24  25
ATOM     25  C   UNL A   1      31.373  32.625  26.560  1.00  0.00     0.021 C 
BRANCH  25  26
ATOM     26  C   UNL A   1      32.686  33.118  27.158  1.00  0.00     0.116 C 
BRANCH  26  27
ATOM     27  N   UNL A   1      32.534  34.423  27.781  1.00  0.00    -0.352 N 
ATOM     28  C   UNL A   1      33.123  34.915  28.911  1.00  0.00     0.251 C 
ATOM     29  H   UNL A   1      31.918  35.040  27.323  1.00  0.00     0.163 HD
ATOM     30  O   UNL A   1      32.704  35.951  29.428  1.00  0.00    -0.269 OA
BRANCH  28  31
ATOM     31  C   UNL A   1      34.266  34.206  29.511  1.00  0.00     0.039 A 
ATOM     32  C   UNL A   1      35.556  34.505  29.069  1.00  0.00     0.014 A 
ATOM     33  C   UNL A   1      34.061  33.217  30.480  1.00  0.00     0.014 A 
ATOM     34  C   UNL A   1      36.646  33.828  29.617  1.00  0.00     0.010 A 
ATOM     35  C   UNL A   1      35.152  32.593  31.074  1.00  0.00     0.010 A 
ATOM     36  C   UNL A   1      36.453  32.877  30.631  1.00  0.00    -0.014 A 
BRANCH  36  37
ATOM     37  C   UNL A   1      37.595  32.125  31.202  1.00  0.00     0.031 A 
ATOM     38  C   UNL A   1      38.082  32.456  32.586  1.00  0.00     0.074 A 
ATOM     39  C   UNL A   1      38.213  31.184  30.466  1.00  0.00     0.049 A 
ATOM     40  N   UNL A   1      39.111  31.978  33.240  1.00  0.00    -0.248 NA
ATOM     41  C   UNL A   1      37.327  33.482  33.326  1.00  0.00     0.031 C 
ATOM     42  C   UNL A   1      37.852  30.805  29.099  1.00  0.00     0.029 A 
ATOM     43  N   UNL A   1      39.286  30.382  30.762  1.00  0.00    -0.354 N 
ATOM     44  C   UNL A   1      39.130  32.649  34.455  1.00  0.00     0.074 A 
ATOM     45  C   UNL A   1      38.049  33.608  34.430  1.00  0.00     0.031 C 
ATOM     46  C   UNL A   1      38.683  29.836  28.679  1.00  0.00     0.029 A 
ATOM     47  C   UNL A   1      39.652  29.550  29.732  1.00  0.00     0.049 A 
ATOM     48  H   UNL A   1      39.751  30.401  31.629  1.00  0.00     0.167 HD
ATOM     49  C   UNL A   1      39.958  32.460  35.509  1.00  0.00     0.037 A 
ATOM     50  C   UNL A   1      40.661  28.664  29.649  1.00  0.00     0.037 A 
ATOM     51  C   UNL A   1      41.018  31.487  35.539  1.00  0.00     0.049 A 
ATOM     52  C   UNL A   1      41.564  28.471  30.839  1.00  0.00     0.074 A 
ATOM     53  C   UNL A   1      41.904  31.205  36.563  1.00  0.00     0.029 A 
ATOM     54  N   UNL A   1      41.325  30.630  34.494  1.00  0.00    -0.354 N 
ATOM     55  N   UNL A   1      41.544  29.081  32.000  1.00  0.00    -0.248 NA
ATOM     56  C   UNL A   1      42.617  27.455  30.714  1.00  0.00     0.031 C 
ATOM     57  C   UNL A   1      42.766  30.193  36.128  1.00  0.00     0.029 A 
ATOM     58  C   UNL A   1      42.387  29.816  34.850  1.00  0.00     0.049 A 
ATOM     59  H   UNL A   1      40.858  30.604  33.628  1.00  0.00     0.167 HD
ATOM     60  C   UNL A   1      42.555  28.499  32.753  1.00  0.00     0.074 A 
ATOM     61  C   UNL A   1      43.159  27.479  31.923  1.00  0.00     0.031 C 
ATOM     62  C   UNL A   1      42.951  28.785  34.018  1.00  0.00     0.037 A 
BRANCH  49  63
ATOM     63  C   UNL A   1      39.736  33.308  36.728  1.00  0.00     0.064 A 
ATOM     64  C   UNL A   1      40.425  34.517  36.909  1.00  0.00     0.173 A 
ATOM     65  C   UNL A   1      38.796  32.936  37.699  1.00  0.00     0.173 A 
ATOM     66  F   UNL A   1      41.345  34.910  36.017  1.00  0.00    -0.203 F 
ATOM     67  C   UNL A   1      40.193  35.312  38.028  1.00  0.00     0.198 A 
ATOM     68  C   UNL A   1      38.546  33.748  38.803  1.00  0.00     0.198 A 
ATOM     69  F   UNL A   1      38.107  31.791  37.573  1.00  0.00    -0.203 F 
ATOM     70  F   UNL A   1      40.893  36.443  38.200  1.00  0.00    -0.200 F 
ATOM     71  C   UNL A   1      39.248  34.933  38.969  1.00  0.00     0.200 A 
ATOM     72  F   UNL A   1      37.623  33.386  39.705  1.00  0.00    -0.200 F 
ATOM     73  F   UNL A   1      39.018  35.706  40.039  1.00  0.00    -0.200 F 
ENDBRANCH  49  63
BRANCH  50  74
ATOM     74  C   UNL A   1      40.866  27.874  28.406  1.00  0.00     0.064 A 
ATOM     75  C   UNL A   1      40.257  26.622  28.238  1.00  0.00     0.173 A 
ATOM     76  C   UNL A   1      41.698  28.338  27.377  1.00  0.00     0.173 A 
ATOM     77  F   UNL A   1      39.467  26.127  29.202  1.00  0.00    -0.203 F 
ATOM     78  C   UNL A   1      40.500  25.849  27.104  1.00  0.00     0.198 A 
ATOM     79  C   UNL A   1      41.916  27.577  26.230  1.00  0.00     0.198 A 
ATOM     80  F   UNL A   1      42.298  29.532  27.485  1.00  0.00    -0.203 F 
ATOM     81  F   UNL A   1      39.954  24.631  26.997  1.00  0.00    -0.200 F 
ATOM     82  C   UNL A   1      41.328  26.329  26.100  1.00  0.00     0.200 A 
ATOM     83  F   UNL A   1      42.704  28.050  25.255  1.00  0.00    -0.200 F 
ATOM     84  F   UNL A   1      41.566  25.583  25.013  1.00  0.00    -0.200 F 
ENDBRANCH  50  74
BRANCH  62  85
ATOM     85  C   UNL A   1      44.046  27.942  34.601  1.00  0.00     0.064 A 
ATOM     86  C   UNL A   1      43.775  26.758  35.300  1.00  0.00     0.173 A 
ATOM     87  C   UNL A   1      45.389  28.309  34.422  1.00  0.00     0.173 A 
ATOM     88  F   UNL A   1      42.508  26.372  35.509  1.00  0.00    -0.203 F 
ATOM     89  C   UNL A   1      44.809  25.986  35.824  1.00  0.00     0.198 A 
ATOM     90  C   UNL A   1      46.420  27.520  34.920  1.00  0.00     0.198 A 
ATOM     91  F   UNL A   1      45.700  29.430  33.753  1.00  0.00    -0.203 F 
ATOM     92  F   UNL A   1      44.526  24.883  36.532  1.00  0.00    -0.200 F 
ATOM     93  C   UNL A   1      46.129  26.363  35.627  1.00  0.00     0.200 A 
ATOM     94  F   UNL A   1      47.695  27.879  34.718  1.00  0.00    -0.200 F 
ATOM     95  F   UNL A   1      47.122  25.615  36.128  1.00  0.00    -0.200 F 
ENDBRANCH  62  85
ENDBRANCH  36  37
ENDBRANCH  28  31
ENDBRANCH  26  27
ENDBRANCH  25  26
ENDBRANCH  24  25
ENDBRANCH  23  24
ENDBRANCH   1  23
TORSDOF 19
ENDMDL
MODEL 2
REMARK VINA RESULT:     -10.4      6.051     11.606
REMARK SMILES CC[C@@](C)([NH2+]CCC(=O)NC(C)C)C(=O)NCCCCCCNC(=O)c1ccc(-c2c3nc(c(-c4c(F)c(F)c(F)c(F)c4F)c4ccc([nH]4)c(-c4c(F)c(F)c(F)c(F)c4F)c4nc(c(-c5c(F)c(F)c(F)c(F)c5F)c5ccc2[nH]5)C=C4)C=C3)cc1
REMARK SMILES IDX 18 1 17 2 16 3 14 4 15 5 3 7 4 8 2 9 1 10 5 11 6 14 7 15
REMARK SMILES IDX 8 16 9 17 10 18 11 20 12 21 13 22 19 23 20 24 21 25 22 26
REMARK SMILES IDX 23 27 24 28 25 30 26 31 27 32 88 33 28 34 87 35 29 36 30 37
REMARK SMILES IDX 31 38 81 39 32 40 86 41 80 42 82 43 33 44 85 45 79 46 78 47
REMARK SMILES IDX 34 49 66 50 46 51 65 52 47 53 50 54 64 55 83 56 48 57 49 58
REMARK SMILES IDX 63 60 84 61 51 62 35 63 36 64 44 65 37 66 38 67 42 68 45 69
REMARK SMILES IDX 39 70 40 71 43 72 41 73 67 74 68 75 76 76 69 77 70 78 74 79
REMARK SMILES IDX 77 80 71 81 72 82 75 83 73 84 52 85 53 86 61 87 54 88 55 89
REMARK SMILES IDX 59 90 62 91 56 92 57 93 60 94 58 95
REMARK H PARENT 16 6 5 12 5 13 10 19 23 29 82 48 50 59
REMARK Flexibility Score: inf
ROOT
ATOM      1  C   UNL A   1      36.559  22.768  23.660  1.00  0.00     0.021 C 
ENDROOT
BRANCH   1   2
ATOM      2  C   UNL A   1      35.045  22.720  23.836  1.00  0.00     0.116 C 
BRANCH   2   3
ATOM      3  N   UNL A   1      34.611  23.761  24.735  1.00  0.00    -0.351 N 
ATOM      4  C   UNL A   1      33.397  23.994  25.304  1.00  0.00     0.281 C 
ATOM      5  O   UNL A   1      33.275  25.087  25.868  1.00  0.00    -0.268 OA
ATOM      6  H   UNL A   1      35.309  24.410  24.978  1.00  0.00     0.163 HD
BRANCH   4   7
ATOM      7  C   UNL A   1      32.236  22.942  25.262  1.00  0.00     0.172 C 
ATOM      8  C   UNL A   1      31.131  23.362  26.247  1.00  0.00     0.090 C 
BRANCH   7   9
ATOM      9  C   UNL A   1      31.630  22.966  23.806  1.00  0.00     0.075 C 
ATOM     10  C   UNL A   1      30.692  24.121  23.469  1.00  0.00     0.011 C 
ENDBRANCH   7   9
BRANCH   7  11
ATOM     11  N   UNL A   1      32.784  21.560  25.307  1.00  0.00    -0.333 N 
ATOM     12  H   UNL A   1      32.686  21.279  26.282  1.00  0.00     0.347 HD
ATOM     13  H   UNL A   1      33.667  21.737  24.828  1.00  0.00     0.347 HD
BRANCH  11  14
ATOM     14  C   UNL A   1      32.369  20.386  24.547  1.00  0.00     0.271 C 
BRANCH  14  15
ATOM     15  C   UNL A   1      33.123  19.054  24.632  1.00  0.00     0.161 C 
BRANCH  15  16
ATOM     16  C   UNL A   1      32.682  17.953  23.686  1.00  0.00     0.225 C 
ATOM     17  O   UNL A   1      32.144  18.226  22.611  1.00  0.00    -0.275 OA
ATOM     18  N   UNL A   1      32.960  16.647  23.962  1.00  0.00    -0.354 N 
ATOM     19  H   UNL A   1      32.831  16.014  23.218  1.00  0.00     0.163 HD
BRANCH  18  20
ATOM     20  C   UNL A   1      33.419  16.071  25.212  1.00  0.00     0.075 C 
ATOM     21  C   UNL A   1      32.680  14.768  25.489  1.00  0.00     0.030 C 
ATOM     22  C   UNL A   1      34.929  15.891  25.241  1.00  0.00     0.030 C 
ENDBRANCH  18  20
ENDBRANCH  15  16
ENDBRANCH  14  15
ENDBRANCH  11  14
ENDBRANCH   7  11
ENDBRANCH   4   7
ENDBRANCH   2   3
ENDBRANCH   1   2
BRANCH   1  23
ATOM     23  C   UNL A   1      37.310  21.895  24.668  1.00  0.00     0.002 C 
BRANCH  23  24
ATOM     24  C   UNL A   1      36.917  20.415  24.641  1.00  0.00     0.002 C 
BRANCH  24  25
ATOM     25  C   UNL A   1      38.049  19.441  24.985  1.00  0.00     0.021 C 
BRANCH  25  26
ATOM     26  C   UNL A   1      39.144  20.036  25.863  1.00  0.00     0.116 C 
BRANCH  26  27
ATOM     27  N   UNL A   1      40.283  19.139  25.980  1.00  0.00    -0.352 N 
ATOM     28  C   UNL A   1      41.609  19.440  26.103  1.00  0.00     0.251 C 
ATOM     29  H   UNL A   1      40.067  18.179  25.967  1.00  0.00     0.163 HD
ATOM     30  O   UNL A   1      42.461  18.563  25.952  1.00  0.00    -0.269 OA
BRANCH  28  31
ATOM     31  C   UNL A   1      42.024  20.817  26.421  1.00  0.00     0.039 A 
ATOM     32  C   UNL A   1      42.225  21.173  27.757  1.00  0.00     0.014 A 
ATOM     33  C   UNL A   1      42.173  21.768  25.405  1.00  0.00     0.014 A 
ATOM     34  C   UNL A   1      42.600  22.477  28.073  1.00  0.00     0.010 A 
ATOM     35  C   UNL A   1      42.615  23.049  25.717  1.00  0.00     0.010 A 
ATOM     36  C   UNL A   1      42.810  23.421  27.055  1.00  0.00    -0.014 A 
BRANCH  36  37
ATOM     37  C   UNL A   1      43.178  24.821  27.373  1.00  0.00     0.031 A 
ATOM     38  C   UNL A   1      44.588  25.289  27.137  1.00  0.00     0.074 A 
ATOM     39  C   UNL A   1      42.263  25.649  27.909  1.00  0.00     0.049 A 
ATOM     40  N   UNL A   1      45.137  26.443  27.420  1.00  0.00    -0.248 NA
ATOM     41  C   UNL A   1      45.512  24.321  26.523  1.00  0.00     0.031 C 
ATOM     42  C   UNL A   1      40.876  25.295  28.217  1.00  0.00     0.029 A 
ATOM     43  N   UNL A   1      42.367  26.960  28.302  1.00  0.00    -0.354 N 
ATOM     44  C   UNL A   1      46.465  26.334  27.030  1.00  0.00     0.074 A 
ATOM     45  C   UNL A   1      46.657  24.986  26.544  1.00  0.00     0.031 C 
ATOM     46  C   UNL A   1      40.256  26.365  28.741  1.00  0.00     0.029 A 
ATOM     47  C   UNL A   1      41.207  27.468  28.835  1.00  0.00     0.049 A 
ATOM     48  H   UNL A   1      43.194  27.486  28.211  1.00  0.00     0.167 HD
ATOM     49  C   UNL A   1      47.430  27.283  27.048  1.00  0.00     0.037 A 
ATOM     50  C   UNL A   1      40.950  28.685  29.348  1.00  0.00     0.037 A 
ATOM     51  C   UNL A   1      47.227  28.630  27.511  1.00  0.00     0.049 A 
ATOM     52  C   UNL A   1      42.041  29.723  29.351  1.00  0.00     0.074 A 
ATOM     53  C   UNL A   1      48.134  29.674  27.558  1.00  0.00     0.029 A 
ATOM     54  N   UNL A   1      46.025  29.121  27.999  1.00  0.00    -0.354 N 
ATOM     55  N   UNL A   1      43.281  29.621  28.939  1.00  0.00    -0.248 NA
ATOM     56  C   UNL A   1      41.691  31.050  29.876  1.00  0.00     0.031 C 
ATOM     57  C   UNL A   1      47.488  30.790  28.098  1.00  0.00     0.029 A 
ATOM     58  C   UNL A   1      46.167  30.453  28.346  1.00  0.00     0.049 A 
ATOM     59  H   UNL A   1      45.195  28.599  28.085  1.00  0.00     0.167 HD
ATOM     60  C   UNL A   1      43.847  30.875  29.120  1.00  0.00     0.074 A 
ATOM     61  C   UNL A   1      42.811  31.726  29.666  1.00  0.00     0.031 C 
ATOM     62  C   UNL A   1      45.112  31.288  28.859  1.00  0.00     0.037 A 
BRANCH  49  63
ATOM     63  C   UNL A   1      48.788  26.905  26.532  1.00  0.00     0.064 A 
ATOM     64  C   UNL A   1      49.760  26.350  27.379  1.00  0.00     0.173 A 
ATOM     65  C   UNL A   1      49.105  27.053  25.175  1.00  0.00     0.173 A 
ATOM     66  F   UNL A   1      49.510  26.201  28.687  1.00  0.00    -0.203 F 
ATOM     67  C   UNL A   1      51.007  25.975  26.887  1.00  0.00     0.198 A 
ATOM     68  C   UNL A   1      50.344  26.649  24.681  1.00  0.00     0.198 A 
ATOM     69  F   UNL A   1      48.211  27.574  24.322  1.00  0.00    -0.203 F 
ATOM     70  F   UNL A   1      51.934  25.485  27.722  1.00  0.00    -0.200 F 
ATOM     71  C   UNL A   1      51.296  26.116  25.538  1.00  0.00     0.200 A 
ATOM     72  F   UNL A   1      50.617  26.775  23.375  1.00  0.00    -0.200 F 
ATOM     73  F   UNL A   1      52.492  25.743  25.064  1.00  0.00    -0.200 F 
ENDBRANCH  49  63
BRANCH  50  74
ATOM     74  C   UNL A   1      39.599  29.002  29.884  1.00  0.00     0.064 A 
ATOM     75  C   UNL A   1      38.621  29.594  29.073  1.00  0.00     0.173 A 
ATOM     76  C   UNL A   1      39.270  28.751  31.225  1.00  0.00     0.173 A 
ATOM     77  F   UNL A   1      38.894  29.870  27.789  1.00  0.00    -0.203 F 
ATOM     78  C   UNL A   1      37.378  29.954  29.590  1.00  0.00     0.198 A 
ATOM     79  C   UNL A   1      38.016  29.083  31.732  1.00  0.00     0.198 A 
ATOM     80  F   UNL A   1      40.167  28.179  32.041  1.00  0.00    -0.203 F 
ATOM     81  F   UNL A   1      36.484  30.573  28.807  1.00  0.00    -0.200 F 
ATOM     82  C   UNL A   1      37.075  29.696  30.918  1.00  0.00     0.200 A 
ATOM     83  F   UNL A   1      37.722  28.819  33.012  1.00  0.00    -0.200 F 
ATOM     84  F   UNL A   1      35.883  30.048  31.416  1.00  0.00    -0.200 F 
ENDBRANCH  50  74
BRANCH  62  85
ATOM     85  C   UNL A   1      45.426  32.734  29.103  1.00  0.00     0.064 A 
ATOM     86  C   UNL A   1      45.226  33.711  28.118  1.00  0.00     0.173 A 
ATOM     87  C   UNL A   1      45.899  33.151  30.358  1.00  0.00     0.173 A 
ATOM     88  F   UNL A   1      44.789  33.361  26.899  1.00  0.00    -0.203 F 
ATOM     89  C   UNL A   1      45.515  35.049  28.371  1.00  0.00     0.198 A 
ATOM     90  C   UNL A   1      46.158  34.493  30.616  1.00  0.00     0.198 A 
ATOM     91  F   UNL A   1      46.099  32.255  31.336  1.00  0.00    -0.203 F 
ATOM     92  F   UNL A   1      45.363  35.960  27.398  1.00  0.00    -0.200 F 
ATOM     93  C   UNL A   1      45.973  35.439  29.620  1.00  0.00     0.200 A 
ATOM     94  F   UNL A   1      46.588  34.870  31.828  1.00  0.00    -0.200 F 
ATOM     95  F   UNL A   1      46.245  36.730  29.862  1.00  0.00    -0.200 F 
ENDBRANCH  62  85
ENDBRANCH  36  37
ENDBRANCH  28  31
ENDBRANCH  26  27
ENDBRANCH  25  26
ENDBRANCH  24  25
ENDBRANCH  23  24
ENDBRANCH   1  23
TORSDOF 19
ENDMDL
MODEL 3
REMARK VINA RESULT:     -10.4      6.150     10.517
REMARK SMILES CC[C@@](C)([NH2+]CCC(=O)NC(C)C)C(=O)NCCCCCCNC(=O)c1ccc(-c2c3nc(c(-c4c(F)c(F)c(F)c(F)c4F)c4ccc([nH]4)c(-c4c(F)c(F)c(F)c(F)c4F)c4nc(c(-c5c(F)c(F)c(F)c(F)c5F)c5ccc2[nH]5)C=C4)C=C3)cc1
REMARK SMILES IDX 18 1 17 2 16 3 14 4 15 5 3 7 4 8 2 9 1 10 5 11 6 14 7 15
REMARK SMILES IDX 8 16 9 17 10 18 11 20 12 21 13 22 19 23 20 24 21 25 22 26
REMARK SMILES IDX 23 27 24 28 25 30 26 31 27 32 88 33 28 34 87 35 29 36 30 37
REMARK SMILES IDX 31 38 81 39 32 40 86 41 80 42 82 43 33 44 85 45 79 46 78 47
REMARK SMILES IDX 34 49 66 50 46 51 65 52 47 53 50 54 64 55 83 56 48 57 49 58
REMARK SMILES IDX 63 60 84 61 51 62 35 63 36 64 44 65 37 66 38 67 42 68 45 69
REMARK SMILES IDX 39 70 40 71 43 72 41 73 67 74 68 75 76 76 69 77 70 78 74 79
REMARK SMILES IDX 77 80 71 81 72 82 75 83 73 84 52 85 53 86 61 87 54 88 55 89
REMARK SMILES IDX 59 90 62 91 56 92 57 93 60 94 58 95
REMARK H PARENT 16 6 5 12 5 13 10 19 23 29 82 48 50 59
REMARK Flexibility Score: inf
ROOT
ATOM      1  C   UNL A   1      36.638  22.595  23.800  1.00  0.00     0.021 C 
ENDROOT
BRANCH   1   2
ATOM      2  C   UNL A   1      35.122  22.722  23.912  1.00  0.00     0.116 C 
BRANCH   2   3
ATOM      3  N   UNL A   1      34.773  23.723  24.890  1.00  0.00    -0.351 N 
ATOM      4  C   UNL A   1      33.581  24.011  25.479  1.00  0.00     0.281 C 
ATOM      5  O   UNL A   1      33.548  25.063  26.127  1.00  0.00    -0.268 OA
ATOM      6  H   UNL A   1      35.522  24.291  25.181  1.00  0.00     0.163 HD
BRANCH   4   7
ATOM      7  C   UNL A   1      32.336  23.066  25.359  1.00  0.00     0.172 C 
ATOM      8  C   UNL A   1      31.174  23.645  26.183  1.00  0.00     0.090 C 
BRANCH   7   9
ATOM      9  C   UNL A   1      31.902  23.048  23.842  1.00  0.00     0.075 C 
ATOM     10  C   UNL A   1      30.725  23.937  23.453  1.00  0.00     0.011 C 
ENDBRANCH   7   9
BRANCH   7  11
ATOM     11  N   UNL A   1      32.741  21.646  25.543  1.00  0.00    -0.333 N 
ATOM     12  H   UNL A   1      32.511  21.441  26.516  1.00  0.00     0.347 HD
ATOM     13  H   UNL A   1      33.684  21.712  25.161  1.00  0.00     0.347 HD
BRANCH  11  14
ATOM     14  C   UNL A   1      32.302  20.466  24.808  1.00  0.00     0.271 C 
BRANCH  14  15
ATOM     15  C   UNL A   1      33.090  19.151  24.833  1.00  0.00     0.161 C 
BRANCH  15  16
ATOM     16  C   UNL A   1      32.691  18.091  23.824  1.00  0.00     0.225 C 
ATOM     17  O   UNL A   1      32.196  18.410  22.741  1.00  0.00    -0.275 OA
ATOM     18  N   UNL A   1      32.960  16.775  24.055  1.00  0.00    -0.354 N 
ATOM     19  H   UNL A   1      32.864  16.175  23.280  1.00  0.00     0.163 HD
BRANCH  18  20
ATOM     20  C   UNL A   1      33.370  16.147  25.297  1.00  0.00     0.075 C 
ATOM     21  C   UNL A   1      32.519  14.912  25.563  1.00  0.00     0.030 C 
ATOM     22  C   UNL A   1      34.859  15.833  25.318  1.00  0.00     0.030 C 
ENDBRANCH  18  20
ENDBRANCH  15  16
ENDBRANCH  14  15
ENDBRANCH  11  14
ENDBRANCH   7  11
ENDBRANCH   4   7
ENDBRANCH   2   3
ENDBRANCH   1   2
BRANCH   1  23
ATOM     23  C   UNL A   1      37.242  21.658  24.848  1.00  0.00     0.002 C 
BRANCH  23  24
ATOM     24  C   UNL A   1      36.930  20.175  24.627  1.00  0.00     0.002 C 
BRANCH  24  25
ATOM     25  C   UNL A   1      38.064  19.215  25.001  1.00  0.00     0.021 C 
BRANCH  25  26
ATOM     26  C   UNL A   1      39.216  19.867  25.758  1.00  0.00     0.116 C 
BRANCH  26  27
ATOM     27  N   UNL A   1      40.320  18.942  25.952  1.00  0.00    -0.352 N 
ATOM     28  C   UNL A   1      41.650  19.206  26.116  1.00  0.00     0.251 C 
ATOM     29  H   UNL A   1      40.075  17.988  25.968  1.00  0.00     0.163 HD
ATOM     30  O   UNL A   1      42.478  18.299  26.032  1.00  0.00    -0.269 OA
BRANCH  28  31
ATOM     31  C   UNL A   1      42.096  20.582  26.398  1.00  0.00     0.039 A 
ATOM     32  C   UNL A   1      42.349  21.444  25.329  1.00  0.00     0.014 A 
ATOM     33  C   UNL A   1      42.303  21.007  27.715  1.00  0.00     0.014 A 
ATOM     34  C   UNL A   1      42.788  22.743  25.581  1.00  0.00     0.010 A 
ATOM     35  C   UNL A   1      42.673  22.323  27.966  1.00  0.00     0.010 A 
ATOM     36  C   UNL A   1      42.942  23.195  26.901  1.00  0.00    -0.014 A 
BRANCH  36  37
ATOM     37  C   UNL A   1      43.438  24.562  27.189  1.00  0.00     0.031 A 
ATOM     38  C   UNL A   1      42.490  25.596  27.733  1.00  0.00     0.074 A 
ATOM     39  C   UNL A   1      44.717  24.881  26.923  1.00  0.00     0.049 A 
ATOM     40  N   UNL A   1      42.697  26.865  27.976  1.00  0.00    -0.248 NA
ATOM     41  C   UNL A   1      41.116  25.149  28.017  1.00  0.00     0.031 C 
ATOM     42  C   UNL A   1      45.717  23.972  26.359  1.00  0.00     0.029 A 
ATOM     43  N   UNL A   1      45.394  26.064  27.080  1.00  0.00    -0.354 N 
ATOM     44  C   UNL A   1      41.484  27.365  28.430  1.00  0.00     0.074 A 
ATOM     45  C   UNL A   1      40.529  26.281  28.375  1.00  0.00     0.031 C 
ATOM     46  C   UNL A   1      46.882  24.628  26.227  1.00  0.00     0.029 A 
ATOM     47  C   UNL A   1      46.703  26.008  26.666  1.00  0.00     0.049 A 
ATOM     48  H   UNL A   1      44.981  26.876  27.453  1.00  0.00     0.167 HD
ATOM     49  C   UNL A   1      41.201  28.609  28.881  1.00  0.00     0.037 A 
ATOM     50  C   UNL A   1      47.645  26.969  26.640  1.00  0.00     0.037 A 
ATOM     51  C   UNL A   1      42.161  29.678  28.956  1.00  0.00     0.049 A 
ATOM     52  C   UNL A   1      47.303  28.343  27.152  1.00  0.00     0.074 A 
ATOM     53  C   UNL A   1      41.980  30.972  29.411  1.00  0.00     0.029 A 
ATOM     54  N   UNL A   1      43.489  29.569  28.573  1.00  0.00    -0.354 N 
ATOM     55  N   UNL A   1      46.163  28.792  27.619  1.00  0.00    -0.248 NA
ATOM     56  C   UNL A   1      48.382  29.339  27.147  1.00  0.00     0.031 C 
ATOM     57  C   UNL A   1      43.194  31.655  29.280  1.00  0.00     0.029 A 
ATOM     58  C   UNL A   1      44.140  30.772  28.785  1.00  0.00     0.049 A 
ATOM     59  H   UNL A   1      43.906  28.757  28.206  1.00  0.00     0.167 HD
ATOM     60  C   UNL A   1      46.397  30.107  27.998  1.00  0.00     0.074 A 
ATOM     61  C   UNL A   1      47.791  30.379  27.717  1.00  0.00     0.031 C 
ATOM     62  C   UNL A   1      45.536  31.010  28.527  1.00  0.00     0.037 A 
BRANCH  49  63
ATOM     63  C   UNL A   1      39.800  28.877  29.349  1.00  0.00     0.064 A 
ATOM     64  C   UNL A   1      38.822  29.378  28.475  1.00  0.00     0.173 A 
ATOM     65  C   UNL A   1      39.416  28.588  30.666  1.00  0.00     0.173 A 
ATOM     66  F   UNL A   1      39.142  29.684  27.209  1.00  0.00    -0.203 F 
ATOM     67  C   UNL A   1      37.518  29.597  28.908  1.00  0.00     0.198 A 
ATOM     68  C   UNL A   1      38.103  28.781  31.089  1.00  0.00     0.198 A 
ATOM     69  F   UNL A   1      40.310  28.104  31.542  1.00  0.00    -0.203 F 
ATOM     70  F   UNL A   1      36.612  30.115  28.067  1.00  0.00    -0.200 F 
ATOM     71  C   UNL A   1      37.157  29.290  30.212  1.00  0.00     0.200 A 
ATOM     72  F   UNL A   1      37.752  28.472  32.344  1.00  0.00    -0.200 F 
ATOM     73  F   UNL A   1      35.897  29.490  30.624  1.00  0.00    -0.200 F 
ENDBRANCH  49  63
BRANCH  50  74
ATOM     74  C   UNL A   1      49.009  26.667  26.130  1.00  0.00     0.064 A 
ATOM     75  C   UNL A   1      49.990  26.122  26.971  1.00  0.00     0.173 A 
ATOM     76  C   UNL A   1      49.370  26.947  24.804  1.00  0.00     0.173 A 
ATOM     77  F   UNL A   1      49.698  25.853  28.252  1.00  0.00    -0.203 F 
ATOM     78  C   UNL A   1      51.288  25.901  26.515  1.00  0.00     0.198 A 
ATOM     79  C   UNL A   1      50.660  26.697  24.341  1.00  0.00     0.198 A 
ATOM     80  F   UNL A   1      48.468  27.462  23.956  1.00  0.00    -0.203 F 
ATOM     81  F   UNL A   1      52.220  25.435  27.357  1.00  0.00    -0.200 F 
ATOM     82  C   UNL A   1      51.621  26.186  25.200  1.00  0.00     0.200 A 
ATOM     83  F   UNL A   1      50.974  26.959  23.066  1.00  0.00    -0.200 F 
ATOM     84  F   UNL A   1      52.871  25.979  24.764  1.00  0.00    -0.200 F 
ENDBRANCH  50  74
BRANCH  62  85
ATOM     85  C   UNL A   1      46.092  32.354  28.896  1.00  0.00     0.064 A 
ATOM     86  C   UNL A   1      46.086  33.428  27.997  1.00  0.00     0.173 A 
ATOM     87  C   UNL A   1      46.603  32.575  30.185  1.00  0.00     0.173 A 
ATOM     88  F   UNL A   1      45.622  33.263  26.749  1.00  0.00    -0.203 F 
ATOM     89  C   UNL A   1      46.599  34.670  28.364  1.00  0.00     0.198 A 
ATOM     90  C   UNL A   1      47.086  33.825  30.558  1.00  0.00     0.198 A 
ATOM     91  F   UNL A   1      46.623  31.581  31.085  1.00  0.00    -0.203 F 
ATOM     92  F   UNL A   1      46.629  35.670  27.472  1.00  0.00    -0.200 F 
ATOM     93  C   UNL A   1      47.090  34.869  29.645  1.00  0.00     0.200 A 
ATOM     94  F   UNL A   1      47.549  34.019  31.801  1.00  0.00    -0.200 F 
ATOM     95  F   UNL A   1      47.578  36.066  29.998  1.00  0.00    -0.200 F 
ENDBRANCH  62  85
ENDBRANCH  36  37
ENDBRANCH  28  31
ENDBRANCH  26  27
ENDBRANCH  25  26
ENDBRANCH  24  25
ENDBRANCH  23  24
ENDBRANCH   1  23
TORSDOF 19
ENDMDL
