MODEL 1
REMARK VINA RESULT:     -11.0      0.000      0.000
REMARK SMILES CO[C@H]1C[C@H](C(=O)NCCCCCCNC(=O)c2ccc(-c3c4nc(c(-c5c(F)c(F)c(F)c(F)c5F)c5ccc([nH]5)c(-c5c(F)c(F)c(F)c(F)c5F)c5nc(c(-c6c(F)c(F)c(F)c(F)c6F)c6ccc3[nH]6)C=C5)C=C4)cc2)N(C(=O)CCSCC(N)=O)C1
REMARK SMILES IDX 9 1 8 2 6 3 7 4 5 6 3 7 4 8 91 9 81 10 2 11 1 12 82 13 83 14
REMARK SMILES IDX 84 15 85 16 86 17 87 18 88 19 89 20 90 21 10 24 11 25 12 26
REMARK SMILES IDX 13 27 14 28 15 29 16 30 17 32 18 33 19 34 80 35 20 36 79 37
REMARK SMILES IDX 21 38 22 39 23 40 73 41 24 42 78 43 72 44 74 45 25 46 77 47
REMARK SMILES IDX 71 48 70 49 26 51 58 52 38 53 57 54 39 55 42 56 56 57 75 58
REMARK SMILES IDX 40 59 41 60 55 62 76 63 43 64 27 65 28 66 36 67 29 68 30 69
REMARK SMILES IDX 34 70 37 71 31 72 32 73 35 74 33 75 59 76 60 77 68 78 61 79
REMARK SMILES IDX 62 80 66 81 69 82 63 83 64 84 67 85 65 86 44 87 45 88 53 89
REMARK SMILES IDX 46 90 47 91 51 92 54 93 48 94 49 95 52 96 50 97
REMARK H PARENT 8 5 89 22 89 23 15 31 74 50 42 61
REMARK Flexibility Score: inf
ROOT
ATOM      1  C   UNL A   1      34.259  28.653  26.384  1.00  0.00     0.116 C 
ENDROOT
BRANCH   1   2
ATOM      2  N   UNL A   1      34.200  28.972  24.969  1.00  0.00    -0.354 N 
ATOM      3  C   UNL A   1      33.441  28.558  23.921  1.00  0.00     0.242 C 
ATOM      4  O   UNL A   1      33.725  29.070  22.828  1.00  0.00    -0.273 OA
ATOM      5  H   UNL A   1      34.866  29.648  24.707  1.00  0.00     0.163 HD
BRANCH   3   6
ATOM      6  C   UNL A   1      32.414  27.396  23.938  1.00  0.00     0.177 C 
ATOM      7  C   UNL A   1      30.265  28.040  23.087  1.00  0.00     0.139 C 
ATOM      8  C   UNL A   1      31.033  27.870  24.391  1.00  0.00     0.069 C 
ATOM      9  C   UNL A   1      30.797  26.890  22.231  1.00  0.00     0.152 C 
ATOM     10  N   UNL A   1      32.152  26.647  22.708  1.00  0.00    -0.328 N 
BRANCH   7  11
ATOM     11  O   UNL A   1      28.865  27.949  23.298  1.00  0.00    -0.380 OA
ATOM     12  C   UNL A   1      28.175  29.064  22.742  1.00  0.00     0.195 C 
ENDBRANCH   7  11
BRANCH  10  13
ATOM     13  C   UNL A   1      32.894  25.611  22.182  1.00  0.00     0.224 C 
ATOM     14  O   UNL A   1      33.926  25.834  21.541  1.00  0.00    -0.275 OA
BRANCH  13  15
ATOM     15  C   UNL A   1      32.439  24.181  22.415  1.00  0.00     0.111 C 
BRANCH  15  16
ATOM     16  C   UNL A   1      33.182  23.479  23.549  1.00  0.00     0.080 C 
BRANCH  16  17
ATOM     17  S   UNL A   1      32.119  22.469  24.643  1.00  0.00    -0.152 SA
BRANCH  17  18
ATOM     18  C   UNL A   1      30.976  23.758  25.182  1.00  0.00     0.169 C 
BRANCH  18  19
ATOM     19  C   UNL A   1      30.648  23.751  26.659  1.00  0.00     0.227 C 
ATOM     20  N   UNL A   1      29.336  24.068  26.912  1.00  0.00    -0.369 N 
ATOM     21  O   UNL A   1      31.391  23.424  27.573  1.00  0.00    -0.274 OA
ATOM     22  H   UNL A   1      28.742  24.330  26.174  1.00  0.00     0.159 HD
ATOM     23  H   UNL A   1      28.990  24.032  27.834  1.00  0.00     0.159 HD
ENDBRANCH  18  19
ENDBRANCH  17  18
ENDBRANCH  16  17
ENDBRANCH  15  16
ENDBRANCH  13  15
ENDBRANCH  10  13
ENDBRANCH   3   6
ENDBRANCH   1   2
BRANCH   1  24
ATOM     24  C   UNL A   1      33.683  29.780  27.256  1.00  0.00     0.021 C 
BRANCH  24  25
ATOM     25  C   UNL A   1      32.152  29.871  27.218  1.00  0.00     0.002 C 
BRANCH  25  26
ATOM     26  C   UNL A   1      31.587  30.906  26.233  1.00  0.00     0.002 C 
BRANCH  26  27
ATOM     27  C   UNL A   1      31.388  32.320  26.788  1.00  0.00     0.021 C 
BRANCH  27  28
ATOM     28  C   UNL A   1      32.666  33.060  27.181  1.00  0.00     0.116 C 
BRANCH  28  29
ATOM     29  N   UNL A   1      32.407  34.400  27.682  1.00  0.00    -0.352 N 
ATOM     30  C   UNL A   1      32.986  35.072  28.730  1.00  0.00     0.251 C 
ATOM     31  H   UNL A   1      31.712  34.901  27.197  1.00  0.00     0.163 HD
ATOM     32  O   UNL A   1      32.528  36.146  29.102  1.00  0.00    -0.269 OA
BRANCH  30  33
ATOM     33  C   UNL A   1      34.155  34.496  29.429  1.00  0.00     0.039 A 
ATOM     34  C   UNL A   1      33.949  33.803  30.625  1.00  0.00     0.014 A 
ATOM     35  C   UNL A   1      35.449  34.659  28.926  1.00  0.00     0.014 A 
ATOM     36  C   UNL A   1      35.034  33.225  31.288  1.00  0.00     0.010 A 
ATOM     37  C   UNL A   1      36.521  34.028  29.555  1.00  0.00     0.010 A 
ATOM     38  C   UNL A   1      36.325  33.309  30.743  1.00  0.00    -0.014 A 
BRANCH  38  39
ATOM     39  C   UNL A   1      37.481  32.653  31.404  1.00  0.00     0.031 A 
ATOM     40  C   UNL A   1      38.183  31.505  30.735  1.00  0.00     0.074 A 
ATOM     41  C   UNL A   1      37.858  33.050  32.634  1.00  0.00     0.049 A 
ATOM     42  N   UNL A   1      39.162  30.758  31.181  1.00  0.00    -0.248 NA
ATOM     43  C   UNL A   1      37.704  31.128  29.396  1.00  0.00     0.031 C 
ATOM     44  C   UNL A   1      37.225  34.121  33.406  1.00  0.00     0.029 A 
ATOM     45  N   UNL A   1      38.854  32.592  33.458  1.00  0.00    -0.354 N 
ATOM     46  C   UNL A   1      39.402  29.817  30.188  1.00  0.00     0.074 A 
ATOM     47  C   UNL A   1      38.436  30.054  29.138  1.00  0.00     0.031 C 
ATOM     48  C   UNL A   1      37.858  34.249  34.583  1.00  0.00     0.029 A 
ATOM     49  C   UNL A   1      38.919  33.248  34.663  1.00  0.00     0.049 A 
ATOM     50  H   UNL A   1      39.466  31.861  33.209  1.00  0.00     0.167 HD
ATOM     51  C   UNL A   1      40.356  28.857  30.148  1.00  0.00     0.037 A 
ATOM     52  C   UNL A   1      39.737  33.059  35.716  1.00  0.00     0.037 A 
ATOM     53  C   UNL A   1      41.334  28.644  31.182  1.00  0.00     0.049 A 
ATOM     54  C   UNL A   1      40.795  31.992  35.641  1.00  0.00     0.074 A 
ATOM     55  C   UNL A   1      42.381  27.739  31.207  1.00  0.00     0.029 A 
ATOM     56  N   UNL A   1      41.386  29.348  32.376  1.00  0.00    -0.354 N 
ATOM     57  N   UNL A   1      41.054  31.151  34.670  1.00  0.00    -0.248 NA
ATOM     58  C   UNL A   1      41.681  31.854  36.806  1.00  0.00     0.031 C 
ATOM     59  C   UNL A   1      43.041  27.866  32.434  1.00  0.00     0.029 A 
ATOM     60  C   UNL A   1      42.436  28.884  33.153  1.00  0.00     0.049 A 
ATOM     61  H   UNL A   1      40.769  30.070  32.633  1.00  0.00     0.167 HD
ATOM     62  C   UNL A   1      42.145  30.404  35.093  1.00  0.00     0.074 A 
ATOM     63  C   UNL A   1      42.509  30.901  36.402  1.00  0.00     0.031 C 
ATOM     64  C   UNL A   1      42.788  29.396  34.453  1.00  0.00     0.037 A 
BRANCH  51  65
ATOM     65  C   UNL A   1      40.392  27.963  28.943  1.00  0.00     0.064 A 
ATOM     66  C   UNL A   1      41.164  28.280  27.814  1.00  0.00     0.173 A 
ATOM     67  C   UNL A   1      39.680  26.754  28.929  1.00  0.00     0.173 A 
ATOM     68  F   UNL A   1      41.855  29.431  27.771  1.00  0.00    -0.203 F 
ATOM     69  C   UNL A   1      41.200  27.437  26.708  1.00  0.00     0.198 A 
ATOM     70  C   UNL A   1      39.741  25.898  27.833  1.00  0.00     0.198 A 
ATOM     71  F   UNL A   1      38.931  26.399  29.984  1.00  0.00    -0.203 F 
ATOM     72  F   UNL A   1      41.905  27.785  25.623  1.00  0.00    -0.200 F 
ATOM     73  C   UNL A   1      40.494  26.242  26.721  1.00  0.00     0.200 A 
ATOM     74  F   UNL A   1      39.068  24.738  27.852  1.00  0.00    -0.200 F 
ATOM     75  F   UNL A   1      40.534  25.426  25.658  1.00  0.00    -0.200 F 
ENDBRANCH  51  65
BRANCH  52  76
ATOM     76  C   UNL A   1      39.604  33.917  36.921  1.00  0.00     0.064 A 
ATOM     77  C   UNL A   1      40.236  35.168  36.987  1.00  0.00     0.173 A 
ATOM     78  C   UNL A   1      38.844  33.511  38.028  1.00  0.00     0.173 A 
ATOM     79  F   UNL A   1      40.989  35.592  35.962  1.00  0.00    -0.203 F 
ATOM     80  C   UNL A   1      40.130  35.968  38.123  1.00  0.00     0.198 A 
ATOM     81  C   UNL A   1      38.716  34.324  39.151  1.00  0.00     0.198 A 
ATOM     82  F   UNL A   1      38.215  32.327  38.011  1.00  0.00    -0.203 F 
ATOM     83  F   UNL A   1      40.779  37.140  38.177  1.00  0.00    -0.200 F 
ATOM     84  C   UNL A   1      39.365  35.550  39.201  1.00  0.00     0.200 A 
ATOM     85  F   UNL A   1      37.965  33.923  40.185  1.00  0.00    -0.200 F 
ATOM     86  F   UNL A   1      39.259  36.323  40.291  1.00  0.00    -0.200 F 
ENDBRANCH  52  76
BRANCH  64  87
ATOM     87  C   UNL A   1      43.971  28.786  35.146  1.00  0.00     0.064 A 
ATOM     88  C   UNL A   1      45.267  29.290  34.972  1.00  0.00     0.173 A 
ATOM     89  C   UNL A   1      43.797  27.709  36.028  1.00  0.00     0.173 A 
ATOM     90  F   UNL A   1      45.486  30.310  34.127  1.00  0.00    -0.203 F 
ATOM     91  C   UNL A   1      46.351  28.723  35.636  1.00  0.00     0.198 A 
ATOM     92  C   UNL A   1      44.878  27.162  36.713  1.00  0.00     0.198 A 
ATOM     93  F   UNL A   1      42.575  27.193  36.234  1.00  0.00    -0.203 F 
ATOM     94  F   UNL A   1      47.587  29.192  35.420  1.00  0.00    -0.200 F 
ATOM     95  C   UNL A   1      46.154  27.664  36.511  1.00  0.00     0.200 A 
ATOM     96  F   UNL A   1      44.685  26.148  37.567  1.00  0.00    -0.200 F 
ATOM     97  F   UNL A   1      47.198  27.123  37.156  1.00  0.00    -0.200 F 
ENDBRANCH  64  87
ENDBRANCH  38  39
ENDBRANCH  30  33
ENDBRANCH  28  29
ENDBRANCH  27  28
ENDBRANCH  26  27
ENDBRANCH  25  26
ENDBRANCH  24  25
ENDBRANCH   1  24
TORSDOF 20
ENDMDL
MODEL 2
REMARK VINA RESULT:     -10.9      1.696      7.816
REMARK SMILES CO[C@H]1C[C@H](C(=O)NCCCCCCNC(=O)c2ccc(-c3c4nc(c(-c5c(F)c(F)c(F)c(F)c5F)c5ccc([nH]5)c(-c5c(F)c(F)c(F)c(F)c5F)c5nc(c(-c6c(F)c(F)c(F)c(F)c6F)c6ccc3[nH]6)C=C5)C=C4)cc2)N(C(=O)CCSCC(N)=O)C1
REMARK SMILES IDX 9 1 8 2 6 3 7 4 5 6 3 7 4 8 91 9 81 10 2 11 1 12 82 13 83 14
REMARK SMILES IDX 84 15 85 16 86 17 87 18 88 19 89 20 90 21 10 24 11 25 12 26
REMARK SMILES IDX 13 27 14 28 15 29 16 30 17 32 18 33 19 34 80 35 20 36 79 37
REMARK SMILES IDX 21 38 22 39 23 40 73 41 24 42 78 43 72 44 74 45 25 46 77 47
REMARK SMILES IDX 71 48 70 49 26 51 58 52 38 53 57 54 39 55 42 56 56 57 75 58
REMARK SMILES IDX 40 59 41 60 55 62 76 63 43 64 27 65 28 66 36 67 29 68 30 69
REMARK SMILES IDX 34 70 37 71 31 72 32 73 35 74 33 75 59 76 60 77 68 78 61 79
REMARK SMILES IDX 62 80 66 81 69 82 63 83 64 84 67 85 65 86 44 87 45 88 53 89
REMARK SMILES IDX 46 90 47 91 51 92 54 93 48 94 49 95 52 96 50 97
REMARK H PARENT 8 5 89 22 89 23 15 31 74 50 42 61
REMARK Flexibility Score: inf
ROOT
ATOM      1  C   UNL A   1      33.331  28.608  24.851  1.00  0.00     0.116 C 
ENDROOT
BRANCH   1   2
ATOM      2  N   UNL A   1      33.982  27.348  24.540  1.00  0.00    -0.354 N 
ATOM      3  C   UNL A   1      33.562  26.126  24.121  1.00  0.00     0.242 C 
ATOM      4  O   UNL A   1      34.456  25.276  23.990  1.00  0.00    -0.273 OA
ATOM      5  H   UNL A   1      34.959  27.388  24.661  1.00  0.00     0.163 HD
BRANCH   3   6
ATOM      6  C   UNL A   1      32.088  25.663  23.985  1.00  0.00     0.177 C 
ATOM      7  C   UNL A   1      30.990  25.416  26.104  1.00  0.00     0.139 C 
ATOM      8  C   UNL A   1      31.726  24.615  25.038  1.00  0.00     0.069 C 
ATOM      9  C   UNL A   1      30.218  26.445  25.279  1.00  0.00     0.152 C 
ATOM     10  N   UNL A   1      31.011  26.650  24.074  1.00  0.00    -0.328 N 
BRANCH   7  11
ATOM     11  O   UNL A   1      30.131  24.586  26.870  1.00  0.00    -0.380 OA
ATOM     12  C   UNL A   1      30.353  23.206  26.600  1.00  0.00     0.195 C 
ENDBRANCH   7  11
BRANCH  10  13
ATOM     13  C   UNL A   1      30.549  27.480  23.076  1.00  0.00     0.224 C 
ATOM     14  O   UNL A   1      30.768  27.224  21.888  1.00  0.00    -0.275 OA
BRANCH  13  15
ATOM     15  C   UNL A   1      29.744  28.713  23.452  1.00  0.00     0.111 C 
BRANCH  15  16
ATOM     16  C   UNL A   1      28.378  28.782  22.774  1.00  0.00     0.080 C 
BRANCH  16  17
ATOM     17  S   UNL A   1      28.028  30.367  21.929  1.00  0.00    -0.152 SA
BRANCH  17  18
ATOM     18  C   UNL A   1      28.947  31.470  23.025  1.00  0.00     0.169 C 
BRANCH  18  19
ATOM     19  C   UNL A   1      28.762  32.947  22.753  1.00  0.00     0.227 C 
ATOM     20  N   UNL A   1      29.605  33.733  23.499  1.00  0.00    -0.369 N 
ATOM     21  O   UNL A   1      28.028  33.452  21.916  1.00  0.00    -0.274 OA
ATOM     22  H   UNL A   1      30.194  33.322  24.171  1.00  0.00     0.159 HD
ATOM     23  H   UNL A   1      29.621  34.709  23.360  1.00  0.00     0.159 HD
ENDBRANCH  18  19
ENDBRANCH  17  18
ENDBRANCH  16  17
ENDBRANCH  15  16
ENDBRANCH  13  15
ENDBRANCH  10  13
ENDBRANCH   3   6
ENDBRANCH   1   2
BRANCH   1  24
ATOM     24  C   UNL A   1      33.098  28.782  26.360  1.00  0.00     0.021 C 
BRANCH  24  25
ATOM     25  C   UNL A   1      31.781  29.488  26.706  1.00  0.00     0.002 C 
BRANCH  25  26
ATOM     26  C   UNL A   1      31.426  30.679  25.803  1.00  0.00     0.002 C 
BRANCH  26  27
ATOM     27  C   UNL A   1      31.318  32.040  26.500  1.00  0.00     0.021 C 
BRANCH  27  28
ATOM     28  C   UNL A   1      32.569  32.498  27.248  1.00  0.00     0.116 C 
BRANCH  28  29
ATOM     29  N   UNL A   1      32.529  33.909  27.596  1.00  0.00    -0.352 N 
ATOM     30  C   UNL A   1      33.277  34.609  28.510  1.00  0.00     0.251 C 
ATOM     31  H   UNL A   1      31.867  34.443  27.100  1.00  0.00     0.163 HD
ATOM     32  O   UNL A   1      32.994  35.772  28.776  1.00  0.00    -0.269 OA
BRANCH  30  33
ATOM     33  C   UNL A   1      34.415  33.960  29.195  1.00  0.00     0.039 A 
ATOM     34  C   UNL A   1      34.151  33.040  30.214  1.00  0.00     0.014 A 
ATOM     35  C   UNL A   1      35.734  34.272  28.856  1.00  0.00     0.014 A 
ATOM     36  C   UNL A   1      35.209  32.391  30.855  1.00  0.00     0.010 A 
ATOM     37  C   UNL A   1      36.786  33.579  29.452  1.00  0.00     0.010 A 
ATOM     38  C   UNL A   1      36.534  32.635  30.459  1.00  0.00    -0.014 A 
BRANCH  38  39
ATOM     39  C   UNL A   1      37.668  31.914  31.090  1.00  0.00     0.031 A 
ATOM     40  C   UNL A   1      38.108  32.269  32.483  1.00  0.00     0.074 A 
ATOM     41  C   UNL A   1      38.341  30.985  30.385  1.00  0.00     0.049 A 
ATOM     42  N   UNL A   1      39.118  31.807  33.176  1.00  0.00    -0.248 NA
ATOM     43  C   UNL A   1      37.324  33.301  33.179  1.00  0.00     0.031 C 
ATOM     44  C   UNL A   1      38.040  30.587  29.009  1.00  0.00     0.029 A 
ATOM     45  N   UNL A   1      39.427  30.216  30.723  1.00  0.00    -0.354 N 
ATOM     46  C   UNL A   1      39.100  32.501  34.379  1.00  0.00     0.074 A 
ATOM     47  C   UNL A   1      38.010  33.450  34.303  1.00  0.00     0.031 C 
ATOM     48  C   UNL A   1      38.908  29.636  28.626  1.00  0.00     0.029 A 
ATOM     49  C   UNL A   1      39.847  29.382  29.716  1.00  0.00     0.049 A 
ATOM     50  H   UNL A   1      39.863  30.258  31.605  1.00  0.00     0.167 HD
ATOM     51  C   UNL A   1      39.905  32.345  35.457  1.00  0.00     0.037 A 
ATOM     52  C   UNL A   1      40.877  28.516  29.673  1.00  0.00     0.037 A 
ATOM     53  C   UNL A   1      40.968  31.378  35.538  1.00  0.00     0.049 A 
ATOM     54  C   UNL A   1      41.750  28.355  30.888  1.00  0.00     0.074 A 
ATOM     55  C   UNL A   1      41.800  31.100  36.609  1.00  0.00     0.029 A 
ATOM     56  N   UNL A   1      41.346  30.531  34.508  1.00  0.00    -0.354 N 
ATOM     57  N   UNL A   1      41.683  28.970  32.043  1.00  0.00    -0.248 NA
ATOM     58  C   UNL A   1      42.838  27.370  30.796  1.00  0.00     0.031 C 
ATOM     59  C   UNL A   1      42.709  30.112  36.212  1.00  0.00     0.029 A 
ATOM     60  C   UNL A   1      42.412  29.741  34.910  1.00  0.00     0.049 A 
ATOM     61  H   UNL A   1      40.920  30.495  33.621  1.00  0.00     0.167 HD
ATOM     62  C   UNL A   1      42.698  28.432  32.822  1.00  0.00     0.074 A 
ATOM     63  C   UNL A   1      43.357  27.428  32.014  1.00  0.00     0.031 C 
ATOM     64  C   UNL A   1      43.051  28.742  34.094  1.00  0.00     0.037 A 
BRANCH  51  65
ATOM     65  C   UNL A   1      39.665  33.238  36.639  1.00  0.00     0.064 A 
ATOM     66  C   UNL A   1      38.736  32.904  37.637  1.00  0.00     0.173 A 
ATOM     67  C   UNL A   1      40.401  34.421  36.800  1.00  0.00     0.173 A 
ATOM     68  F   UNL A   1      37.998  31.788  37.525  1.00  0.00    -0.203 F 
ATOM     69  C   UNL A   1      38.532  33.734  38.735  1.00  0.00     0.198 A 
ATOM     70  C   UNL A   1      40.216  35.236  37.914  1.00  0.00     0.198 A 
ATOM     71  F   UNL A   1      41.306  34.785  35.879  1.00  0.00    -0.203 F 
ATOM     72  F   UNL A   1      37.605  33.419  39.649  1.00  0.00    -0.200 F 
ATOM     73  C   UNL A   1      39.278  34.896  38.877  1.00  0.00     0.200 A 
ATOM     74  F   UNL A   1      40.946  36.351  38.056  1.00  0.00    -0.200 F 
ATOM     75  F   UNL A   1      39.087  35.691  39.939  1.00  0.00    -0.200 F 
ENDBRANCH  51  65
BRANCH  52  76
ATOM     76  C   UNL A   1      41.122  27.716  28.446  1.00  0.00     0.064 A 
ATOM     77  C   UNL A   1      42.022  28.158  27.466  1.00  0.00     0.173 A 
ATOM     78  C   UNL A   1      40.468  26.495  28.228  1.00  0.00     0.173 A 
ATOM     79  F   UNL A   1      42.657  29.329  27.621  1.00  0.00    -0.203 F 
ATOM     80  C   UNL A   1      42.242  27.421  26.305  1.00  0.00     0.198 A 
ATOM     81  C   UNL A   1      40.709  25.744  27.080  1.00  0.00     0.198 A 
ATOM     82  F   UNL A   1      39.603  26.024  29.139  1.00  0.00    -0.203 F 
ATOM     83  F   UNL A   1      43.075  27.888  25.365  1.00  0.00    -0.200 F 
ATOM     84  C   UNL A   1      41.591  26.211  26.115  1.00  0.00     0.200 A 
ATOM     85  F   UNL A   1      40.090  24.569  26.907  1.00  0.00    -0.200 F 
ATOM     86  F   UNL A   1      41.807  25.499  25.001  1.00  0.00    -0.200 F 
ENDBRANCH  52  76
BRANCH  64  87
ATOM     87  C   UNL A   1      44.183  27.965  34.701  1.00  0.00     0.064 A 
ATOM     88  C   UNL A   1      45.507  28.418  34.632  1.00  0.00     0.173 A 
ATOM     89  C   UNL A   1      43.930  26.772  35.396  1.00  0.00     0.173 A 
ATOM     90  F   UNL A   1      45.801  29.545  33.966  1.00  0.00    -0.203 F 
ATOM     91  C   UNL A   1      46.543  27.693  35.216  1.00  0.00     0.198 A 
ATOM     92  C   UNL A   1      44.964  26.065  36.004  1.00  0.00     0.198 A 
ATOM     93  F   UNL A   1      42.679  26.299  35.496  1.00  0.00    -0.203 F 
ATOM     94  F   UNL A   1      47.807  28.121  35.099  1.00  0.00    -0.200 F 
ATOM     95  C   UNL A   1      46.269  26.522  35.907  1.00  0.00     0.200 A 
ATOM     96  F   UNL A   1      44.696  24.940  36.681  1.00  0.00    -0.200 F 
ATOM     97  F   UNL A   1      47.266  25.828  36.474  1.00  0.00    -0.200 F 
ENDBRANCH  64  87
ENDBRANCH  38  39
ENDBRANCH  30  33
ENDBRANCH  28  29
ENDBRANCH  27  28
ENDBRANCH  26  27
ENDBRANCH  25  26
ENDBRANCH  24  25
ENDBRANCH   1  24
TORSDOF 20
ENDMDL
MODEL 3
REMARK VINA RESULT:     -10.8      1.505      7.476
REMARK SMILES CO[C@H]1C[C@H](C(=O)NCCCCCCNC(=O)c2ccc(-c3c4nc(c(-c5c(F)c(F)c(F)c(F)c5F)c5ccc([nH]5)c(-c5c(F)c(F)c(F)c(F)c5F)c5nc(c(-c6c(F)c(F)c(F)c(F)c6F)c6ccc3[nH]6)C=C5)C=C4)cc2)N(C(=O)CCSCC(N)=O)C1
REMARK SMILES IDX 9 1 8 2 6 3 7 4 5 6 3 7 4 8 91 9 81 10 2 11 1 12 82 13 83 14
REMARK SMILES IDX 84 15 85 16 86 17 87 18 88 19 89 20 90 21 10 24 11 25 12 26
REMARK SMILES IDX 13 27 14 28 15 29 16 30 17 32 18 33 19 34 80 35 20 36 79 37
REMARK SMILES IDX 21 38 22 39 23 40 73 41 24 42 78 43 72 44 74 45 25 46 77 47
REMARK SMILES IDX 71 48 70 49 26 51 58 52 38 53 57 54 39 55 42 56 56 57 75 58
REMARK SMILES IDX 40 59 41 60 55 62 76 63 43 64 27 65 28 66 36 67 29 68 30 69
REMARK SMILES IDX 34 70 37 71 31 72 32 73 35 74 33 75 59 76 60 77 68 78 61 79
REMARK SMILES IDX 62 80 66 81 69 82 63 83 64 84 67 85 65 86 44 87 45 88 53 89
REMARK SMILES IDX 46 90 47 91 51 92 54 93 48 94 49 95 52 96 50 97
REMARK H PARENT 8 5 89 22 89 23 15 31 74 50 42 61
REMARK Flexibility Score: inf
ROOT
ATOM      1  C   UNL A   1      33.523  30.436  27.171  1.00  0.00     0.116 C 
ENDROOT
BRANCH   1   2
ATOM      2  N   UNL A   1      33.786  29.857  25.866  1.00  0.00    -0.354 N 
ATOM      3  C   UNL A   1      33.031  29.252  24.913  1.00  0.00     0.242 C 
ATOM      4  O   UNL A   1      33.654  28.862  23.914  1.00  0.00    -0.273 OA
ATOM      5  H   UNL A   1      34.735  29.918  25.611  1.00  0.00     0.163 HD
BRANCH   3   6
ATOM      6  C   UNL A   1      31.540  28.846  25.048  1.00  0.00     0.177 C 
ATOM      7  C   UNL A   1      30.460  28.548  22.926  1.00  0.00     0.139 C 
ATOM      8  C   UNL A   1      30.662  29.576  24.031  1.00  0.00     0.069 C 
ATOM      9  C   UNL A   1      30.368  27.234  23.702  1.00  0.00     0.152 C 
ATOM     10  N   UNL A   1      31.160  27.440  24.908  1.00  0.00    -0.328 N 
BRANCH   7  11
ATOM     11  O   UNL A   1      29.281  28.816  22.182  1.00  0.00    -0.380 OA
ATOM     12  C   UNL A   1      28.112  28.686  22.984  1.00  0.00     0.195 C 
ENDBRANCH   7  11
BRANCH  10  13
ATOM     13  C   UNL A   1      31.225  26.453  25.868  1.00  0.00     0.224 C 
ATOM     14  O   UNL A   1      30.239  26.174  26.556  1.00  0.00    -0.275 OA
BRANCH  13  15
ATOM     15  C   UNL A   1      32.525  25.691  26.060  1.00  0.00     0.111 C 
BRANCH  15  16
ATOM     16  C   UNL A   1      32.490  24.270  25.504  1.00  0.00     0.080 C 
BRANCH  16  17
ATOM     17  S   UNL A   1      33.839  23.879  24.331  1.00  0.00    -0.152 SA
BRANCH  17  18
ATOM     18  C   UNL A   1      33.798  25.396  23.352  1.00  0.00     0.169 C 
BRANCH  18  19
ATOM     19  C   UNL A   1      33.085  25.284  22.022  1.00  0.00     0.227 C 
ATOM     20  N   UNL A   1      32.021  24.418  22.063  1.00  0.00    -0.369 N 
ATOM     21  O   UNL A   1      33.319  25.927  21.009  1.00  0.00    -0.274 OA
ATOM     22  H   UNL A   1      31.836  23.904  22.880  1.00  0.00     0.159 HD
ATOM     23  H   UNL A   1      31.441  24.314  21.273  1.00  0.00     0.159 HD
ENDBRANCH  18  19
ENDBRANCH  17  18
ENDBRANCH  16  17
ENDBRANCH  15  16
ENDBRANCH  13  15
ENDBRANCH  10  13
ENDBRANCH   3   6
ENDBRANCH   1   2
BRANCH   1  24
ATOM     24  C   UNL A   1      34.684  31.319  27.657  1.00  0.00     0.021 C 
BRANCH  24  25
ATOM     25  C   UNL A   1      34.307  32.257  28.811  1.00  0.00     0.002 C 
BRANCH  25  26
ATOM     26  C   UNL A   1      34.392  33.755  28.484  1.00  0.00     0.002 C 
BRANCH  26  27
ATOM     27  C   UNL A   1      33.110  34.564  28.711  1.00  0.00     0.021 C 
BRANCH  27  28
ATOM     28  C   UNL A   1      33.309  35.968  29.280  1.00  0.00     0.116 C 
BRANCH  28  29
ATOM     29  N   UNL A   1      32.550  36.192  30.500  1.00  0.00    -0.352 N 
ATOM     30  C   UNL A   1      32.745  35.683  31.760  1.00  0.00     0.251 C 
ATOM     31  H   UNL A   1      31.782  36.800  30.408  1.00  0.00     0.163 HD
ATOM     32  O   UNL A   1      31.906  35.866  32.635  1.00  0.00    -0.269 OA
BRANCH  30  33
ATOM     33  C   UNL A   1      33.959  34.896  32.065  1.00  0.00     0.039 A 
ATOM     34  C   UNL A   1      35.200  35.538  32.048  1.00  0.00     0.014 A 
ATOM     35  C   UNL A   1      33.881  33.528  32.340  1.00  0.00     0.014 A 
ATOM     36  C   UNL A   1      36.357  34.822  32.363  1.00  0.00     0.010 A 
ATOM     37  C   UNL A   1      35.027  32.830  32.715  1.00  0.00     0.010 A 
ATOM     38  C   UNL A   1      36.276  33.469  32.726  1.00  0.00    -0.014 A 
BRANCH  38  39
ATOM     39  C   UNL A   1      37.488  32.706  33.117  1.00  0.00     0.031 A 
ATOM     40  C   UNL A   1      38.184  33.005  34.415  1.00  0.00     0.074 A 
ATOM     41  C   UNL A   1      37.998  31.787  32.274  1.00  0.00     0.049 A 
ATOM     42  N   UNL A   1      39.292  32.501  34.897  1.00  0.00    -0.248 NA
ATOM     43  C   UNL A   1      37.567  34.028  35.274  1.00  0.00     0.031 C 
ATOM     44  C   UNL A   1      37.440  31.441  30.966  1.00  0.00     0.029 A 
ATOM     45  N   UNL A   1      39.107  30.987  32.384  1.00  0.00    -0.354 N 
ATOM     46  C   UNL A   1      39.512  33.155  36.103  1.00  0.00     0.074 A 
ATOM     47  C   UNL A   1      38.451  34.127  36.256  1.00  0.00     0.031 C 
ATOM     48  C   UNL A   1      38.199  30.488  30.402  1.00  0.00     0.029 A 
ATOM     49  C   UNL A   1      39.315  30.179  31.293  1.00  0.00     0.049 A 
ATOM     50  H   UNL A   1      39.698  30.991  33.171  1.00  0.00     0.167 HD
ATOM     51  C   UNL A   1      40.496  32.948  37.009  1.00  0.00     0.037 A 
ATOM     52  C   UNL A   1      40.297  29.295  31.037  1.00  0.00     0.037 A 
ATOM     53  C   UNL A   1      41.532  31.958  36.866  1.00  0.00     0.049 A 
ATOM     54  C   UNL A   1      41.374  29.077  32.065  1.00  0.00     0.074 A 
ATOM     55  C   UNL A   1      42.539  31.628  37.757  1.00  0.00     0.029 A 
ATOM     56  N   UNL A   1      41.694  31.139  35.759  1.00  0.00    -0.354 N 
ATOM     57  N   UNL A   1      41.534  29.655  33.230  1.00  0.00    -0.248 NA
ATOM     58  C   UNL A   1      42.401  28.075  31.746  1.00  0.00     0.031 C 
ATOM     59  C   UNL A   1      43.334  30.637  37.171  1.00  0.00     0.029 A 
ATOM     60  C   UNL A   1      42.795  30.316  35.936  1.00  0.00     0.049 A 
ATOM     61  H   UNL A   1      41.111  31.141  34.965  1.00  0.00     0.167 HD
ATOM     62  C   UNL A   1      42.661  29.071  33.794  1.00  0.00     0.074 A 
ATOM     63  C   UNL A   1      43.136  28.082  32.849  1.00  0.00     0.031 C 
ATOM     64  C   UNL A   1      43.249  29.332  34.987  1.00  0.00     0.037 A 
BRANCH  51  65
ATOM     65  C   UNL A   1      40.500  33.805  38.241  1.00  0.00     0.064 A 
ATOM     66  C   UNL A   1      41.280  34.968  38.326  1.00  0.00     0.173 A 
ATOM     67  C   UNL A   1      39.682  33.484  39.335  1.00  0.00     0.173 A 
ATOM     68  F   UNL A   1      42.089  35.314  37.311  1.00  0.00    -0.203 F 
ATOM     69  C   UNL A   1      41.264  35.762  39.469  1.00  0.00     0.198 A 
ATOM     70  C   UNL A   1      39.646  34.296  40.466  1.00  0.00     0.198 A 
ATOM     71  F   UNL A   1      38.911  32.387  39.304  1.00  0.00    -0.203 F 
ATOM     72  F   UNL A   1      42.055  36.841  39.546  1.00  0.00    -0.200 F 
ATOM     73  C   UNL A   1      40.441  35.430  40.536  1.00  0.00     0.200 A 
ATOM     74  F   UNL A   1      38.840  33.980  41.490  1.00  0.00    -0.200 F 
ATOM     75  F   UNL A   1      40.420  36.198  41.633  1.00  0.00    -0.200 F 
ENDBRANCH  51  65
BRANCH  52  76
ATOM     76  C   UNL A   1      40.294  28.532  29.763  1.00  0.00     0.064 A 
ATOM     77  C   UNL A   1      41.005  28.992  28.645  1.00  0.00     0.173 A 
ATOM     78  C   UNL A   1      39.585  27.328  29.634  1.00  0.00     0.173 A 
ATOM     79  F   UNL A   1      41.682  30.148  28.713  1.00  0.00    -0.203 F 
ATOM     80  C   UNL A   1      40.989  28.290  27.442  1.00  0.00     0.198 A 
ATOM     81  C   UNL A   1      39.593  26.612  28.440  1.00  0.00     0.198 A 
ATOM     82  F   UNL A   1      38.895  26.841  30.676  1.00  0.00    -0.203 F 
ATOM     83  F   UNL A   1      41.643  28.774  26.377  1.00  0.00    -0.200 F 
ATOM     84  C   UNL A   1      40.289  27.097  27.342  1.00  0.00     0.200 A 
ATOM     85  F   UNL A   1      38.928  25.452  28.351  1.00  0.00    -0.200 F 
ATOM     86  F   UNL A   1      40.280  26.418  26.186  1.00  0.00    -0.200 F 
ENDBRANCH  52  76
BRANCH  64  87
ATOM     87  C   UNL A   1      44.452  28.513  35.353  1.00  0.00     0.064 A 
ATOM     88  C   UNL A   1      45.751  28.931  35.035  1.00  0.00     0.173 A 
ATOM     89  C   UNL A   1      44.303  27.315  36.069  1.00  0.00     0.173 A 
ATOM     90  F   UNL A   1      45.944  30.062  34.338  1.00  0.00    -0.203 F 
ATOM     91  C   UNL A   1      46.858  28.168  35.397  1.00  0.00     0.198 A 
ATOM     92  C   UNL A   1      45.413  26.569  36.455  1.00  0.00     0.198 A 
ATOM     93  F   UNL A   1      43.081  26.874  36.403  1.00  0.00    -0.203 F 
ATOM     94  F   UNL A   1      48.088  28.563  35.042  1.00  0.00    -0.200 F 
ATOM     95  C   UNL A   1      46.688  26.992  36.112  1.00  0.00     0.200 A 
ATOM     96  F   UNL A   1      45.248  25.439  37.157  1.00  0.00    -0.200 F 
ATOM     97  F   UNL A   1      47.755  26.261  36.467  1.00  0.00    -0.200 F 
ENDBRANCH  64  87
ENDBRANCH  38  39
ENDBRANCH  30  33
ENDBRANCH  28  29
ENDBRANCH  27  28
ENDBRANCH  26  27
ENDBRANCH  25  26
ENDBRANCH  24  25
ENDBRANCH   1  24
TORSDOF 20
ENDMDL
