MODEL 1
REMARK VINA RESULT:     -12.6      0.000      0.000
REMARK SMILES Cc1cc(Cl)cc2c1O[C@H](C(F)(F)F)C(C(=O)NCCCCCCNC(=O)c1ccc(-c3c4nc(c(-c5c(F)c(F)c(F)c(F)c5F)c5ccc([nH]5)c(-c5c(F)c(F)c(F)c(F)c5F)c5nc(c(-c6c(F)c(F)c(F)c(F)c6F)c6ccc3[nH]6)C=C5)C=C4)cc1)=C2
REMARK SMILES IDX 22 1 21 2 20 3 19 4 18 5 16 6 17 7 15 9 1 10 2 11 3 12 8 13
REMARK SMILES IDX 4 14 7 15 9 16 5 17 6 18 91 19 10 20 11 21 12 22 13 23 14 24
REMARK SMILES IDX 23 25 24 26 25 27 26 28 27 30 28 31 29 32 90 33 30 34 89 35
REMARK SMILES IDX 31 36 32 37 33 38 83 39 34 40 88 41 82 42 84 43 35 44 87 45
REMARK SMILES IDX 81 46 80 47 36 49 68 50 48 51 67 52 49 53 52 54 66 55 85 56
REMARK SMILES IDX 50 57 51 58 65 60 86 61 53 62 37 63 38 64 46 65 39 66 40 67
REMARK SMILES IDX 44 68 47 69 41 70 42 71 45 72 43 73 69 74 70 75 78 76 71 77
REMARK SMILES IDX 72 78 76 79 79 80 73 81 74 82 77 83 75 84 54 85 55 86 63 87
REMARK SMILES IDX 56 88 57 89 61 90 64 91 58 92 59 93 62 94 60 95
REMARK H PARENT 18 8 25 29 84 48 52 59
REMARK Flexibility Score: inf
ROOT
ATOM      1  C   UNL A   1      31.153  27.988  25.638  1.00  0.00     0.002 C 
ENDROOT
BRANCH   1   2
ATOM      2  C   UNL A   1      31.225  28.551  24.212  1.00  0.00     0.002 C 
BRANCH   2   3
ATOM      3  C   UNL A   1      30.313  27.858  23.198  1.00  0.00     0.021 C 
BRANCH   3   4
ATOM      4  C   UNL A   1      30.662  26.392  22.972  1.00  0.00     0.116 C 
BRANCH   4   5
ATOM      5  N   UNL A   1      31.587  26.222  21.865  1.00  0.00    -0.352 N 
ATOM      6  C   UNL A   1      32.645  25.431  21.570  1.00  0.00     0.251 C 
ATOM      7  O   UNL A   1      33.141  25.610  20.453  1.00  0.00    -0.270 OA
ATOM      8  H   UNL A   1      31.392  26.851  21.133  1.00  0.00     0.163 HD
BRANCH   6   9
ATOM      9  C   UNL A   1      33.225  24.400  22.480  1.00  0.00     0.067 C 
ATOM     10  C   UNL A   1      36.174  21.520  25.569  1.00  0.00     0.048 C 
ATOM     11  C   UNL A   1      34.896  21.313  24.806  1.00  0.00    -0.007 A 
ATOM     12  C   UNL A   1      34.200  20.105  24.933  1.00  0.00     0.027 A 
ATOM     13  C   UNL A   1      34.341  22.327  24.013  1.00  0.00     0.131 A 
ATOM     14  C   UNL A   1      32.997  19.913  24.253  1.00  0.00     0.042 A 
ATOM     15  C   UNL A   1      33.140  22.136  23.323  1.00  0.00     0.019 A 
ATOM     16  O   UNL A   1      35.058  23.482  23.914  1.00  0.00    -0.475 OA
ATOM     17  Cl  UNL A   1      32.163  18.416  24.408  1.00  0.00    -0.084 Cl
ATOM     18  C   UNL A   1      32.466  20.919  23.445  1.00  0.00     0.032 A 
ATOM     19  C   UNL A   1      32.630  23.192  22.456  1.00  0.00     0.025 C 
ATOM     20  C   UNL A   1      34.378  24.653  23.405  1.00  0.00     0.314 C 
BRANCH  20  21
ATOM     21  C   UNL A   1      34.011  25.567  24.587  1.00  0.00     0.429 C 
ATOM     22  F   UNL A   1      32.774  25.258  25.054  1.00  0.00    -0.167 F 
ATOM     23  F   UNL A   1      34.854  25.437  25.637  1.00  0.00    -0.167 F 
ATOM     24  F   UNL A   1      34.002  26.876  24.248  1.00  0.00    -0.167 F 
ENDBRANCH  20  21
ENDBRANCH   6   9
ENDBRANCH   4   5
ENDBRANCH   3   4
ENDBRANCH   2   3
ENDBRANCH   1   2
BRANCH   1  25
ATOM     25  C   UNL A   1      31.952  28.768  26.686  1.00  0.00     0.021 C 
BRANCH  25  26
ATOM     26  C   UNL A   1      33.054  29.644  26.106  1.00  0.00     0.116 C 
BRANCH  26  27
ATOM     27  N   UNL A   1      32.842  31.050  26.409  1.00  0.00    -0.352 N 
ATOM     28  C   UNL A   1      33.491  31.848  27.312  1.00  0.00     0.251 C 
ATOM     29  H   UNL A   1      32.129  31.489  25.892  1.00  0.00     0.163 HD
ATOM     30  O   UNL A   1      33.040  32.952  27.607  1.00  0.00    -0.269 OA
BRANCH  28  31
ATOM     31  C   UNL A   1      34.735  31.367  27.942  1.00  0.00     0.039 A 
ATOM     32  C   UNL A   1      35.836  32.224  28.007  1.00  0.00     0.014 A 
ATOM     33  C   UNL A   1      34.811  30.072  28.463  1.00  0.00     0.014 A 
ATOM     34  C   UNL A   1      37.002  31.795  28.640  1.00  0.00     0.010 A 
ATOM     35  C   UNL A   1      35.945  29.675  29.162  1.00  0.00     0.010 A 
ATOM     36  C   UNL A   1      37.056  30.527  29.244  1.00  0.00    -0.014 A 
BRANCH  36  37
ATOM     37  C   UNL A   1      38.280  30.071  29.945  1.00  0.00     0.031 A 
ATOM     38  C   UNL A   1      38.586  30.581  31.323  1.00  0.00     0.074 A 
ATOM     39  C   UNL A   1      39.122  29.220  29.329  1.00  0.00     0.049 A 
ATOM     40  N   UNL A   1      39.613  30.318  32.093  1.00  0.00    -0.248 NA
ATOM     41  C   UNL A   1      37.626  31.530  31.910  1.00  0.00     0.031 C 
ATOM     42  C   UNL A   1      38.943  28.685  27.979  1.00  0.00     0.029 A 
ATOM     43  N   UNL A   1      40.297  28.653  29.758  1.00  0.00    -0.354 N 
ATOM     44  C   UNL A   1      39.418  31.063  33.248  1.00  0.00     0.074 A 
ATOM     45  C   UNL A   1      38.216  31.842  33.055  1.00  0.00     0.031 C 
ATOM     46  C   UNL A   1      39.948  27.838  27.705  1.00  0.00     0.029 A 
ATOM     47  C   UNL A   1      40.862  27.800  28.843  1.00  0.00     0.049 A 
ATOM     48  H   UNL A   1      40.694  28.840  30.639  1.00  0.00     0.167 HD
ATOM     49  C   UNL A   1      40.157  31.067  34.381  1.00  0.00     0.037 A 
ATOM     50  C   UNL A   1      41.991  27.069  28.917  1.00  0.00     0.037 A 
ATOM     51  C   UNL A   1      41.341  30.274  34.573  1.00  0.00     0.049 A 
ATOM     52  C   UNL A   1      42.818  27.124  30.172  1.00  0.00     0.074 A 
ATOM     53  C   UNL A   1      42.140  30.178  35.698  1.00  0.00     0.029 A 
ATOM     54  N   UNL A   1      41.896  29.439  33.615  1.00  0.00    -0.354 N 
ATOM     55  N   UNL A   1      42.594  27.788  31.281  1.00  0.00    -0.248 NA
ATOM     56  C   UNL A   1      44.055  26.330  30.190  1.00  0.00     0.031 C 
ATOM     57  C   UNL A   1      43.207  29.326  35.404  1.00  0.00     0.029 A 
ATOM     58  C   UNL A   1      43.043  28.845  34.115  1.00  0.00     0.049 A 
ATOM     59  H   UNL A   1      41.528  29.290  32.713  1.00  0.00     0.167 HD
ATOM     60  C   UNL A   1      43.642  27.474  32.134  1.00  0.00     0.074 A 
ATOM     61  C   UNL A   1      44.497  26.547  31.422  1.00  0.00     0.031 C 
ATOM     62  C   UNL A   1      43.877  27.917  33.393  1.00  0.00     0.037 A 
BRANCH  49  63
ATOM     63  C   UNL A   1      39.699  31.940  35.512  1.00  0.00     0.064 A 
ATOM     64  C   UNL A   1      40.173  33.253  35.661  1.00  0.00     0.173 A 
ATOM     65  C   UNL A   1      38.730  31.487  36.418  1.00  0.00     0.173 A 
ATOM     66  F   UNL A   1      41.111  33.730  34.828  1.00  0.00    -0.203 F 
ATOM     67  C   UNL A   1      39.706  34.072  36.684  1.00  0.00     0.198 A 
ATOM     68  C   UNL A   1      38.242  32.320  37.423  1.00  0.00     0.198 A 
ATOM     69  F   UNL A   1      38.240  30.242  36.320  1.00  0.00    -0.203 F 
ATOM     70  F   UNL A   1      40.202  35.309  36.829  1.00  0.00    -0.200 F 
ATOM     71  C   UNL A   1      38.734  33.610  37.557  1.00  0.00     0.200 A 
ATOM     72  F   UNL A   1      37.291  31.876  38.256  1.00  0.00    -0.200 F 
ATOM     73  F   UNL A   1      38.271  34.406  38.530  1.00  0.00    -0.200 F 
ENDBRANCH  49  63
BRANCH  50  74
ATOM     74  C   UNL A   1      42.379  26.194  27.779  1.00  0.00     0.064 A 
ATOM     75  C   UNL A   1      41.796  24.928  27.617  1.00  0.00     0.173 A 
ATOM     76  C   UNL A   1      43.318  26.606  26.822  1.00  0.00     0.173 A 
ATOM     77  F   UNL A   1      40.908  24.480  28.517  1.00  0.00    -0.203 F 
ATOM     78  C   UNL A   1      42.146  24.106  26.549  1.00  0.00     0.198 A 
ATOM     79  C   UNL A   1      43.645  25.794  25.737  1.00  0.00     0.198 A 
ATOM     80  F   UNL A   1      43.901  27.808  26.927  1.00  0.00    -0.203 F 
ATOM     81  F   UNL A   1      41.600  22.886  26.438  1.00  0.00    -0.200 F 
ATOM     82  C   UNL A   1      43.063  24.542  25.605  1.00  0.00     0.200 A 
ATOM     83  F   UNL A   1      44.520  26.226  24.819  1.00  0.00    -0.200 F 
ATOM     84  F   UNL A   1      43.389  23.755  24.571  1.00  0.00    -0.200 F 
ENDBRANCH  50  74
BRANCH  62  85
ATOM     85  C   UNL A   1      45.097  27.401  34.100  1.00  0.00     0.064 A 
ATOM     86  C   UNL A   1      46.310  28.102  34.072  1.00  0.00     0.173 A 
ATOM     87  C   UNL A   1      45.023  26.243  34.891  1.00  0.00     0.173 A 
ATOM     88  F   UNL A   1      46.434  29.207  33.322  1.00  0.00    -0.203 F 
ATOM     89  C   UNL A   1      47.408  27.659  34.804  1.00  0.00     0.198 A 
ATOM     90  C   UNL A   1      46.113  25.821  35.646  1.00  0.00     0.198 A 
ATOM     91  F   UNL A   1      43.881  25.542  34.959  1.00  0.00    -0.203 F 
ATOM     92  F   UNL A   1      48.568  28.329  34.740  1.00  0.00    -0.200 F 
ATOM     93  C   UNL A   1      47.305  26.527  35.600  1.00  0.00     0.200 A 
ATOM     94  F   UNL A   1      46.005  24.740  36.429  1.00  0.00    -0.200 F 
ATOM     95  F   UNL A   1      48.357  26.118  36.323  1.00  0.00    -0.200 F 
ENDBRANCH  62  85
ENDBRANCH  36  37
ENDBRANCH  28  31
ENDBRANCH  26  27
ENDBRANCH  25  26
ENDBRANCH   1  25
TORSDOF 14
ENDMDL
MODEL 2
REMARK VINA RESULT:     -12.6      4.153      8.952
REMARK SMILES Cc1cc(Cl)cc2c1O[C@H](C(F)(F)F)C(C(=O)NCCCCCCNC(=O)c1ccc(-c3c4nc(c(-c5c(F)c(F)c(F)c(F)c5F)c5ccc([nH]5)c(-c5c(F)c(F)c(F)c(F)c5F)c5nc(c(-c6c(F)c(F)c(F)c(F)c6F)c6ccc3[nH]6)C=C5)C=C4)cc1)=C2
REMARK SMILES IDX 22 1 21 2 20 3 19 4 18 5 16 6 17 7 15 9 1 10 2 11 3 12 8 13
REMARK SMILES IDX 4 14 7 15 9 16 5 17 6 18 91 19 10 20 11 21 12 22 13 23 14 24
REMARK SMILES IDX 23 25 24 26 25 27 26 28 27 30 28 31 29 32 90 33 30 34 89 35
REMARK SMILES IDX 31 36 32 37 33 38 83 39 34 40 88 41 82 42 84 43 35 44 87 45
REMARK SMILES IDX 81 46 80 47 36 49 68 50 48 51 67 52 49 53 52 54 66 55 85 56
REMARK SMILES IDX 50 57 51 58 65 60 86 61 53 62 37 63 38 64 46 65 39 66 40 67
REMARK SMILES IDX 44 68 47 69 41 70 42 71 45 72 43 73 69 74 70 75 78 76 71 77
REMARK SMILES IDX 72 78 76 79 79 80 73 81 74 82 77 83 75 84 54 85 55 86 63 87
REMARK SMILES IDX 56 88 57 89 61 90 64 91 58 92 59 93 62 94 60 95
REMARK H PARENT 18 8 25 29 84 48 52 59
REMARK Flexibility Score: inf
ROOT
ATOM      1  C   UNL A   1      35.373  22.698  23.819  1.00  0.00     0.002 C 
ENDROOT
BRANCH   1   2
ATOM      2  C   UNL A   1      34.307  22.179  24.795  1.00  0.00     0.002 C 
BRANCH   2   3
ATOM      3  C   UNL A   1      33.069  21.571  24.135  1.00  0.00     0.021 C 
BRANCH   3   4
ATOM      4  C   UNL A   1      31.884  22.527  24.073  1.00  0.00     0.116 C 
BRANCH   4   5
ATOM      5  N   UNL A   1      31.256  22.695  25.372  1.00  0.00    -0.352 N 
ATOM      6  C   UNL A   1      30.844  23.724  26.148  1.00  0.00     0.251 C 
ATOM      7  O   UNL A   1      30.310  23.400  27.213  1.00  0.00    -0.270 OA
ATOM      8  H   UNL A   1      31.085  21.827  25.803  1.00  0.00     0.163 HD
BRANCH   6   9
ATOM      9  C   UNL A   1      30.995  25.170  25.806  1.00  0.00     0.067 C 
ATOM     10  C   UNL A   1      32.053  30.209  25.662  1.00  0.00     0.048 C 
ATOM     11  C   UNL A   1      31.130  29.284  24.919  1.00  0.00    -0.007 A 
ATOM     12  C   UNL A   1      30.362  29.775  23.857  1.00  0.00     0.027 A 
ATOM     13  C   UNL A   1      31.063  27.916  25.220  1.00  0.00     0.131 A 
ATOM     14  C   UNL A   1      29.524  28.919  23.141  1.00  0.00     0.042 A 
ATOM     15  C   UNL A   1      30.218  27.056  24.510  1.00  0.00     0.019 A 
ATOM     16  O   UNL A   1      31.823  27.485  26.265  1.00  0.00    -0.475 OA
ATOM     17  Cl  UNL A   1      28.575  29.544  21.849  1.00  0.00    -0.084 Cl
ATOM     18  C   UNL A   1      29.444  27.564  23.464  1.00  0.00     0.032 A 
ATOM     19  C   UNL A   1      30.128  25.653  24.897  1.00  0.00     0.025 C 
ATOM     20  C   UNL A   1      32.049  26.062  26.390  1.00  0.00     0.314 C 
BRANCH  20  21
ATOM     21  C   UNL A   1      33.463  25.738  25.875  1.00  0.00     0.429 C 
ATOM     22  F   UNL A   1      33.965  24.657  26.525  1.00  0.00    -0.167 F 
ATOM     23  F   UNL A   1      33.486  25.431  24.558  1.00  0.00    -0.167 F 
ATOM     24  F   UNL A   1      34.329  26.760  26.057  1.00  0.00    -0.167 F 
ENDBRANCH  20  21
ENDBRANCH   6   9
ENDBRANCH   4   5
ENDBRANCH   3   4
ENDBRANCH   2   3
ENDBRANCH   1   2
BRANCH   1  25
ATOM     25  C   UNL A   1      36.371  23.693  24.414  1.00  0.00     0.021 C 
BRANCH  25  26
ATOM     26  C   UNL A   1      36.720  23.431  25.874  1.00  0.00     0.116 C 
BRANCH  26  27
ATOM     27  N   UNL A   1      37.836  22.509  26.005  1.00  0.00    -0.352 N 
ATOM     28  C   UNL A   1      39.137  22.768  26.342  1.00  0.00     0.251 C 
ATOM     29  H   UNL A   1      37.626  21.564  25.824  1.00  0.00     0.163 HD
ATOM     30  O   UNL A   1      40.004  21.912  26.188  1.00  0.00    -0.269 OA
BRANCH  28  31
ATOM     31  C   UNL A   1      39.495  24.092  26.884  1.00  0.00     0.039 A 
ATOM     32  C   UNL A   1      39.258  24.358  28.234  1.00  0.00     0.014 A 
ATOM     33  C   UNL A   1      40.062  25.066  26.057  1.00  0.00     0.014 A 
ATOM     34  C   UNL A   1      39.635  25.590  28.767  1.00  0.00     0.010 A 
ATOM     35  C   UNL A   1      40.507  26.263  26.606  1.00  0.00     0.010 A 
ATOM     36  C   UNL A   1      40.285  26.542  27.962  1.00  0.00    -0.014 A 
BRANCH  36  37
ATOM     37  C   UNL A   1      40.716  27.845  28.523  1.00  0.00     0.031 A 
ATOM     38  C   UNL A   1      42.167  28.085  28.827  1.00  0.00     0.074 A 
ATOM     39  C   UNL A   1      39.799  28.795  28.780  1.00  0.00     0.049 A 
ATOM     40  N   UNL A   1      42.740  29.146  29.337  1.00  0.00    -0.248 NA
ATOM     41  C   UNL A   1      43.098  26.980  28.542  1.00  0.00     0.031 C 
ATOM     42  C   UNL A   1      38.359  28.661  28.556  1.00  0.00     0.029 A 
ATOM     43  N   UNL A   1      39.940  30.065  29.284  1.00  0.00    -0.354 N 
ATOM     44  C   UNL A   1      44.090  28.836  29.429  1.00  0.00     0.074 A 
ATOM     45  C   UNL A   1      44.246  27.468  28.989  1.00  0.00     0.031 C 
ATOM     46  C   UNL A   1      37.754  29.814  28.883  1.00  0.00     0.029 A 
ATOM     47  C   UNL A   1      38.757  30.755  29.375  1.00  0.00     0.049 A 
ATOM     48  H   UNL A   1      40.808  30.444  29.553  1.00  0.00     0.167 HD
ATOM     49  C   UNL A   1      45.113  29.636  29.811  1.00  0.00     0.037 A 
ATOM     50  C   UNL A   1      38.511  32.007  29.808  1.00  0.00     0.037 A 
ATOM     51  C   UNL A   1      44.953  31.003  30.228  1.00  0.00     0.049 A 
ATOM     52  C   UNL A   1      39.660  32.861  30.268  1.00  0.00     0.074 A 
ATOM     53  C   UNL A   1      45.930  31.909  30.599  1.00  0.00     0.029 A 
ATOM     54  N   UNL A   1      43.736  31.661  30.330  1.00  0.00    -0.354 N 
ATOM     55  N   UNL A   1      40.941  32.579  30.295  1.00  0.00    -0.248 NA
ATOM     56  C   UNL A   1      39.334  34.208  30.756  1.00  0.00     0.031 C 
ATOM     57  C   UNL A   1      45.301  33.099  30.975  1.00  0.00     0.029 A 
ATOM     58  C   UNL A   1      43.935  32.954  30.784  1.00  0.00     0.049 A 
ATOM     59  H   UNL A   1      42.860  31.266  30.111  1.00  0.00     0.167 HD
ATOM     60  C   UNL A   1      41.573  33.716  30.778  1.00  0.00     0.074 A 
ATOM     61  C   UNL A   1      40.538  34.700  31.016  1.00  0.00     0.031 C 
ATOM     62  C   UNL A   1      42.893  33.923  31.007  1.00  0.00     0.037 A 
BRANCH  49  63
ATOM     63  C   UNL A   1      46.500  29.064  29.778  1.00  0.00     0.064 A 
ATOM     64  C   UNL A   1      47.052  28.421  30.896  1.00  0.00     0.173 A 
ATOM     65  C   UNL A   1      47.259  29.099  28.600  1.00  0.00     0.173 A 
ATOM     66  F   UNL A   1      46.372  28.372  32.052  1.00  0.00    -0.203 F 
ATOM     67  C   UNL A   1      48.320  27.850  30.841  1.00  0.00     0.198 A 
ATOM     68  C   UNL A   1      48.515  28.499  28.539  1.00  0.00     0.198 A 
ATOM     69  F   UNL A   1      46.777  29.698  27.500  1.00  0.00    -0.203 F 
ATOM     70  F   UNL A   1      48.843  27.276  31.934  1.00  0.00    -0.200 F 
ATOM     71  C   UNL A   1      49.046  27.880  29.660  1.00  0.00     0.200 A 
ATOM     72  F   UNL A   1      49.209  28.516  27.392  1.00  0.00    -0.200 F 
ATOM     73  F   UNL A   1      50.259  27.313  29.603  1.00  0.00    -0.200 F 
ENDBRANCH  49  63
BRANCH  50  74
ATOM     74  C   UNL A   1      37.121  32.535  29.786  1.00  0.00     0.064 A 
ATOM     75  C   UNL A   1      36.638  33.236  28.672  1.00  0.00     0.173 A 
ATOM     76  C   UNL A   1      36.242  32.336  30.861  1.00  0.00     0.173 A 
ATOM     77  F   UNL A   1      37.445  33.470  27.627  1.00  0.00    -0.203 F 
ATOM     78  C   UNL A   1      35.334  33.725  28.638  1.00  0.00     0.198 A 
ATOM     79  C   UNL A   1      34.929  32.800  30.814  1.00  0.00     0.198 A 
ATOM     80  F   UNL A   1      36.652  31.668  31.949  1.00  0.00    -0.203 F 
ATOM     81  F   UNL A   1      34.909  34.423  27.576  1.00  0.00    -0.200 F 
ATOM     82  C   UNL A   1      34.477  33.500  29.706  1.00  0.00     0.200 A 
ATOM     83  F   UNL A   1      34.101  32.566  31.841  1.00  0.00    -0.200 F 
ATOM     84  F   UNL A   1      33.220  33.960  29.667  1.00  0.00    -0.200 F 
ENDBRANCH  50  74
BRANCH  62  85
ATOM     85  C   UNL A   1      43.309  35.269  31.528  1.00  0.00     0.064 A 
ATOM     86  C   UNL A   1      43.710  36.296  30.664  1.00  0.00     0.173 A 
ATOM     87  C   UNL A   1      43.212  35.561  32.898  1.00  0.00     0.173 A 
ATOM     88  F   UNL A   1      43.830  36.062  29.348  1.00  0.00    -0.203 F 
ATOM     89  C   UNL A   1      44.007  37.565  31.151  1.00  0.00     0.198 A 
ATOM     90  C   UNL A   1      43.480  36.839  33.378  1.00  0.00     0.198 A 
ATOM     91  F   UNL A   1      42.823  34.614  33.766  1.00  0.00    -0.203 F 
ATOM     92  F   UNL A   1      44.417  38.525  30.309  1.00  0.00    -0.200 F 
ATOM     93  C   UNL A   1      43.880  37.839  32.505  1.00  0.00     0.200 A 
ATOM     94  F   UNL A   1      43.336  37.107  34.683  1.00  0.00    -0.200 F 
ATOM     95  F   UNL A   1      44.142  39.069  32.968  1.00  0.00    -0.200 F 
ENDBRANCH  62  85
ENDBRANCH  36  37
ENDBRANCH  28  31
ENDBRANCH  26  27
ENDBRANCH  25  26
ENDBRANCH   1  25
TORSDOF 14
ENDMDL
MODEL 3
REMARK VINA RESULT:     -12.6      2.792      4.363
REMARK SMILES Cc1cc(Cl)cc2c1O[C@H](C(F)(F)F)C(C(=O)NCCCCCCNC(=O)c1ccc(-c3c4nc(c(-c5c(F)c(F)c(F)c(F)c5F)c5ccc([nH]5)c(-c5c(F)c(F)c(F)c(F)c5F)c5nc(c(-c6c(F)c(F)c(F)c(F)c6F)c6ccc3[nH]6)C=C5)C=C4)cc1)=C2
REMARK SMILES IDX 22 1 21 2 20 3 19 4 18 5 16 6 17 7 15 9 1 10 2 11 3 12 8 13
REMARK SMILES IDX 4 14 7 15 9 16 5 17 6 18 91 19 10 20 11 21 12 22 13 23 14 24
REMARK SMILES IDX 23 25 24 26 25 27 26 28 27 30 28 31 29 32 90 33 30 34 89 35
REMARK SMILES IDX 31 36 32 37 33 38 83 39 34 40 88 41 82 42 84 43 35 44 87 45
REMARK SMILES IDX 81 46 80 47 36 49 68 50 48 51 67 52 49 53 52 54 66 55 85 56
REMARK SMILES IDX 50 57 51 58 65 60 86 61 53 62 37 63 38 64 46 65 39 66 40 67
REMARK SMILES IDX 44 68 47 69 41 70 42 71 45 72 43 73 69 74 70 75 78 76 71 77
REMARK SMILES IDX 72 78 76 79 79 80 73 81 74 82 77 83 75 84 54 85 55 86 63 87
REMARK SMILES IDX 56 88 57 89 61 90 64 91 58 92 59 93 62 94 60 95
REMARK H PARENT 18 8 25 29 84 48 52 59
REMARK Flexibility Score: inf
ROOT
ATOM      1  C   UNL A   1      31.579  30.330  26.134  1.00  0.00     0.002 C 
ENDROOT
BRANCH   1   2
ATOM      2  C   UNL A   1      32.831  29.617  26.665  1.00  0.00     0.002 C 
BRANCH   2   3
ATOM      3  C   UNL A   1      33.693  28.945  25.594  1.00  0.00     0.021 C 
BRANCH   3   4
ATOM      4  C   UNL A   1      33.860  27.444  25.805  1.00  0.00     0.116 C 
BRANCH   4   5
ATOM      5  N   UNL A   1      33.784  26.712  24.553  1.00  0.00    -0.352 N 
ATOM      6  C   UNL A   1      32.863  26.498  23.584  1.00  0.00     0.251 C 
ATOM      7  O   UNL A   1      33.247  25.806  22.636  1.00  0.00    -0.270 OA
ATOM      8  H   UNL A   1      34.629  26.246  24.357  1.00  0.00     0.163 HD
BRANCH   6   9
ATOM      9  C   UNL A   1      31.467  27.028  23.596  1.00  0.00     0.067 C 
ATOM     10  C   UNL A   1      26.364  27.722  23.667  1.00  0.00     0.048 C 
ATOM     11  C   UNL A   1      27.558  28.572  23.333  1.00  0.00    -0.007 A 
ATOM     12  C   UNL A   1      27.382  29.922  23.010  1.00  0.00     0.027 A 
ATOM     13  C   UNL A   1      28.863  28.062  23.398  1.00  0.00     0.131 A 
ATOM     14  C   UNL A   1      28.486  30.727  22.728  1.00  0.00     0.042 A 
ATOM     15  C   UNL A   1      29.972  28.863  23.108  1.00  0.00     0.019 A 
ATOM     16  O   UNL A   1      28.985  26.741  23.709  1.00  0.00    -0.475 OA
ATOM     17  Cl  UNL A   1      28.249  32.381  22.318  1.00  0.00    -0.084 Cl
ATOM     18  C   UNL A   1      29.779  30.204  22.770  1.00  0.00     0.032 A 
ATOM     19  C   UNL A   1      31.308  28.278  23.123  1.00  0.00     0.025 C 
ATOM     20  C   UNL A   1      30.287  26.264  24.120  1.00  0.00     0.314 C 
BRANCH  20  21
ATOM     21  C   UNL A   1      30.301  26.115  25.651  1.00  0.00     0.429 C 
ATOM     22  F   UNL A   1      29.086  25.703  26.095  1.00  0.00    -0.167 F 
ATOM     23  F   UNL A   1      31.193  25.194  26.083  1.00  0.00    -0.167 F 
ATOM     24  F   UNL A   1      30.593  27.274  26.284  1.00  0.00    -0.167 F 
ENDBRANCH  20  21
ENDBRANCH   6   9
ENDBRANCH   4   5
ENDBRANCH   3   4
ENDBRANCH   2   3
ENDBRANCH   1   2
BRANCH   1  25
ATOM     25  C   UNL A   1      31.427  31.789  26.573  1.00  0.00     0.021 C 
BRANCH  25  26
ATOM     26  C   UNL A   1      32.729  32.449  27.009  1.00  0.00     0.116 C 
BRANCH  26  27
ATOM     27  N   UNL A   1      32.516  33.814  27.460  1.00  0.00    -0.352 N 
ATOM     28  C   UNL A   1      33.102  34.482  28.501  1.00  0.00     0.251 C 
ATOM     29  H   UNL A   1      31.857  34.331  26.943  1.00  0.00     0.163 HD
ATOM     30  O   UNL A   1      32.648  35.555  28.889  1.00  0.00    -0.269 OA
BRANCH  28  31
ATOM     31  C   UNL A   1      34.280  33.897  29.167  1.00  0.00     0.039 A 
ATOM     32  C   UNL A   1      34.090  32.918  30.145  1.00  0.00     0.014 A 
ATOM     33  C   UNL A   1      35.569  34.318  28.826  1.00  0.00     0.014 A 
ATOM     34  C   UNL A   1      35.198  32.325  30.748  1.00  0.00     0.010 A 
ATOM     35  C   UNL A   1      36.673  33.672  29.371  1.00  0.00     0.010 A 
ATOM     36  C   UNL A   1      36.498  32.680  30.347  1.00  0.00    -0.014 A 
BRANCH  36  37
ATOM     37  C   UNL A   1      37.685  32.038  30.961  1.00  0.00     0.031 A 
ATOM     38  C   UNL A   1      38.117  32.432  32.343  1.00  0.00     0.074 A 
ATOM     39  C   UNL A   1      38.382  31.123  30.262  1.00  0.00     0.049 A 
ATOM     40  N   UNL A   1      39.136  32.002  33.045  1.00  0.00    -0.248 NA
ATOM     41  C   UNL A   1      37.314  33.461  33.024  1.00  0.00     0.031 C 
ATOM     42  C   UNL A   1      38.073  30.686  28.900  1.00  0.00     0.029 A 
ATOM     43  N   UNL A   1      39.493  30.391  30.602  1.00  0.00    -0.354 N 
ATOM     44  C   UNL A   1      39.092  32.703  34.242  1.00  0.00     0.074 A 
ATOM     45  C   UNL A   1      37.991  33.636  34.150  1.00  0.00     0.031 C 
ATOM     46  C   UNL A   1      38.949  29.736  28.534  1.00  0.00     0.029 A 
ATOM     47  C   UNL A   1      39.902  29.524  29.619  1.00  0.00     0.049 A 
ATOM     48  H   UNL A   1      39.952  30.480  31.468  1.00  0.00     0.167 HD
ATOM     49  C   UNL A   1      39.877  32.555  35.333  1.00  0.00     0.037 A 
ATOM     50  C   UNL A   1      40.931  28.655  29.599  1.00  0.00     0.037 A 
ATOM     51  C   UNL A   1      40.958  31.610  35.426  1.00  0.00     0.049 A 
ATOM     52  C   UNL A   1      41.816  28.539  30.810  1.00  0.00     0.074 A 
ATOM     53  C   UNL A   1      41.789  31.356  36.501  1.00  0.00     0.029 A 
ATOM     54  N   UNL A   1      41.357  30.764  34.401  1.00  0.00    -0.354 N 
ATOM     55  N   UNL A   1      41.729  29.165  31.959  1.00  0.00    -0.248 NA
ATOM     56  C   UNL A   1      42.940  27.597  30.726  1.00  0.00     0.031 C 
ATOM     57  C   UNL A   1      42.724  30.394  36.112  1.00  0.00     0.029 A 
ATOM     58  C   UNL A   1      42.441  30.006  34.812  1.00  0.00     0.049 A 
ATOM     59  H   UNL A   1      40.932  30.711  33.514  1.00  0.00     0.167 HD
ATOM     60  C   UNL A   1      42.768  28.678  32.740  1.00  0.00     0.074 A 
ATOM     61  C   UNL A   1      43.463  27.691  31.941  1.00  0.00     0.031 C 
ATOM     62  C   UNL A   1      43.115  29.021  34.005  1.00  0.00     0.037 A 
BRANCH  49  63
ATOM     63  C   UNL A   1      39.588  33.417  36.527  1.00  0.00     0.064 A 
ATOM     64  C   UNL A   1      38.729  32.985  37.550  1.00  0.00     0.173 A 
ATOM     65  C   UNL A   1      40.223  34.657  36.684  1.00  0.00     0.173 A 
ATOM     66  F   UNL A   1      38.087  31.812  37.441  1.00  0.00    -0.203 F 
ATOM     67  C   UNL A   1      38.504  33.770  38.676  1.00  0.00     0.198 A 
ATOM     68  C   UNL A   1      40.020  35.426  37.828  1.00  0.00     0.198 A 
ATOM     69  F   UNL A   1      41.056  35.116  35.738  1.00  0.00    -0.203 F 
ATOM     70  F   UNL A   1      37.650  33.354  39.622  1.00  0.00    -0.200 F 
ATOM     71  C   UNL A   1      39.158  34.984  38.820  1.00  0.00     0.200 A 
ATOM     72  F   UNL A   1      40.664  36.593  37.971  1.00  0.00    -0.200 F 
ATOM     73  F   UNL A   1      38.956  35.731  39.915  1.00  0.00    -0.200 F 
ENDBRANCH  49  63
BRANCH  50  74
ATOM     74  C   UNL A   1      41.151  27.799  28.402  1.00  0.00     0.064 A 
ATOM     75  C   UNL A   1      40.509  26.558  28.281  1.00  0.00     0.173 A 
ATOM     76  C   UNL A   1      41.984  28.207  27.351  1.00  0.00     0.173 A 
ATOM     77  F   UNL A   1      39.717  26.114  29.268  1.00  0.00    -0.203 F 
ATOM     78  C   UNL A   1      40.701  25.755  27.159  1.00  0.00     0.198 A 
ATOM     79  C   UNL A   1      42.152  27.416  26.216  1.00  0.00     0.198 A 
ATOM     80  F   UNL A   1      42.618  29.387  27.415  1.00  0.00    -0.203 F 
ATOM     81  F   UNL A   1      40.103  24.557  27.085  1.00  0.00    -0.200 F 
ATOM     82  C   UNL A   1      41.515  26.187  26.123  1.00  0.00     0.200 A 
ATOM     83  F   UNL A   1      42.927  27.845  25.211  1.00  0.00    -0.200 F 
ATOM     84  F   UNL A   1      41.689  25.420  25.039  1.00  0.00    -0.200 F 
ENDBRANCH  50  74
BRANCH  62  85
ATOM     85  C   UNL A   1      44.291  28.319  34.621  1.00  0.00     0.064 A 
ATOM     86  C   UNL A   1      44.147  27.090  35.277  1.00  0.00     0.173 A 
ATOM     87  C   UNL A   1      45.587  28.836  34.468  1.00  0.00     0.173 A 
ATOM     88  F   UNL A   1      42.928  26.560  35.459  1.00  0.00    -0.203 F 
ATOM     89  C   UNL A   1      45.256  26.406  35.766  1.00  0.00     0.198 A 
ATOM     90  C   UNL A   1      46.697  28.135  34.930  1.00  0.00     0.198 A 
ATOM     91  F   UNL A   1      45.779  30.006  33.838  1.00  0.00    -0.203 F 
ATOM     92  F   UNL A   1      45.092  25.245  36.417  1.00  0.00    -0.200 F 
ATOM     93  C   UNL A   1      46.530  26.923  35.581  1.00  0.00     0.200 A 
ATOM     94  F   UNL A   1      47.928  28.626  34.732  1.00  0.00    -0.200 F 
ATOM     95  F   UNL A   1      47.599  26.250  36.030  1.00  0.00    -0.200 F 
ENDBRANCH  62  85
ENDBRANCH  36  37
ENDBRANCH  28  31
ENDBRANCH  26  27
ENDBRANCH  25  26
ENDBRANCH   1  25
TORSDOF 14
ENDMDL
