MODEL 1
REMARK VINA RESULT:     -10.5      0.000      0.000
REMARK SMILES COC[C@H](O)CC1(C(=O)NCCCCCCNC(=O)c2ccc(-c3c4nc(c(-c5c(F)c(F)c(F)c(F)c5F)c5ccc([nH]5)c(-c5c(F)c(F)c(F)c(F)c5F)c5nc(c(-c6c(F)c(F)c(F)c(F)c6F)c6ccc3[nH]6)C=C5)C=C4)cc2)CC1
REMARK SMILES IDX 12 1 11 2 10 3 8 4 9 5 7 7 83 8 84 9 6 10 4 11 3 12 2 13
REMARK SMILES IDX 1 14 5 15 13 17 14 18 15 19 16 20 17 21 18 22 19 24 20 25
REMARK SMILES IDX 21 26 82 27 22 28 81 29 23 30 24 31 25 32 75 33 26 34 80 35
REMARK SMILES IDX 74 36 76 37 27 38 79 39 73 40 72 41 28 43 60 44 40 45 59 46
REMARK SMILES IDX 41 47 44 48 58 49 77 50 42 51 43 52 57 54 78 55 45 56 29 57
REMARK SMILES IDX 30 58 38 59 31 60 32 61 36 62 39 63 33 64 34 65 37 66 35 67
REMARK SMILES IDX 61 68 62 69 70 70 63 71 64 72 68 73 71 74 65 75 66 76 69 77
REMARK SMILES IDX 67 78 46 79 47 80 55 81 48 82 49 83 53 84 56 85 50 86 51 87
REMARK SMILES IDX 54 88 52 89
REMARK H PARENT 10 6 5 16 17 23 76 42 44 53
REMARK Flexibility Score: inf
ROOT
ATOM      1  C   UNL A   1      33.149  29.248  25.192  1.00  0.00     0.021 C 
ENDROOT
BRANCH   1   2
ATOM      2  C   UNL A   1      33.556  27.790  25.406  1.00  0.00     0.116 C 
BRANCH   2   3
ATOM      3  N   UNL A   1      33.597  27.079  24.145  1.00  0.00    -0.356 N 
ATOM      4  C   UNL A   1      32.666  26.498  23.335  1.00  0.00     0.226 C 
ATOM      5  O   UNL A   1      33.106  25.788  22.431  1.00  0.00    -0.274 OA
ATOM      6  H   UNL A   1      34.511  26.995  23.789  1.00  0.00     0.163 HD
BRANCH   4   7
ATOM      7  C   UNL A   1      31.161  26.671  23.461  1.00  0.00     0.052 C 
ATOM      8  C   UNL A   1      30.485  26.607  24.821  1.00  0.00     0.018 C 
ATOM      9  C   UNL A   1      30.308  25.472  23.847  1.00  0.00     0.018 C 
BRANCH   7  10
ATOM     10  C   UNL A   1      30.587  27.635  22.398  1.00  0.00     0.051 C 
BRANCH  10  11
ATOM     11  C   UNL A   1      30.567  29.130  22.721  1.00  0.00     0.141 C 
BRANCH  11  12
ATOM     12  C   UNL A   1      29.132  29.679  22.641  1.00  0.00     0.191 C 
BRANCH  12  13
ATOM     13  O   UNL A   1      28.727  29.828  21.274  1.00  0.00    -0.382 OA
ATOM     14  C   UNL A   1      28.039  31.054  21.042  1.00  0.00     0.195 C 
ENDBRANCH  12  13
ENDBRANCH  11  12
BRANCH  11  15
ATOM     15  O   UNL A   1      31.377  29.843  21.777  1.00  0.00    -0.391 OA
ATOM     16  H   UNL A   1      32.201  29.355  21.623  1.00  0.00     0.211 HD
ENDBRANCH  11  15
ENDBRANCH  10  11
ENDBRANCH   7  10
ENDBRANCH   4   7
ENDBRANCH   2   3
ENDBRANCH   1   2
BRANCH   1  17
ATOM     17  C   UNL A   1      32.188  29.801  26.251  1.00  0.00     0.002 C 
BRANCH  17  18
ATOM     18  C   UNL A   1      31.379  31.029  25.821  1.00  0.00     0.002 C 
BRANCH  18  19
ATOM     19  C   UNL A   1      31.284  32.142  26.866  1.00  0.00     0.021 C 
BRANCH  19  20
ATOM     20  C   UNL A   1      32.593  32.870  27.144  1.00  0.00     0.116 C 
BRANCH  20  21
ATOM     21  N   UNL A   1      32.379  34.233  27.598  1.00  0.00    -0.352 N 
ATOM     22  C   UNL A   1      33.001  34.923  28.607  1.00  0.00     0.251 C 
ATOM     23  H   UNL A   1      31.686  34.735  27.110  1.00  0.00     0.163 HD
ATOM     24  O   UNL A   1      32.566  36.010  28.971  1.00  0.00    -0.269 OA
BRANCH  22  25
ATOM     25  C   UNL A   1      34.187  34.345  29.275  1.00  0.00     0.039 A 
ATOM     26  C   UNL A   1      33.997  33.580  30.429  1.00  0.00     0.014 A 
ATOM     27  C   UNL A   1      35.476  34.559  28.779  1.00  0.00     0.014 A 
ATOM     28  C   UNL A   1      35.094  32.985  31.052  1.00  0.00     0.010 A 
ATOM     29  C   UNL A   1      36.561  33.906  29.360  1.00  0.00     0.010 A 
ATOM     30  C   UNL A   1      36.381  33.115  30.503  1.00  0.00    -0.014 A 
BRANCH  30  31
ATOM     31  C   UNL A   1      37.537  32.410  31.112  1.00  0.00     0.031 A 
ATOM     32  C   UNL A   1      38.029  32.787  32.481  1.00  0.00     0.074 A 
ATOM     33  C   UNL A   1      38.173  31.456  30.405  1.00  0.00     0.049 A 
ATOM     34  N   UNL A   1      39.027  32.287  33.167  1.00  0.00    -0.248 NA
ATOM     35  C   UNL A   1      37.325  33.885  33.160  1.00  0.00     0.031 C 
ATOM     36  C   UNL A   1      37.829  31.046  29.043  1.00  0.00     0.029 A 
ATOM     37  N   UNL A   1      39.244  30.661  30.730  1.00  0.00    -0.354 N 
ATOM     38  C   UNL A   1      39.074  33.012  34.350  1.00  0.00     0.074 A 
ATOM     39  C   UNL A   1      38.042  34.022  34.266  1.00  0.00     0.031 C 
ATOM     40  C   UNL A   1      38.652  30.057  28.660  1.00  0.00     0.029 A 
ATOM     41  C   UNL A   1      39.601  29.786  29.735  1.00  0.00     0.049 A 
ATOM     42  H   UNL A   1      39.710  30.715  31.596  1.00  0.00     0.167 HD
ATOM     43  C   UNL A   1      39.889  32.835  35.418  1.00  0.00     0.037 A 
ATOM     44  C   UNL A   1      40.584  28.867  29.694  1.00  0.00     0.037 A 
ATOM     45  C   UNL A   1      40.903  31.816  35.505  1.00  0.00     0.049 A 
ATOM     46  C   UNL A   1      41.469  28.686  30.897  1.00  0.00     0.074 A 
ATOM     47  C   UNL A   1      41.732  31.511  36.570  1.00  0.00     0.029 A 
ATOM     48  N   UNL A   1      41.229  30.937  34.481  1.00  0.00    -0.354 N 
ATOM     49  N   UNL A   1      41.448  29.321  32.043  1.00  0.00    -0.248 NA
ATOM     50  C   UNL A   1      42.507  27.650  30.802  1.00  0.00     0.031 C 
ATOM     51  C   UNL A   1      42.594  30.482  36.174  1.00  0.00     0.029 A 
ATOM     52  C   UNL A   1      42.267  30.108  34.880  1.00  0.00     0.049 A 
ATOM     53  H   UNL A   1      40.789  30.907  33.601  1.00  0.00     0.167 HD
ATOM     54  C   UNL A   1      42.454  28.753  32.812  1.00  0.00     0.074 A 
ATOM     55  C   UNL A   1      43.047  27.702  32.011  1.00  0.00     0.031 C 
ATOM     56  C   UNL A   1      42.853  29.073  34.068  1.00  0.00     0.037 A 
BRANCH  43  57
ATOM     57  C   UNL A   1      39.717  33.765  36.585  1.00  0.00     0.064 A 
ATOM     58  C   UNL A   1      38.898  33.433  37.677  1.00  0.00     0.173 A 
ATOM     59  C   UNL A   1      40.407  34.985  36.633  1.00  0.00     0.173 A 
ATOM     60  F   UNL A   1      38.207  32.284  37.678  1.00  0.00    -0.203 F 
ATOM     61  C   UNL A   1      38.755  34.301  38.756  1.00  0.00     0.198 A 
ATOM     62  C   UNL A   1      40.287  35.837  37.728  1.00  0.00     0.198 A 
ATOM     63  F   UNL A   1      41.207  35.350  35.620  1.00  0.00    -0.203 F 
ATOM     64  F   UNL A   1      37.930  33.984  39.764  1.00  0.00    -0.200 F 
ATOM     65  C   UNL A   1      39.455  35.498  38.785  1.00  0.00     0.200 A 
ATOM     66  F   UNL A   1      40.974  36.987  37.760  1.00  0.00    -0.200 F 
ATOM     67  F   UNL A   1      39.323  36.328  39.829  1.00  0.00    -0.200 F 
ENDBRANCH  43  57
BRANCH  44  68
ATOM     68  C   UNL A   1      40.765  28.029  28.480  1.00  0.00     0.064 A 
ATOM     69  C   UNL A   1      41.557  28.468  27.410  1.00  0.00     0.173 A 
ATOM     70  C   UNL A   1      40.151  26.773  28.365  1.00  0.00     0.173 A 
ATOM     71  F   UNL A   1      42.147  29.671  27.466  1.00  0.00    -0.203 F 
ATOM     72  C   UNL A   1      41.710  27.694  26.262  1.00  0.00     0.198 A 
ATOM     73  C   UNL A   1      40.329  25.986  27.230  1.00  0.00     0.198 A 
ATOM     74  F   UNL A   1      39.389  26.303  29.363  1.00  0.00    -0.203 F 
ATOM     75  F   UNL A   1      42.433  28.160  25.235  1.00  0.00    -0.200 F 
ATOM     76  C   UNL A   1      41.101  26.451  26.175  1.00  0.00     0.200 A 
ATOM     77  F   UNL A   1      39.752  24.779  27.155  1.00  0.00    -0.200 F 
ATOM     78  F   UNL A   1      41.253  25.705  25.072  1.00  0.00    -0.200 F 
ENDBRANCH  44  68
BRANCH  56  79
ATOM     79  C   UNL A   1      43.975  28.265  34.654  1.00  0.00     0.064 A 
ATOM     80  C   UNL A   1      45.313  28.670  34.533  1.00  0.00     0.173 A 
ATOM     81  C   UNL A   1      43.708  27.079  35.355  1.00  0.00     0.173 A 
ATOM     82  F   UNL A   1      45.622  29.789  33.859  1.00  0.00    -0.203 F 
ATOM     83  C   UNL A   1      46.345  27.899  35.063  1.00  0.00     0.198 A 
ATOM     84  C   UNL A   1      44.740  26.329  35.911  1.00  0.00     0.198 A 
ATOM     85  F   UNL A   1      42.447  26.651  35.505  1.00  0.00    -0.203 F 
ATOM     86  F   UNL A   1      47.618  28.275  34.883  1.00  0.00    -0.200 F 
ATOM     87  C   UNL A   1      46.057  26.733  35.756  1.00  0.00     0.200 A 
ATOM     88  F   UNL A   1      44.460  25.208  36.592  1.00  0.00    -0.200 F 
ATOM     89  F   UNL A   1      47.052  25.992  36.264  1.00  0.00    -0.200 F 
ENDBRANCH  56  79
ENDBRANCH  30  31
ENDBRANCH  22  25
ENDBRANCH  20  21
ENDBRANCH  19  20
ENDBRANCH  18  19
ENDBRANCH  17  18
ENDBRANCH   1  17
TORSDOF 18
ENDMDL
MODEL 2
REMARK VINA RESULT:     -10.3      0.787      7.656
REMARK SMILES COC[C@H](O)CC1(C(=O)NCCCCCCNC(=O)c2ccc(-c3c4nc(c(-c5c(F)c(F)c(F)c(F)c5F)c5ccc([nH]5)c(-c5c(F)c(F)c(F)c(F)c5F)c5nc(c(-c6c(F)c(F)c(F)c(F)c6F)c6ccc3[nH]6)C=C5)C=C4)cc2)CC1
REMARK SMILES IDX 12 1 11 2 10 3 8 4 9 5 7 7 83 8 84 9 6 10 4 11 3 12 2 13
REMARK SMILES IDX 1 14 5 15 13 17 14 18 15 19 16 20 17 21 18 22 19 24 20 25
REMARK SMILES IDX 21 26 82 27 22 28 81 29 23 30 24 31 25 32 75 33 26 34 80 35
REMARK SMILES IDX 74 36 76 37 27 38 79 39 73 40 72 41 28 43 60 44 40 45 59 46
REMARK SMILES IDX 41 47 44 48 58 49 77 50 42 51 43 52 57 54 78 55 45 56 29 57
REMARK SMILES IDX 30 58 38 59 31 60 32 61 36 62 39 63 33 64 34 65 37 66 35 67
REMARK SMILES IDX 61 68 62 69 70 70 63 71 64 72 68 73 71 74 65 75 66 76 69 77
REMARK SMILES IDX 67 78 46 79 47 80 55 81 48 82 49 83 53 84 56 85 50 86 51 87
REMARK SMILES IDX 54 88 52 89
REMARK H PARENT 10 6 5 16 17 23 76 42 44 53
REMARK Flexibility Score: inf
ROOT
ATOM      1  C   UNL A   1      32.464  28.638  25.775  1.00  0.00     0.021 C 
ENDROOT
BRANCH   1   2
ATOM      2  C   UNL A   1      33.747  27.956  25.296  1.00  0.00     0.116 C 
BRANCH   2   3
ATOM      3  N   UNL A   1      33.969  28.215  23.889  1.00  0.00    -0.356 N 
ATOM      4  C   UNL A   1      33.485  27.694  22.725  1.00  0.00     0.226 C 
ATOM      5  O   UNL A   1      34.076  28.028  21.697  1.00  0.00    -0.274 OA
ATOM      6  H   UNL A   1      34.623  28.934  23.736  1.00  0.00     0.163 HD
BRANCH   4   7
ATOM      7  C   UNL A   1      32.290  26.762  22.609  1.00  0.00     0.052 C 
ATOM      8  C   UNL A   1      32.179  25.531  23.492  1.00  0.00     0.018 C 
ATOM      9  C   UNL A   1      32.491  25.370  22.028  1.00  0.00     0.018 C 
BRANCH   7  10
ATOM     10  C   UNL A   1      30.994  27.511  22.222  1.00  0.00     0.051 C 
BRANCH  10  11
ATOM     11  C   UNL A   1      30.866  28.980  22.625  1.00  0.00     0.141 C 
BRANCH  11  12
ATOM     12  C   UNL A   1      29.390  29.413  22.621  1.00  0.00     0.191 C 
BRANCH  12  13
ATOM     13  O   UNL A   1      28.966  29.737  21.290  1.00  0.00    -0.382 OA
ATOM     14  C   UNL A   1      27.988  30.774  21.269  1.00  0.00     0.195 C 
ENDBRANCH  12  13
ENDBRANCH  11  12
BRANCH  11  15
ATOM     15  O   UNL A   1      31.582  29.805  21.697  1.00  0.00    -0.391 OA
ATOM     16  H   UNL A   1      32.013  29.245  21.031  1.00  0.00     0.211 HD
ENDBRANCH  11  15
ENDBRANCH  10  11
ENDBRANCH   7  10
ENDBRANCH   4   7
ENDBRANCH   2   3
ENDBRANCH   1   2
BRANCH   1  17
ATOM     17  C   UNL A   1      32.647  30.096  26.212  1.00  0.00     0.002 C 
BRANCH  17  18
ATOM     18  C   UNL A   1      31.361  30.821  26.620  1.00  0.00     0.002 C 
BRANCH  18  19
ATOM     19  C   UNL A   1      31.429  32.348  26.558  1.00  0.00     0.021 C 
BRANCH  19  20
ATOM     20  C   UNL A   1      32.645  32.961  27.242  1.00  0.00     0.116 C 
BRANCH  20  21
ATOM     21  N   UNL A   1      32.410  34.335  27.653  1.00  0.00    -0.352 N 
ATOM     22  C   UNL A   1      32.992  35.052  28.667  1.00  0.00     0.251 C 
ATOM     23  H   UNL A   1      31.735  34.822  27.127  1.00  0.00     0.163 HD
ATOM     24  O   UNL A   1      32.541  36.147  28.986  1.00  0.00    -0.269 OA
BRANCH  22  25
ATOM     25  C   UNL A   1      34.153  34.495  29.394  1.00  0.00     0.039 A 
ATOM     26  C   UNL A   1      33.932  33.861  30.619  1.00  0.00     0.014 A 
ATOM     27  C   UNL A   1      35.450  34.602  28.883  1.00  0.00     0.014 A 
ATOM     28  C   UNL A   1      35.004  33.287  31.303  1.00  0.00     0.010 A 
ATOM     29  C   UNL A   1      36.507  33.966  29.530  1.00  0.00     0.010 A 
ATOM     30  C   UNL A   1      36.294  33.305  30.748  1.00  0.00    -0.014 A 
BRANCH  30  31
ATOM     31  C   UNL A   1      37.420  32.616  31.429  1.00  0.00     0.031 A 
ATOM     32  C   UNL A   1      38.121  31.461  30.771  1.00  0.00     0.074 A 
ATOM     33  C   UNL A   1      37.779  33.008  32.666  1.00  0.00     0.049 A 
ATOM     34  N   UNL A   1      39.116  30.736  31.217  1.00  0.00    -0.248 NA
ATOM     35  C   UNL A   1      37.624  31.050  29.449  1.00  0.00     0.031 C 
ATOM     36  C   UNL A   1      37.135  34.074  33.434  1.00  0.00     0.029 A 
ATOM     37  N   UNL A   1      38.772  32.553  33.499  1.00  0.00    -0.354 N 
ATOM     38  C   UNL A   1      39.358  29.782  30.237  1.00  0.00     0.074 A 
ATOM     39  C   UNL A   1      38.372  29.984  29.199  1.00  0.00     0.031 C 
ATOM     40  C   UNL A   1      37.764  34.211  34.611  1.00  0.00     0.029 A 
ATOM     41  C   UNL A   1      38.835  33.223  34.696  1.00  0.00     0.049 A 
ATOM     42  H   UNL A   1      39.379  31.816  33.259  1.00  0.00     0.167 HD
ATOM     43  C   UNL A   1      40.331  28.840  30.198  1.00  0.00     0.037 A 
ATOM     44  C   UNL A   1      39.665  33.059  35.742  1.00  0.00     0.037 A 
ATOM     45  C   UNL A   1      41.323  28.654  31.225  1.00  0.00     0.049 A 
ATOM     46  C   UNL A   1      40.741  32.011  35.669  1.00  0.00     0.074 A 
ATOM     47  C   UNL A   1      42.391  27.775  31.246  1.00  0.00     0.029 A 
ATOM     48  N   UNL A   1      41.366  29.361  32.419  1.00  0.00    -0.354 N 
ATOM     49  N   UNL A   1      41.013  31.171  34.700  1.00  0.00    -0.248 NA
ATOM     50  C   UNL A   1      41.632  31.897  36.831  1.00  0.00     0.031 C 
ATOM     51  C   UNL A   1      43.049  27.912  32.474  1.00  0.00     0.029 A 
ATOM     52  C   UNL A   1      42.425  28.916  33.196  1.00  0.00     0.049 A 
ATOM     53  H   UNL A   1      40.737  30.072  32.677  1.00  0.00     0.167 HD
ATOM     54  C   UNL A   1      42.115  30.442  35.126  1.00  0.00     0.074 A 
ATOM     55  C   UNL A   1      42.477  30.959  36.429  1.00  0.00     0.031 C 
ATOM     56  C   UNL A   1      42.767  29.434  34.496  1.00  0.00     0.037 A 
BRANCH  43  57
ATOM     57  C   UNL A   1      40.372  27.933  29.001  1.00  0.00     0.064 A 
ATOM     58  C   UNL A   1      41.151  28.237  27.873  1.00  0.00     0.173 A 
ATOM     59  C   UNL A   1      39.656  26.727  28.994  1.00  0.00     0.173 A 
ATOM     60  F   UNL A   1      41.848  29.383  27.822  1.00  0.00    -0.203 F 
ATOM     61  C   UNL A   1      41.187  27.383  26.774  1.00  0.00     0.198 A 
ATOM     62  C   UNL A   1      39.718  25.860  27.906  1.00  0.00     0.198 A 
ATOM     63  F   UNL A   1      38.899  26.384  30.047  1.00  0.00    -0.203 F 
ATOM     64  F   UNL A   1      41.900  27.719  25.689  1.00  0.00    -0.200 F 
ATOM     65  C   UNL A   1      40.477  26.193  26.794  1.00  0.00     0.200 A 
ATOM     66  F   UNL A   1      39.042  24.703  27.933  1.00  0.00    -0.200 F 
ATOM     67  F   UNL A   1      40.520  25.367  25.739  1.00  0.00    -0.200 F 
ENDBRANCH  43  57
BRANCH  44  68
ATOM     68  C   UNL A   1      39.528  33.929  36.940  1.00  0.00     0.064 A 
ATOM     69  C   UNL A   1      38.795  33.507  38.058  1.00  0.00     0.173 A 
ATOM     70  C   UNL A   1      40.126  35.196  36.992  1.00  0.00     0.173 A 
ATOM     71  F   UNL A   1      38.189  32.311  38.048  1.00  0.00    -0.203 F 
ATOM     72  C   UNL A   1      38.646  34.329  39.173  1.00  0.00     0.198 A 
ATOM     73  C   UNL A   1      40.002  36.005  38.118  1.00  0.00     0.198 A 
ATOM     74  F   UNL A   1      40.843  35.644  35.950  1.00  0.00    -0.203 F 
ATOM     75  F   UNL A   1      37.900  33.920  40.208  1.00  0.00    -0.200 F 
ATOM     76  C   UNL A   1      39.254  35.575  39.205  1.00  0.00     0.200 A 
ATOM     77  F   UNL A   1      40.603  37.202  38.152  1.00  0.00    -0.200 F 
ATOM     78  F   UNL A   1      39.115  36.363  40.280  1.00  0.00    -0.200 F 
ENDBRANCH  44  68
BRANCH  56  79
ATOM     79  C   UNL A   1      43.948  28.836  35.206  1.00  0.00     0.064 A 
ATOM     80  C   UNL A   1      45.246  29.336  35.021  1.00  0.00     0.173 A 
ATOM     81  C   UNL A   1      43.778  27.762  36.092  1.00  0.00     0.173 A 
ATOM     82  F   UNL A   1      45.464  30.353  34.174  1.00  0.00    -0.203 F 
ATOM     83  C   UNL A   1      46.335  28.758  35.670  1.00  0.00     0.198 A 
ATOM     84  C   UNL A   1      44.864  27.208  36.764  1.00  0.00     0.198 A 
ATOM     85  F   UNL A   1      42.557  27.251  36.310  1.00  0.00    -0.203 F 
ATOM     86  F   UNL A   1      47.572  29.214  35.432  1.00  0.00    -0.200 F 
ATOM     87  C   UNL A   1      46.142  27.699  36.544  1.00  0.00     0.200 A 
ATOM     88  F   UNL A   1      44.675  26.193  37.618  1.00  0.00    -0.200 F 
ATOM     89  F   UNL A   1      47.191  27.144  37.168  1.00  0.00    -0.200 F 
ENDBRANCH  56  79
ENDBRANCH  30  31
ENDBRANCH  22  25
ENDBRANCH  20  21
ENDBRANCH  19  20
ENDBRANCH  18  19
ENDBRANCH  17  18
ENDBRANCH   1  17
TORSDOF 18
ENDMDL
MODEL 3
REMARK VINA RESULT:     -10.1      5.822     10.048
REMARK SMILES COC[C@H](O)CC1(C(=O)NCCCCCCNC(=O)c2ccc(-c3c4nc(c(-c5c(F)c(F)c(F)c(F)c5F)c5ccc([nH]5)c(-c5c(F)c(F)c(F)c(F)c5F)c5nc(c(-c6c(F)c(F)c(F)c(F)c6F)c6ccc3[nH]6)C=C5)C=C4)cc2)CC1
REMARK SMILES IDX 12 1 11 2 10 3 8 4 9 5 7 7 83 8 84 9 6 10 4 11 3 12 2 13
REMARK SMILES IDX 1 14 5 15 13 17 14 18 15 19 16 20 17 21 18 22 19 24 20 25
REMARK SMILES IDX 21 26 82 27 22 28 81 29 23 30 24 31 25 32 75 33 26 34 80 35
REMARK SMILES IDX 74 36 76 37 27 38 79 39 73 40 72 41 28 43 60 44 40 45 59 46
REMARK SMILES IDX 41 47 44 48 58 49 77 50 42 51 43 52 57 54 78 55 45 56 29 57
REMARK SMILES IDX 30 58 38 59 31 60 32 61 36 62 39 63 33 64 34 65 37 66 35 67
REMARK SMILES IDX 61 68 62 69 70 70 63 71 64 72 68 73 71 74 65 75 66 76 69 77
REMARK SMILES IDX 67 78 46 79 47 80 55 81 48 82 49 83 53 84 56 85 50 86 51 87
REMARK SMILES IDX 54 88 52 89
REMARK H PARENT 10 6 5 16 17 23 76 42 44 53
REMARK Flexibility Score: inf
ROOT
ATOM      1  C   UNL A   1      36.572  23.109  24.365  1.00  0.00     0.021 C 
ENDROOT
BRANCH   1   2
ATOM      2  C   UNL A   1      35.915  24.062  25.364  1.00  0.00     0.116 C 
BRANCH   2   3
ATOM      3  N   UNL A   1      35.245  23.323  26.413  1.00  0.00    -0.356 N 
ATOM      4  C   UNL A   1      33.995  22.803  26.578  1.00  0.00     0.226 C 
ATOM      5  O   UNL A   1      33.717  22.416  27.714  1.00  0.00    -0.274 OA
ATOM      6  H   UNL A   1      35.827  23.158  27.190  1.00  0.00     0.163 HD
BRANCH   4   7
ATOM      7  C   UNL A   1      32.951  22.659  25.483  1.00  0.00     0.052 C 
ATOM      8  C   UNL A   1      32.036  21.447  25.437  1.00  0.00     0.018 C 
ATOM      9  C   UNL A   1      33.137  21.586  24.419  1.00  0.00     0.018 C 
BRANCH   7  10
ATOM     10  C   UNL A   1      32.390  24.024  25.021  1.00  0.00     0.051 C 
BRANCH  10  11
ATOM     11  C   UNL A   1      31.451  24.772  25.969  1.00  0.00     0.141 C 
BRANCH  11  12
ATOM     12  C   UNL A   1      31.963  26.201  26.217  1.00  0.00     0.191 C 
BRANCH  12  13
ATOM     13  O   UNL A   1      31.308  26.777  27.355  1.00  0.00    -0.382 OA
ATOM     14  C   UNL A   1      31.598  28.165  27.504  1.00  0.00     0.195 C 
ENDBRANCH  12  13
ENDBRANCH  11  12
BRANCH  11  15
ATOM     15  O   UNL A   1      31.386  24.089  27.228  1.00  0.00    -0.391 OA
ATOM     16  H   UNL A   1      32.092  23.425  27.274  1.00  0.00     0.211 HD
ENDBRANCH  11  15
ENDBRANCH  10  11
ENDBRANCH   7  10
ENDBRANCH   4   7
ENDBRANCH   2   3
ENDBRANCH   1   2
BRANCH   1  17
ATOM     17  C   UNL A   1      37.460  22.035  25.003  1.00  0.00     0.002 C 
BRANCH  17  18
ATOM     18  C   UNL A   1      37.024  20.589  24.747  1.00  0.00     0.002 C 
BRANCH  18  19
ATOM     19  C   UNL A   1      38.106  19.533  24.980  1.00  0.00     0.021 C 
BRANCH  19  20
ATOM     20  C   UNL A   1      39.269  19.993  25.849  1.00  0.00     0.116 C 
BRANCH  20  21
ATOM     21  N   UNL A   1      40.316  18.989  25.943  1.00  0.00    -0.352 N 
ATOM     22  C   UNL A   1      41.668  19.154  26.105  1.00  0.00     0.251 C 
ATOM     23  H   UNL A   1      40.010  18.055  25.881  1.00  0.00     0.163 HD
ATOM     24  O   UNL A   1      42.425  18.197  25.981  1.00  0.00    -0.269 OA
BRANCH  22  25
ATOM     25  C   UNL A   1      42.218  20.492  26.406  1.00  0.00     0.039 A 
ATOM     26  C   UNL A   1      42.625  21.303  25.343  1.00  0.00     0.014 A 
ATOM     27  C   UNL A   1      42.345  20.946  27.722  1.00  0.00     0.014 A 
ATOM     28  C   UNL A   1      43.105  22.587  25.597  1.00  0.00     0.010 A 
ATOM     29  C   UNL A   1      42.756  22.254  27.970  1.00  0.00     0.010 A 
ATOM     30  C   UNL A   1      43.142  23.086  26.910  1.00  0.00    -0.014 A 
BRANCH  30  31
ATOM     31  C   UNL A   1      43.567  24.484  27.176  1.00  0.00     0.031 A 
ATOM     32  C   UNL A   1      42.586  25.495  27.701  1.00  0.00     0.074 A 
ATOM     33  C   UNL A   1      44.832  24.852  26.898  1.00  0.00     0.049 A 
ATOM     34  N   UNL A   1      42.776  26.760  27.984  1.00  0.00    -0.248 NA
ATOM     35  C   UNL A   1      41.207  25.033  27.913  1.00  0.00     0.031 C 
ATOM     36  C   UNL A   1      45.859  23.978  26.327  1.00  0.00     0.029 A 
ATOM     37  N   UNL A   1      45.471  26.057  27.054  1.00  0.00    -0.354 N 
ATOM     38  C   UNL A   1      41.542  27.243  28.399  1.00  0.00     0.074 A 
ATOM     39  C   UNL A   1      40.599  26.153  28.278  1.00  0.00     0.031 C 
ATOM     40  C   UNL A   1      47.005  24.666  26.208  1.00  0.00     0.029 A 
ATOM     41  C   UNL A   1      46.787  26.036  26.662  1.00  0.00     0.049 A 
ATOM     42  H   UNL A   1      45.027  26.859  27.413  1.00  0.00     0.167 HD
ATOM     43  C   UNL A   1      41.230  28.478  28.861  1.00  0.00     0.037 A 
ATOM     44  C   UNL A   1      47.714  27.011  26.670  1.00  0.00     0.037 A 
ATOM     45  C   UNL A   1      42.176  29.556  28.997  1.00  0.00     0.049 A 
ATOM     46  C   UNL A   1      47.344  28.371  27.196  1.00  0.00     0.074 A 
ATOM     47  C   UNL A   1      41.974  30.821  29.520  1.00  0.00     0.029 A 
ATOM     48  N   UNL A   1      43.505  29.495  28.603  1.00  0.00    -0.354 N 
ATOM     49  N   UNL A   1      46.194  28.792  27.665  1.00  0.00    -0.248 NA
ATOM     50  C   UNL A   1      48.404  29.387  27.203  1.00  0.00     0.031 C 
ATOM     51  C   UNL A   1      43.167  31.543  29.394  1.00  0.00     0.029 A 
ATOM     52  C   UNL A   1      44.128  30.710  28.844  1.00  0.00     0.049 A 
ATOM     53  H   UNL A   1      43.942  28.706  28.209  1.00  0.00     0.167 HD
ATOM     54  C   UNL A   1      46.397  30.113  28.040  1.00  0.00     0.074 A 
ATOM     55  C   UNL A   1      47.787  30.414  27.768  1.00  0.00     0.031 C 
ATOM     56  C   UNL A   1      45.510  30.998  28.560  1.00  0.00     0.037 A 
BRANCH  43  57
ATOM     57  C   UNL A   1      39.804  28.733  29.256  1.00  0.00     0.064 A 
ATOM     58  C   UNL A   1      39.349  28.498  30.564  1.00  0.00     0.173 A 
ATOM     59  C   UNL A   1      38.888  29.254  28.330  1.00  0.00     0.173 A 
ATOM     60  F   UNL A   1      40.179  27.990  31.486  1.00  0.00    -0.203 F 
ATOM     61  C   UNL A   1      38.026  28.747  30.919  1.00  0.00     0.198 A 
ATOM     62  C   UNL A   1      37.574  29.531  28.696  1.00  0.00     0.198 A 
ATOM     63  F   UNL A   1      39.271  29.503  27.068  1.00  0.00    -0.203 F 
ATOM     64  F   UNL A   1      37.603  28.468  32.160  1.00  0.00    -0.200 F 
ATOM     65  C   UNL A   1      37.142  29.270  29.988  1.00  0.00     0.200 A 
ATOM     66  F   UNL A   1      36.724  30.050  27.798  1.00  0.00    -0.200 F 
ATOM     67  F   UNL A   1      35.871  29.518  30.333  1.00  0.00    -0.200 F 
ENDBRANCH  43  57
BRANCH  44  68
ATOM     68  C   UNL A   1      49.092  26.729  26.189  1.00  0.00     0.064 A 
ATOM     69  C   UNL A   1      49.467  27.011  24.867  1.00  0.00     0.173 A 
ATOM     70  C   UNL A   1      50.060  26.173  27.037  1.00  0.00     0.173 A 
ATOM     71  F   UNL A   1      48.569  27.524  24.013  1.00  0.00    -0.203 F 
ATOM     72  C   UNL A   1      50.750  26.727  24.407  1.00  0.00     0.198 A 
ATOM     73  C   UNL A   1      51.352  25.918  26.585  1.00  0.00     0.198 A 
ATOM     74  F   UNL A   1      49.754  25.891  28.312  1.00  0.00    -0.203 F 
ATOM     75  F   UNL A   1      51.067  26.962  23.127  1.00  0.00    -0.200 F 
ATOM     76  C   UNL A   1      51.694  26.186  25.267  1.00  0.00     0.200 A 
ATOM     77  F   UNL A   1      52.266  25.409  27.422  1.00  0.00    -0.200 F 
ATOM     78  F   UNL A   1      52.930  25.917  24.825  1.00  0.00    -0.200 F 
ENDBRANCH  44  68
BRANCH  56  79
ATOM     79  C   UNL A   1      46.027  32.371  28.881  1.00  0.00     0.064 A 
ATOM     80  C   UNL A   1      46.603  32.666  30.127  1.00  0.00     0.173 A 
ATOM     81  C   UNL A   1      45.959  33.400  27.929  1.00  0.00     0.173 A 
ATOM     82  F   UNL A   1      46.678  31.722  31.077  1.00  0.00    -0.203 F 
ATOM     83  C   UNL A   1      47.058  33.950  30.419  1.00  0.00     0.198 A 
ATOM     84  C   UNL A   1      46.445  34.672  28.214  1.00  0.00     0.198 A 
ATOM     85  F   UNL A   1      45.425  33.169  26.721  1.00  0.00    -0.203 F 
ATOM     86  F   UNL A   1      47.549  34.223  31.636  1.00  0.00    -0.200 F 
ATOM     87  C   UNL A   1      46.984  34.950  29.461  1.00  0.00     0.200 A 
ATOM     88  F   UNL A   1      46.385  35.634  27.282  1.00  0.00    -0.200 F 
ATOM     89  F   UNL A   1      47.422  36.184  29.744  1.00  0.00    -0.200 F 
ENDBRANCH  56  79
ENDBRANCH  30  31
ENDBRANCH  22  25
ENDBRANCH  20  21
ENDBRANCH  19  20
ENDBRANCH  18  19
ENDBRANCH  17  18
ENDBRANCH   1  17
TORSDOF 18
ENDMDL
