MODEL 1
REMARK VINA RESULT:     -11.8      0.000      0.000
REMARK SMILES Cc1c(C(=O)NCCCCCCNC(=O)c2ccc(-c3c4nc(c(-c5c(F)c(F)c(F)c(F)c5F)c5ccc([nH]5)c(-c5c(F)c(F)c(F)c(F)c5F)c5nc(c(-c6c(F)c(F)c(F)c(F)c6F)c6ccc3[nH]6)C=C5)C=C4)cc2)cnc2nc(CO)nn12
REMARK SMILES IDX 9 1 8 2 7 3 6 4 4 5 5 6 3 8 1 9 2 10 87 11 79 12 81 13 86 14
REMARK SMILES IDX 80 15 82 16 83 17 84 18 85 19 10 21 11 22 12 23 13 24 14 25
REMARK SMILES IDX 15 27 16 28 17 29 78 30 18 31 77 32 19 33 20 34 21 35 71 36
REMARK SMILES IDX 22 37 76 38 70 39 72 40 23 41 75 42 69 43 68 44 24 46 56 47
REMARK SMILES IDX 36 48 55 49 37 50 40 51 54 52 73 53 38 54 39 55 53 57 74 58
REMARK SMILES IDX 41 59 25 60 26 61 34 62 27 63 28 64 32 65 35 66 29 67 30 68
REMARK SMILES IDX 33 69 31 70 57 71 58 72 66 73 59 74 60 75 64 76 67 77 61 78
REMARK SMILES IDX 62 79 65 80 63 81 42 82 43 83 51 84 44 85 45 86 49 87 52 88
REMARK SMILES IDX 46 89 47 90 50 91 48 92
REMARK H PARENT 6 7 85 20 13 26 72 45 40 56
REMARK Flexibility Score: inf
ROOT
ATOM      1  C   UNL A   1      40.166  21.790  26.929  1.00  0.00     0.002 C 
ENDROOT
BRANCH   1   2
ATOM      2  C   UNL A   1      39.046  21.503  25.919  1.00  0.00     0.021 C 
BRANCH   2   3
ATOM      3  C   UNL A   1      38.023  22.639  25.844  1.00  0.00     0.116 C 
BRANCH   3   4
ATOM      4  N   UNL A   1      37.560  22.775  24.481  1.00  0.00    -0.352 N 
ATOM      5  C   UNL A   1      36.369  23.048  23.898  1.00  0.00     0.254 C 
ATOM      6  O   UNL A   1      36.361  22.970  22.669  1.00  0.00    -0.269 OA
ATOM      7  H   UNL A   1      38.279  22.635  23.823  1.00  0.00     0.163 HD
BRANCH   5   8
ATOM      8  C   UNL A   1      35.153  23.465  24.662  1.00  0.00     0.079 A 
ATOM      9  C   UNL A   1      34.242  21.096  24.697  1.00  0.00     0.068 C 
ATOM     10  C   UNL A   1      34.174  22.576  24.977  1.00  0.00     0.057 A 
ATOM     11  N   UNL A   1      33.005  23.046  25.600  1.00  0.00    -0.200 N 
ATOM     12  C   UNL A   1      34.899  24.839  25.191  1.00  0.00     0.131 A 
ATOM     13  C   UNL A   1      32.819  24.403  25.897  1.00  0.00     0.252 A 
ATOM     14  N   UNL A   1      31.909  22.357  26.008  1.00  0.00    -0.147 NA
ATOM     15  N   UNL A   1      33.813  25.310  25.718  1.00  0.00    -0.219 NA
ATOM     16  N   UNL A   1      31.635  24.579  26.434  1.00  0.00    -0.191 NA
ATOM     17  C   UNL A   1      31.138  23.313  26.535  1.00  0.00     0.178 A 
BRANCH  17  18
ATOM     18  C   UNL A   1      29.828  23.036  27.198  1.00  0.00     0.235 C 
BRANCH  18  19
ATOM     19  O   UNL A   1      29.159  21.883  26.681  1.00  0.00    -0.388 OA
ATOM     20  H   UNL A   1      28.314  22.150  26.287  1.00  0.00     0.211 HD
ENDBRANCH  18  19
ENDBRANCH  17  18
ENDBRANCH   5   8
ENDBRANCH   3   4
ENDBRANCH   2   3
ENDBRANCH   1   2
BRANCH   1  21
ATOM     21  C   UNL A   1      41.056  20.577  27.250  1.00  0.00     0.002 C 
BRANCH  21  22
ATOM     22  C   UNL A   1      41.615  19.844  26.021  1.00  0.00     0.021 C 
BRANCH  22  23
ATOM     23  C   UNL A   1      43.036  19.378  26.249  1.00  0.00     0.116 C 
BRANCH  23  24
ATOM     24  N   UNL A   1      43.841  19.560  25.038  1.00  0.00    -0.352 N 
ATOM     25  C   UNL A   1      44.195  20.737  24.429  1.00  0.00     0.251 C 
ATOM     26  H   UNL A   1      44.167  18.736  24.609  1.00  0.00     0.163 HD
ATOM     27  O   UNL A   1      44.557  20.770  23.248  1.00  0.00    -0.269 OA
BRANCH  25  28
ATOM     28  C   UNL A   1      44.205  21.949  25.246  1.00  0.00     0.039 A 
ATOM     29  C   UNL A   1      45.207  22.241  26.173  1.00  0.00     0.014 A 
ATOM     30  C   UNL A   1      43.151  22.832  25.025  1.00  0.00     0.014 A 
ATOM     31  C   UNL A   1      45.072  23.396  26.935  1.00  0.00     0.010 A 
ATOM     32  C   UNL A   1      43.218  24.088  25.530  1.00  0.00     0.010 A 
ATOM     33  C   UNL A   1      44.026  24.279  26.630  1.00  0.00    -0.014 A 
BRANCH  33  34
ATOM     34  C   UNL A   1      43.759  25.500  27.358  1.00  0.00     0.031 A 
ATOM     35  C   UNL A   1      44.714  26.571  27.001  1.00  0.00     0.074 A 
ATOM     36  C   UNL A   1      42.624  25.665  28.083  1.00  0.00     0.049 A 
ATOM     37  N   UNL A   1      45.668  27.022  27.740  1.00  0.00    -0.248 NA
ATOM     38  C   UNL A   1      44.776  27.036  25.603  1.00  0.00     0.031 C 
ATOM     39  C   UNL A   1      41.481  24.758  28.263  1.00  0.00     0.029 A 
ATOM     40  N   UNL A   1      42.237  26.760  28.800  1.00  0.00    -0.354 N 
ATOM     41  C   UNL A   1      46.305  27.994  26.982  1.00  0.00     0.074 A 
ATOM     42  C   UNL A   1      45.869  27.802  25.627  1.00  0.00     0.031 C 
ATOM     43  C   UNL A   1      40.448  25.421  28.842  1.00  0.00     0.029 A 
ATOM     44  C   UNL A   1      40.899  26.747  29.216  1.00  0.00     0.049 A 
ATOM     45  H   UNL A   1      42.850  27.502  29.007  1.00  0.00     0.167 HD
ATOM     46  C   UNL A   1      46.927  29.040  27.594  1.00  0.00     0.037 A 
ATOM     47  C   UNL A   1      40.253  27.793  29.806  1.00  0.00     0.037 A 
ATOM     48  C   UNL A   1      47.109  28.764  28.998  1.00  0.00     0.049 A 
ATOM     49  C   UNL A   1      41.320  28.678  30.363  1.00  0.00     0.074 A 
ATOM     50  C   UNL A   1      47.831  27.823  29.705  1.00  0.00     0.029 A 
ATOM     51  N   UNL A   1      46.132  29.215  29.856  1.00  0.00    -0.354 N 
ATOM     52  N   UNL A   1      42.118  28.302  31.327  1.00  0.00    -0.248 NA
ATOM     53  C   UNL A   1      41.844  29.704  29.470  1.00  0.00     0.031 C 
ATOM     54  C   UNL A   1      46.960  27.404  30.754  1.00  0.00     0.029 A 
ATOM     55  C   UNL A   1      45.808  28.189  30.710  1.00  0.00     0.049 A 
ATOM     56  H   UNL A   1      45.735  30.115  29.857  1.00  0.00     0.167 HD
ATOM     57  C   UNL A   1      43.380  28.706  30.914  1.00  0.00     0.074 A 
ATOM     58  C   UNL A   1      43.144  29.575  29.760  1.00  0.00     0.031 C 
ATOM     59  C   UNL A   1      44.507  28.054  31.328  1.00  0.00     0.037 A 
BRANCH  46  60
ATOM     60  C   UNL A   1      47.013  30.433  27.030  1.00  0.00     0.064 A 
ATOM     61  C   UNL A   1      48.252  31.101  27.056  1.00  0.00     0.173 A 
ATOM     62  C   UNL A   1      45.892  31.238  26.733  1.00  0.00     0.173 A 
ATOM     63  F   UNL A   1      49.380  30.438  27.350  1.00  0.00    -0.203 F 
ATOM     64  C   UNL A   1      48.349  32.482  26.865  1.00  0.00     0.198 A 
ATOM     65  C   UNL A   1      45.999  32.606  26.493  1.00  0.00     0.198 A 
ATOM     66  F   UNL A   1      44.642  30.766  26.771  1.00  0.00    -0.203 F 
ATOM     67  F   UNL A   1      49.533  33.092  27.012  1.00  0.00    -0.200 F 
ATOM     68  C   UNL A   1      47.223  33.234  26.586  1.00  0.00     0.200 A 
ATOM     69  F   UNL A   1      44.891  33.320  26.248  1.00  0.00    -0.200 F 
ATOM     70  F   UNL A   1      47.305  34.564  26.456  1.00  0.00    -0.200 F 
ENDBRANCH  46  60
BRANCH  47  71
ATOM     71  C   UNL A   1      38.892  28.321  29.500  1.00  0.00     0.064 A 
ATOM     72  C   UNL A   1      37.976  28.639  30.524  1.00  0.00     0.173 A 
ATOM     73  C   UNL A   1      38.585  28.825  28.221  1.00  0.00     0.173 A 
ATOM     74  F   UNL A   1      38.210  28.241  31.783  1.00  0.00    -0.203 F 
ATOM     75  C   UNL A   1      36.847  29.437  30.286  1.00  0.00     0.198 A 
ATOM     76  C   UNL A   1      37.462  29.625  27.987  1.00  0.00     0.198 A 
ATOM     77  F   UNL A   1      39.424  28.639  27.193  1.00  0.00    -0.203 F 
ATOM     78  F   UNL A   1      36.031  29.767  31.299  1.00  0.00    -0.200 F 
ATOM     79  C   UNL A   1      36.600  29.943  29.021  1.00  0.00     0.200 A 
ATOM     80  F   UNL A   1      37.259  30.142  26.767  1.00  0.00    -0.200 F 
ATOM     81  F   UNL A   1      35.564  30.766  28.806  1.00  0.00    -0.200 F 
ENDBRANCH  47  71
BRANCH  59  82
ATOM     82  C   UNL A   1      44.366  26.998  32.394  1.00  0.00     0.064 A 
ATOM     83  C   UNL A   1      44.242  25.618  32.148  1.00  0.00     0.173 A 
ATOM     84  C   UNL A   1      44.518  27.394  33.728  1.00  0.00     0.173 A 
ATOM     85  F   UNL A   1      44.189  25.142  30.899  1.00  0.00    -0.203 F 
ATOM     86  C   UNL A   1      44.231  24.689  33.191  1.00  0.00     0.198 A 
ATOM     87  C   UNL A   1      44.542  26.466  34.765  1.00  0.00     0.198 A 
ATOM     88  F   UNL A   1      44.700  28.691  34.024  1.00  0.00    -0.203 F 
ATOM     89  F   UNL A   1      44.105  23.379  32.928  1.00  0.00    -0.200 F 
ATOM     90  C   UNL A   1      44.387  25.115  34.499  1.00  0.00     0.200 A 
ATOM     91  F   UNL A   1      44.747  26.881  36.022  1.00  0.00    -0.200 F 
ATOM     92  F   UNL A   1      44.412  24.225  35.501  1.00  0.00    -0.200 F 
ENDBRANCH  59  82
ENDBRANCH  33  34
ENDBRANCH  25  28
ENDBRANCH  23  24
ENDBRANCH  22  23
ENDBRANCH  21  22
ENDBRANCH   1  21
TORSDOF 15
ENDMDL
MODEL 2
REMARK VINA RESULT:     -11.8      4.063      7.545
REMARK SMILES Cc1c(C(=O)NCCCCCCNC(=O)c2ccc(-c3c4nc(c(-c5c(F)c(F)c(F)c(F)c5F)c5ccc([nH]5)c(-c5c(F)c(F)c(F)c(F)c5F)c5nc(c(-c6c(F)c(F)c(F)c(F)c6F)c6ccc3[nH]6)C=C5)C=C4)cc2)cnc2nc(CO)nn12
REMARK SMILES IDX 9 1 8 2 7 3 6 4 4 5 5 6 3 8 1 9 2 10 87 11 79 12 81 13 86 14
REMARK SMILES IDX 80 15 82 16 83 17 84 18 85 19 10 21 11 22 12 23 13 24 14 25
REMARK SMILES IDX 15 27 16 28 17 29 78 30 18 31 77 32 19 33 20 34 21 35 71 36
REMARK SMILES IDX 22 37 76 38 70 39 72 40 23 41 75 42 69 43 68 44 24 46 56 47
REMARK SMILES IDX 36 48 55 49 37 50 40 51 54 52 73 53 38 54 39 55 53 57 74 58
REMARK SMILES IDX 41 59 25 60 26 61 34 62 27 63 28 64 32 65 35 66 29 67 30 68
REMARK SMILES IDX 33 69 31 70 57 71 58 72 66 73 59 74 60 75 64 76 67 77 61 78
REMARK SMILES IDX 62 79 65 80 63 81 42 82 43 83 51 84 44 85 45 86 49 87 52 88
REMARK SMILES IDX 46 89 47 90 50 91 48 92
REMARK H PARENT 6 7 85 20 13 26 72 45 40 56
REMARK Flexibility Score: inf
ROOT
ATOM      1  C   UNL A   1      46.441  24.052  26.876  1.00  0.00     0.002 C 
ENDROOT
BRANCH   1   2
ATOM      2  C   UNL A   1      45.930  24.583  28.223  1.00  0.00     0.021 C 
BRANCH   2   3
ATOM      3  C   UNL A   1      45.444  26.032  28.132  1.00  0.00     0.116 C 
BRANCH   3   4
ATOM      4  N   UNL A   1      46.543  26.923  28.434  1.00  0.00    -0.352 N 
ATOM      5  C   UNL A   1      47.462  27.591  27.699  1.00  0.00     0.254 C 
ATOM      6  O   UNL A   1      48.323  28.181  28.353  1.00  0.00    -0.269 OA
ATOM      7  H   UNL A   1      46.647  27.078  29.401  1.00  0.00     0.163 HD
BRANCH   5   8
ATOM      8  C   UNL A   1      47.428  27.665  26.206  1.00  0.00     0.079 A 
ATOM      9  C   UNL A   1      49.386  26.066  25.984  1.00  0.00     0.068 C 
ATOM     10  C   UNL A   1      48.337  27.003  25.442  1.00  0.00     0.057 A 
ATOM     11  N   UNL A   1      48.325  27.197  24.050  1.00  0.00    -0.200 N 
ATOM     12  C   UNL A   1      46.407  28.405  25.405  1.00  0.00     0.131 A 
ATOM     13  C   UNL A   1      47.407  28.057  23.431  1.00  0.00     0.252 A 
ATOM     14  N   UNL A   1      49.120  26.649  23.096  1.00  0.00    -0.147 NA
ATOM     15  N   UNL A   1      46.402  28.644  24.130  1.00  0.00    -0.219 NA
ATOM     16  N   UNL A   1      47.635  28.090  22.140  1.00  0.00    -0.191 NA
ATOM     17  C   UNL A   1      48.641  27.184  21.969  1.00  0.00     0.178 A 
BRANCH  17  18
ATOM     18  C   UNL A   1      49.150  26.826  20.611  1.00  0.00     0.235 C 
BRANCH  18  19
ATOM     19  O   UNL A   1      48.653  25.576  20.126  1.00  0.00    -0.388 OA
ATOM     20  H   UNL A   1      48.907  25.467  19.196  1.00  0.00     0.211 HD
ENDBRANCH  18  19
ENDBRANCH  17  18
ENDBRANCH   5   8
ENDBRANCH   3   4
ENDBRANCH   2   3
ENDBRANCH   1   2
BRANCH   1  21
ATOM     21  C   UNL A   1      45.509  24.340  25.687  1.00  0.00     0.002 C 
BRANCH  21  22
ATOM     22  C   UNL A   1      44.663  23.143  25.225  1.00  0.00     0.021 C 
BRANCH  22  23
ATOM     23  C   UNL A   1      43.251  23.561  24.876  1.00  0.00     0.116 C 
BRANCH  23  24
ATOM     24  N   UNL A   1      42.280  22.608  25.421  1.00  0.00    -0.352 N 
ATOM     25  C   UNL A   1      41.507  22.743  26.546  1.00  0.00     0.251 C 
ATOM     26  H   UNL A   1      42.169  21.770  24.918  1.00  0.00     0.163 HD
ATOM     27  O   UNL A   1      41.003  21.763  27.105  1.00  0.00    -0.269 OA
BRANCH  25  28
ATOM     28  C   UNL A   1      41.233  24.096  27.026  1.00  0.00     0.039 A 
ATOM     29  C   UNL A   1      40.173  24.876  26.556  1.00  0.00     0.014 A 
ATOM     30  C   UNL A   1      42.087  24.569  28.018  1.00  0.00     0.014 A 
ATOM     31  C   UNL A   1      40.053  26.173  27.044  1.00  0.00     0.010 A 
ATOM     32  C   UNL A   1      41.754  25.687  28.706  1.00  0.00     0.010 A 
ATOM     33  C   UNL A   1      40.903  26.575  28.086  1.00  0.00    -0.014 A 
BRANCH  33  34
ATOM     34  C   UNL A   1      40.899  27.900  28.667  1.00  0.00     0.031 A 
ATOM     35  C   UNL A   1      41.993  28.737  28.131  1.00  0.00     0.074 A 
ATOM     36  C   UNL A   1      39.863  28.344  29.421  1.00  0.00     0.049 A 
ATOM     37  N   UNL A   1      43.060  29.094  28.758  1.00  0.00    -0.248 NA
ATOM     38  C   UNL A   1      42.034  29.020  26.684  1.00  0.00     0.031 C 
ATOM     39  C   UNL A   1      38.598  27.680  29.771  1.00  0.00     0.029 A 
ATOM     40  N   UNL A   1      39.719  29.565  30.014  1.00  0.00    -0.354 N 
ATOM     41  C   UNL A   1      43.797  29.845  27.853  1.00  0.00     0.074 A 
ATOM     42  C   UNL A   1      43.239  29.579  26.557  1.00  0.00     0.031 C 
ATOM     43  C   UNL A   1      37.737  28.577  30.314  1.00  0.00     0.029 A 
ATOM     44  C   UNL A   1      38.431  29.836  30.496  1.00  0.00     0.049 A 
ATOM     45  H   UNL A   1      40.462  30.206  30.096  1.00  0.00     0.167 HD
ATOM     46  C   UNL A   1      44.628  30.828  28.297  1.00  0.00     0.037 A 
ATOM     47  C   UNL A   1      38.015  31.041  30.981  1.00  0.00     0.037 A 
ATOM     48  C   UNL A   1      44.862  30.687  29.714  1.00  0.00     0.049 A 
ATOM     49  C   UNL A   1      39.254  31.782  31.368  1.00  0.00     0.074 A 
ATOM     50  C   UNL A   1      45.462  29.721  30.496  1.00  0.00     0.029 A 
ATOM     51  N   UNL A   1      44.039  31.399  30.556  1.00  0.00    -0.354 N 
ATOM     52  N   UNL A   1      40.043  31.384  32.331  1.00  0.00    -0.248 NA
ATOM     53  C   UNL A   1      39.878  32.590  30.329  1.00  0.00     0.031 C 
ATOM     54  C   UNL A   1      44.609  29.585  31.632  1.00  0.00     0.029 A 
ATOM     55  C   UNL A   1      43.607  30.551  31.547  1.00  0.00     0.049 A 
ATOM     56  H   UNL A   1      43.801  32.349  30.465  1.00  0.00     0.167 HD
ATOM     57  C   UNL A   1      41.322  31.509  31.808  1.00  0.00     0.074 A 
ATOM     58  C   UNL A   1      41.155  32.268  30.566  1.00  0.00     0.031 C 
ATOM     59  C   UNL A   1      42.349  30.720  32.242  1.00  0.00     0.037 A 
BRANCH  46  60
ATOM     60  C   UNL A   1      44.909  32.110  27.559  1.00  0.00     0.064 A 
ATOM     61  C   UNL A   1      46.151  32.266  26.915  1.00  0.00     0.173 A 
ATOM     62  C   UNL A   1      44.140  33.287  27.696  1.00  0.00     0.173 A 
ATOM     63  F   UNL A   1      46.972  31.219  26.752  1.00  0.00    -0.203 F 
ATOM     64  C   UNL A   1      46.615  33.517  26.501  1.00  0.00     0.198 A 
ATOM     65  C   UNL A   1      44.584  34.524  27.235  1.00  0.00     0.198 A 
ATOM     66  F   UNL A   1      42.988  33.314  28.373  1.00  0.00    -0.203 F 
ATOM     67  F   UNL A   1      47.851  33.635  25.998  1.00  0.00    -0.200 F 
ATOM     68  C   UNL A   1      45.833  34.646  26.664  1.00  0.00     0.200 A 
ATOM     69  F   UNL A   1      43.820  35.609  27.425  1.00  0.00    -0.200 F 
ATOM     70  F   UNL A   1      46.296  35.853  26.318  1.00  0.00    -0.200 F 
ENDBRANCH  46  60
BRANCH  47  71
ATOM     71  C   UNL A   1      36.745  31.763  30.680  1.00  0.00     0.064 A 
ATOM     72  C   UNL A   1      35.886  32.204  31.707  1.00  0.00     0.173 A 
ATOM     73  C   UNL A   1      36.512  32.313  29.405  1.00  0.00     0.173 A 
ATOM     74  F   UNL A   1      36.061  31.770  32.964  1.00  0.00    -0.203 F 
ATOM     75  C   UNL A   1      34.884  33.158  31.475  1.00  0.00     0.198 A 
ATOM     76  C   UNL A   1      35.517  33.268  29.177  1.00  0.00     0.198 A 
ATOM     77  F   UNL A   1      37.315  32.012  28.374  1.00  0.00    -0.203 F 
ATOM     78  F   UNL A   1      34.125  33.598  32.491  1.00  0.00    -0.200 F 
ATOM     79  C   UNL A   1      34.712  33.702  30.214  1.00  0.00     0.200 A 
ATOM     80  F   UNL A   1      35.390  33.816  27.960  1.00  0.00    -0.200 F 
ATOM     81  F   UNL A   1      33.805  34.667  30.004  1.00  0.00    -0.200 F 
ENDBRANCH  47  71
BRANCH  59  82
ATOM     82  C   UNL A   1      42.108  29.835  33.438  1.00  0.00     0.064 A 
ATOM     83  C   UNL A   1      41.672  28.498  33.375  1.00  0.00     0.173 A 
ATOM     84  C   UNL A   1      42.485  30.321  34.696  1.00  0.00     0.173 A 
ATOM     85  F   UNL A   1      41.385  27.921  32.203  1.00  0.00    -0.203 F 
ATOM     86  C   UNL A   1      41.581  27.706  34.521  1.00  0.00     0.198 A 
ATOM     87  C   UNL A   1      42.428  29.521  35.833  1.00  0.00     0.198 A 
ATOM     88  F   UNL A   1      42.965  31.569  34.814  1.00  0.00    -0.203 F 
ATOM     89  F   UNL A   1      41.157  26.436  34.433  1.00  0.00    -0.200 F 
ATOM     90  C   UNL A   1      41.965  28.218  35.750  1.00  0.00     0.200 A 
ATOM     91  F   UNL A   1      42.852  30.006  37.008  1.00  0.00    -0.200 F 
ATOM     92  F   UNL A   1      41.913  27.451  36.847  1.00  0.00    -0.200 F 
ENDBRANCH  59  82
ENDBRANCH  33  34
ENDBRANCH  25  28
ENDBRANCH  23  24
ENDBRANCH  22  23
ENDBRANCH  21  22
ENDBRANCH   1  21
TORSDOF 15
ENDMDL
MODEL 3
REMARK VINA RESULT:     -11.6      4.081      9.127
REMARK SMILES Cc1c(C(=O)NCCCCCCNC(=O)c2ccc(-c3c4nc(c(-c5c(F)c(F)c(F)c(F)c5F)c5ccc([nH]5)c(-c5c(F)c(F)c(F)c(F)c5F)c5nc(c(-c6c(F)c(F)c(F)c(F)c6F)c6ccc3[nH]6)C=C5)C=C4)cc2)cnc2nc(CO)nn12
REMARK SMILES IDX 9 1 8 2 7 3 6 4 4 5 5 6 3 8 1 9 2 10 87 11 79 12 81 13 86 14
REMARK SMILES IDX 80 15 82 16 83 17 84 18 85 19 10 21 11 22 12 23 13 24 14 25
REMARK SMILES IDX 15 27 16 28 17 29 78 30 18 31 77 32 19 33 20 34 21 35 71 36
REMARK SMILES IDX 22 37 76 38 70 39 72 40 23 41 75 42 69 43 68 44 24 46 56 47
REMARK SMILES IDX 36 48 55 49 37 50 40 51 54 52 73 53 38 54 39 55 53 57 74 58
REMARK SMILES IDX 41 59 25 60 26 61 34 62 27 63 28 64 32 65 35 66 29 67 30 68
REMARK SMILES IDX 33 69 31 70 57 71 58 72 66 73 59 74 60 75 64 76 67 77 61 78
REMARK SMILES IDX 62 79 65 80 63 81 42 82 43 83 51 84 44 85 45 86 49 87 52 88
REMARK SMILES IDX 46 89 47 90 50 91 48 92
REMARK H PARENT 6 7 85 20 13 26 72 45 40 56
REMARK Flexibility Score: inf
ROOT
ATOM      1  C   UNL A   1      31.773  29.301  25.887  1.00  0.00     0.002 C 
ENDROOT
BRANCH   1   2
ATOM      2  C   UNL A   1      32.215  27.841  26.068  1.00  0.00     0.021 C 
BRANCH   2   3
ATOM      3  C   UNL A   1      31.042  26.913  26.391  1.00  0.00     0.116 C 
BRANCH   3   4
ATOM      4  N   UNL A   1      30.915  25.924  25.344  1.00  0.00    -0.352 N 
ATOM      5  C   UNL A   1      30.211  25.838  24.190  1.00  0.00     0.254 C 
ATOM      6  O   UNL A   1      30.296  24.756  23.609  1.00  0.00    -0.269 OA
ATOM      7  H   UNL A   1      31.469  25.127  25.508  1.00  0.00     0.163 HD
BRANCH   5   8
ATOM      8  C   UNL A   1      29.424  26.973  23.618  1.00  0.00     0.079 A 
ATOM      9  C   UNL A   1      31.441  27.870  22.366  1.00  0.00     0.068 C 
ATOM     10  C   UNL A   1      30.007  27.914  22.829  1.00  0.00     0.057 A 
ATOM     11  N   UNL A   1      29.244  29.018  22.410  1.00  0.00    -0.200 N 
ATOM     12  C   UNL A   1      27.955  27.177  23.798  1.00  0.00     0.131 A 
ATOM     13  C   UNL A   1      27.904  29.177  22.789  1.00  0.00     0.252 A 
ATOM     14  N   UNL A   1      29.602  30.066  21.627  1.00  0.00    -0.147 NA
ATOM     15  N   UNL A   1      27.240  28.208  23.470  1.00  0.00    -0.219 NA
ATOM     16  N   UNL A   1      27.438  30.302  22.302  1.00  0.00    -0.191 NA
ATOM     17  C   UNL A   1      28.477  30.784  21.560  1.00  0.00     0.178 A 
BRANCH  17  18
ATOM     18  C   UNL A   1      28.342  32.021  20.735  1.00  0.00     0.235 C 
BRANCH  18  19
ATOM     19  O   UNL A   1      27.675  33.090  21.411  1.00  0.00    -0.388 OA
ATOM     20  H   UNL A   1      28.272  33.851  21.479  1.00  0.00     0.211 HD
ENDBRANCH  18  19
ENDBRANCH  17  18
ENDBRANCH   5   8
ENDBRANCH   3   4
ENDBRANCH   2   3
ENDBRANCH   1   2
BRANCH   1  21
ATOM     21  C   UNL A   1      32.420  30.286  26.875  1.00  0.00     0.002 C 
BRANCH  21  22
ATOM     22  C   UNL A   1      33.784  29.843  27.428  1.00  0.00     0.021 C 
BRANCH  22  23
ATOM     23  C   UNL A   1      34.766  30.993  27.474  1.00  0.00     0.116 C 
BRANCH  23  24
ATOM     24  N   UNL A   1      34.515  31.841  28.643  1.00  0.00    -0.352 N 
ATOM     25  C   UNL A   1      35.152  31.813  29.858  1.00  0.00     0.251 C 
ATOM     26  H   UNL A   1      33.803  32.513  28.545  1.00  0.00     0.163 HD
ATOM     27  O   UNL A   1      34.639  32.306  30.868  1.00  0.00    -0.269 OA
BRANCH  25  28
ATOM     28  C   UNL A   1      36.498  31.244  29.907  1.00  0.00     0.039 A 
ATOM     29  C   UNL A   1      37.657  32.022  29.959  1.00  0.00     0.014 A 
ATOM     30  C   UNL A   1      36.564  29.854  29.929  1.00  0.00     0.014 A 
ATOM     31  C   UNL A   1      38.883  31.365  29.939  1.00  0.00     0.010 A 
ATOM     32  C   UNL A   1      37.735  29.247  30.242  1.00  0.00     0.010 A 
ATOM     33  C   UNL A   1      38.891  29.964  30.022  1.00  0.00    -0.014 A 
BRANCH  33  34
ATOM     34  C   UNL A   1      40.092  29.159  29.987  1.00  0.00     0.031 A 
ATOM     35  C   UNL A   1      40.619  28.901  31.344  1.00  0.00     0.074 A 
ATOM     36  C   UNL A   1      40.505  28.544  28.851  1.00  0.00     0.049 A 
ATOM     37  N   UNL A   1      41.677  29.421  31.865  1.00  0.00    -0.248 NA
ATOM     38  C   UNL A   1      39.774  28.180  32.314  1.00  0.00     0.031 C 
ATOM     39  C   UNL A   1      39.885  28.511  27.518  1.00  0.00     0.029 A 
ATOM     40  N   UNL A   1      41.600  27.748  28.678  1.00  0.00    -0.354 N 
ATOM     41  C   UNL A   1      41.756  28.907  33.152  1.00  0.00     0.074 A 
ATOM     42  C   UNL A   1      40.467  28.344  33.443  1.00  0.00     0.031 C 
ATOM     43  C   UNL A   1      40.484  27.564  26.751  1.00  0.00     0.029 A 
ATOM     44  C   UNL A   1      41.622  27.033  27.472  1.00  0.00     0.049 A 
ATOM     45  H   UNL A   1      42.318  27.679  29.348  1.00  0.00     0.167 HD
ATOM     46  C   UNL A   1      42.968  28.755  33.753  1.00  0.00     0.037 A 
ATOM     47  C   UNL A   1      42.530  26.066  27.153  1.00  0.00     0.037 A 
ATOM     48  C   UNL A   1      43.979  29.502  33.044  1.00  0.00     0.049 A 
ATOM     49  C   UNL A   1      43.709  26.295  28.041  1.00  0.00     0.074 A 
ATOM     50  C   UNL A   1      44.183  30.844  32.799  1.00  0.00     0.029 A 
ATOM     51  N   UNL A   1      44.693  28.827  32.082  1.00  0.00    -0.354 N 
ATOM     52  N   UNL A   1      44.452  27.368  27.967  1.00  0.00    -0.248 NA
ATOM     53  C   UNL A   1      43.685  25.629  29.337  1.00  0.00     0.031 C 
ATOM     54  C   UNL A   1      44.591  30.910  31.433  1.00  0.00     0.029 A 
ATOM     55  C   UNL A   1      44.731  29.609  30.952  1.00  0.00     0.049 A 
ATOM     56  H   UNL A   1      45.106  27.939  32.184  1.00  0.00     0.167 HD
ATOM     57  C   UNL A   1      44.633  27.759  29.286  1.00  0.00     0.074 A 
ATOM     58  C   UNL A   1      44.140  26.638  30.088  1.00  0.00     0.031 C 
ATOM     59  C   UNL A   1      44.856  29.066  29.617  1.00  0.00     0.037 A 
BRANCH  46  60
ATOM     60  C   UNL A   1      43.312  27.653  34.719  1.00  0.00     0.064 A 
ATOM     61  C   UNL A   1      43.614  27.987  36.053  1.00  0.00     0.173 A 
ATOM     62  C   UNL A   1      43.635  26.334  34.333  1.00  0.00     0.173 A 
ATOM     63  F   UNL A   1      43.370  29.220  36.520  1.00  0.00    -0.203 F 
ATOM     64  C   UNL A   1      44.252  27.089  36.912  1.00  0.00     0.198 A 
ATOM     65  C   UNL A   1      44.225  25.424  35.208  1.00  0.00     0.198 A 
ATOM     66  F   UNL A   1      43.500  25.903  33.075  1.00  0.00    -0.203 F 
ATOM     67  F   UNL A   1      44.624  27.489  38.136  1.00  0.00    -0.200 F 
ATOM     68  C   UNL A   1      44.560  25.809  36.489  1.00  0.00     0.200 A 
ATOM     69  F   UNL A   1      44.536  24.197  34.769  1.00  0.00    -0.200 F 
ATOM     70  F   UNL A   1      45.219  24.964  37.291  1.00  0.00    -0.200 F 
ENDBRANCH  46  60
BRANCH  47  71
ATOM     71  C   UNL A   1      42.271  24.731  26.541  1.00  0.00     0.064 A 
ATOM     72  C   UNL A   1      43.112  24.202  25.541  1.00  0.00     0.173 A 
ATOM     73  C   UNL A   1      41.388  23.817  27.149  1.00  0.00     0.173 A 
ATOM     74  F   UNL A   1      44.017  24.987  24.938  1.00  0.00    -0.203 F 
ATOM     75  C   UNL A   1      43.092  22.841  25.199  1.00  0.00     0.198 A 
ATOM     76  C   UNL A   1      41.373  22.461  26.811  1.00  0.00     0.198 A 
ATOM     77  F   UNL A   1      40.595  24.202  28.158  1.00  0.00    -0.203 F 
ATOM     78  F   UNL A   1      43.950  22.364  24.284  1.00  0.00    -0.200 F 
ATOM     79  C   UNL A   1      42.234  21.969  25.846  1.00  0.00     0.200 A 
ATOM     80  F   UNL A   1      40.567  21.621  27.477  1.00  0.00    -0.200 F 
ATOM     81  F   UNL A   1      42.263  20.656  25.576  1.00  0.00    -0.200 F 
ENDBRANCH  47  71
BRANCH  59  82
ATOM     82  C   UNL A   1      45.089  30.051  28.501  1.00  0.00     0.064 A 
ATOM     83  C   UNL A   1      44.082  30.811  27.875  1.00  0.00     0.173 A 
ATOM     84  C   UNL A   1      46.413  30.348  28.158  1.00  0.00     0.173 A 
ATOM     85  F   UNL A   1      42.796  30.662  28.212  1.00  0.00    -0.203 F 
ATOM     86  C   UNL A   1      44.389  31.788  26.926  1.00  0.00     0.198 A 
ATOM     87  C   UNL A   1      46.721  31.346  27.238  1.00  0.00     0.198 A 
ATOM     88  F   UNL A   1      47.421  29.700  28.763  1.00  0.00    -0.203 F 
ATOM     89  F   UNL A   1      43.410  32.493  26.340  1.00  0.00    -0.200 F 
ATOM     90  C   UNL A   1      45.711  32.058  26.613  1.00  0.00     0.200 A 
ATOM     91  F   UNL A   1      48.003  31.638  26.981  1.00  0.00    -0.200 F 
ATOM     92  F   UNL A   1      46.013  33.019  25.729  1.00  0.00    -0.200 F 
ENDBRANCH  59  82
ENDBRANCH  33  34
ENDBRANCH  25  28
ENDBRANCH  23  24
ENDBRANCH  22  23
ENDBRANCH  21  22
ENDBRANCH   1  21
TORSDOF 15
ENDMDL
