MODEL 1
REMARK VINA RESULT:     -12.6      0.000      0.000
REMARK SMILES Cc1ccc(-n2cnnn2)cc1OCC(=O)NCCCCCCNC(=O)c1ccc(-c2c3nc(c(-c4c(F)c(F)c(F)c(F)c4F)c4ccc([nH]4)c(-c4c(F)c(F)c(F)c(F)c4F)c4nc(c(-c5c(F)c(F)c(F)c(F)c5F)c5ccc2[nH]5)C=C4)C=C3)cc1
REMARK SMILES IDX 20 1 19 2 18 3 17 4 15 5 16 6 14 8 13 9 12 10 1 11 2 12 3 13
REMARK SMILES IDX 4 14 11 15 5 16 6 17 7 18 10 19 8 20 9 21 21 22 22 23 23 24
REMARK SMILES IDX 24 25 25 26 26 28 27 29 28 30 89 31 29 32 88 33 30 34 31 35
REMARK SMILES IDX 32 36 82 37 33 38 87 39 81 40 83 41 34 42 86 43 80 44 79 45
REMARK SMILES IDX 35 47 67 48 47 49 66 50 48 51 51 52 65 53 84 54 49 55 50 56
REMARK SMILES IDX 64 58 85 59 52 60 36 61 37 62 45 63 38 64 39 65 43 66 46 67
REMARK SMILES IDX 40 68 41 69 44 70 42 71 68 72 69 73 77 74 70 75 71 76 75 77
REMARK SMILES IDX 78 78 72 79 73 80 76 81 74 82 53 83 54 84 62 85 55 86 56 87
REMARK SMILES IDX 60 88 63 89 57 90 58 91 61 92 59 93
REMARK H PARENT 17 7 24 27 83 46 51 57
REMARK Flexibility Score: inf
ROOT
ATOM      1  C   UNL A   1      32.645  27.567  26.145  1.00  0.00     0.002 C 
ENDROOT
BRANCH   1   2
ATOM      2  C   UNL A   1      31.449  28.169  25.394  1.00  0.00     0.021 C 
BRANCH   2   3
ATOM      3  C   UNL A   1      31.443  28.035  23.872  1.00  0.00     0.116 C 
BRANCH   3   4
ATOM      4  N   UNL A   1      32.722  28.330  23.269  1.00  0.00    -0.353 N 
ATOM      5  C   UNL A   1      33.426  27.579  22.375  1.00  0.00     0.257 C 
ATOM      6  O   UNL A   1      34.338  28.125  21.750  1.00  0.00    -0.271 OA
ATOM      7  H   UNL A   1      33.136  29.183  23.535  1.00  0.00     0.163 HD
BRANCH   5   8
ATOM      8  C   UNL A   1      33.041  26.117  22.113  1.00  0.00     0.329 C 
BRANCH   8   9
ATOM      9  O   UNL A   1      33.960  25.066  22.324  1.00  0.00    -0.483 OA
BRANCH   9  10
ATOM     10  C   UNL A   1      34.057  24.368  23.491  1.00  0.00     0.125 A 
ATOM     11  C   UNL A   1      36.408  23.280  23.337  1.00  0.00     0.048 C 
ATOM     12  C   UNL A   1      35.115  23.619  24.021  1.00  0.00    -0.009 A 
ATOM     13  C   UNL A   1      34.985  23.105  25.331  1.00  0.00     0.009 A 
ATOM     14  C   UNL A   1      33.804  23.231  26.061  1.00  0.00     0.029 A 
ATOM     15  C   UNL A   1      32.845  24.437  24.211  1.00  0.00     0.075 A 
ATOM     16  C   UNL A   1      32.707  23.856  25.479  1.00  0.00     0.072 A 
BRANCH  16  17
ATOM     17  N   UNL A   1      31.473  23.883  26.166  1.00  0.00    -0.200 N 
ATOM     18  C   UNL A   1      30.413  24.744  26.021  1.00  0.00     0.252 A 
ATOM     19  N   UNL A   1      31.139  22.973  27.110  1.00  0.00    -0.040 NA
ATOM     20  N   UNL A   1      29.466  24.417  26.869  1.00  0.00    -0.117 NA
ATOM     21  N   UNL A   1      29.935  23.320  27.542  1.00  0.00    -0.024 NA
ENDBRANCH  16  17
ENDBRANCH   9  10
ENDBRANCH   8   9
ENDBRANCH   5   8
ENDBRANCH   3   4
ENDBRANCH   2   3
ENDBRANCH   1   2
BRANCH   1  22
ATOM     22  C   UNL A   1      33.388  28.451  27.158  1.00  0.00     0.002 C 
BRANCH  22  23
ATOM     23  C   UNL A   1      32.844  29.859  27.405  1.00  0.00     0.021 C 
BRANCH  23  24
ATOM     24  C   UNL A   1      33.853  30.982  27.204  1.00  0.00     0.116 C 
BRANCH  24  25
ATOM     25  N   UNL A   1      34.218  31.695  28.421  1.00  0.00    -0.352 N 
ATOM     26  C   UNL A   1      35.209  31.398  29.350  1.00  0.00     0.251 C 
ATOM     27  H   UNL A   1      33.687  32.502  28.613  1.00  0.00     0.163 HD
ATOM     28  O   UNL A   1      35.379  32.097  30.321  1.00  0.00    -0.269 OA
BRANCH  26  29
ATOM     29  C   UNL A   1      36.141  30.275  29.060  1.00  0.00     0.039 A 
ATOM     30  C   UNL A   1      36.556  29.477  30.131  1.00  0.00     0.014 A 
ATOM     31  C   UNL A   1      36.748  30.150  27.814  1.00  0.00     0.014 A 
ATOM     32  C   UNL A   1      37.739  28.750  30.019  1.00  0.00     0.010 A 
ATOM     33  C   UNL A   1      37.970  29.513  27.728  1.00  0.00     0.010 A 
ATOM     34  C   UNL A   1      38.496  28.872  28.853  1.00  0.00    -0.014 A 
BRANCH  34  35
ATOM     35  C   UNL A   1      39.898  28.484  28.779  1.00  0.00     0.031 A 
ATOM     36  C   UNL A   1      40.287  27.113  28.395  1.00  0.00     0.074 A 
ATOM     37  C   UNL A   1      40.851  29.415  29.006  1.00  0.00     0.049 A 
ATOM     38  N   UNL A   1      41.370  26.535  28.793  1.00  0.00    -0.248 NA
ATOM     39  C   UNL A   1      39.462  26.268  27.537  1.00  0.00     0.031 C 
ATOM     40  C   UNL A   1      42.288  29.287  28.780  1.00  0.00     0.029 A 
ATOM     41  N   UNL A   1      40.713  30.635  29.692  1.00  0.00    -0.354 N 
ATOM     42  C   UNL A   1      41.521  25.386  28.054  1.00  0.00     0.074 A 
ATOM     43  C   UNL A   1      40.280  25.230  27.330  1.00  0.00     0.031 C 
ATOM     44  C   UNL A   1      42.926  30.176  29.558  1.00  0.00     0.029 A 
ATOM     45  C   UNL A   1      41.926  30.814  30.396  1.00  0.00     0.049 A 
ATOM     46  H   UNL A   1      39.935  31.238  29.683  1.00  0.00     0.167 HD
ATOM     47  C   UNL A   1      42.729  24.755  28.021  1.00  0.00     0.037 A 
ATOM     48  C   UNL A   1      41.953  30.859  31.759  1.00  0.00     0.037 A 
ATOM     49  C   UNL A   1      43.715  25.428  28.855  1.00  0.00     0.049 A 
ATOM     50  C   UNL A   1      42.790  29.770  32.390  1.00  0.00     0.074 A 
ATOM     51  C   UNL A   1      44.698  26.361  28.568  1.00  0.00     0.029 A 
ATOM     52  N   UNL A   1      43.550  25.444  30.236  1.00  0.00    -0.354 N 
ATOM     53  N   UNL A   1      43.174  28.695  31.760  1.00  0.00    -0.248 NA
ATOM     54  C   UNL A   1      43.220  29.784  33.785  1.00  0.00     0.031 C 
ATOM     55  C   UNL A   1      45.078  26.989  29.778  1.00  0.00     0.029 A 
ATOM     56  C   UNL A   1      44.345  26.420  30.804  1.00  0.00     0.049 A 
ATOM     57  H   UNL A   1      42.951  24.844  30.737  1.00  0.00     0.167 HD
ATOM     58  C   UNL A   1      43.854  27.878  32.624  1.00  0.00     0.074 A 
ATOM     59  C   UNL A   1      43.874  28.611  33.875  1.00  0.00     0.031 C 
ATOM     60  C   UNL A   1      44.332  26.659  32.239  1.00  0.00     0.037 A 
BRANCH  47  61
ATOM     61  C   UNL A   1      43.053  23.715  26.981  1.00  0.00     0.064 A 
ATOM     62  C   UNL A   1      42.746  22.354  27.181  1.00  0.00     0.173 A 
ATOM     63  C   UNL A   1      43.727  24.009  25.783  1.00  0.00     0.173 A 
ATOM     64  F   UNL A   1      42.036  21.944  28.239  1.00  0.00    -0.203 F 
ATOM     65  C   UNL A   1      43.180  21.355  26.306  1.00  0.00     0.198 A 
ATOM     66  C   UNL A   1      44.205  23.006  24.933  1.00  0.00     0.198 A 
ATOM     67  F   UNL A   1      43.931  25.280  25.405  1.00  0.00    -0.203 F 
ATOM     68  F   UNL A   1      42.871  20.073  26.554  1.00  0.00    -0.200 F 
ATOM     69  C   UNL A   1      43.941  21.678  25.202  1.00  0.00     0.200 A 
ATOM     70  F   UNL A   1      44.938  23.337  23.860  1.00  0.00    -0.200 F 
ATOM     71  F   UNL A   1      44.407  20.715  24.394  1.00  0.00    -0.200 F 
ENDBRANCH  47  61
BRANCH  48  72
ATOM     72  C   UNL A   1      40.728  31.457  32.348  1.00  0.00     0.064 A 
ATOM     73  C   UNL A   1      39.756  30.587  32.881  1.00  0.00     0.173 A 
ATOM     74  C   UNL A   1      40.666  32.803  32.727  1.00  0.00     0.173 A 
ATOM     75  F   UNL A   1      39.769  29.286  32.549  1.00  0.00    -0.203 F 
ATOM     76  C   UNL A   1      38.843  31.018  33.841  1.00  0.00     0.198 A 
ATOM     77  C   UNL A   1      39.737  33.235  33.677  1.00  0.00     0.198 A 
ATOM     78  F   UNL A   1      41.572  33.679  32.269  1.00  0.00    -0.203 F 
ATOM     79  F   UNL A   1      38.009  30.137  34.412  1.00  0.00    -0.200 F 
ATOM     80  C   UNL A   1      38.852  32.336  34.259  1.00  0.00     0.200 A 
ATOM     81  F   UNL A   1      39.758  34.508  34.096  1.00  0.00    -0.200 F 
ATOM     82  F   UNL A   1      38.038  32.733  35.246  1.00  0.00    -0.200 F 
ENDBRANCH  48  72
BRANCH  60  83
ATOM     83  C   UNL A   1      44.913  25.611  33.150  1.00  0.00     0.064 A 
ATOM     84  C   UNL A   1      46.261  25.220  33.126  1.00  0.00     0.173 A 
ATOM     85  C   UNL A   1      44.133  25.069  34.200  1.00  0.00     0.173 A 
ATOM     86  F   UNL A   1      47.121  25.747  32.246  1.00  0.00    -0.203 F 
ATOM     87  C   UNL A   1      46.779  24.311  34.053  1.00  0.00     0.198 A 
ATOM     88  C   UNL A   1      44.666  24.206  35.155  1.00  0.00     0.198 A 
ATOM     89  F   UNL A   1      42.837  25.384  34.342  1.00  0.00    -0.203 F 
ATOM     90  F   UNL A   1      48.064  23.939  33.970  1.00  0.00    -0.200 F 
ATOM     91  C   UNL A   1      45.987  23.815  35.074  1.00  0.00     0.200 A 
ATOM     92  F   UNL A   1      43.898  23.774  36.165  1.00  0.00    -0.200 F 
ATOM     93  F   UNL A   1      46.500  22.980  35.986  1.00  0.00    -0.200 F 
ENDBRANCH  60  83
ENDBRANCH  34  35
ENDBRANCH  26  29
ENDBRANCH  24  25
ENDBRANCH  23  24
ENDBRANCH  22  23
ENDBRANCH   1  22
TORSDOF 16
ENDMDL
MODEL 2
REMARK VINA RESULT:     -12.5      1.891      2.870
REMARK SMILES Cc1ccc(-n2cnnn2)cc1OCC(=O)NCCCCCCNC(=O)c1ccc(-c2c3nc(c(-c4c(F)c(F)c(F)c(F)c4F)c4ccc([nH]4)c(-c4c(F)c(F)c(F)c(F)c4F)c4nc(c(-c5c(F)c(F)c(F)c(F)c5F)c5ccc2[nH]5)C=C4)C=C3)cc1
REMARK SMILES IDX 20 1 19 2 18 3 17 4 15 5 16 6 14 8 13 9 12 10 1 11 2 12 3 13
REMARK SMILES IDX 4 14 11 15 5 16 6 17 7 18 10 19 8 20 9 21 21 22 22 23 23 24
REMARK SMILES IDX 24 25 25 26 26 28 27 29 28 30 89 31 29 32 88 33 30 34 31 35
REMARK SMILES IDX 32 36 82 37 33 38 87 39 81 40 83 41 34 42 86 43 80 44 79 45
REMARK SMILES IDX 35 47 67 48 47 49 66 50 48 51 51 52 65 53 84 54 49 55 50 56
REMARK SMILES IDX 64 58 85 59 52 60 36 61 37 62 45 63 38 64 39 65 43 66 46 67
REMARK SMILES IDX 40 68 41 69 44 70 42 71 68 72 69 73 77 74 70 75 71 76 75 77
REMARK SMILES IDX 78 78 72 79 73 80 76 81 74 82 53 83 54 84 62 85 55 86 56 87
REMARK SMILES IDX 60 88 63 89 57 90 58 91 61 92 59 93
REMARK H PARENT 17 7 24 27 83 46 51 57
REMARK Flexibility Score: inf
ROOT
ATOM      1  C   UNL A   1      31.748  28.902  26.199  1.00  0.00     0.002 C 
ENDROOT
BRANCH   1   2
ATOM      2  C   UNL A   1      31.507  27.505  26.788  1.00  0.00     0.021 C 
BRANCH   2   3
ATOM      3  C   UNL A   1      30.795  26.488  25.897  1.00  0.00     0.116 C 
BRANCH   3   4
ATOM      4  N   UNL A   1      30.541  25.229  26.559  1.00  0.00    -0.353 N 
ATOM      5  C   UNL A   1      31.370  24.153  26.670  1.00  0.00     0.257 C 
ATOM      6  O   UNL A   1      31.100  23.298  27.517  1.00  0.00    -0.271 OA
ATOM      7  H   UNL A   1      29.658  25.138  26.984  1.00  0.00     0.163 HD
BRANCH   5   8
ATOM      8  C   UNL A   1      32.637  24.054  25.810  1.00  0.00     0.329 C 
BRANCH   8   9
ATOM      9  O   UNL A   1      33.877  23.676  26.370  1.00  0.00    -0.483 OA
BRANCH   9  10
ATOM     10  C   UNL A   1      34.650  22.664  25.881  1.00  0.00     0.125 A 
ATOM     11  C   UNL A   1      36.979  23.778  25.608  1.00  0.00     0.048 C 
ATOM     12  C   UNL A   1      36.018  22.624  25.584  1.00  0.00    -0.009 A 
ATOM     13  C   UNL A   1      36.588  21.385  25.211  1.00  0.00     0.009 A 
ATOM     14  C   UNL A   1      35.815  20.240  25.029  1.00  0.00     0.029 A 
ATOM     15  C   UNL A   1      33.866  21.517  25.634  1.00  0.00     0.075 A 
ATOM     16  C   UNL A   1      34.436  20.316  25.191  1.00  0.00     0.072 A 
BRANCH  16  17
ATOM     17  N   UNL A   1      33.635  19.191  24.894  1.00  0.00    -0.200 N 
ATOM     18  C   UNL A   1      33.778  18.258  23.897  1.00  0.00     0.252 A 
ATOM     19  N   UNL A   1      32.555  18.845  25.631  1.00  0.00    -0.040 NA
ATOM     20  N   UNL A   1      32.803  17.382  23.976  1.00  0.00    -0.117 NA
ATOM     21  N   UNL A   1      32.048  17.764  25.054  1.00  0.00    -0.024 NA
ENDBRANCH  16  17
ENDBRANCH   9  10
ENDBRANCH   8   9
ENDBRANCH   5   8
ENDBRANCH   3   4
ENDBRANCH   2   3
ENDBRANCH   1   2
BRANCH   1  22
ATOM     22  C   UNL A   1      33.173  29.476  26.244  1.00  0.00     0.002 C 
BRANCH  22  23
ATOM     23  C   UNL A   1      33.729  29.888  27.608  1.00  0.00     0.021 C 
BRANCH  23  24
ATOM     24  C   UNL A   1      34.591  31.143  27.597  1.00  0.00     0.116 C 
BRANCH  24  25
ATOM     25  N   UNL A   1      34.931  31.657  28.917  1.00  0.00    -0.352 N 
ATOM     26  C   UNL A   1      35.867  31.185  29.830  1.00  0.00     0.251 C 
ATOM     27  H   UNL A   1      34.425  32.452  29.204  1.00  0.00     0.163 HD
ATOM     28  O   UNL A   1      36.023  31.731  30.898  1.00  0.00    -0.269 OA
BRANCH  26  29
ATOM     29  C   UNL A   1      36.765  30.074  29.416  1.00  0.00     0.039 A 
ATOM     30  C   UNL A   1      37.098  29.112  30.376  1.00  0.00     0.014 A 
ATOM     31  C   UNL A   1      37.423  30.101  28.191  1.00  0.00     0.014 A 
ATOM     32  C   UNL A   1      38.254  28.354  30.205  1.00  0.00     0.010 A 
ATOM     33  C   UNL A   1      38.620  29.426  28.061  1.00  0.00     0.010 A 
ATOM     34  C   UNL A   1      39.068  28.606  29.100  1.00  0.00    -0.014 A 
BRANCH  34  35
ATOM     35  C   UNL A   1      40.455  28.167  29.025  1.00  0.00     0.031 A 
ATOM     36  C   UNL A   1      40.800  26.821  28.529  1.00  0.00     0.074 A 
ATOM     37  C   UNL A   1      41.438  29.034  29.359  1.00  0.00     0.049 A 
ATOM     38  N   UNL A   1      41.848  26.165  28.899  1.00  0.00    -0.248 NA
ATOM     39  C   UNL A   1      39.967  26.092  27.578  1.00  0.00     0.031 C 
ATOM     40  C   UNL A   1      42.874  28.865  29.158  1.00  0.00     0.029 A 
ATOM     41  N   UNL A   1      41.329  30.192  30.150  1.00  0.00    -0.354 N 
ATOM     42  C   UNL A   1      41.974  25.081  28.063  1.00  0.00     0.074 A 
ATOM     43  C   UNL A   1      40.748  25.044  27.297  1.00  0.00     0.031 C 
ATOM     44  C   UNL A   1      43.525  29.654  30.028  1.00  0.00     0.029 A 
ATOM     45  C   UNL A   1      42.528  30.255  30.896  1.00  0.00     0.049 A 
ATOM     46  H   UNL A   1      40.576  30.826  30.176  1.00  0.00     0.167 HD
ATOM     47  C   UNL A   1      43.156  24.405  28.002  1.00  0.00     0.037 A 
ATOM     48  C   UNL A   1      42.519  30.177  32.257  1.00  0.00     0.037 A 
ATOM     49  C   UNL A   1      44.143  24.959  28.918  1.00  0.00     0.049 A 
ATOM     50  C   UNL A   1      43.293  29.002  32.808  1.00  0.00     0.074 A 
ATOM     51  C   UNL A   1      45.171  25.871  28.740  1.00  0.00     0.029 A 
ATOM     52  N   UNL A   1      43.941  24.858  30.290  1.00  0.00    -0.354 N 
ATOM     53  N   UNL A   1      43.652  27.973  32.092  1.00  0.00    -0.248 NA
ATOM     54  C   UNL A   1      43.684  28.872  34.208  1.00  0.00     0.031 C 
ATOM     55  C   UNL A   1      45.541  26.372  30.011  1.00  0.00     0.029 A 
ATOM     56  C   UNL A   1      44.758  25.745  30.964  1.00  0.00     0.049 A 
ATOM     57  H   UNL A   1      43.304  24.242  30.720  1.00  0.00     0.167 HD
ATOM     58  C   UNL A   1      44.274  27.053  32.895  1.00  0.00     0.074 A 
ATOM     59  C   UNL A   1      44.288  27.670  34.208  1.00  0.00     0.031 C 
ATOM     60  C   UNL A   1      44.714  25.854  32.413  1.00  0.00     0.037 A 
BRANCH  47  61
ATOM     61  C   UNL A   1      43.467  23.449  26.880  1.00  0.00     0.064 A 
ATOM     62  C   UNL A   1      43.071  22.098  26.935  1.00  0.00     0.173 A 
ATOM     63  C   UNL A   1      44.214  23.813  25.746  1.00  0.00     0.173 A 
ATOM     64  F   UNL A   1      42.289  21.635  27.917  1.00  0.00    -0.203 F 
ATOM     65  C   UNL A   1      43.487  21.161  25.985  1.00  0.00     0.198 A 
ATOM     66  C   UNL A   1      44.672  22.867  24.824  1.00  0.00     0.198 A 
ATOM     67  F   UNL A   1      44.509  25.099  25.502  1.00  0.00    -0.203 F 
ATOM     68  F   UNL A   1      43.092  19.883  26.094  1.00  0.00    -0.200 F 
ATOM     69  C   UNL A   1      44.318  21.538  24.951  1.00  0.00     0.200 A 
ATOM     70  F   UNL A   1      45.473  23.250  23.819  1.00  0.00    -0.200 F 
ATOM     71  F   UNL A   1      44.764  20.628  24.073  1.00  0.00    -0.200 F 
ENDBRANCH  47  61
BRANCH  48  72
ATOM     72  C   UNL A   1      41.302  30.771  32.869  1.00  0.00     0.064 A 
ATOM     73  C   UNL A   1      41.207  32.176  32.925  1.00  0.00     0.173 A 
ATOM     74  C   UNL A   1      40.123  30.038  33.042  1.00  0.00     0.173 A 
ATOM     75  F   UNL A   1      42.308  32.928  32.765  1.00  0.00    -0.203 F 
ATOM     76  C   UNL A   1      39.974  32.818  33.025  1.00  0.00     0.198 A 
ATOM     77  C   UNL A   1      38.891  30.685  33.161  1.00  0.00     0.198 A 
ATOM     78  F   UNL A   1      40.143  28.698  32.983  1.00  0.00    -0.203 F 
ATOM     79  F   UNL A   1      39.910  34.155  32.958  1.00  0.00    -0.200 F 
ATOM     80  C   UNL A   1      38.814  32.071  33.116  1.00  0.00     0.200 A 
ATOM     81  F   UNL A   1      37.764  29.962  33.230  1.00  0.00    -0.200 F 
ATOM     82  F   UNL A   1      37.621  32.682  33.122  1.00  0.00    -0.200 F 
ENDBRANCH  48  72
BRANCH  60  83
ATOM     83  C   UNL A   1      45.227  24.706  33.240  1.00  0.00     0.064 A 
ATOM     84  C   UNL A   1      44.481  23.550  33.514  1.00  0.00     0.173 A 
ATOM     85  C   UNL A   1      46.579  24.681  33.662  1.00  0.00     0.173 A 
ATOM     86  F   UNL A   1      43.225  23.413  33.071  1.00  0.00    -0.203 F 
ATOM     87  C   UNL A   1      45.030  22.468  34.207  1.00  0.00     0.198 A 
ATOM     88  C   UNL A   1      47.138  23.579  34.304  1.00  0.00     0.198 A 
ATOM     89  F   UNL A   1      47.400  25.718  33.439  1.00  0.00    -0.203 F 
ATOM     90  F   UNL A   1      44.268  21.398  34.478  1.00  0.00    -0.200 F 
ATOM     91  C   UNL A   1      46.360  22.476  34.590  1.00  0.00     0.200 A 
ATOM     92  F   UNL A   1      48.440  23.584  34.624  1.00  0.00    -0.200 F 
ATOM     93  F   UNL A   1      46.893  21.418  35.214  1.00  0.00    -0.200 F 
ENDBRANCH  60  83
ENDBRANCH  34  35
ENDBRANCH  26  29
ENDBRANCH  24  25
ENDBRANCH  23  24
ENDBRANCH  22  23
ENDBRANCH   1  22
TORSDOF 16
ENDMDL
MODEL 3
REMARK VINA RESULT:     -12.4      3.582      9.708
REMARK SMILES Cc1ccc(-n2cnnn2)cc1OCC(=O)NCCCCCCNC(=O)c1ccc(-c2c3nc(c(-c4c(F)c(F)c(F)c(F)c4F)c4ccc([nH]4)c(-c4c(F)c(F)c(F)c(F)c4F)c4nc(c(-c5c(F)c(F)c(F)c(F)c5F)c5ccc2[nH]5)C=C4)C=C3)cc1
REMARK SMILES IDX 20 1 19 2 18 3 17 4 15 5 16 6 14 8 13 9 12 10 1 11 2 12 3 13
REMARK SMILES IDX 4 14 11 15 5 16 6 17 7 18 10 19 8 20 9 21 21 22 22 23 23 24
REMARK SMILES IDX 24 25 25 26 26 28 27 29 28 30 89 31 29 32 88 33 30 34 31 35
REMARK SMILES IDX 32 36 82 37 33 38 87 39 81 40 83 41 34 42 86 43 80 44 79 45
REMARK SMILES IDX 35 47 67 48 47 49 66 50 48 51 51 52 65 53 84 54 49 55 50 56
REMARK SMILES IDX 64 58 85 59 52 60 36 61 37 62 45 63 38 64 39 65 43 66 46 67
REMARK SMILES IDX 40 68 41 69 44 70 42 71 68 72 69 73 77 74 70 75 71 76 75 77
REMARK SMILES IDX 78 78 72 79 73 80 76 81 74 82 53 83 54 84 62 85 55 86 56 87
REMARK SMILES IDX 60 88 63 89 57 90 58 91 61 92 59 93
REMARK H PARENT 17 7 24 27 83 46 51 57
REMARK Flexibility Score: inf
ROOT
ATOM      1  C   UNL A   1      36.190  22.751  24.469  1.00  0.00     0.002 C 
ENDROOT
BRANCH   1   2
ATOM      2  C   UNL A   1      35.480  22.967  23.125  1.00  0.00     0.021 C 
BRANCH   2   3
ATOM      3  C   UNL A   1      33.954  23.036  23.148  1.00  0.00     0.116 C 
BRANCH   3   4
ATOM      4  N   UNL A   1      33.405  23.876  22.109  1.00  0.00    -0.353 N 
ATOM      5  C   UNL A   1      33.369  25.238  22.056  1.00  0.00     0.257 C 
ATOM      6  O   UNL A   1      33.138  25.770  20.968  1.00  0.00    -0.271 OA
ATOM      7  H   UNL A   1      33.007  23.405  21.341  1.00  0.00     0.163 HD
BRANCH   5   8
ATOM      8  C   UNL A   1      33.679  26.073  23.306  1.00  0.00     0.329 C 
BRANCH   8   9
ATOM      9  O   UNL A   1      33.716  27.483  23.256  1.00  0.00    -0.483 OA
BRANCH   9  10
ATOM     10  C   UNL A   1      32.887  28.288  23.982  1.00  0.00     0.125 A 
ATOM     11  C   UNL A   1      33.979  28.292  26.336  1.00  0.00     0.048 C 
ATOM     12  C   UNL A   1      32.975  28.728  25.309  1.00  0.00    -0.009 A 
ATOM     13  C   UNL A   1      32.031  29.676  25.766  1.00  0.00     0.009 A 
ATOM     14  C   UNL A   1      30.964  30.098  24.975  1.00  0.00     0.029 A 
ATOM     15  C   UNL A   1      31.770  28.672  23.210  1.00  0.00     0.075 A 
ATOM     16  C   UNL A   1      30.800  29.554  23.705  1.00  0.00     0.072 A 
BRANCH  16  17
ATOM     17  N   UNL A   1      29.658  29.889  22.944  1.00  0.00    -0.200 N 
ATOM     18  C   UNL A   1      28.520  30.555  23.327  1.00  0.00     0.252 A 
ATOM     19  N   UNL A   1      29.543  29.600  21.628  1.00  0.00    -0.040 NA
ATOM     20  N   UNL A   1      27.702  30.644  22.305  1.00  0.00    -0.117 NA
ATOM     21  N   UNL A   1      28.348  30.040  21.259  1.00  0.00    -0.024 NA
ENDBRANCH  16  17
ENDBRANCH   9  10
ENDBRANCH   8   9
ENDBRANCH   5   8
ENDBRANCH   3   4
ENDBRANCH   2   3
ENDBRANCH   1   2
BRANCH   1  22
ATOM     22  C   UNL A   1      36.940  21.428  24.691  1.00  0.00     0.002 C 
BRANCH  22  23
ATOM     23  C   UNL A   1      38.158  21.450  25.615  1.00  0.00     0.021 C 
BRANCH  23  24
ATOM     24  C   UNL A   1      38.697  22.838  25.935  1.00  0.00     0.116 C 
BRANCH  24  25
ATOM     25  N   UNL A   1      40.121  22.879  26.243  1.00  0.00    -0.352 N 
ATOM     26  C   UNL A   1      40.896  23.951  26.673  1.00  0.00     0.251 C 
ATOM     27  H   UNL A   1      40.602  22.028  26.132  1.00  0.00     0.163 HD
ATOM     28  O   UNL A   1      42.080  23.817  26.880  1.00  0.00    -0.269 OA
BRANCH  26  29
ATOM     29  C   UNL A   1      40.217  25.234  26.997  1.00  0.00     0.039 A 
ATOM     30  C   UNL A   1      40.706  26.401  26.398  1.00  0.00     0.014 A 
ATOM     31  C   UNL A   1      39.273  25.310  28.016  1.00  0.00     0.014 A 
ATOM     32  C   UNL A   1      40.443  27.631  26.995  1.00  0.00     0.010 A 
ATOM     33  C   UNL A   1      39.090  26.512  28.669  1.00  0.00     0.010 A 
ATOM     34  C   UNL A   1      39.732  27.660  28.197  1.00  0.00    -0.014 A 
BRANCH  34  35
ATOM     35  C   UNL A   1      39.736  28.812  29.088  1.00  0.00     0.031 A 
ATOM     36  C   UNL A   1      38.722  29.876  28.958  1.00  0.00     0.074 A 
ATOM     37  C   UNL A   1      40.647  28.868  30.086  1.00  0.00     0.049 A 
ATOM     38  N   UNL A   1      38.926  31.106  29.290  1.00  0.00    -0.248 NA
ATOM     39  C   UNL A   1      37.388  29.635  28.418  1.00  0.00     0.031 C 
ATOM     40  C   UNL A   1      40.688  29.814  31.197  1.00  0.00     0.029 A 
ATOM     41  N   UNL A   1      41.865  28.170  30.176  1.00  0.00    -0.354 N 
ATOM     42  C   UNL A   1      37.710  31.747  29.267  1.00  0.00     0.074 A 
ATOM     43  C   UNL A   1      36.793  30.808  28.661  1.00  0.00     0.031 C 
ATOM     44  C   UNL A   1      41.946  29.877  31.661  1.00  0.00     0.029 A 
ATOM     45  C   UNL A   1      42.772  29.068  30.783  1.00  0.00     0.049 A 
ATOM     46  H   UNL A   1      42.047  27.249  29.880  1.00  0.00     0.167 HD
ATOM     47  C   UNL A   1      37.566  32.952  29.888  1.00  0.00     0.037 A 
ATOM     48  C   UNL A   1      43.883  29.506  30.122  1.00  0.00     0.037 A 
ATOM     49  C   UNL A   1      38.816  33.407  30.481  1.00  0.00     0.049 A 
ATOM     50  C   UNL A   1      43.926  31.004  29.925  1.00  0.00     0.074 A 
ATOM     51  C   UNL A   1      39.326  33.312  31.765  1.00  0.00     0.029 A 
ATOM     52  N   UNL A   1      39.884  33.747  29.657  1.00  0.00    -0.354 N 
ATOM     53  N   UNL A   1      42.886  31.781  30.051  1.00  0.00    -0.248 NA
ATOM     54  C   UNL A   1      45.126  31.735  29.529  1.00  0.00     0.031 C 
ATOM     55  C   UNL A   1      40.724  33.530  31.702  1.00  0.00     0.029 A 
ATOM     56  C   UNL A   1      41.059  33.783  30.384  1.00  0.00     0.049 A 
ATOM     57  H   UNL A   1      39.812  33.934  28.693  1.00  0.00     0.167 HD
ATOM     58  C   UNL A   1      43.238  33.068  29.739  1.00  0.00     0.074 A 
ATOM     59  C   UNL A   1      44.655  32.993  29.438  1.00  0.00     0.031 C 
ATOM     60  C   UNL A   1      42.328  34.086  29.743  1.00  0.00     0.037 A 
BRANCH  47  61
ATOM     61  C   UNL A   1      36.210  33.531  30.195  1.00  0.00     0.064 A 
ATOM     62  C   UNL A   1      35.406  34.098  29.186  1.00  0.00     0.173 A 
ATOM     63  C   UNL A   1      35.681  33.601  31.496  1.00  0.00     0.173 A 
ATOM     64  F   UNL A   1      35.751  34.029  27.894  1.00  0.00    -0.203 F 
ATOM     65  C   UNL A   1      34.222  34.782  29.472  1.00  0.00     0.198 A 
ATOM     66  C   UNL A   1      34.523  34.328  31.788  1.00  0.00     0.198 A 
ATOM     67  F   UNL A   1      36.274  32.957  32.512  1.00  0.00    -0.203 F 
ATOM     68  F   UNL A   1      33.504  35.316  28.472  1.00  0.00    -0.200 F 
ATOM     69  C   UNL A   1      33.800  34.929  30.777  1.00  0.00     0.200 A 
ATOM     70  F   UNL A   1      34.121  34.456  33.062  1.00  0.00    -0.200 F 
ATOM     71  F   UNL A   1      32.695  35.634  31.057  1.00  0.00    -0.200 F 
ENDBRANCH  47  61
BRANCH  48  72
ATOM     72  C   UNL A   1      44.444  28.496  29.189  1.00  0.00     0.064 A 
ATOM     73  C   UNL A   1      45.103  27.378  29.739  1.00  0.00     0.173 A 
ATOM     74  C   UNL A   1      44.036  28.411  27.853  1.00  0.00     0.173 A 
ATOM     75  F   UNL A   1      45.516  27.407  31.016  1.00  0.00    -0.203 F 
ATOM     76  C   UNL A   1      45.236  26.189  29.026  1.00  0.00     0.198 A 
ATOM     77  C   UNL A   1      44.189  27.222  27.135  1.00  0.00     0.198 A 
ATOM     78  F   UNL A   1      43.389  29.433  27.275  1.00  0.00    -0.203 F 
ATOM     79  F   UNL A   1      45.764  25.109  29.620  1.00  0.00    -0.200 F 
ATOM     80  C   UNL A   1      44.754  26.104  27.733  1.00  0.00     0.200 A 
ATOM     81  F   UNL A   1      43.704  27.132  25.888  1.00  0.00    -0.200 F 
ATOM     82  F   UNL A   1      44.799  24.936  27.076  1.00  0.00    -0.200 F 
ENDBRANCH  48  72
BRANCH  60  83
ATOM     83  C   UNL A   1      42.565  35.482  29.233  1.00  0.00     0.064 A 
ATOM     84  C   UNL A   1      41.959  36.002  28.079  1.00  0.00     0.173 A 
ATOM     85  C   UNL A   1      43.316  36.403  30.003  1.00  0.00     0.173 A 
ATOM     86  F   UNL A   1      41.139  35.255  27.329  1.00  0.00    -0.203 F 
ATOM     87  C   UNL A   1      42.133  37.334  27.694  1.00  0.00     0.198 A 
ATOM     88  C   UNL A   1      43.442  37.743  29.645  1.00  0.00     0.198 A 
ATOM     89  F   UNL A   1      43.926  36.032  31.138  1.00  0.00    -0.203 F 
ATOM     90  F   UNL A   1      41.564  37.777  26.564  1.00  0.00    -0.200 F 
ATOM     91  C   UNL A   1      42.863  38.207  28.482  1.00  0.00     0.200 A 
ATOM     92  F   UNL A   1      44.111  38.586  30.445  1.00  0.00    -0.200 F 
ATOM     93  F   UNL A   1      42.989  39.493  28.132  1.00  0.00    -0.200 F 
ENDBRANCH  60  83
ENDBRANCH  34  35
ENDBRANCH  26  29
ENDBRANCH  24  25
ENDBRANCH  23  24
ENDBRANCH  22  23
ENDBRANCH   1  22
TORSDOF 16
ENDMDL
