MODEL 1
REMARK VINA RESULT:     -13.0      0.000      0.000
REMARK SMILES O=C(NCCCCCCNC(=O)c1cc2c(c(S(=O)(=O)Nc3cc(C(F)(F)F)ccc3-n3cccn3)c1)CCC2)c1ccc(-c2c3nc(c(-c4c(F)c(F)c(F)c(F)c4F)c4ccc([nH]4)c(-c4c(F)c(F)c(F)c(F)c4F)c4nc(c(-c5c(F)c(F)c(F)c(F)c5F)c5ccc2[nH]5)C=C4)C=C3)cc1
REMARK SMILES IDX 7 1 6 2 5 3 4 4 3 5 1 6 2 7 41 9 42 10 103 11 43 12 102 13
REMARK SMILES IDX 44 14 45 15 46 16 96 17 47 18 101 19 95 20 97 21 48 22
REMARK SMILES IDX 100 23 94 24 93 25 49 27 81 28 61 29 80 30 62 31 65 32 79 33
REMARK SMILES IDX 98 34 63 35 64 36 78 38 99 39 66 40 50 41 51 42 59 43 52 44
REMARK SMILES IDX 53 45 57 46 60 47 54 48 55 49 58 50 56 51 82 52 83 53 91 54
REMARK SMILES IDX 84 55 85 56 89 57 92 58 86 59 87 60 90 61 88 62 67 63 68 64
REMARK SMILES IDX 76 65 69 66 70 67 74 68 77 69 71 70 72 71 75 72 73 73 8 74
REMARK SMILES IDX 9 75 10 76 11 77 12 79 13 80 14 81 37 82 15 83 17 84 16 85
REMARK SMILES IDX 40 86 38 87 39 88 18 89 19 90 20 91 21 92 22 94 23 95 31 96
REMARK SMILES IDX 24 97 30 98 29 99 32 100 33 101 36 102 34 103 35 104 25 105
REMARK SMILES IDX 26 106 27 107 28 108
REMARK H PARENT 3 8 97 26 65 37 10 78 21 93
REMARK Flexibility Score: inf
ROOT
ATOM      1  C   UNL A   1      39.871  23.814  27.411  1.00  0.00     0.002 C 
ENDROOT
BRANCH   1   2
ATOM      2  C   UNL A   1      39.954  22.290  27.251  1.00  0.00     0.002 C 
BRANCH   2   3
ATOM      3  C   UNL A   1      40.699  21.765  26.016  1.00  0.00     0.021 C 
BRANCH   3   4
ATOM      4  C   UNL A   1      42.194  21.514  26.208  1.00  0.00     0.116 C 
BRANCH   4   5
ATOM      5  N   UNL A   1      43.041  22.232  25.279  1.00  0.00    -0.352 N 
ATOM      6  O   UNL A   1      44.362  23.685  24.281  1.00  0.00    -0.269 OA
ATOM      7  C   UNL A   1      43.545  23.498  25.187  1.00  0.00     0.251 C 
ATOM      8  H   UNL A   1      43.327  21.665  24.525  1.00  0.00     0.163 HD
BRANCH   7   9
ATOM      9  C   UNL A   1      43.160  24.661  26.038  1.00  0.00     0.039 A 
ATOM     10  C   UNL A   1      43.571  24.899  27.349  1.00  0.00     0.014 A 
ATOM     11  C   UNL A   1      42.294  25.598  25.434  1.00  0.00     0.014 A 
ATOM     12  C   UNL A   1      43.094  26.014  28.045  1.00  0.00     0.010 A 
ATOM     13  C   UNL A   1      41.814  26.710  26.122  1.00  0.00     0.010 A 
ATOM     14  C   UNL A   1      42.199  26.911  27.441  1.00  0.00    -0.014 A 
BRANCH  14  15
ATOM     15  C   UNL A   1      41.871  28.153  28.148  1.00  0.00     0.031 A 
ATOM     16  C   UNL A   1      42.880  29.234  27.959  1.00  0.00     0.074 A 
ATOM     17  C   UNL A   1      40.720  28.413  28.807  1.00  0.00     0.049 A 
ATOM     18  N   UNL A   1      43.634  29.779  28.857  1.00  0.00    -0.248 NA
ATOM     19  C   UNL A   1      43.161  29.689  26.589  1.00  0.00     0.031 C 
ATOM     20  C   UNL A   1      39.500  27.608  28.837  1.00  0.00     0.029 A 
ATOM     21  N   UNL A   1      40.374  29.521  29.536  1.00  0.00    -0.354 N 
ATOM     22  C   UNL A   1      44.369  30.766  28.202  1.00  0.00     0.074 A 
ATOM     23  C   UNL A   1      44.142  30.570  26.796  1.00  0.00     0.031 C 
ATOM     24  C   UNL A   1      38.492  28.340  29.369  1.00  0.00     0.029 A 
ATOM     25  C   UNL A   1      39.019  29.611  29.840  1.00  0.00     0.049 A 
ATOM     26  H   UNL A   1      41.031  30.197  29.820  1.00  0.00     0.167 HD
ATOM     27  C   UNL A   1      44.929  31.797  28.896  1.00  0.00     0.037 A 
ATOM     28  C   UNL A   1      38.371  30.666  30.401  1.00  0.00     0.037 A 
ATOM     29  C   UNL A   1      45.035  31.474  30.297  1.00  0.00     0.049 A 
ATOM     30  C   UNL A   1      39.381  31.511  31.077  1.00  0.00     0.074 A 
ATOM     31  C   UNL A   1      45.676  30.497  31.033  1.00  0.00     0.029 A 
ATOM     32  N   UNL A   1      44.123  32.041  31.149  1.00  0.00    -0.354 N 
ATOM     33  N   UNL A   1      40.009  31.174  32.166  1.00  0.00    -0.248 NA
ATOM     34  C   UNL A   1      39.978  32.598  30.320  1.00  0.00     0.031 C 
ATOM     35  C   UNL A   1      44.793  30.211  32.117  1.00  0.00     0.029 A 
ATOM     36  C   UNL A   1      43.700  31.071  32.013  1.00  0.00     0.049 A 
ATOM     37  H   UNL A   1      43.829  32.980  31.141  1.00  0.00     0.167 HD
ATOM     38  C   UNL A   1      41.291  31.661  31.985  1.00  0.00     0.074 A 
ATOM     39  C   UNL A   1      41.181  32.628  30.897  1.00  0.00     0.031 C 
ATOM     40  C   UNL A   1      42.359  31.018  32.540  1.00  0.00     0.037 A 
BRANCH  27  41
ATOM     41  C   UNL A   1      44.991  33.231  28.405  1.00  0.00     0.064 A 
ATOM     42  C   UNL A   1      46.246  33.880  28.371  1.00  0.00     0.173 A 
ATOM     43  C   UNL A   1      43.871  34.085  28.304  1.00  0.00     0.173 A 
ATOM     44  F   UNL A   1      47.385  33.174  28.453  1.00  0.00    -0.203 F 
ATOM     45  C   UNL A   1      46.362  35.272  28.374  1.00  0.00     0.198 A 
ATOM     46  C   UNL A   1      43.994  35.473  28.253  1.00  0.00     0.198 A 
ATOM     47  F   UNL A   1      42.616  33.631  28.361  1.00  0.00    -0.203 F 
ATOM     48  F   UNL A   1      47.570  35.838  28.504  1.00  0.00    -0.200 F 
ATOM     49  C   UNL A   1      45.235  36.068  28.331  1.00  0.00     0.200 A 
ATOM     50  F   UNL A   1      42.888  36.229  28.221  1.00  0.00    -0.200 F 
ATOM     51  F   UNL A   1      45.338  37.401  28.413  1.00  0.00    -0.200 F 
ENDBRANCH  27  41
BRANCH  28  52
ATOM     52  C   UNL A   1      36.982  31.156  30.210  1.00  0.00     0.064 A 
ATOM     53  C   UNL A   1      36.200  31.576  31.303  1.00  0.00     0.173 A 
ATOM     54  C   UNL A   1      36.513  31.517  28.934  1.00  0.00     0.173 A 
ATOM     55  F   UNL A   1      36.592  31.313  32.558  1.00  0.00    -0.203 F 
ATOM     56  C   UNL A   1      35.045  32.347  31.130  1.00  0.00     0.198 A 
ATOM     57  C   UNL A   1      35.356  32.281  28.762  1.00  0.00     0.198 A 
ATOM     58  F   UNL A   1      37.224  31.226  27.836  1.00  0.00    -0.203 F 
ATOM     59  F   UNL A   1      34.370  32.793  32.199  1.00  0.00    -0.200 F 
ATOM     60  C   UNL A   1      34.632  32.711  29.860  1.00  0.00     0.200 A 
ATOM     61  F   UNL A   1      34.987  32.659  27.530  1.00  0.00    -0.200 F 
ATOM     62  F   UNL A   1      33.568  33.508  29.695  1.00  0.00    -0.200 F 
ENDBRANCH  28  52
BRANCH  40  63
ATOM     63  C   UNL A   1      42.091  30.024  33.632  1.00  0.00     0.064 A 
ATOM     64  C   UNL A   1      41.680  28.696  33.425  1.00  0.00     0.173 A 
ATOM     65  C   UNL A   1      42.369  30.416  34.949  1.00  0.00     0.173 A 
ATOM     66  F   UNL A   1      41.492  28.212  32.189  1.00  0.00    -0.203 F 
ATOM     67  C   UNL A   1      41.506  27.822  34.497  1.00  0.00     0.198 A 
ATOM     68  C   UNL A   1      42.237  29.529  36.012  1.00  0.00     0.198 A 
ATOM     69  F   UNL A   1      42.813  31.658  35.202  1.00  0.00    -0.203 F 
ATOM     70  F   UNL A   1      41.089  26.566  34.279  1.00  0.00    -0.200 F 
ATOM     71  C   UNL A   1      41.791  28.238  35.787  1.00  0.00     0.200 A 
ATOM     72  F   UNL A   1      42.564  29.922  37.250  1.00  0.00    -0.200 F 
ATOM     73  F   UNL A   1      41.663  27.386  36.814  1.00  0.00    -0.200 F 
ENDBRANCH  40  63
ENDBRANCH  14  15
ENDBRANCH   7   9
ENDBRANCH   4   5
ENDBRANCH   3   4
ENDBRANCH   2   3
ENDBRANCH   1   2
BRANCH   1  74
ATOM     74  C   UNL A   1      38.759  24.512  26.627  1.00  0.00     0.021 C 
BRANCH  74  75
ATOM     75  C   UNL A   1      37.596  23.622  26.199  1.00  0.00     0.116 C 
BRANCH  75  76
ATOM     76  N   UNL A   1      37.627  23.253  24.785  1.00  0.00    -0.352 N 
ATOM     77  C   UNL A   1      36.590  23.240  23.868  1.00  0.00     0.251 C 
ATOM     78  H   UNL A   1      38.505  22.977  24.437  1.00  0.00     0.163 HD
ATOM     79  O   UNL A   1      36.751  22.797  22.736  1.00  0.00    -0.269 OA
BRANCH  77  80
ATOM     80  C   UNL A   1      35.262  23.747  24.283  1.00  0.00     0.041 A 
ATOM     81  C   UNL A   1      34.638  23.149  25.374  1.00  0.00     0.018 A 
ATOM     82  C   UNL A   1      34.584  24.699  23.494  1.00  0.00     0.036 A 
ATOM     83  C   UNL A   1      33.276  23.302  25.476  1.00  0.00    -0.043 A 
ATOM     84  C   UNL A   1      33.198  24.926  23.662  1.00  0.00     0.092 A 
ATOM     85  C   UNL A   1      32.541  24.106  24.575  1.00  0.00    -0.024 A 
ATOM     86  C   UNL A   1      32.381  22.533  26.402  1.00  0.00     0.036 C 
ATOM     87  C   UNL A   1      31.104  23.727  24.733  1.00  0.00     0.037 C 
ATOM     88  C   UNL A   1      31.078  23.297  26.205  1.00  0.00     0.010 C 
BRANCH  84  89
ATOM     89  S   UNL A   1      32.406  26.030  22.508  1.00  0.00     0.262 S 
ATOM     90  O   UNL A   1      33.405  27.017  22.125  1.00  0.00    -0.201 OA
ATOM     91  O   UNL A   1      31.800  25.205  21.487  1.00  0.00    -0.201 OA
BRANCH  89  92
ATOM     92  N   UNL A   1      31.141  26.992  23.137  1.00  0.00    -0.277 N 
ATOM     93  H   UNL A   1      30.226  26.820  22.817  1.00  0.00     0.180 HD
BRANCH  92  94
ATOM     94  C   UNL A   1      31.331  28.034  24.101  1.00  0.00     0.075 A 
ATOM     95  C   UNL A   1      32.336  27.878  25.073  1.00  0.00     0.042 A 
ATOM     96  C   UNL A   1      30.631  29.246  24.031  1.00  0.00     0.089 A 
ATOM     97  C   UNL A   1      32.710  28.956  25.906  1.00  0.00     0.058 A 
ATOM     98  C   UNL A   1      30.960  30.303  24.894  1.00  0.00     0.031 A 
ATOM     99  C   UNL A   1      31.989  30.157  25.827  1.00  0.00     0.015 A 
BRANCH  96 100
ATOM    100  N   UNL A   1      29.636  29.461  23.053  1.00  0.00    -0.239 N 
ATOM    101  C   UNL A   1      29.635  30.384  22.034  1.00  0.00     0.115 A 
ATOM    102  N   UNL A   1      28.454  28.799  23.126  1.00  0.00    -0.177 NA
ATOM    103  C   UNL A   1      28.350  30.446  21.555  1.00  0.00     0.042 A 
ATOM    104  C   UNL A   1      27.654  29.483  22.303  1.00  0.00     0.135 A 
ENDBRANCH  96 100
BRANCH  97 105
ATOM    105  C   UNL A   1      33.940  28.853  26.780  1.00  0.00     0.416 C 
ATOM    106  F   UNL A   1      33.660  28.964  28.104  1.00  0.00    -0.166 F 
ATOM    107  F   UNL A   1      34.581  27.659  26.626  1.00  0.00    -0.166 F 
ATOM    108  F   UNL A   1      34.875  29.805  26.506  1.00  0.00    -0.166 F 
ENDBRANCH  97 105
ENDBRANCH  92  94
ENDBRANCH  89  92
ENDBRANCH  84  89
ENDBRANCH  77  80
ENDBRANCH  75  76
ENDBRANCH  74  75
ENDBRANCH   1  74
TORSDOF 18
ENDMDL
MODEL 2
REMARK VINA RESULT:     -12.7      3.350      9.303
REMARK SMILES O=C(NCCCCCCNC(=O)c1cc2c(c(S(=O)(=O)Nc3cc(C(F)(F)F)ccc3-n3cccn3)c1)CCC2)c1ccc(-c2c3nc(c(-c4c(F)c(F)c(F)c(F)c4F)c4ccc([nH]4)c(-c4c(F)c(F)c(F)c(F)c4F)c4nc(c(-c5c(F)c(F)c(F)c(F)c5F)c5ccc2[nH]5)C=C4)C=C3)cc1
REMARK SMILES IDX 7 1 6 2 5 3 4 4 3 5 1 6 2 7 41 9 42 10 103 11 43 12 102 13
REMARK SMILES IDX 44 14 45 15 46 16 96 17 47 18 101 19 95 20 97 21 48 22
REMARK SMILES IDX 100 23 94 24 93 25 49 27 81 28 61 29 80 30 62 31 65 32 79 33
REMARK SMILES IDX 98 34 63 35 64 36 78 38 99 39 66 40 50 41 51 42 59 43 52 44
REMARK SMILES IDX 53 45 57 46 60 47 54 48 55 49 58 50 56 51 82 52 83 53 91 54
REMARK SMILES IDX 84 55 85 56 89 57 92 58 86 59 87 60 90 61 88 62 67 63 68 64
REMARK SMILES IDX 76 65 69 66 70 67 74 68 77 69 71 70 72 71 75 72 73 73 8 74
REMARK SMILES IDX 9 75 10 76 11 77 12 79 13 80 14 81 37 82 15 83 17 84 16 85
REMARK SMILES IDX 40 86 38 87 39 88 18 89 19 90 20 91 21 92 22 94 23 95 31 96
REMARK SMILES IDX 24 97 30 98 29 99 32 100 33 101 36 102 34 103 35 104 25 105
REMARK SMILES IDX 26 106 27 107 28 108
REMARK H PARENT 3 8 97 26 65 37 10 78 21 93
REMARK Flexibility Score: inf
ROOT
ATOM      1  C   UNL A   1      31.128  27.509  25.060  1.00  0.00     0.002 C 
ENDROOT
BRANCH   1   2
ATOM      2  C   UNL A   1      32.263  27.482  26.092  1.00  0.00     0.002 C 
BRANCH   2   3
ATOM      3  C   UNL A   1      32.383  28.701  27.019  1.00  0.00     0.021 C 
BRANCH   3   4
ATOM      4  C   UNL A   1      33.577  29.615  26.749  1.00  0.00     0.116 C 
BRANCH   4   5
ATOM      5  N   UNL A   1      33.652  30.768  27.623  1.00  0.00    -0.352 N 
ATOM      6  O   UNL A   1      34.308  32.467  28.861  1.00  0.00    -0.269 OA
ATOM      7  C   UNL A   1      34.636  31.406  28.324  1.00  0.00     0.251 C 
ATOM      8  H   UNL A   1      32.774  31.200  27.741  1.00  0.00     0.163 HD
BRANCH   7   9
ATOM      9  C   UNL A   1      36.028  30.912  28.532  1.00  0.00     0.039 A 
ATOM     10  C   UNL A   1      37.081  31.625  29.104  1.00  0.00     0.014 A 
ATOM     11  C   UNL A   1      36.277  29.592  28.100  1.00  0.00     0.014 A 
ATOM     12  C   UNL A   1      38.352  31.049  29.196  1.00  0.00     0.010 A 
ATOM     13  C   UNL A   1      37.541  29.013  28.188  1.00  0.00     0.010 A 
ATOM     14  C   UNL A   1      38.590  29.750  28.722  1.00  0.00    -0.014 A 
BRANCH  14  15
ATOM     15  C   UNL A   1      39.889  29.130  29.003  1.00  0.00     0.031 A 
ATOM     16  C   UNL A   1      40.164  28.952  30.458  1.00  0.00     0.074 A 
ATOM     17  C   UNL A   1      40.741  28.617  28.089  1.00  0.00     0.049 A 
ATOM     18  N   UNL A   1      41.096  29.507  31.161  1.00  0.00    -0.248 NA
ATOM     19  C   UNL A   1      39.224  28.142  31.248  1.00  0.00     0.031 C 
ATOM     20  C   UNL A   1      40.511  28.416  26.659  1.00  0.00     0.029 A 
ATOM     21  N   UNL A   1      41.989  28.082  28.276  1.00  0.00    -0.354 N 
ATOM     22  C   UNL A   1      40.971  28.992  32.450  1.00  0.00     0.074 A 
ATOM     23  C   UNL A   1      39.726  28.272  32.477  1.00  0.00     0.031 C 
ATOM     24  C   UNL A   1      41.489  27.627  26.153  1.00  0.00     0.029 A 
ATOM     25  C   UNL A   1      42.484  27.376  27.183  1.00  0.00     0.049 A 
ATOM     26  H   UNL A   1      42.493  28.189  29.115  1.00  0.00     0.167 HD
ATOM     27  C   UNL A   1      42.020  29.024  33.320  1.00  0.00     0.037 A 
ATOM     28  C   UNL A   1      43.607  26.612  27.138  1.00  0.00     0.037 A 
ATOM     29  C   UNL A   1      43.000  29.995  32.906  1.00  0.00     0.049 A 
ATOM     30  C   UNL A   1      44.477  27.019  28.265  1.00  0.00     0.074 A 
ATOM     31  C   UNL A   1      43.002  31.361  32.695  1.00  0.00     0.029 A 
ATOM     32  N   UNL A   1      44.144  29.528  32.310  1.00  0.00    -0.354 N 
ATOM     33  N   UNL A   1      45.116  28.150  28.327  1.00  0.00    -0.248 NA
ATOM     34  C   UNL A   1      44.340  26.306  29.525  1.00  0.00     0.031 C 
ATOM     35  C   UNL A   1      43.879  31.564  31.588  1.00  0.00     0.029 A 
ATOM     36  C   UNL A   1      44.407  30.323  31.230  1.00  0.00     0.049 A 
ATOM     37  H   UNL A   1      44.680  28.759  32.609  1.00  0.00     0.167 HD
ATOM     38  C   UNL A   1      45.042  28.512  29.660  1.00  0.00     0.074 A 
ATOM     39  C   UNL A   1      44.666  27.290  30.365  1.00  0.00     0.031 C 
ATOM     40  C   UNL A   1      45.009  29.828  30.018  1.00  0.00     0.037 A 
BRANCH  27  41
ATOM     41  C   UNL A   1      42.366  27.911  34.292  1.00  0.00     0.064 A 
ATOM     42  C   UNL A   1      42.969  26.736  33.787  1.00  0.00     0.173 A 
ATOM     43  C   UNL A   1      41.833  27.800  35.594  1.00  0.00     0.173 A 
ATOM     44  F   UNL A   1      43.517  26.719  32.562  1.00  0.00    -0.203 F 
ATOM     45  C   UNL A   1      42.919  25.522  34.475  1.00  0.00     0.198 A 
ATOM     46  C   UNL A   1      41.833  26.596  36.299  1.00  0.00     0.198 A 
ATOM     47  F   UNL A   1      41.195  28.808  36.196  1.00  0.00    -0.203 F 
ATOM     48  F   UNL A   1      43.362  24.405  33.884  1.00  0.00    -0.200 F 
ATOM     49  C   UNL A   1      42.335  25.450  35.725  1.00  0.00     0.200 A 
ATOM     50  F   UNL A   1      41.253  26.544  37.507  1.00  0.00    -0.200 F 
ATOM     51  F   UNL A   1      42.215  24.273  36.354  1.00  0.00    -0.200 F 
ENDBRANCH  27  41
BRANCH  28  52
ATOM     52  C   UNL A   1      43.907  25.385  26.357  1.00  0.00     0.064 A 
ATOM     53  C   UNL A   1      45.014  25.325  25.489  1.00  0.00     0.173 A 
ATOM     54  C   UNL A   1      43.305  24.156  26.683  1.00  0.00     0.173 A 
ATOM     55  F   UNL A   1      45.675  26.443  25.157  1.00  0.00    -0.203 F 
ATOM     56  C   UNL A   1      45.514  24.108  25.014  1.00  0.00     0.198 A 
ATOM     57  C   UNL A   1      43.801  22.942  26.203  1.00  0.00     0.198 A 
ATOM     58  F   UNL A   1      42.291  24.102  27.557  1.00  0.00    -0.203 F 
ATOM     59  F   UNL A   1      46.617  24.087  24.253  1.00  0.00    -0.200 F 
ATOM     60  C   UNL A   1      44.915  22.915  25.383  1.00  0.00     0.200 A 
ATOM     61  F   UNL A   1      43.236  21.791  26.597  1.00  0.00    -0.200 F 
ATOM     62  F   UNL A   1      45.434  21.745  24.988  1.00  0.00    -0.200 F 
ENDBRANCH  28  52
BRANCH  40  63
ATOM     63  C   UNL A   1      45.429  30.845  28.997  1.00  0.00     0.064 A 
ATOM     64  C   UNL A   1      46.748  31.287  28.801  1.00  0.00     0.173 A 
ATOM     65  C   UNL A   1      44.452  31.310  28.105  1.00  0.00     0.173 A 
ATOM     66  F   UNL A   1      47.758  30.813  29.544  1.00  0.00    -0.203 F 
ATOM     67  C   UNL A   1      47.058  32.197  27.790  1.00  0.00     0.198 A 
ATOM     68  C   UNL A   1      44.773  32.182  27.070  1.00  0.00     0.198 A 
ATOM     69  F   UNL A   1      43.184  30.881  28.212  1.00  0.00    -0.203 F 
ATOM     70  F   UNL A   1      48.320  32.626  27.637  1.00  0.00    -0.200 F 
ATOM     71  C   UNL A   1      46.072  32.637  26.923  1.00  0.00     0.200 A 
ATOM     72  F   UNL A   1      43.825  32.563  26.204  1.00  0.00    -0.200 F 
ATOM     73  F   UNL A   1      46.378  33.479  25.926  1.00  0.00    -0.200 F 
ENDBRANCH  40  63
ENDBRANCH  14  15
ENDBRANCH   7   9
ENDBRANCH   4   5
ENDBRANCH   3   4
ENDBRANCH   2   3
ENDBRANCH   1   2
BRANCH   1  74
ATOM     74  C   UNL A   1      31.429  28.236  23.749  1.00  0.00     0.021 C 
BRANCH  74  75
ATOM     75  C   UNL A   1      32.804  27.963  23.146  1.00  0.00     0.116 C 
BRANCH  75  76
ATOM     76  N   UNL A   1      32.754  27.329  21.831  1.00  0.00    -0.352 N 
ATOM     77  C   UNL A   1      32.870  25.987  21.508  1.00  0.00     0.251 C 
ATOM     78  H   UNL A   1      32.617  27.938  21.070  1.00  0.00     0.163 HD
ATOM     79  O   UNL A   1      32.918  25.619  20.340  1.00  0.00    -0.269 OA
BRANCH  77  80
ATOM     80  C   UNL A   1      32.967  24.995  22.604  1.00  0.00     0.041 A 
ATOM     81  C   UNL A   1      31.794  24.579  23.224  1.00  0.00     0.018 A 
ATOM     82  C   UNL A   1      34.228  24.609  23.105  1.00  0.00     0.036 A 
ATOM     83  C   UNL A   1      31.910  24.032  24.480  1.00  0.00    -0.043 A 
ATOM     84  C   UNL A   1      34.343  23.960  24.357  1.00  0.00     0.092 A 
ATOM     85  C   UNL A   1      33.168  23.809  25.087  1.00  0.00    -0.024 A 
ATOM     86  C   UNL A   1      30.775  23.770  25.424  1.00  0.00     0.036 C 
ATOM     87  C   UNL A   1      32.910  23.596  26.544  1.00  0.00     0.037 C 
ATOM     88  C   UNL A   1      31.506  22.981  26.503  1.00  0.00     0.010 C 
BRANCH  84  89
ATOM     89  S   UNL A   1      35.989  23.661  24.972  1.00  0.00     0.262 S 
ATOM     90  O   UNL A   1      36.817  23.360  23.814  1.00  0.00    -0.201 OA
ATOM     91  O   UNL A   1      36.332  24.785  25.814  1.00  0.00    -0.201 OA
BRANCH  89  92
ATOM     92  N   UNL A   1      36.183  22.274  25.952  1.00  0.00    -0.277 N 
ATOM     93  H   UNL A   1      36.555  22.393  26.855  1.00  0.00     0.180 HD
BRANCH  92  94
ATOM     94  C   UNL A   1      35.837  20.947  25.537  1.00  0.00     0.075 A 
ATOM     95  C   UNL A   1      34.483  20.645  25.301  1.00  0.00     0.042 A 
ATOM     96  C   UNL A   1      36.812  19.983  25.247  1.00  0.00     0.089 A 
ATOM     97  C   UNL A   1      34.110  19.429  24.689  1.00  0.00     0.058 A 
ATOM     98  C   UNL A   1      36.442  18.749  24.689  1.00  0.00     0.031 A 
ATOM     99  C   UNL A   1      35.100  18.473  24.416  1.00  0.00     0.015 A 
BRANCH  96 100
ATOM    100  N   UNL A   1      38.185  20.250  25.437  1.00  0.00    -0.239 N 
ATOM    101  C   UNL A   1      39.222  19.350  25.502  1.00  0.00     0.115 A 
ATOM    102  N   UNL A   1      38.602  21.511  25.715  1.00  0.00    -0.177 NA
ATOM    103  C   UNL A   1      40.302  20.024  26.016  1.00  0.00     0.042 A 
ATOM    104  C   UNL A   1      39.844  21.342  26.177  1.00  0.00     0.135 A 
ENDBRANCH  96 100
BRANCH  97 105
ATOM    105  C   UNL A   1      32.685  19.213  24.228  1.00  0.00     0.416 C 
ATOM    106  F   UNL A   1      31.866  20.253  24.532  1.00  0.00    -0.166 F 
ATOM    107  F   UNL A   1      32.602  19.046  22.878  1.00  0.00    -0.166 F 
ATOM    108  F   UNL A   1      32.109  18.102  24.768  1.00  0.00    -0.166 F 
ENDBRANCH  97 105
ENDBRANCH  92  94
ENDBRANCH  89  92
ENDBRANCH  84  89
ENDBRANCH  77  80
ENDBRANCH  75  76
ENDBRANCH  74  75
ENDBRANCH   1  74
TORSDOF 18
ENDMDL
MODEL 3
REMARK VINA RESULT:     -12.6      1.620      2.310
REMARK SMILES O=C(NCCCCCCNC(=O)c1cc2c(c(S(=O)(=O)Nc3cc(C(F)(F)F)ccc3-n3cccn3)c1)CCC2)c1ccc(-c2c3nc(c(-c4c(F)c(F)c(F)c(F)c4F)c4ccc([nH]4)c(-c4c(F)c(F)c(F)c(F)c4F)c4nc(c(-c5c(F)c(F)c(F)c(F)c5F)c5ccc2[nH]5)C=C4)C=C3)cc1
REMARK SMILES IDX 7 1 6 2 5 3 4 4 3 5 1 6 2 7 41 9 42 10 103 11 43 12 102 13
REMARK SMILES IDX 44 14 45 15 46 16 96 17 47 18 101 19 95 20 97 21 48 22
REMARK SMILES IDX 100 23 94 24 93 25 49 27 81 28 61 29 80 30 62 31 65 32 79 33
REMARK SMILES IDX 98 34 63 35 64 36 78 38 99 39 66 40 50 41 51 42 59 43 52 44
REMARK SMILES IDX 53 45 57 46 60 47 54 48 55 49 58 50 56 51 82 52 83 53 91 54
REMARK SMILES IDX 84 55 85 56 89 57 92 58 86 59 87 60 90 61 88 62 67 63 68 64
REMARK SMILES IDX 76 65 69 66 70 67 74 68 77 69 71 70 72 71 75 72 73 73 8 74
REMARK SMILES IDX 9 75 10 76 11 77 12 79 13 80 14 81 37 82 15 83 17 84 16 85
REMARK SMILES IDX 40 86 38 87 39 88 18 89 19 90 20 91 21 92 22 94 23 95 31 96
REMARK SMILES IDX 24 97 30 98 29 99 32 100 33 101 36 102 34 103 35 104 25 105
REMARK SMILES IDX 26 106 27 107 28 108
REMARK H PARENT 3 8 97 26 65 37 10 78 21 93
REMARK Flexibility Score: inf
ROOT
ATOM      1  C   UNL A   1      39.775  23.921  27.205  1.00  0.00     0.002 C 
ENDROOT
BRANCH   1   2
ATOM      2  C   UNL A   1      39.899  22.392  27.197  1.00  0.00     0.002 C 
BRANCH   2   3
ATOM      3  C   UNL A   1      40.639  21.764  26.007  1.00  0.00     0.021 C 
BRANCH   3   4
ATOM      4  C   UNL A   1      42.134  21.529  26.214  1.00  0.00     0.116 C 
BRANCH   4   5
ATOM      5  N   UNL A   1      42.983  22.246  25.285  1.00  0.00    -0.352 N 
ATOM      6  O   UNL A   1      44.304  23.700  24.288  1.00  0.00    -0.269 OA
ATOM      7  C   UNL A   1      43.485  23.514  25.193  1.00  0.00     0.251 C 
ATOM      8  H   UNL A   1      43.270  21.679  24.532  1.00  0.00     0.163 HD
BRANCH   7   9
ATOM      9  C   UNL A   1      43.097  24.677  26.042  1.00  0.00     0.039 A 
ATOM     10  C   UNL A   1      43.441  24.877  27.378  1.00  0.00     0.014 A 
ATOM     11  C   UNL A   1      42.305  25.657  25.407  1.00  0.00     0.014 A 
ATOM     12  C   UNL A   1      42.967  25.998  28.067  1.00  0.00     0.010 A 
ATOM     13  C   UNL A   1      41.830  26.776  26.087  1.00  0.00     0.010 A 
ATOM     14  C   UNL A   1      42.145  26.940  27.429  1.00  0.00    -0.014 A 
BRANCH  14  15
ATOM     15  C   UNL A   1      41.825  28.183  28.140  1.00  0.00     0.031 A 
ATOM     16  C   UNL A   1      42.835  29.262  27.942  1.00  0.00     0.074 A 
ATOM     17  C   UNL A   1      40.681  28.444  28.808  1.00  0.00     0.049 A 
ATOM     18  N   UNL A   1      43.597  29.806  28.833  1.00  0.00    -0.248 NA
ATOM     19  C   UNL A   1      43.104  29.717  26.569  1.00  0.00     0.031 C 
ATOM     20  C   UNL A   1      39.460  27.641  28.849  1.00  0.00     0.029 A 
ATOM     21  N   UNL A   1      40.343  29.553  29.540  1.00  0.00    -0.354 N 
ATOM     22  C   UNL A   1      44.328  30.792  28.171  1.00  0.00     0.074 A 
ATOM     23  C   UNL A   1      44.088  30.596  26.767  1.00  0.00     0.031 C 
ATOM     24  C   UNL A   1      38.458  28.375  29.391  1.00  0.00     0.029 A 
ATOM     25  C   UNL A   1      38.990  29.645  29.857  1.00  0.00     0.049 A 
ATOM     26  H   UNL A   1      41.004  30.228  29.819  1.00  0.00     0.167 HD
ATOM     27  C   UNL A   1      44.895  31.822  28.860  1.00  0.00     0.037 A 
ATOM     28  C   UNL A   1      38.349  30.701  30.424  1.00  0.00     0.037 A 
ATOM     29  C   UNL A   1      45.014  31.499  30.260  1.00  0.00     0.049 A 
ATOM     30  C   UNL A   1      39.367  31.544  31.091  1.00  0.00     0.074 A 
ATOM     31  C   UNL A   1      45.660  30.520  30.990  1.00  0.00     0.029 A 
ATOM     32  N   UNL A   1      44.111  32.067  31.121  1.00  0.00    -0.354 N 
ATOM     33  N   UNL A   1      40.004  31.207  32.174  1.00  0.00    -0.248 NA
ATOM     34  C   UNL A   1      39.959  32.631  30.328  1.00  0.00     0.031 C 
ATOM     35  C   UNL A   1      44.786  30.236  32.082  1.00  0.00     0.029 A 
ATOM     36  C   UNL A   1      43.693  31.097  31.988  1.00  0.00     0.049 A 
ATOM     37  H   UNL A   1      43.817  33.007  31.115  1.00  0.00     0.167 HD
ATOM     38  C   UNL A   1      41.285  31.692  31.982  1.00  0.00     0.074 A 
ATOM     39  C   UNL A   1      41.167  32.659  30.895  1.00  0.00     0.031 C 
ATOM     40  C   UNL A   1      42.357  31.047  32.527  1.00  0.00     0.037 A 
BRANCH  27  41
ATOM     41  C   UNL A   1      44.956  33.256  28.369  1.00  0.00     0.064 A 
ATOM     42  C   UNL A   1      46.221  33.870  28.229  1.00  0.00     0.173 A 
ATOM     43  C   UNL A   1      43.856  34.140  28.366  1.00  0.00     0.173 A 
ATOM     44  F   UNL A   1      47.342  33.133  28.212  1.00  0.00    -0.203 F 
ATOM     45  C   UNL A   1      46.376  35.258  28.225  1.00  0.00     0.198 A 
ATOM     46  C   UNL A   1      44.012  35.525  28.307  1.00  0.00     0.198 A 
ATOM     47  F   UNL A   1      42.597  33.721  28.529  1.00  0.00    -0.203 F 
ATOM     48  F   UNL A   1      47.605  35.790  28.252  1.00  0.00    -0.200 F 
ATOM     49  C   UNL A   1      45.271  36.085  28.280  1.00  0.00     0.200 A 
ATOM     50  F   UNL A   1      42.929  36.312  28.372  1.00  0.00    -0.200 F 
ATOM     51  F   UNL A   1      45.418  37.415  28.356  1.00  0.00    -0.200 F 
ENDBRANCH  27  41
BRANCH  28  52
ATOM     52  C   UNL A   1      36.960  31.193  30.245  1.00  0.00     0.064 A 
ATOM     53  C   UNL A   1      36.207  31.665  31.337  1.00  0.00     0.173 A 
ATOM     54  C   UNL A   1      36.462  31.504  28.966  1.00  0.00     0.173 A 
ATOM     55  F   UNL A   1      36.627  31.452  32.593  1.00  0.00    -0.203 F 
ATOM     56  C   UNL A   1      35.053  32.437  31.159  1.00  0.00     0.198 A 
ATOM     57  C   UNL A   1      35.307  32.269  28.790  1.00  0.00     0.198 A 
ATOM     58  F   UNL A   1      37.145  31.161  27.865  1.00  0.00    -0.203 F 
ATOM     59  F   UNL A   1      34.408  32.932  32.224  1.00  0.00    -0.200 F 
ATOM     60  C   UNL A   1      34.612  32.750  29.885  1.00  0.00     0.200 A 
ATOM     61  F   UNL A   1      34.911  32.597  27.552  1.00  0.00    -0.200 F 
ATOM     62  F   UNL A   1      33.550  33.548  29.712  1.00  0.00    -0.200 F 
ENDBRANCH  28  52
BRANCH  40  63
ATOM     63  C   UNL A   1      42.097  30.053  33.622  1.00  0.00     0.064 A 
ATOM     64  C   UNL A   1      41.704  28.719  33.417  1.00  0.00     0.173 A 
ATOM     65  C   UNL A   1      42.365  30.453  34.938  1.00  0.00     0.173 A 
ATOM     66  F   UNL A   1      41.527  28.228  32.182  1.00  0.00    -0.203 F 
ATOM     67  C   UNL A   1      41.536  27.847  34.492  1.00  0.00     0.198 A 
ATOM     68  C   UNL A   1      42.240  29.568  36.004  1.00  0.00     0.198 A 
ATOM     69  F   UNL A   1      42.792  31.701  35.188  1.00  0.00    -0.203 F 
ATOM     70  F   UNL A   1      41.136  26.584  34.276  1.00  0.00    -0.200 F 
ATOM     71  C   UNL A   1      41.811  28.270  35.781  1.00  0.00     0.200 A 
ATOM     72  F   UNL A   1      42.557  29.969  37.241  1.00  0.00    -0.200 F 
ATOM     73  F   UNL A   1      41.690  27.420  36.810  1.00  0.00    -0.200 F 
ENDBRANCH  40  63
ENDBRANCH  14  15
ENDBRANCH   7   9
ENDBRANCH   4   5
ENDBRANCH   3   4
ENDBRANCH   2   3
ENDBRANCH   1   2
BRANCH   1  74
ATOM     74  C   UNL A   1      38.553  24.499  26.491  1.00  0.00     0.021 C 
BRANCH  74  75
ATOM     75  C   UNL A   1      37.495  23.483  26.069  1.00  0.00     0.116 C 
BRANCH  75  76
ATOM     76  N   UNL A   1      37.404  23.295  24.623  1.00  0.00    -0.352 N 
ATOM     77  C   UNL A   1      36.298  23.413  23.798  1.00  0.00     0.251 C 
ATOM     78  H   UNL A   1      38.246  23.053  24.172  1.00  0.00     0.163 HD
ATOM     79  O   UNL A   1      36.359  23.113  22.611  1.00  0.00    -0.269 OA
BRANCH  77  80
ATOM     80  C   UNL A   1      35.020  23.881  24.381  1.00  0.00     0.041 A 
ATOM     81  C   UNL A   1      34.552  23.260  25.534  1.00  0.00     0.018 A 
ATOM     82  C   UNL A   1      34.225  24.821  23.691  1.00  0.00     0.036 A 
ATOM     83  C   UNL A   1      33.209  23.376  25.807  1.00  0.00    -0.043 A 
ATOM     84  C   UNL A   1      32.866  25.011  24.033  1.00  0.00     0.092 A 
ATOM     85  C   UNL A   1      32.349  24.167  25.012  1.00  0.00    -0.024 A 
ATOM     86  C   UNL A   1      32.457  22.577  26.828  1.00  0.00     0.036 C 
ATOM     87  C   UNL A   1      30.952  23.749  25.343  1.00  0.00     0.037 C 
ATOM     88  C   UNL A   1      31.120  23.309  26.802  1.00  0.00     0.010 C 
BRANCH  84  89
ATOM     89  S   UNL A   1      31.909  26.101  22.997  1.00  0.00     0.262 S 
ATOM     90  O   UNL A   1      32.129  25.668  21.625  1.00  0.00    -0.201 OA
ATOM     91  O   UNL A   1      30.565  26.113  23.528  1.00  0.00    -0.201 OA
BRANCH  89  92
ATOM     92  N   UNL A   1      32.408  27.736  22.966  1.00  0.00    -0.277 N 
ATOM     93  H   UNL A   1      33.336  27.931  22.704  1.00  0.00     0.180 HD
BRANCH  92  94
ATOM     94  C   UNL A   1      31.557  28.839  23.300  1.00  0.00     0.075 A 
ATOM     95  C   UNL A   1      30.573  29.235  22.376  1.00  0.00     0.042 A 
ATOM     96  C   UNL A   1      31.598  29.452  24.560  1.00  0.00     0.089 A 
ATOM     97  C   UNL A   1      29.574  30.165  22.738  1.00  0.00     0.058 A 
ATOM     98  C   UNL A   1      30.641  30.419  24.906  1.00  0.00     0.031 A 
ATOM     99  C   UNL A   1      29.639  30.775  24.001  1.00  0.00     0.015 A 
BRANCH  96 100
ATOM    100  N   UNL A   1      32.547  29.066  25.531  1.00  0.00    -0.239 N 
ATOM    101  C   UNL A   1      33.631  29.779  25.986  1.00  0.00     0.115 A 
ATOM    102  N   UNL A   1      32.527  27.810  26.042  1.00  0.00    -0.177 NA
ATOM    103  C   UNL A   1      34.431  28.894  26.665  1.00  0.00     0.042 A 
ATOM    104  C   UNL A   1      33.725  27.682  26.621  1.00  0.00     0.135 A 
ENDBRANCH  96 100
BRANCH  97 105
ATOM    105  C   UNL A   1      28.392  30.408  21.827  1.00  0.00     0.416 C 
ATOM    106  F   UNL A   1      27.619  29.305  21.654  1.00  0.00    -0.166 F 
ATOM    107  F   UNL A   1      27.565  31.380  22.307  1.00  0.00    -0.166 F 
ATOM    108  F   UNL A   1      28.751  30.822  20.579  1.00  0.00    -0.166 F 
ENDBRANCH  97 105
ENDBRANCH  92  94
ENDBRANCH  89  92
ENDBRANCH  84  89
ENDBRANCH  77  80
ENDBRANCH  75  76
ENDBRANCH  74  75
ENDBRANCH   1  74
TORSDOF 18
ENDMDL
