MODEL 1
REMARK VINA RESULT:     -12.9      0.000      0.000
REMARK SMILES CC(=O)Nc1ccc(/C(=C\c2ccc(S(C)(=O)=O)cc2)C(=O)NCCCCCCNC(=O)c2ccc(-c3c4nc(c(-c5c(F)c(F)c(F)c(F)c5F)c5ccc([nH]5)c(-c5c(F)c(F)c(F)c(F)c5F)c5nc(c(-c6c(F)c(F)c(F)c(F)c6F)c6ccc3[nH]6)C=C5)C=C4)cc2)cc1
REMARK SMILES IDX 26 1 25 2 24 3 23 4 21 5 22 6 9 8 10 9 8 10 5 11 6 12 97 13
REMARK SMILES IDX 7 14 96 15 4 16 1 17 2 18 3 19 11 21 12 22 20 23 13 24 19 25
REMARK SMILES IDX 14 26 15 27 16 28 17 29 18 30 27 31 28 32 29 33 30 34 31 35
REMARK SMILES IDX 32 37 33 38 34 39 95 40 35 41 94 42 36 43 37 44 38 45 88 46
REMARK SMILES IDX 39 47 93 48 87 49 89 50 40 51 92 52 86 53 85 54 41 56 73 57
REMARK SMILES IDX 53 58 72 59 54 60 57 61 71 62 90 63 55 64 56 65 70 67 91 68
REMARK SMILES IDX 58 69 42 70 43 71 51 72 44 73 45 74 49 75 52 76 46 77 47 78
REMARK SMILES IDX 50 79 48 80 74 81 75 82 83 83 76 84 77 85 81 86 84 87 78 88
REMARK SMILES IDX 79 89 82 90 80 91 59 92 60 93 68 94 61 95 62 96 66 97 69 98
REMARK SMILES IDX 63 99 64 100 67 101 65 102
REMARK H PARENT 23 7 4 20 30 36 89 55 57 66
REMARK Flexibility Score: inf
ROOT
ATOM      1  C   UNL A   1      31.505  25.756  25.726  1.00  0.00     0.002 C 
ENDROOT
BRANCH   1   2
ATOM      2  C   UNL A   1      30.327  25.965  24.760  1.00  0.00     0.021 C 
BRANCH   2   3
ATOM      3  C   UNL A   1      30.411  25.097  23.501  1.00  0.00     0.116 C 
BRANCH   3   4
ATOM      4  N   UNL A   1      31.602  25.435  22.753  1.00  0.00    -0.352 N 
ATOM      5  C   UNL A   1      32.837  24.900  22.578  1.00  0.00     0.251 C 
ATOM      6  O   UNL A   1      33.554  25.578  21.836  1.00  0.00    -0.269 OA
ATOM      7  H   UNL A   1      31.488  26.268  22.239  1.00  0.00     0.163 HD
BRANCH   5   8
ATOM      8  C   UNL A   1      33.312  23.565  23.154  1.00  0.00     0.047 C 
ATOM      9  C   UNL A   1      32.449  22.521  23.176  1.00  0.00     0.022 C 
BRANCH   8  10
ATOM     10  C   UNL A   1      34.653  23.498  23.848  1.00  0.00    -0.013 A 
ATOM     11  C   UNL A   1      36.994  22.987  25.414  1.00  0.00     0.041 A 
ATOM     12  C   UNL A   1      36.954  22.670  24.056  1.00  0.00     0.027 A 
ATOM     13  C   UNL A   1      35.927  23.691  25.944  1.00  0.00     0.027 A 
ATOM     14  C   UNL A   1      35.814  22.953  23.278  1.00  0.00     0.011 A 
ATOM     15  C   UNL A   1      34.770  23.904  25.187  1.00  0.00     0.011 A 
BRANCH  11  16
ATOM     16  N   UNL A   1      38.116  22.579  26.156  1.00  0.00    -0.326 N 
ATOM     17  C   UNL A   1      39.278  24.762  26.570  1.00  0.00     0.114 C 
ATOM     18  C   UNL A   1      39.193  23.261  26.647  1.00  0.00     0.221 C 
ATOM     19  O   UNL A   1      40.092  22.620  27.199  1.00  0.00    -0.275 OA
ATOM     20  H   UNL A   1      38.128  21.615  26.361  1.00  0.00     0.169 HD
ENDBRANCH  11  16
ENDBRANCH   8  10
BRANCH   9  21
ATOM     21  C   UNL A   1      32.685  21.102  23.484  1.00  0.00    -0.025 A 
ATOM     22  C   UNL A   1      32.185  20.145  22.582  1.00  0.00     0.009 A 
ATOM     23  C   UNL A   1      33.410  20.685  24.602  1.00  0.00     0.009 A 
ATOM     24  C   UNL A   1      32.445  18.787  22.771  1.00  0.00     0.021 A 
ATOM     25  C   UNL A   1      33.676  19.324  24.795  1.00  0.00     0.021 A 
ATOM     26  C   UNL A   1      33.194  18.384  23.879  1.00  0.00     0.067 A 
BRANCH  26  27
ATOM     27  S   UNL A   1      33.616  16.665  24.055  1.00  0.00     0.175 S 
ATOM     28  C   UNL A   1      35.042  16.685  25.107  1.00  0.00     0.163 C 
ATOM     29  O   UNL A   1      32.528  16.032  24.774  1.00  0.00    -0.224 OA
ATOM     30  O   UNL A   1      34.028  16.180  22.751  1.00  0.00    -0.224 OA
ENDBRANCH  26  27
ENDBRANCH   9  21
ENDBRANCH   5   8
ENDBRANCH   3   4
ENDBRANCH   2   3
ENDBRANCH   1   2
BRANCH   1  31
ATOM     31  C   UNL A   1      32.257  27.036  26.111  1.00  0.00     0.002 C 
BRANCH  31  32
ATOM     32  C   UNL A   1      32.764  27.859  24.926  1.00  0.00     0.021 C 
BRANCH  32  33
ATOM     33  C   UNL A   1      33.804  28.907  25.302  1.00  0.00     0.116 C 
BRANCH  33  34
ATOM     34  N   UNL A   1      33.180  30.136  25.766  1.00  0.00    -0.352 N 
ATOM     35  C   UNL A   1      33.479  30.898  26.865  1.00  0.00     0.251 C 
ATOM     36  H   UNL A   1      32.435  30.467  25.212  1.00  0.00     0.163 HD
ATOM     37  O   UNL A   1      32.700  31.761  27.255  1.00  0.00    -0.269 OA
BRANCH  35  38
ATOM     38  C   UNL A   1      34.747  30.668  27.589  1.00  0.00     0.039 A 
ATOM     39  C   UNL A   1      35.653  31.721  27.720  1.00  0.00     0.014 A 
ATOM     40  C   UNL A   1      35.042  29.411  28.123  1.00  0.00     0.014 A 
ATOM     41  C   UNL A   1      36.837  31.527  28.434  1.00  0.00     0.010 A 
ATOM     42  C   UNL A   1      36.184  29.240  28.900  1.00  0.00     0.010 A 
ATOM     43  C   UNL A   1      37.096  30.294  29.055  1.00  0.00    -0.014 A 
BRANCH  43  44
ATOM     44  C   UNL A   1      38.323  30.085  29.864  1.00  0.00     0.031 A 
ATOM     45  C   UNL A   1      39.458  29.266  29.318  1.00  0.00     0.074 A 
ATOM     46  C   UNL A   1      38.386  30.585  31.114  1.00  0.00     0.049 A 
ATOM     47  N   UNL A   1      40.582  28.920  29.894  1.00  0.00    -0.248 NA
ATOM     48  C   UNL A   1      39.298  28.742  27.952  1.00  0.00     0.031 C 
ATOM     49  C   UNL A   1      37.330  31.358  31.769  1.00  0.00     0.029 A 
ATOM     50  N   UNL A   1      39.379  30.511  32.058  1.00  0.00    -0.354 N 
ATOM     51  C   UNL A   1      41.254  28.132  28.968  1.00  0.00     0.074 A 
ATOM     52  C   UNL A   1      40.388  28.001  27.816  1.00  0.00     0.031 C 
ATOM     53  C   UNL A   1      37.740  31.708  32.999  1.00  0.00     0.029 A 
ATOM     54  C   UNL A   1      39.068  31.149  33.235  1.00  0.00     0.049 A 
ATOM     55  H   UNL A   1      40.232  30.045  31.908  1.00  0.00     0.167 HD
ATOM     56  C   UNL A   1      42.491  27.590  29.060  1.00  0.00     0.037 A 
ATOM     57  C   UNL A   1      39.771  31.262  34.377  1.00  0.00     0.037 A 
ATOM     58  C   UNL A   1      43.355  27.742  30.202  1.00  0.00     0.049 A 
ATOM     59  C   UNL A   1      41.136  30.633  34.460  1.00  0.00     0.074 A 
ATOM     60  C   UNL A   1      44.648  27.279  30.373  1.00  0.00     0.029 A 
ATOM     61  N   UNL A   1      43.009  28.404  31.372  1.00  0.00    -0.354 N 
ATOM     62  N   UNL A   1      41.791  29.950  33.553  1.00  0.00    -0.248 NA
ATOM     63  C   UNL A   1      41.865  30.800  35.725  1.00  0.00     0.031 C 
ATOM     64  C   UNL A   1      45.064  27.611  31.666  1.00  0.00     0.029 A 
ATOM     65  C   UNL A   1      44.055  28.336  32.279  1.00  0.00     0.049 A 
ATOM     66  H   UNL A   1      42.149  28.854  31.533  1.00  0.00     0.167 HD
ATOM     67  C   UNL A   1      43.017  29.632  34.123  1.00  0.00     0.074 A 
ATOM     68  C   UNL A   1      43.020  30.211  35.450  1.00  0.00     0.031 C 
ATOM     69  C   UNL A   1      44.045  28.924  33.595  1.00  0.00     0.037 A 
BRANCH  56  70
ATOM     70  C   UNL A   1      42.985  26.780  27.895  1.00  0.00     0.064 A 
ATOM     71  C   UNL A   1      42.713  25.408  27.782  1.00  0.00     0.173 A 
ATOM     72  C   UNL A   1      43.709  27.391  26.860  1.00  0.00     0.173 A 
ATOM     73  F   UNL A   1      42.036  24.772  28.750  1.00  0.00    -0.203 F 
ATOM     74  C   UNL A   1      43.175  24.672  26.693  1.00  0.00     0.198 A 
ATOM     75  C   UNL A   1      44.138  26.659  25.755  1.00  0.00     0.198 A 
ATOM     76  F   UNL A   1      43.992  28.701  26.912  1.00  0.00    -0.203 F 
ATOM     77  F   UNL A   1      42.949  23.352  26.636  1.00  0.00    -0.200 F 
ATOM     78  C   UNL A   1      43.879  25.300  25.678  1.00  0.00     0.200 A 
ATOM     79  F   UNL A   1      44.806  27.270  24.766  1.00  0.00    -0.200 F 
ATOM     80  F   UNL A   1      44.315  24.592  24.626  1.00  0.00    -0.200 F 
ENDBRANCH  56  70
BRANCH  57  81
ATOM     81  C   UNL A   1      39.206  32.013  35.528  1.00  0.00     0.064 A 
ATOM     82  C   UNL A   1      39.468  33.380  35.696  1.00  0.00     0.173 A 
ATOM     83  C   UNL A   1      38.400  31.383  36.487  1.00  0.00     0.173 A 
ATOM     84  F   UNL A   1      40.249  34.025  34.816  1.00  0.00    -0.203 F 
ATOM     85  C   UNL A   1      38.968  34.082  36.792  1.00  0.00     0.198 A 
ATOM     86  C   UNL A   1      37.873  32.092  37.564  1.00  0.00     0.198 A 
ATOM     87  F   UNL A   1      38.111  30.078  36.370  1.00  0.00    -0.203 F 
ATOM     88  F   UNL A   1      39.278  35.374  36.954  1.00  0.00    -0.200 F 
ATOM     89  C   UNL A   1      38.166  33.438  37.722  1.00  0.00     0.200 A 
ATOM     90  F   UNL A   1      37.083  31.470  38.451  1.00  0.00    -0.200 F 
ATOM     91  F   UNL A   1      37.682  34.113  38.773  1.00  0.00    -0.200 F 
ENDBRANCH  57  81
BRANCH  69  92
ATOM     92  C   UNL A   1      45.280  28.770  34.438  1.00  0.00     0.064 A 
ATOM     93  C   UNL A   1      45.454  27.677  35.299  1.00  0.00     0.173 A 
ATOM     94  C   UNL A   1      46.319  29.710  34.351  1.00  0.00     0.173 A 
ATOM     95  F   UNL A   1      44.486  26.757  35.429  1.00  0.00    -0.203 F 
ATOM     96  C   UNL A   1      46.611  27.546  36.064  1.00  0.00     0.198 A 
ATOM     97  C   UNL A   1      47.487  29.557  35.091  1.00  0.00     0.198 A 
ATOM     98  F   UNL A   1      46.205  30.770  33.537  1.00  0.00    -0.203 F 
ATOM     99  F   UNL A   1      46.733  26.522  36.920  1.00  0.00    -0.200 F 
ATOM    100  C   UNL A   1      47.629  28.482  35.953  1.00  0.00     0.200 A 
ATOM    101  F   UNL A   1      48.477  30.454  34.969  1.00  0.00    -0.200 F 
ATOM    102  F   UNL A   1      48.745  28.349  36.683  1.00  0.00    -0.200 F 
ENDBRANCH  69  92
ENDBRANCH  43  44
ENDBRANCH  35  38
ENDBRANCH  33  34
ENDBRANCH  32  33
ENDBRANCH  31  32
ENDBRANCH   1  31
TORSDOF 17
ENDMDL
MODEL 2
REMARK VINA RESULT:     -12.5      4.049      7.429
REMARK SMILES CC(=O)Nc1ccc(/C(=C\c2ccc(S(C)(=O)=O)cc2)C(=O)NCCCCCCNC(=O)c2ccc(-c3c4nc(c(-c5c(F)c(F)c(F)c(F)c5F)c5ccc([nH]5)c(-c5c(F)c(F)c(F)c(F)c5F)c5nc(c(-c6c(F)c(F)c(F)c(F)c6F)c6ccc3[nH]6)C=C5)C=C4)cc2)cc1
REMARK SMILES IDX 26 1 25 2 24 3 23 4 21 5 22 6 9 8 10 9 8 10 5 11 6 12 97 13
REMARK SMILES IDX 7 14 96 15 4 16 1 17 2 18 3 19 11 21 12 22 20 23 13 24 19 25
REMARK SMILES IDX 14 26 15 27 16 28 17 29 18 30 27 31 28 32 29 33 30 34 31 35
REMARK SMILES IDX 32 37 33 38 34 39 95 40 35 41 94 42 36 43 37 44 38 45 88 46
REMARK SMILES IDX 39 47 93 48 87 49 89 50 40 51 92 52 86 53 85 54 41 56 73 57
REMARK SMILES IDX 53 58 72 59 54 60 57 61 71 62 90 63 55 64 56 65 70 67 91 68
REMARK SMILES IDX 58 69 42 70 43 71 51 72 44 73 45 74 49 75 52 76 46 77 47 78
REMARK SMILES IDX 50 79 48 80 74 81 75 82 83 83 76 84 77 85 81 86 84 87 78 88
REMARK SMILES IDX 79 89 82 90 80 91 59 92 60 93 68 94 61 95 62 96 66 97 69 98
REMARK SMILES IDX 63 99 64 100 67 101 65 102
REMARK H PARENT 23 7 4 20 30 36 89 55 57 66
REMARK Flexibility Score: inf
ROOT
ATOM      1  C   UNL A   1      33.055  22.413  26.956  1.00  0.00     0.002 C 
ENDROOT
BRANCH   1   2
ATOM      2  C   UNL A   1      31.724  23.128  27.243  1.00  0.00     0.021 C 
BRANCH   2   3
ATOM      3  C   UNL A   1      30.652  22.866  26.180  1.00  0.00     0.116 C 
BRANCH   3   4
ATOM      4  N   UNL A   1      31.251  22.900  24.864  1.00  0.00    -0.352 N 
ATOM      5  C   UNL A   1      31.494  23.844  23.920  1.00  0.00     0.251 C 
ATOM      6  O   UNL A   1      32.027  23.384  22.906  1.00  0.00    -0.269 OA
ATOM      7  H   UNL A   1      31.562  22.010  24.579  1.00  0.00     0.163 HD
BRANCH   5   8
ATOM      8  C   UNL A   1      31.226  25.342  24.077  1.00  0.00     0.047 C 
ATOM      9  C   UNL A   1      30.451  25.965  23.158  1.00  0.00     0.022 C 
BRANCH   8  10
ATOM     10  C   UNL A   1      31.977  26.117  25.136  1.00  0.00    -0.013 A 
ATOM     11  C   UNL A   1      33.377  27.964  26.816  1.00  0.00     0.041 A 
ATOM     12  C   UNL A   1      32.068  27.576  27.107  1.00  0.00     0.027 A 
ATOM     13  C   UNL A   1      34.026  27.316  25.781  1.00  0.00     0.027 A 
ATOM     14  C   UNL A   1      31.392  26.641  26.299  1.00  0.00     0.011 A 
ATOM     15  C   UNL A   1      33.328  26.443  24.939  1.00  0.00     0.011 A 
BRANCH  11  16
ATOM     16  N   UNL A   1      33.954  28.981  27.595  1.00  0.00    -0.326 N 
ATOM     17  C   UNL A   1      32.680  31.000  26.825  1.00  0.00     0.114 C 
ATOM     18  C   UNL A   1      33.766  30.335  27.627  1.00  0.00     0.221 C 
ATOM     19  O   UNL A   1      34.487  31.010  28.368  1.00  0.00    -0.275 OA
ATOM     20  H   UNL A   1      34.622  28.657  28.243  1.00  0.00     0.169 HD
ENDBRANCH  11  16
ENDBRANCH   8  10
BRANCH   9  21
ATOM     21  C   UNL A   1      29.879  27.320  23.162  1.00  0.00    -0.025 A 
ATOM     22  C   UNL A   1      30.724  28.388  22.810  1.00  0.00     0.009 A 
ATOM     23  C   UNL A   1      28.538  27.571  23.461  1.00  0.00     0.009 A 
ATOM     24  C   UNL A   1      30.225  29.688  22.715  1.00  0.00     0.021 A 
ATOM     25  C   UNL A   1      28.031  28.872  23.364  1.00  0.00     0.021 A 
ATOM     26  C   UNL A   1      28.876  29.922  22.990  1.00  0.00     0.067 A 
BRANCH  26  27
ATOM     27  S   UNL A   1      28.220  31.559  22.759  1.00  0.00     0.175 S 
ATOM     28  C   UNL A   1      28.026  31.694  21.003  1.00  0.00     0.163 C 
ATOM     29  O   UNL A   1      26.904  31.578  23.366  1.00  0.00    -0.224 OA
ATOM     30  O   UNL A   1      29.242  32.502  23.171  1.00  0.00    -0.224 OA
ENDBRANCH  26  27
ENDBRANCH   9  21
ENDBRANCH   5   8
ENDBRANCH   3   4
ENDBRANCH   2   3
ENDBRANCH   1   2
BRANCH   1  31
ATOM     31  C   UNL A   1      34.272  23.340  26.839  1.00  0.00     0.002 C 
BRANCH  31  32
ATOM     32  C   UNL A   1      35.107  23.139  25.574  1.00  0.00     0.021 C 
BRANCH  32  33
ATOM     33  C   UNL A   1      36.496  23.761  25.646  1.00  0.00     0.116 C 
BRANCH  33  34
ATOM     34  N   UNL A   1      37.518  22.757  25.898  1.00  0.00    -0.352 N 
ATOM     35  C   UNL A   1      38.804  22.922  26.340  1.00  0.00     0.251 C 
ATOM     36  H   UNL A   1      37.246  21.826  25.725  1.00  0.00     0.163 HD
ATOM     37  O   UNL A   1      39.613  22.004  26.259  1.00  0.00    -0.269 OA
BRANCH  35  38
ATOM     38  C   UNL A   1      39.218  24.222  26.909  1.00  0.00     0.039 A 
ATOM     39  C   UNL A   1      38.916  24.506  28.242  1.00  0.00     0.014 A 
ATOM     40  C   UNL A   1      39.891  25.160  26.122  1.00  0.00     0.014 A 
ATOM     41  C   UNL A   1      39.335  25.714  28.801  1.00  0.00     0.010 A 
ATOM     42  C   UNL A   1      40.375  26.329  26.701  1.00  0.00     0.010 A 
ATOM     43  C   UNL A   1      40.094  26.621  28.044  1.00  0.00    -0.014 A 
BRANCH  43  44
ATOM     44  C   UNL A   1      40.596  27.885  28.637  1.00  0.00     0.031 A 
ATOM     45  C   UNL A   1      42.052  28.037  28.972  1.00  0.00     0.074 A 
ATOM     46  C   UNL A   1      39.726  28.873  28.927  1.00  0.00     0.049 A 
ATOM     47  N   UNL A   1      42.670  29.037  29.551  1.00  0.00    -0.248 NA
ATOM     48  C   UNL A   1      42.929  26.903  28.640  1.00  0.00     0.031 C 
ATOM     49  C   UNL A   1      38.283  28.825  28.689  1.00  0.00     0.029 A 
ATOM     50  N   UNL A   1      39.929  30.107  29.492  1.00  0.00    -0.354 N 
ATOM     51  C   UNL A   1      43.999  28.647  29.659  1.00  0.00     0.074 A 
ATOM     52  C   UNL A   1      44.089  27.299  29.143  1.00  0.00     0.031 C 
ATOM     53  C   UNL A   1      37.734  29.985  29.081  1.00  0.00     0.029 A 
ATOM     54  C   UNL A   1      38.777  30.842  29.638  1.00  0.00     0.049 A 
ATOM     55  H   UNL A   1      40.815  30.434  29.767  1.00  0.00     0.167 HD
ATOM     56  C   UNL A   1      45.052  29.360  30.123  1.00  0.00     0.037 A 
ATOM     57  C   UNL A   1      38.584  32.063  30.168  1.00  0.00     0.037 A 
ATOM     58  C   UNL A   1      44.959  30.709  30.616  1.00  0.00     0.049 A 
ATOM     59  C   UNL A   1      39.770  32.827  30.695  1.00  0.00     0.074 A 
ATOM     60  C   UNL A   1      45.974  31.539  31.057  1.00  0.00     0.029 A 
ATOM     61  N   UNL A   1      43.776  31.425  30.740  1.00  0.00    -0.354 N 
ATOM     62  N   UNL A   1      41.033  32.478  30.728  1.00  0.00    -0.248 NA
ATOM     63  C   UNL A   1      39.503  34.162  31.250  1.00  0.00     0.031 C 
ATOM     64  C   UNL A   1      45.401  32.735  31.501  1.00  0.00     0.029 A 
ATOM     65  C   UNL A   1      44.035  32.676  31.277  1.00  0.00     0.049 A 
ATOM     66  H   UNL A   1      42.885  31.094  30.484  1.00  0.00     0.167 HD
ATOM     67  C   UNL A   1      41.715  33.556  31.277  1.00  0.00     0.074 A 
ATOM     68  C   UNL A   1      40.726  34.579  31.547  1.00  0.00     0.031 C 
ATOM     69  C   UNL A   1      43.039  33.687  31.533  1.00  0.00     0.037 A 
BRANCH  56  70
ATOM     70  C   UNL A   1      46.400  28.695  30.120  1.00  0.00     0.064 A 
ATOM     71  C   UNL A   1      47.276  28.807  29.030  1.00  0.00     0.173 A 
ATOM     72  C   UNL A   1      46.835  27.966  31.237  1.00  0.00     0.173 A 
ATOM     73  F   UNL A   1      46.906  29.483  27.932  1.00  0.00    -0.203 F 
ATOM     74  C   UNL A   1      48.524  28.188  29.046  1.00  0.00     0.198 A 
ATOM     75  C   UNL A   1      48.098  27.378  31.263  1.00  0.00     0.198 A 
ATOM     76  F   UNL A   1      46.041  27.830  32.309  1.00  0.00    -0.203 F 
ATOM     77  F   UNL A   1      49.321  28.265  27.970  1.00  0.00    -0.200 F 
ATOM     78  C   UNL A   1      48.936  27.482  30.164  1.00  0.00     0.200 A 
ATOM     79  F   UNL A   1      48.501  26.707  32.352  1.00  0.00    -0.200 F 
ATOM     80  F   UNL A   1      50.141  26.894  30.181  1.00  0.00    -0.200 F 
ENDBRANCH  56  70
BRANCH  57  81
ATOM     81  C   UNL A   1      37.219  32.649  30.213  1.00  0.00     0.064 A 
ATOM     82  C   UNL A   1      36.774  33.519  29.209  1.00  0.00     0.173 A 
ATOM     83  C   UNL A   1      36.334  32.358  31.262  1.00  0.00     0.173 A 
ATOM     84  F   UNL A   1      37.589  33.844  28.195  1.00  0.00    -0.203 F 
ATOM     85  C   UNL A   1      35.506  34.097  29.264  1.00  0.00     0.198 A 
ATOM     86  C   UNL A   1      35.054  32.909  31.299  1.00  0.00     0.198 A 
ATOM     87  F   UNL A   1      36.706  31.524  32.244  1.00  0.00    -0.203 F 
ATOM     88  F   UNL A   1      35.127  34.966  28.318  1.00  0.00    -0.200 F 
ATOM     89  C   UNL A   1      34.646  33.787  30.306  1.00  0.00     0.200 A 
ATOM     90  F   UNL A   1      34.220  32.592  32.299  1.00  0.00    -0.200 F 
ATOM     91  F   UNL A   1      33.426  34.339  30.357  1.00  0.00    -0.200 F 
ENDBRANCH  57  81
BRANCH  69  92
ATOM     92  C   UNL A   1      43.505  34.998  32.101  1.00  0.00     0.064 A 
ATOM     93  C   UNL A   1      43.665  35.191  33.481  1.00  0.00     0.173 A 
ATOM     94  C   UNL A   1      43.834  36.062  31.246  1.00  0.00     0.173 A 
ATOM     95  F   UNL A   1      43.351  34.211  34.341  1.00  0.00    -0.203 F 
ATOM     96  C   UNL A   1      44.108  36.411  33.986  1.00  0.00     0.198 A 
ATOM     97  C   UNL A   1      44.310  37.267  31.753  1.00  0.00     0.198 A 
ATOM     98  F   UNL A   1      43.706  35.927  29.918  1.00  0.00    -0.203 F 
ATOM     99  F   UNL A   1      44.202  36.590  35.310  1.00  0.00    -0.200 F 
ATOM    100  C   UNL A   1      44.438  37.444  33.121  1.00  0.00     0.200 A 
ATOM    101  F   UNL A   1      44.644  38.259  30.915  1.00  0.00    -0.200 F 
ATOM    102  F   UNL A   1      44.873  38.614  33.609  1.00  0.00    -0.200 F 
ENDBRANCH  69  92
ENDBRANCH  43  44
ENDBRANCH  35  38
ENDBRANCH  33  34
ENDBRANCH  32  33
ENDBRANCH  31  32
ENDBRANCH   1  31
TORSDOF 17
ENDMDL
MODEL 3
REMARK VINA RESULT:     -12.4      4.353      7.510
REMARK SMILES CC(=O)Nc1ccc(/C(=C\c2ccc(S(C)(=O)=O)cc2)C(=O)NCCCCCCNC(=O)c2ccc(-c3c4nc(c(-c5c(F)c(F)c(F)c(F)c5F)c5ccc([nH]5)c(-c5c(F)c(F)c(F)c(F)c5F)c5nc(c(-c6c(F)c(F)c(F)c(F)c6F)c6ccc3[nH]6)C=C5)C=C4)cc2)cc1
REMARK SMILES IDX 26 1 25 2 24 3 23 4 21 5 22 6 9 8 10 9 8 10 5 11 6 12 97 13
REMARK SMILES IDX 7 14 96 15 4 16 1 17 2 18 3 19 11 21 12 22 20 23 13 24 19 25
REMARK SMILES IDX 14 26 15 27 16 28 17 29 18 30 27 31 28 32 29 33 30 34 31 35
REMARK SMILES IDX 32 37 33 38 34 39 95 40 35 41 94 42 36 43 37 44 38 45 88 46
REMARK SMILES IDX 39 47 93 48 87 49 89 50 40 51 92 52 86 53 85 54 41 56 73 57
REMARK SMILES IDX 53 58 72 59 54 60 57 61 71 62 90 63 55 64 56 65 70 67 91 68
REMARK SMILES IDX 58 69 42 70 43 71 51 72 44 73 45 74 49 75 52 76 46 77 47 78
REMARK SMILES IDX 50 79 48 80 74 81 75 82 83 83 76 84 77 85 81 86 84 87 78 88
REMARK SMILES IDX 79 89 82 90 80 91 59 92 60 93 68 94 61 95 62 96 66 97 69 98
REMARK SMILES IDX 63 99 64 100 67 101 65 102
REMARK H PARENT 23 7 4 20 30 36 89 55 57 66
REMARK Flexibility Score: inf
ROOT
ATOM      1  C   UNL A   1      33.043  22.590  26.913  1.00  0.00     0.002 C 
ENDROOT
BRANCH   1   2
ATOM      2  C   UNL A   1      31.619  23.118  27.159  1.00  0.00     0.021 C 
BRANCH   2   3
ATOM      3  C   UNL A   1      30.668  22.866  25.985  1.00  0.00     0.116 C 
BRANCH   3   4
ATOM      4  N   UNL A   1      31.397  22.945  24.738  1.00  0.00    -0.352 N 
ATOM      5  C   UNL A   1      31.684  23.910  23.828  1.00  0.00     0.251 C 
ATOM      6  O   UNL A   1      32.345  23.491  22.875  1.00  0.00    -0.269 OA
ATOM      7  H   UNL A   1      31.785  22.077  24.484  1.00  0.00     0.163 HD
BRANCH   5   8
ATOM      8  C   UNL A   1      31.317  25.390  23.963  1.00  0.00     0.047 C 
ATOM      9  C   UNL A   1      30.534  25.955  23.014  1.00  0.00     0.022 C 
BRANCH   8  10
ATOM     10  C   UNL A   1      31.985  26.219  25.037  1.00  0.00    -0.013 A 
ATOM     11  C   UNL A   1      33.184  28.171  26.753  1.00  0.00     0.041 A 
ATOM     12  C   UNL A   1      31.926  27.638  27.038  1.00  0.00     0.027 A 
ATOM     13  C   UNL A   1      33.895  27.619  25.703  1.00  0.00     0.027 A 
ATOM     14  C   UNL A   1      31.351  26.652  26.212  1.00  0.00     0.011 A 
ATOM     15  C   UNL A   1      33.292  26.694  24.843  1.00  0.00     0.011 A 
BRANCH  11  16
ATOM     16  N   UNL A   1      33.650  29.228  27.552  1.00  0.00    -0.326 N 
ATOM     17  C   UNL A   1      32.259  31.146  26.729  1.00  0.00     0.114 C 
ATOM     18  C   UNL A   1      33.359  30.564  27.574  1.00  0.00     0.221 C 
ATOM     19  O   UNL A   1      33.997  31.290  28.342  1.00  0.00    -0.275 OA
ATOM     20  H   UNL A   1      34.315  28.955  28.226  1.00  0.00     0.169 HD
ENDBRANCH  11  16
ENDBRANCH   8  10
BRANCH   9  21
ATOM     21  C   UNL A   1      29.878  27.272  22.987  1.00  0.00    -0.025 A 
ATOM     22  C   UNL A   1      30.632  28.370  22.536  1.00  0.00     0.009 A 
ATOM     23  C   UNL A   1      28.542  27.455  23.352  1.00  0.00     0.009 A 
ATOM     24  C   UNL A   1      30.047  29.630  22.408  1.00  0.00     0.021 A 
ATOM     25  C   UNL A   1      27.948  28.716  23.223  1.00  0.00     0.021 A 
ATOM     26  C   UNL A   1      28.703  29.795  22.751  1.00  0.00     0.067 A 
BRANCH  26  27
ATOM     27  S   UNL A   1      27.932  31.375  22.481  1.00  0.00     0.175 S 
ATOM     28  C   UNL A   1      29.255  32.534  22.693  1.00  0.00     0.163 C 
ATOM     29  O   UNL A   1      27.511  31.412  21.095  1.00  0.00    -0.224 OA
ATOM     30  O   UNL A   1      26.978  31.585  23.554  1.00  0.00    -0.224 OA
ENDBRANCH  26  27
ENDBRANCH   9  21
ENDBRANCH   5   8
ENDBRANCH   3   4
ENDBRANCH   2   3
ENDBRANCH   1   2
BRANCH   1  31
ATOM     31  C   UNL A   1      34.119  23.677  26.790  1.00  0.00     0.002 C 
BRANCH  31  32
ATOM     32  C   UNL A   1      35.026  23.540  25.566  1.00  0.00     0.021 C 
BRANCH  32  33
ATOM     33  C   UNL A   1      36.464  23.980  25.810  1.00  0.00     0.116 C 
BRANCH  33  34
ATOM     34  N   UNL A   1      37.342  22.840  26.022  1.00  0.00    -0.352 N 
ATOM     35  C   UNL A   1      38.672  22.822  26.353  1.00  0.00     0.251 C 
ATOM     36  H   UNL A   1      36.921  21.957  25.909  1.00  0.00     0.163 HD
ATOM     37  O   UNL A   1      39.324  21.789  26.247  1.00  0.00    -0.269 OA
BRANCH  35  38
ATOM     38  C   UNL A   1      39.321  24.059  26.833  1.00  0.00     0.039 A 
ATOM     39  C   UNL A   1      39.931  24.907  25.907  1.00  0.00     0.014 A 
ATOM     40  C   UNL A   1      39.337  24.372  28.195  1.00  0.00     0.014 A 
ATOM     41  C   UNL A   1      40.514  26.098  26.342  1.00  0.00     0.010 A 
ATOM     42  C   UNL A   1      39.849  25.595  28.618  1.00  0.00     0.010 A 
ATOM     43  C   UNL A   1      40.451  26.465  27.697  1.00  0.00    -0.014 A 
BRANCH  43  44
ATOM     44  C   UNL A   1      41.017  27.753  28.171  1.00  0.00     0.031 A 
ATOM     45  C   UNL A   1      42.504  27.965  28.185  1.00  0.00     0.074 A 
ATOM     46  C   UNL A   1      40.190  28.707  28.642  1.00  0.00     0.049 A 
ATOM     47  N   UNL A   1      43.190  28.992  28.619  1.00  0.00    -0.248 NA
ATOM     48  C   UNL A   1      43.334  26.864  27.669  1.00  0.00     0.031 C 
ATOM     49  C   UNL A   1      38.733  28.599  28.721  1.00  0.00     0.029 A 
ATOM     50  N   UNL A   1      40.460  29.952  29.153  1.00  0.00    -0.354 N 
ATOM     51  C   UNL A   1      44.526  28.657  28.438  1.00  0.00     0.074 A 
ATOM     52  C   UNL A   1      44.558  27.310  27.912  1.00  0.00     0.031 C 
ATOM     53  C   UNL A   1      38.234  29.739  29.224  1.00  0.00     0.029 A 
ATOM     54  C   UNL A   1      39.337  30.641  29.544  1.00  0.00     0.049 A 
ATOM     55  H   UNL A   1      41.370  30.316  29.232  1.00  0.00     0.167 HD
ATOM     56  C   UNL A   1      45.625  29.415  28.665  1.00  0.00     0.037 A 
ATOM     57  C   UNL A   1      39.214  31.857  30.106  1.00  0.00     0.037 A 
ATOM     58  C   UNL A   1      45.585  30.763  29.170  1.00  0.00     0.049 A 
ATOM     59  C   UNL A   1      40.453  32.672  30.367  1.00  0.00     0.074 A 
ATOM     60  C   UNL A   1      46.637  31.636  29.384  1.00  0.00     0.029 A 
ATOM     61  N   UNL A   1      44.428  31.432  29.546  1.00  0.00    -0.354 N 
ATOM     62  N   UNL A   1      41.706  32.373  30.127  1.00  0.00    -0.248 NA
ATOM     63  C   UNL A   1      40.258  33.998  30.968  1.00  0.00     0.031 C 
ATOM     64  C   UNL A   1      46.124  32.811  29.942  1.00  0.00     0.029 A 
ATOM     65  C   UNL A   1      44.746  32.696  30.017  1.00  0.00     0.049 A 
ATOM     66  H   UNL A   1      43.517  31.063  29.487  1.00  0.00     0.167 HD
ATOM     67  C   UNL A   1      42.446  33.482  30.518  1.00  0.00     0.074 A 
ATOM     68  C   UNL A   1      41.498  34.466  30.996  1.00  0.00     0.031 C 
ATOM     69  C   UNL A   1      43.788  33.667  30.484  1.00  0.00     0.037 A 
BRANCH  56  70
ATOM     70  C   UNL A   1      46.966  28.804  28.372  1.00  0.00     0.064 A 
ATOM     71  C   UNL A   1      47.539  28.863  27.092  1.00  0.00     0.173 A 
ATOM     72  C   UNL A   1      47.704  28.185  29.392  1.00  0.00     0.173 A 
ATOM     73  F   UNL A   1      46.872  29.433  26.078  1.00  0.00    -0.203 F 
ATOM     74  C   UNL A   1      48.786  28.295  26.838  1.00  0.00     0.198 A 
ATOM     75  C   UNL A   1      48.966  27.650  29.142  1.00  0.00     0.198 A 
ATOM     76  F   UNL A   1      47.207  28.105  30.635  1.00  0.00    -0.203 F 
ATOM     77  F   UNL A   1      49.288  28.316  25.595  1.00  0.00    -0.200 F 
ATOM     78  C   UNL A   1      49.501  27.697  27.864  1.00  0.00     0.200 A 
ATOM     79  F   UNL A   1      49.662  27.085  30.138  1.00  0.00    -0.200 F 
ATOM     80  F   UNL A   1      50.704  27.160  27.619  1.00  0.00    -0.200 F 
ENDBRANCH  56  70
BRANCH  57  81
ATOM     81  C   UNL A   1      37.867  32.388  30.445  1.00  0.00     0.064 A 
ATOM     82  C   UNL A   1      37.268  32.102  31.679  1.00  0.00     0.173 A 
ATOM     83  C   UNL A   1      37.149  33.186  29.542  1.00  0.00     0.173 A 
ATOM     84  F   UNL A   1      37.906  31.328  32.570  1.00  0.00    -0.203 F 
ATOM     85  C   UNL A   1      35.992  32.570  31.988  1.00  0.00     0.198 A 
ATOM     86  C   UNL A   1      35.887  33.681  29.864  1.00  0.00     0.198 A 
ATOM     87  F   UNL A   1      37.679  33.497  28.350  1.00  0.00    -0.203 F 
ATOM     88  F   UNL A   1      35.423  32.237  33.154  1.00  0.00    -0.200 F 
ATOM     89  C   UNL A   1      35.305  33.364  31.083  1.00  0.00     0.200 A 
ATOM     90  F   UNL A   1      35.234  34.463  28.993  1.00  0.00    -0.200 F 
ATOM     91  F   UNL A   1      34.080  33.817  31.381  1.00  0.00    -0.200 F 
ENDBRANCH  57  81
BRANCH  69  92
ATOM     92  C   UNL A   1      44.312  35.000  30.939  1.00  0.00     0.064 A 
ATOM     93  C   UNL A   1      44.422  36.090  30.063  1.00  0.00     0.173 A 
ATOM     94  C   UNL A   1      44.671  35.199  32.282  1.00  0.00     0.173 A 
ATOM     95  F   UNL A   1      44.104  35.949  28.766  1.00  0.00    -0.203 F 
ATOM     96  C   UNL A   1      44.899  37.320  30.507  1.00  0.00     0.198 A 
ATOM     97  C   UNL A   1      45.115  36.439  32.729  1.00  0.00     0.198 A 
ATOM     98  F   UNL A   1      44.578  34.191  33.162  1.00  0.00    -0.203 F 
ATOM     99  F   UNL A   1      45.046  38.331  29.640  1.00  0.00    -0.200 F 
ATOM    100  C   UNL A   1      45.237  37.496  31.841  1.00  0.00     0.200 A 
ATOM    101  F   UNL A   1      45.425  36.611  34.022  1.00  0.00    -0.200 F 
ATOM    102  F   UNL A   1      45.688  38.683  32.268  1.00  0.00    -0.200 F 
ENDBRANCH  69  92
ENDBRANCH  43  44
ENDBRANCH  35  38
ENDBRANCH  33  34
ENDBRANCH  32  33
ENDBRANCH  31  32
ENDBRANCH   1  31
TORSDOF 17
ENDMDL
