MODEL 1
REMARK VINA RESULT:     -12.3      0.000      0.000
REMARK SMILES COc1ccc(-n2c(=S)[nH]cc(CC(=O)NCCCCCCNC(=O)c3ccc(-c4c5nc(c(-c6c(F)c(F)c(F)c(F)c6F)c6ccc([nH]6)c(-c6c(F)c(F)c(F)c(F)c6F)c6nc(c(-c7c(F)c(F)c(F)c(F)c7F)c7ccc4[nH]7)C=C6)C=C5)cc3)c2=O)cc1Cl
REMARK SMILES IDX 19 1 18 2 17 3 16 4 14 5 15 6 13 8 12 9 7 10 8 11 89 12 9 13
REMARK SMILES IDX 10 14 90 15 11 16 6 18 3 19 4 20 92 21 5 22 91 23 93 24 2 25
REMARK SMILES IDX 1 26 20 27 21 28 22 29 23 30 24 31 25 33 26 34 27 35 88 36
REMARK SMILES IDX 28 37 87 38 29 39 30 40 31 41 81 42 32 43 86 44 80 45 82 46
REMARK SMILES IDX 33 47 85 48 79 49 78 50 34 52 66 53 46 54 65 55 47 56 50 57
REMARK SMILES IDX 64 58 83 59 48 60 49 61 63 63 84 64 51 65 35 66 36 67 44 68
REMARK SMILES IDX 37 69 38 70 42 71 45 72 39 73 40 74 43 75 41 76 67 77 68 78
REMARK SMILES IDX 76 79 69 80 70 81 74 82 77 83 71 84 72 85 75 86 73 87 52 88
REMARK SMILES IDX 53 89 61 90 54 91 55 92 59 93 62 94 56 95 57 96 60 97 58 98
REMARK H PARENT 16 7 10 17 23 32 82 51 50 62
REMARK Flexibility Score: inf
ROOT
ATOM      1  C   UNL A   1      36.872  21.741  25.757  1.00  0.00     0.002 C 
ENDROOT
BRANCH   1   2
ATOM      2  C   UNL A   1      35.430  22.270  25.769  1.00  0.00     0.021 C 
BRANCH   2   3
ATOM      3  C   UNL A   1      34.454  21.420  26.587  1.00  0.00     0.116 C 
BRANCH   3   4
ATOM      4  N   UNL A   1      33.861  20.376  25.772  1.00  0.00    -0.356 N 
ATOM      5  C   UNL A   1      32.591  20.286  25.281  1.00  0.00     0.224 C 
ATOM      6  O   UNL A   1      32.235  19.235  24.747  1.00  0.00    -0.275 OA
ATOM      7  H   UNL A   1      34.458  19.627  25.541  1.00  0.00     0.163 HD
BRANCH   5   8
ATOM      8  C   UNL A   1      31.644  21.472  25.404  1.00  0.00     0.142 C 
BRANCH   8   9
ATOM      9  C   UNL A   1      31.967  22.563  24.422  1.00  0.00     0.043 A 
ATOM     10  N   UNL A   1      32.335  24.977  24.025  1.00  0.00    -0.253 N 
ATOM     11  C   UNL A   1      32.426  24.730  22.643  1.00  0.00     0.184 A 
ATOM     12  C   UNL A   1      32.131  23.947  24.957  1.00  0.00     0.262 A 
ATOM     13  S   UNL A   1      32.765  25.801  21.392  1.00  0.00    -0.040 S 
ATOM     14  N   UNL A   1      32.279  23.418  22.259  1.00  0.00    -0.338 N 
ATOM     15  O   UNL A   1      32.021  24.114  26.173  1.00  0.00    -0.269 OA
ATOM     16  C   UNL A   1      32.066  22.379  23.105  1.00  0.00     0.095 A 
ATOM     17  H   UNL A   1      32.333  23.219  21.297  1.00  0.00     0.168 HD
BRANCH  10  18
ATOM     18  C   UNL A   1      32.492  26.308  24.558  1.00  0.00     0.053 A 
ATOM     19  C   UNL A   1      32.907  28.945  25.478  1.00  0.00     0.137 A 
ATOM     20  C   UNL A   1      33.859  27.953  25.720  1.00  0.00     0.050 A 
ATOM     21  C   UNL A   1      31.732  28.615  24.795  1.00  0.00     0.085 A 
ATOM     22  C   UNL A   1      33.647  26.643  25.280  1.00  0.00     0.031 A 
ATOM     23  C   UNL A   1      31.522  27.300  24.353  1.00  0.00     0.051 A 
ATOM     24  Cl  UNL A   1      30.523  29.781  24.394  1.00  0.00    -0.080 Cl
BRANCH  19  25
ATOM     25  O   UNL A   1      33.279  30.212  25.839  1.00  0.00    -0.495 OA
ATOM     26  C   UNL A   1      33.129  30.488  27.229  1.00  0.00     0.278 C 
ENDBRANCH  19  25
ENDBRANCH  10  18
ENDBRANCH   8   9
ENDBRANCH   5   8
ENDBRANCH   3   4
ENDBRANCH   2   3
ENDBRANCH   1   2
BRANCH   1  27
ATOM     27  C   UNL A   1      37.206  20.771  24.618  1.00  0.00     0.002 C 
BRANCH  27  28
ATOM     28  C   UNL A   1      38.158  19.634  24.991  1.00  0.00     0.021 C 
BRANCH  28  29
ATOM     29  C   UNL A   1      39.389  20.065  25.779  1.00  0.00     0.116 C 
BRANCH  29  30
ATOM     30  N   UNL A   1      40.392  19.014  25.868  1.00  0.00    -0.352 N 
ATOM     31  C   UNL A   1      41.747  19.129  26.072  1.00  0.00     0.251 C 
ATOM     32  H   UNL A   1      40.054  18.095  25.767  1.00  0.00     0.163 HD
ATOM     33  O   UNL A   1      42.479  18.151  25.968  1.00  0.00    -0.269 OA
BRANCH  31  34
ATOM     34  C   UNL A   1      42.322  20.454  26.384  1.00  0.00     0.039 A 
ATOM     35  C   UNL A   1      42.347  20.925  27.699  1.00  0.00     0.014 A 
ATOM     36  C   UNL A   1      42.809  21.247  25.341  1.00  0.00     0.014 A 
ATOM     37  C   UNL A   1      42.717  22.241  27.952  1.00  0.00     0.010 A 
ATOM     38  C   UNL A   1      43.247  22.546  25.608  1.00  0.00     0.010 A 
ATOM     39  C   UNL A   1      43.165  23.067  26.908  1.00  0.00    -0.014 A 
BRANCH  39  40
ATOM     40  C   UNL A   1      43.540  24.476  27.192  1.00  0.00     0.031 A 
ATOM     41  C   UNL A   1      44.926  24.976  26.890  1.00  0.00     0.074 A 
ATOM     42  C   UNL A   1      42.611  25.317  27.683  1.00  0.00     0.049 A 
ATOM     43  N   UNL A   1      45.442  26.161  27.105  1.00  0.00    -0.248 NA
ATOM     44  C   UNL A   1      45.857  24.023  26.266  1.00  0.00     0.031 C 
ATOM     45  C   UNL A   1      41.227  24.956  27.987  1.00  0.00     0.029 A 
ATOM     46  N   UNL A   1      42.685  26.650  27.995  1.00  0.00    -0.354 N 
ATOM     47  C   UNL A   1      46.755  26.090  26.661  1.00  0.00     0.074 A 
ATOM     48  C   UNL A   1      46.968  24.741  26.183  1.00  0.00     0.031 C 
ATOM     49  C   UNL A   1      40.569  26.049  28.401  1.00  0.00     0.029 A 
ATOM     50  C   UNL A   1      41.500  27.171  28.451  1.00  0.00     0.049 A 
ATOM     51  H   UNL A   1      43.508  27.182  27.901  1.00  0.00     0.167 HD
ATOM     52  C   UNL A   1      47.694  27.067  26.646  1.00  0.00     0.037 A 
ATOM     53  C   UNL A   1      41.199  28.411  28.880  1.00  0.00     0.037 A 
ATOM     54  C   UNL A   1      47.473  28.414  27.107  1.00  0.00     0.049 A 
ATOM     55  C   UNL A   1      42.273  29.461  28.899  1.00  0.00     0.074 A 
ATOM     56  C   UNL A   1      48.365  29.473  27.138  1.00  0.00     0.029 A 
ATOM     57  N   UNL A   1      46.273  28.890  27.612  1.00  0.00    -0.354 N 
ATOM     58  N   UNL A   1      43.519  29.374  28.505  1.00  0.00    -0.248 NA
ATOM     59  C   UNL A   1      41.900  30.778  29.431  1.00  0.00     0.031 C 
ATOM     60  C   UNL A   1      47.714  30.580  27.692  1.00  0.00     0.029 A 
ATOM     61  C   UNL A   1      46.404  30.224  27.966  1.00  0.00     0.049 A 
ATOM     62  H   UNL A   1      45.449  28.359  27.705  1.00  0.00     0.167 HD
ATOM     63  C   UNL A   1      44.078  30.623  28.733  1.00  0.00     0.074 A 
ATOM     64  C   UNL A   1      43.028  31.458  29.279  1.00  0.00     0.031 C 
ATOM     65  C   UNL A   1      45.349  31.039  28.512  1.00  0.00     0.037 A 
BRANCH  52  66
ATOM     66  C   UNL A   1      49.057  26.720  26.124  1.00  0.00     0.064 A 
ATOM     67  C   UNL A   1      49.422  26.984  24.795  1.00  0.00     0.173 A 
ATOM     68  C   UNL A   1      50.031  26.181  26.978  1.00  0.00     0.173 A 
ATOM     69  F   UNL A   1      48.523  27.486  23.936  1.00  0.00    -0.203 F 
ATOM     70  C   UNL A   1      50.709  26.709  24.339  1.00  0.00     0.198 A 
ATOM     71  C   UNL A   1      51.323  25.931  26.525  1.00  0.00     0.198 A 
ATOM     72  F   UNL A   1      49.734  25.916  28.259  1.00  0.00    -0.203 F 
ATOM     73  F   UNL A   1      51.027  26.941  23.058  1.00  0.00    -0.200 F 
ATOM     74  C   UNL A   1      51.661  26.192  25.205  1.00  0.00     0.200 A 
ATOM     75  F   UNL A   1      52.245  25.441  27.366  1.00  0.00    -0.200 F 
ATOM     76  F   UNL A   1      52.903  25.943  24.767  1.00  0.00    -0.200 F 
ENDBRANCH  52  66
BRANCH  53  77
ATOM     77  C   UNL A   1      39.817  28.716  29.327  1.00  0.00     0.064 A 
ATOM     78  C   UNL A   1      38.872  29.236  28.432  1.00  0.00     0.173 A 
ATOM     79  C   UNL A   1      39.403  28.462  30.642  1.00  0.00     0.173 A 
ATOM     80  F   UNL A   1      39.228  29.516  27.170  1.00  0.00    -0.203 F 
ATOM     81  C   UNL A   1      37.564  29.492  28.839  1.00  0.00     0.198 A 
ATOM     82  C   UNL A   1      38.089  28.693  31.040  1.00  0.00     0.198 A 
ATOM     83  F   UNL A   1      40.271  27.962  31.534  1.00  0.00    -0.203 F 
ATOM     84  F   UNL A   1      36.687  30.017  27.973  1.00  0.00    -0.200 F 
ATOM     85  C   UNL A   1      37.172  29.212  30.139  1.00  0.00     0.200 A 
ATOM     86  F   UNL A   1      37.711  28.406  32.293  1.00  0.00    -0.200 F 
ATOM     87  F   UNL A   1      35.910  29.444  30.525  1.00  0.00    -0.200 F 
ENDBRANCH  53  77
BRANCH  65  88
ATOM     88  C   UNL A   1      45.670  32.465  28.847  1.00  0.00     0.064 A 
ATOM     89  C   UNL A   1      46.179  32.824  30.104  1.00  0.00     0.173 A 
ATOM     90  C   UNL A   1      45.505  33.475  27.888  1.00  0.00     0.173 A 
ATOM     91  F   UNL A   1      46.340  31.896  31.057  1.00  0.00    -0.203 F 
ATOM     92  C   UNL A   1      46.489  34.150  30.395  1.00  0.00     0.198 A 
ATOM     93  C   UNL A   1      45.841  34.795  28.175  1.00  0.00     0.198 A 
ATOM     94  F   UNL A   1      45.027  33.180  26.670  1.00  0.00    -0.203 F 
ATOM     95  F   UNL A   1      46.935  34.478  31.615  1.00  0.00    -0.200 F 
ATOM     96  C   UNL A   1      46.326  35.132  29.430  1.00  0.00     0.200 A 
ATOM     97  F   UNL A   1      45.692  35.741  27.238  1.00  0.00    -0.200 F 
ATOM     98  F   UNL A   1      46.632  36.406  29.711  1.00  0.00    -0.200 F 
ENDBRANCH  65  88
ENDBRANCH  39  40
ENDBRANCH  31  34
ENDBRANCH  29  30
ENDBRANCH  28  29
ENDBRANCH  27  28
ENDBRANCH   1  27
TORSDOF 16
ENDMDL
MODEL 2
REMARK VINA RESULT:     -12.3      5.269     11.008
REMARK SMILES COc1ccc(-n2c(=S)[nH]cc(CC(=O)NCCCCCCNC(=O)c3ccc(-c4c5nc(c(-c6c(F)c(F)c(F)c(F)c6F)c6ccc([nH]6)c(-c6c(F)c(F)c(F)c(F)c6F)c6nc(c(-c7c(F)c(F)c(F)c(F)c7F)c7ccc4[nH]7)C=C6)C=C5)cc3)c2=O)cc1Cl
REMARK SMILES IDX 19 1 18 2 17 3 16 4 14 5 15 6 13 8 12 9 7 10 8 11 89 12 9 13
REMARK SMILES IDX 10 14 90 15 11 16 6 18 3 19 4 20 92 21 5 22 91 23 93 24 2 25
REMARK SMILES IDX 1 26 20 27 21 28 22 29 23 30 24 31 25 33 26 34 27 35 88 36
REMARK SMILES IDX 28 37 87 38 29 39 30 40 31 41 81 42 32 43 86 44 80 45 82 46
REMARK SMILES IDX 33 47 85 48 79 49 78 50 34 52 66 53 46 54 65 55 47 56 50 57
REMARK SMILES IDX 64 58 83 59 48 60 49 61 63 63 84 64 51 65 35 66 36 67 44 68
REMARK SMILES IDX 37 69 38 70 42 71 45 72 39 73 40 74 43 75 41 76 67 77 68 78
REMARK SMILES IDX 76 79 69 80 70 81 74 82 77 83 71 84 72 85 75 86 73 87 52 88
REMARK SMILES IDX 53 89 61 90 54 91 55 92 59 93 62 94 56 95 57 96 60 97 58 98
REMARK H PARENT 16 7 10 17 23 32 82 51 50 62
REMARK Flexibility Score: inf
ROOT
ATOM      1  C   UNL A   1      30.982  30.273  24.885  1.00  0.00     0.002 C 
ENDROOT
BRANCH   1   2
ATOM      2  C   UNL A   1      31.055  28.774  24.560  1.00  0.00     0.021 C 
BRANCH   2   3
ATOM      3  C   UNL A   1      30.884  28.442  23.075  1.00  0.00     0.116 C 
BRANCH   3   4
ATOM      4  N   UNL A   1      32.171  28.306  22.419  1.00  0.00    -0.356 N 
ATOM      5  C   UNL A   1      32.840  27.170  22.067  1.00  0.00     0.224 C 
ATOM      6  O   UNL A   1      34.001  27.267  21.666  1.00  0.00    -0.275 OA
ATOM      7  H   UNL A   1      32.626  29.151  22.198  1.00  0.00     0.163 HD
BRANCH   5   8
ATOM      8  C   UNL A   1      32.151  25.818  22.178  1.00  0.00     0.142 C 
BRANCH   8   9
ATOM      9  C   UNL A   1      32.433  25.139  23.488  1.00  0.00     0.043 A 
ATOM     10  N   UNL A   1      33.916  23.653  24.797  1.00  0.00    -0.253 N 
ATOM     11  C   UNL A   1      33.001  23.689  25.864  1.00  0.00     0.184 A 
ATOM     12  C   UNL A   1      33.704  24.365  23.606  1.00  0.00     0.262 A 
ATOM     13  S   UNL A   1      33.121  22.996  27.391  1.00  0.00    -0.040 S 
ATOM     14  N   UNL A   1      31.872  24.446  25.660  1.00  0.00    -0.338 N 
ATOM     15  O   UNL A   1      34.463  24.348  22.635  1.00  0.00    -0.269 OA
ATOM     16  C   UNL A   1      31.599  25.146  24.529  1.00  0.00     0.095 A 
ATOM     17  H   UNL A   1      31.212  24.483  26.388  1.00  0.00     0.168 HD
BRANCH  10  18
ATOM     18  C   UNL A   1      35.149  22.911  24.895  1.00  0.00     0.053 A 
ATOM     19  C   UNL A   1      37.551  21.469  25.252  1.00  0.00     0.137 A 
ATOM     20  C   UNL A   1      37.529  22.857  25.405  1.00  0.00     0.050 A 
ATOM     21  C   UNL A   1      36.375  20.800  24.894  1.00  0.00     0.085 A 
ATOM     22  C   UNL A   1      36.344  23.574  25.212  1.00  0.00     0.031 A 
ATOM     23  C   UNL A   1      35.188  21.522  24.703  1.00  0.00     0.051 A 
ATOM     24  Cl  UNL A   1      36.286  19.083  24.739  1.00  0.00    -0.080 Cl
BRANCH  19  25
ATOM     25  O   UNL A   1      38.731  20.863  25.591  1.00  0.00    -0.495 OA
ATOM     26  C   UNL A   1      39.648  21.716  26.270  1.00  0.00     0.278 C 
ENDBRANCH  19  25
ENDBRANCH  10  18
ENDBRANCH   8   9
ENDBRANCH   5   8
ENDBRANCH   3   4
ENDBRANCH   2   3
ENDBRANCH   1   2
BRANCH   1  27
ATOM     27  C   UNL A   1      31.736  30.709  26.147  1.00  0.00     0.002 C 
BRANCH  27  28
ATOM     28  C   UNL A   1      31.468  32.144  26.601  1.00  0.00     0.021 C 
BRANCH  28  29
ATOM     29  C   UNL A   1      32.661  32.843  27.242  1.00  0.00     0.116 C 
BRANCH  29  30
ATOM     30  N   UNL A   1      32.359  34.209  27.643  1.00  0.00    -0.352 N 
ATOM     31  C   UNL A   1      32.940  34.968  28.632  1.00  0.00     0.251 C 
ATOM     32  H   UNL A   1      31.640  34.651  27.136  1.00  0.00     0.163 HD
ATOM     33  O   UNL A   1      32.466  36.054  28.946  1.00  0.00    -0.269 OA
BRANCH  31  34
ATOM     34  C   UNL A   1      34.126  34.445  29.342  1.00  0.00     0.039 A 
ATOM     35  C   UNL A   1      35.407  34.640  28.822  1.00  0.00     0.014 A 
ATOM     36  C   UNL A   1      33.946  33.721  30.525  1.00  0.00     0.014 A 
ATOM     37  C   UNL A   1      36.491  33.986  29.398  1.00  0.00     0.010 A 
ATOM     38  C   UNL A   1      35.047  33.124  31.142  1.00  0.00     0.010 A 
ATOM     39  C   UNL A   1      36.321  33.216  30.561  1.00  0.00    -0.014 A 
BRANCH  39  40
ATOM     40  C   UNL A   1      37.485  32.510  31.154  1.00  0.00     0.031 A 
ATOM     41  C   UNL A   1      37.975  32.862  32.531  1.00  0.00     0.074 A 
ATOM     42  C   UNL A   1      38.073  31.515  30.463  1.00  0.00     0.049 A 
ATOM     43  N   UNL A   1      38.997  32.379  33.194  1.00  0.00    -0.248 NA
ATOM     44  C   UNL A   1      37.222  33.893  33.262  1.00  0.00     0.031 C 
ATOM     45  C   UNL A   1      37.668  31.063  29.132  1.00  0.00     0.029 A 
ATOM     46  N   UNL A   1      39.122  30.696  30.789  1.00  0.00    -0.354 N 
ATOM     47  C   UNL A   1      39.019  33.056  34.406  1.00  0.00     0.074 A 
ATOM     48  C   UNL A   1      37.922  34.000  34.383  1.00  0.00     0.031 C 
ATOM     49  C   UNL A   1      38.430  30.020  28.772  1.00  0.00     0.029 A 
ATOM     50  C   UNL A   1      39.416  29.771  29.818  1.00  0.00     0.049 A 
ATOM     51  H   UNL A   1      39.617  30.763  31.637  1.00  0.00     0.167 HD
ATOM     52  C   UNL A   1      39.872  32.895  35.446  1.00  0.00     0.037 A 
ATOM     53  C   UNL A   1      40.384  28.837  29.766  1.00  0.00     0.037 A 
ATOM     54  C   UNL A   1      40.952  31.942  35.472  1.00  0.00     0.049 A 
ATOM     55  C   UNL A   1      41.347  28.716  30.912  1.00  0.00     0.074 A 
ATOM     56  C   UNL A   1      41.875  31.710  36.478  1.00  0.00     0.029 A 
ATOM     57  N   UNL A   1      41.251  31.058  34.446  1.00  0.00    -0.354 N 
ATOM     58  N   UNL A   1      41.376  29.382  32.040  1.00  0.00    -0.248 NA
ATOM     59  C   UNL A   1      42.417  27.719  30.773  1.00  0.00     0.031 C 
ATOM     60  C   UNL A   1      42.751  30.708  36.047  1.00  0.00     0.029 A 
ATOM     61  C   UNL A   1      42.349  30.286  34.791  1.00  0.00     0.049 A 
ATOM     62  H   UNL A   1      40.756  30.989  33.598  1.00  0.00     0.167 HD
ATOM     63  C   UNL A   1      42.459  28.881  32.749  1.00  0.00     0.074 A 
ATOM     64  C   UNL A   1      43.048  27.839  31.933  1.00  0.00     0.031 C 
ATOM     65  C   UNL A   1      42.925  29.255  33.966  1.00  0.00     0.037 A 
BRANCH  52  66
ATOM     66  C   UNL A   1      39.686  33.775  36.646  1.00  0.00     0.064 A 
ATOM     67  C   UNL A   1      40.233  35.066  36.701  1.00  0.00     0.173 A 
ATOM     68  C   UNL A   1      38.897  33.349  37.725  1.00  0.00     0.173 A 
ATOM     69  F   UNL A   1      41.006  35.514  35.702  1.00  0.00    -0.203 F 
ATOM     70  C   UNL A   1      40.005  35.893  37.798  1.00  0.00     0.198 A 
ATOM     71  C   UNL A   1      38.651  34.188  38.809  1.00  0.00     0.198 A 
ATOM     72  F   UNL A   1      38.347  32.126  37.720  1.00  0.00    -0.203 F 
ATOM     73  F   UNL A   1      40.561  37.112  37.843  1.00  0.00    -0.200 F 
ATOM     74  C   UNL A   1      39.207  35.459  38.846  1.00  0.00     0.200 A 
ATOM     75  F   UNL A   1      37.871  33.771  39.816  1.00  0.00    -0.200 F 
ATOM     76  F   UNL A   1      38.977  36.262  39.894  1.00  0.00    -0.200 F 
ENDBRANCH  52  66
BRANCH  53  77
ATOM     77  C   UNL A   1      40.483  27.951  28.580  1.00  0.00     0.064 A 
ATOM     78  C   UNL A   1      41.252  28.322  27.469  1.00  0.00     0.173 A 
ATOM     79  C   UNL A   1      39.841  26.705  28.547  1.00  0.00     0.173 A 
ATOM     80  F   UNL A   1      41.865  29.514  27.447  1.00  0.00    -0.203 F 
ATOM     81  C   UNL A   1      41.373  27.477  26.367  1.00  0.00     0.198 A 
ATOM     82  C   UNL A   1      39.985  25.851  27.456  1.00  0.00     0.198 A 
ATOM     83  F   UNL A   1      39.096  26.305  29.587  1.00  0.00    -0.203 F 
ATOM     84  F   UNL A   1      42.091  27.867  25.305  1.00  0.00    -0.200 F 
ATOM     85  C   UNL A   1      40.748  26.240  26.366  1.00  0.00     0.200 A 
ATOM     86  F   UNL A   1      39.392  24.650  27.466  1.00  0.00    -0.200 F 
ATOM     87  F   UNL A   1      40.879  25.423  25.312  1.00  0.00    -0.200 F 
ENDBRANCH  53  77
BRANCH  65  88
ATOM     88  C   UNL A   1      44.121  28.522  34.495  1.00  0.00     0.064 A 
ATOM     89  C   UNL A   1      43.988  27.310  35.187  1.00  0.00     0.173 A 
ATOM     90  C   UNL A   1      45.414  29.017  34.273  1.00  0.00     0.173 A 
ATOM     91  F   UNL A   1      42.771  26.805  35.436  1.00  0.00    -0.203 F 
ATOM     92  C   UNL A   1      45.108  26.630  35.658  1.00  0.00     0.198 A 
ATOM     93  C   UNL A   1      46.532  28.321  34.723  1.00  0.00     0.198 A 
ATOM     94  F   UNL A   1      45.593  30.170  33.611  1.00  0.00    -0.203 F 
ATOM     95  F   UNL A   1      44.957  25.494  36.353  1.00  0.00    -0.200 F 
ATOM     96  C   UNL A   1      46.379  27.133  35.420  1.00  0.00     0.200 A 
ATOM     97  F   UNL A   1      47.760  28.803  34.483  1.00  0.00    -0.200 F 
ATOM     98  F   UNL A   1      47.455  26.473  35.869  1.00  0.00    -0.200 F 
ENDBRANCH  65  88
ENDBRANCH  39  40
ENDBRANCH  31  34
ENDBRANCH  29  30
ENDBRANCH  28  29
ENDBRANCH  27  28
ENDBRANCH   1  27
TORSDOF 16
ENDMDL
MODEL 3
REMARK VINA RESULT:     -12.2      1.084      7.377
REMARK SMILES COc1ccc(-n2c(=S)[nH]cc(CC(=O)NCCCCCCNC(=O)c3ccc(-c4c5nc(c(-c6c(F)c(F)c(F)c(F)c6F)c6ccc([nH]6)c(-c6c(F)c(F)c(F)c(F)c6F)c6nc(c(-c7c(F)c(F)c(F)c(F)c7F)c7ccc4[nH]7)C=C6)C=C5)cc3)c2=O)cc1Cl
REMARK SMILES IDX 19 1 18 2 17 3 16 4 14 5 15 6 13 8 12 9 7 10 8 11 89 12 9 13
REMARK SMILES IDX 10 14 90 15 11 16 6 18 3 19 4 20 92 21 5 22 91 23 93 24 2 25
REMARK SMILES IDX 1 26 20 27 21 28 22 29 23 30 24 31 25 33 26 34 27 35 88 36
REMARK SMILES IDX 28 37 87 38 29 39 30 40 31 41 81 42 32 43 86 44 80 45 82 46
REMARK SMILES IDX 33 47 85 48 79 49 78 50 34 52 66 53 46 54 65 55 47 56 50 57
REMARK SMILES IDX 64 58 83 59 48 60 49 61 63 63 84 64 51 65 35 66 36 67 44 68
REMARK SMILES IDX 37 69 38 70 42 71 45 72 39 73 40 74 43 75 41 76 67 77 68 78
REMARK SMILES IDX 76 79 69 80 70 81 74 82 77 83 71 84 72 85 75 86 73 87 52 88
REMARK SMILES IDX 53 89 61 90 54 91 55 92 59 93 62 94 56 95 57 96 60 97 58 98
REMARK H PARENT 16 7 10 17 23 32 82 51 50 62
REMARK Flexibility Score: inf
ROOT
ATOM      1  C   UNL A   1      35.502  21.111  25.478  1.00  0.00     0.002 C 
ENDROOT
BRANCH   1   2
ATOM      2  C   UNL A   1      34.424  20.238  24.821  1.00  0.00     0.021 C 
BRANCH   2   3
ATOM      3  C   UNL A   1      33.077  20.244  25.549  1.00  0.00     0.116 C 
BRANCH   3   4
ATOM      4  N   UNL A   1      33.056  21.246  26.598  1.00  0.00    -0.356 N 
ATOM      5  C   UNL A   1      32.272  22.357  26.708  1.00  0.00     0.224 C 
ATOM      6  O   UNL A   1      32.523  23.174  27.596  1.00  0.00    -0.275 OA
ATOM      7  H   UNL A   1      33.697  21.106  27.332  1.00  0.00     0.163 HD
BRANCH   5   8
ATOM      8  C   UNL A   1      31.115  22.570  25.742  1.00  0.00     0.142 C 
BRANCH   8   9
ATOM      9  C   UNL A   1      31.496  23.444  24.580  1.00  0.00     0.043 A 
ATOM     10  N   UNL A   1      31.351  25.664  23.498  1.00  0.00    -0.253 N 
ATOM     11  C   UNL A   1      32.025  25.154  22.374  1.00  0.00     0.184 A 
ATOM     12  C   UNL A   1      31.079  24.877  24.628  1.00  0.00     0.262 A 
ATOM     13  S   UNL A   1      32.528  25.953  20.983  1.00  0.00    -0.040 S 
ATOM     14  N   UNL A   1      32.381  23.828  22.440  1.00  0.00    -0.338 N 
ATOM     15  O   UNL A   1      30.472  25.270  25.627  1.00  0.00    -0.269 OA
ATOM     16  C   UNL A   1      32.136  23.008  23.494  1.00  0.00     0.095 A 
ATOM     17  H   UNL A   1      32.849  23.444  21.665  1.00  0.00     0.168 HD
BRANCH  10  18
ATOM     18  C   UNL A   1      30.942  27.046  23.561  1.00  0.00     0.053 A 
ATOM     19  C   UNL A   1      30.009  29.703  23.773  1.00  0.00     0.137 A 
ATOM     20  C   UNL A   1      29.420  28.815  22.871  1.00  0.00     0.050 A 
ATOM     21  C   UNL A   1      31.085  29.270  24.556  1.00  0.00     0.085 A 
ATOM     22  C   UNL A   1      29.892  27.504  22.752  1.00  0.00     0.031 A 
ATOM     23  C   UNL A   1      31.556  27.954  24.437  1.00  0.00     0.051 A 
ATOM     24  Cl  UNL A   1      31.841  30.271  25.742  1.00  0.00    -0.080 Cl
BRANCH  19  25
ATOM     25  O   UNL A   1      29.382  30.914  23.895  1.00  0.00    -0.495 OA
ATOM     26  C   UNL A   1      28.015  30.903  23.495  1.00  0.00     0.278 C 
ENDBRANCH  19  25
ENDBRANCH  10  18
ENDBRANCH   8   9
ENDBRANCH   5   8
ENDBRANCH   3   4
ENDBRANCH   2   3
ENDBRANCH   1   2
BRANCH   1  27
ATOM     27  C   UNL A   1      36.836  21.185  24.726  1.00  0.00     0.002 C 
BRANCH  27  28
ATOM     28  C   UNL A   1      37.803  20.032  25.001  1.00  0.00     0.021 C 
BRANCH  28  29
ATOM     29  C   UNL A   1      39.020  20.407  25.838  1.00  0.00     0.116 C 
BRANCH  29  30
ATOM     30  N   UNL A   1      39.983  19.320  25.942  1.00  0.00    -0.352 N 
ATOM     31  C   UNL A   1      41.344  19.386  26.126  1.00  0.00     0.251 C 
ATOM     32  H   UNL A   1      39.608  18.412  25.869  1.00  0.00     0.163 HD
ATOM     33  O   UNL A   1      42.036  18.378  26.038  1.00  0.00    -0.269 OA
BRANCH  31  34
ATOM     34  C   UNL A   1      41.974  20.695  26.396  1.00  0.00     0.039 A 
ATOM     35  C   UNL A   1      42.189  21.122  27.708  1.00  0.00     0.014 A 
ATOM     36  C   UNL A   1      42.322  21.517  25.320  1.00  0.00     0.014 A 
ATOM     37  C   UNL A   1      42.608  22.426  27.949  1.00  0.00     0.010 A 
ATOM     38  C   UNL A   1      42.811  22.802  25.564  1.00  0.00     0.010 A 
ATOM     39  C   UNL A   1      42.917  23.281  26.879  1.00  0.00    -0.014 A 
BRANCH  39  40
ATOM     40  C   UNL A   1      43.347  24.676  27.151  1.00  0.00     0.031 A 
ATOM     41  C   UNL A   1      42.395  25.666  27.764  1.00  0.00     0.074 A 
ATOM     42  C   UNL A   1      44.616  25.038  26.885  1.00  0.00     0.049 A 
ATOM     43  N   UNL A   1      42.583  26.933  28.039  1.00  0.00    -0.248 NA
ATOM     44  C   UNL A   1      41.055  25.170  28.116  1.00  0.00     0.031 C 
ATOM     45  C   UNL A   1      45.639  24.159  26.318  1.00  0.00     0.029 A 
ATOM     46  N   UNL A   1      45.266  26.231  27.070  1.00  0.00    -0.354 N 
ATOM     47  C   UNL A   1      41.386  27.388  28.576  1.00  0.00     0.074 A 
ATOM     48  C   UNL A   1      40.468  26.269  28.571  1.00  0.00     0.031 C 
ATOM     49  C   UNL A   1      46.799  24.828  26.242  1.00  0.00     0.029 A 
ATOM     50  C   UNL A   1      46.586  26.199  26.694  1.00  0.00     0.049 A 
ATOM     51  H   UNL A   1      44.829  27.033  27.437  1.00  0.00     0.167 HD
ATOM     52  C   UNL A   1      41.085  28.625  29.039  1.00  0.00     0.037 A 
ATOM     53  C   UNL A   1      47.518  27.170  26.696  1.00  0.00     0.037 A 
ATOM     54  C   UNL A   1      42.007  29.732  29.058  1.00  0.00     0.049 A 
ATOM     55  C   UNL A   1      47.143  28.544  27.168  1.00  0.00     0.074 A 
ATOM     56  C   UNL A   1      41.793  31.026  29.501  1.00  0.00     0.029 A 
ATOM     57  N   UNL A   1      43.321  29.674  28.619  1.00  0.00    -0.354 N 
ATOM     58  N   UNL A   1      45.999  28.970  27.645  1.00  0.00    -0.248 NA
ATOM     59  C   UNL A   1      48.185  29.577  27.093  1.00  0.00     0.031 C 
ATOM     60  C   UNL A   1      42.967  31.759  29.300  1.00  0.00     0.029 A 
ATOM     61  C   UNL A   1      43.927  30.912  28.772  1.00  0.00     0.049 A 
ATOM     62  H   UNL A   1      43.760  28.872  28.252  1.00  0.00     0.167 HD
ATOM     63  C   UNL A   1      46.185  30.315  27.935  1.00  0.00     0.074 A 
ATOM     64  C   UNL A   1      47.559  30.629  27.601  1.00  0.00     0.031 C 
ATOM     65  C   UNL A   1      45.294  31.209  28.431  1.00  0.00     0.037 A 
BRANCH  52  66
ATOM     66  C   UNL A   1      39.698  28.861  29.558  1.00  0.00     0.064 A 
ATOM     67  C   UNL A   1      39.376  28.660  30.909  1.00  0.00     0.173 A 
ATOM     68  C   UNL A   1      38.696  29.357  28.710  1.00  0.00     0.173 A 
ATOM     69  F   UNL A   1      40.295  28.174  31.756  1.00  0.00    -0.203 F 
ATOM     70  C   UNL A   1      38.098  28.937  31.388  1.00  0.00     0.198 A 
ATOM     71  C   UNL A   1      37.427  29.656  29.199  1.00  0.00     0.198 A 
ATOM     72  F   UNL A   1      38.953  29.571  27.412  1.00  0.00    -0.203 F 
ATOM     73  F   UNL A   1      37.804  28.710  32.676  1.00  0.00    -0.200 F 
ATOM     74  C   UNL A   1      37.127  29.443  30.536  1.00  0.00     0.200 A 
ATOM     75  F   UNL A   1      36.493  30.156  28.377  1.00  0.00    -0.200 F 
ATOM     76  F   UNL A   1      35.903  29.723  31.004  1.00  0.00    -0.200 F 
ENDBRANCH  52  66
BRANCH  53  77
ATOM     77  C   UNL A   1      48.893  26.864  26.230  1.00  0.00     0.064 A 
ATOM     78  C   UNL A   1      49.853  26.355  27.115  1.00  0.00     0.173 A 
ATOM     79  C   UNL A   1      49.266  27.041  24.890  1.00  0.00     0.173 A 
ATOM     80  F   UNL A   1      49.550  26.190  28.410  1.00  0.00    -0.203 F 
ATOM     81  C   UNL A   1      51.137  26.036  26.675  1.00  0.00     0.198 A 
ATOM     82  C   UNL A   1      50.539  26.696  24.446  1.00  0.00     0.198 A 
ATOM     83  F   UNL A   1      48.380  27.523  24.006  1.00  0.00    -0.203 F 
ATOM     84  F   UNL A   1      52.046  25.578  27.546  1.00  0.00    -0.200 F 
ATOM     85  C   UNL A   1      51.475  26.198  25.340  1.00  0.00     0.200 A 
ATOM     86  F   UNL A   1      50.857  26.840  23.153  1.00  0.00    -0.200 F 
ATOM     87  F   UNL A   1      52.704  25.876  24.915  1.00  0.00    -0.200 F 
ENDBRANCH  53  77
BRANCH  65  88
ATOM     88  C   UNL A   1      45.783  32.608  28.656  1.00  0.00     0.064 A 
ATOM     89  C   UNL A   1      46.403  32.982  29.857  1.00  0.00     0.173 A 
ATOM     90  C   UNL A   1      45.666  33.573  27.645  1.00  0.00     0.173 A 
ATOM     91  F   UNL A   1      46.524  32.097  30.857  1.00  0.00    -0.203 F 
ATOM     92  C   UNL A   1      46.868  34.280  30.046  1.00  0.00     0.198 A 
ATOM     93  C   UNL A   1      46.156  34.863  27.828  1.00  0.00     0.198 A 
ATOM     94  F   UNL A   1      45.086  33.262  26.476  1.00  0.00    -0.203 F 
ATOM     95  F   UNL A   1      47.420  34.628  31.217  1.00  0.00    -0.200 F 
ATOM     96  C   UNL A   1      46.750  35.217  29.030  1.00  0.00     0.200 A 
ATOM     97  F   UNL A   1      46.051  35.764  26.842  1.00  0.00    -0.200 F 
ATOM     98  F   UNL A   1      47.205  36.464  29.212  1.00  0.00    -0.200 F 
ENDBRANCH  65  88
ENDBRANCH  39  40
ENDBRANCH  31  34
ENDBRANCH  29  30
ENDBRANCH  28  29
ENDBRANCH  27  28
ENDBRANCH   1  27
TORSDOF 16
ENDMDL
