MODEL 1
REMARK VINA RESULT:     -13.0      0.000      0.000
REMARK SMILES COc1ccc(C)cc1Nc1nc(OCC(=O)NCCCCCCNC(=O)c2ccc(-c3c4nc(c(-c5c(F)c(F)c(F)c(F)c5F)c5ccc([nH]5)c(-c5c(F)c(F)c(F)c(F)c5F)c5nc(c(-c6c(F)c(F)c(F)c(F)c6F)c6ccc3[nH]6)C=C5)C=C4)cc2)cc(C(C)(C)C)n1
REMARK SMILES IDX 20 1 19 2 18 3 16 4 17 5 15 7 14 8 13 9 11 10 12 11 97 12
REMARK SMILES IDX 92 13 91 14 10 15 9 17 3 18 4 19 5 20 8 21 6 22 7 23 2 24
REMARK SMILES IDX 1 25 93 26 94 27 95 28 96 29 21 30 22 31 23 32 24 33 25 34
REMARK SMILES IDX 26 35 27 37 28 38 29 39 90 40 30 41 89 42 31 43 32 44 33 45
REMARK SMILES IDX 83 46 34 47 88 48 82 49 84 50 35 51 87 52 81 53 80 54 36 56
REMARK SMILES IDX 68 57 48 58 67 59 49 60 52 61 66 62 85 63 50 64 51 65 65 67
REMARK SMILES IDX 86 68 53 69 37 70 38 71 46 72 39 73 40 74 44 75 47 76 41 77
REMARK SMILES IDX 42 78 45 79 43 80 69 81 70 82 78 83 71 84 72 85 76 86 79 87
REMARK SMILES IDX 73 88 74 89 77 90 75 91 54 92 55 93 63 94 56 95 57 96 61 97
REMARK SMILES IDX 64 98 58 99 59 100 62 101 60 102
REMARK H PARENT 18 6 10 16 25 36 84 55 52 66
REMARK Flexibility Score: inf
ROOT
ATOM      1  C   UNL A   1      33.332  26.825  26.018  1.00  0.00     0.021 C 
ENDROOT
BRANCH   1   2
ATOM      2  C   UNL A   1      33.989  25.497  25.643  1.00  0.00     0.116 C 
BRANCH   2   3
ATOM      3  N   UNL A   1      33.539  24.403  26.476  1.00  0.00    -0.353 N 
ATOM      4  C   UNL A   1      34.216  23.282  26.849  1.00  0.00     0.258 C 
ATOM      5  O   UNL A   1      33.668  22.491  27.620  1.00  0.00    -0.271 OA
ATOM      6  H   UNL A   1      32.619  24.480  26.819  1.00  0.00     0.163 HD
BRANCH   4   7
ATOM      7  C   UNL A   1      35.641  23.027  26.332  1.00  0.00     0.331 C 
BRANCH   7   8
ATOM      8  O   UNL A   1      35.811  22.454  25.050  1.00  0.00    -0.467 OA
BRANCH   8   9
ATOM      9  C   UNL A   1      34.784  21.724  24.526  1.00  0.00     0.218 A 
ATOM     10  C   UNL A   1      32.714  21.899  23.574  1.00  0.00     0.230 A 
ATOM     11  N   UNL A   1      33.834  22.501  23.986  1.00  0.00    -0.177 NA
ATOM     12  N   UNL A   1      32.525  20.571  23.639  1.00  0.00    -0.217 NA
ATOM     13  C   UNL A   1      33.516  19.790  24.112  1.00  0.00     0.055 A 
ATOM     14  C   UNL A   1      34.693  20.350  24.560  1.00  0.00     0.093 A 
BRANCH  10  15
ATOM     15  N   UNL A   1      31.710  22.719  23.077  1.00  0.00    -0.321 N 
ATOM     16  H   UNL A   1      31.265  22.382  22.266  1.00  0.00     0.170 HD
BRANCH  15  17
ATOM     17  C   UNL A   1      31.229  23.955  23.546  1.00  0.00     0.084 A 
ATOM     18  C   UNL A   1      30.653  24.042  24.830  1.00  0.00     0.142 A 
ATOM     19  C   UNL A   1      30.162  25.267  25.296  1.00  0.00     0.049 A 
ATOM     20  C   UNL A   1      30.204  26.402  24.482  1.00  0.00     0.007 A 
ATOM     21  C   UNL A   1      31.297  25.117  22.762  1.00  0.00     0.033 A 
ATOM     22  C   UNL A   1      30.767  26.334  23.206  1.00  0.00    -0.049 A 
ATOM     23  C   UNL A   1      30.790  27.523  22.293  1.00  0.00     0.044 C 
BRANCH  18  24
ATOM     24  O   UNL A   1      30.637  22.877  25.562  1.00  0.00    -0.495 OA
ATOM     25  C   UNL A   1      30.109  22.979  26.879  1.00  0.00     0.278 C 
ENDBRANCH  18  24
ENDBRANCH  15  17
ENDBRANCH  10  15
BRANCH  13  26
ATOM     26  C   UNL A   1      33.257  18.280  24.107  1.00  0.00     0.004 C 
ATOM     27  C   UNL A   1      32.429  17.898  25.353  1.00  0.00     0.017 C 
ATOM     28  C   UNL A   1      32.456  17.926  22.840  1.00  0.00     0.017 C 
ATOM     29  C   UNL A   1      34.540  17.423  24.124  1.00  0.00     0.017 C 
ENDBRANCH  13  26
ENDBRANCH   8   9
ENDBRANCH   7   8
ENDBRANCH   4   7
ENDBRANCH   2   3
ENDBRANCH   1   2
BRANCH   1  30
ATOM     30  C   UNL A   1      33.851  28.069  25.281  1.00  0.00     0.002 C 
BRANCH  30  31
ATOM     31  C   UNL A   1      32.842  29.195  25.002  1.00  0.00     0.002 C 
BRANCH  31  32
ATOM     32  C   UNL A   1      32.561  30.160  26.154  1.00  0.00     0.021 C 
BRANCH  32  33
ATOM     33  C   UNL A   1      33.560  30.080  27.296  1.00  0.00     0.116 C 
BRANCH  33  34
ATOM     34  N   UNL A   1      34.314  31.302  27.532  1.00  0.00    -0.352 N 
ATOM     35  C   UNL A   1      35.578  31.486  28.064  1.00  0.00     0.251 C 
ATOM     36  H   UNL A   1      33.850  32.131  27.271  1.00  0.00     0.163 HD
ATOM     37  O   UNL A   1      35.968  32.621  28.296  1.00  0.00    -0.269 OA
BRANCH  35  38
ATOM     38  C   UNL A   1      36.517  30.341  28.227  1.00  0.00     0.039 A 
ATOM     39  C   UNL A   1      36.476  29.615  29.431  1.00  0.00     0.014 A 
ATOM     40  C   UNL A   1      37.528  30.081  27.314  1.00  0.00     0.014 A 
ATOM     41  C   UNL A   1      37.565  28.826  29.808  1.00  0.00     0.010 A 
ATOM     42  C   UNL A   1      38.652  29.408  27.731  1.00  0.00     0.010 A 
ATOM     43  C   UNL A   1      38.694  28.827  29.002  1.00  0.00    -0.014 A 
BRANCH  43  44
ATOM     44  C   UNL A   1      40.007  28.316  29.364  1.00  0.00     0.031 A 
ATOM     45  C   UNL A   1      40.411  26.971  28.901  1.00  0.00     0.074 A 
ATOM     46  C   UNL A   1      40.923  29.205  29.809  1.00  0.00     0.049 A 
ATOM     47  N   UNL A   1      41.557  26.436  29.139  1.00  0.00    -0.248 NA
ATOM     48  C   UNL A   1      39.514  26.085  28.164  1.00  0.00     0.031 C 
ATOM     49  C   UNL A   1      42.377  29.115  29.702  1.00  0.00     0.029 A 
ATOM     50  N   UNL A   1      40.705  30.313  30.647  1.00  0.00    -0.354 N 
ATOM     51  C   UNL A   1      41.663  25.297  28.374  1.00  0.00     0.074 A 
ATOM     52  C   UNL A   1      40.331  25.064  27.882  1.00  0.00     0.031 C 
ATOM     53  C   UNL A   1      42.931  29.898  30.641  1.00  0.00     0.029 A 
ATOM     54  C   UNL A   1      41.846  30.357  31.487  1.00  0.00     0.049 A 
ATOM     55  H   UNL A   1      39.933  30.923  30.650  1.00  0.00     0.167 HD
ATOM     56  C   UNL A   1      42.907  24.774  28.176  1.00  0.00     0.037 A 
ATOM     57  C   UNL A   1      41.754  30.093  32.824  1.00  0.00     0.037 A 
ATOM     58  C   UNL A   1      43.858  25.384  29.108  1.00  0.00     0.049 A 
ATOM     59  C   UNL A   1      42.629  28.953  33.292  1.00  0.00     0.074 A 
ATOM     60  C   UNL A   1      44.840  26.351  28.986  1.00  0.00     0.029 A 
ATOM     61  N   UNL A   1      43.659  25.192  30.472  1.00  0.00    -0.354 N 
ATOM     62  N   UNL A   1      43.070  28.004  32.513  1.00  0.00    -0.248 NA
ATOM     63  C   UNL A   1      43.074  28.792  34.672  1.00  0.00     0.031 C 
ATOM     64  C   UNL A   1      45.188  26.785  30.294  1.00  0.00     0.029 A 
ATOM     65  C   UNL A   1      44.441  26.057  31.206  1.00  0.00     0.049 A 
ATOM     66  H   UNL A   1      43.043  24.530  30.860  1.00  0.00     0.167 HD
ATOM     67  C   UNL A   1      43.834  27.127  33.240  1.00  0.00     0.074 A 
ATOM     68  C   UNL A   1      43.817  27.675  34.584  1.00  0.00     0.031 C 
ATOM     69  C   UNL A   1      44.404  26.026  32.663  1.00  0.00     0.037 A 
BRANCH  56  70
ATOM     70  C   UNL A   1      43.339  23.843  27.056  1.00  0.00     0.064 A 
ATOM     71  C   UNL A   1      42.932  22.486  27.070  1.00  0.00     0.173 A 
ATOM     72  C   UNL A   1      44.226  24.163  26.007  1.00  0.00     0.173 A 
ATOM     73  F   UNL A   1      42.087  22.018  27.998  1.00  0.00    -0.203 F 
ATOM     74  C   UNL A   1      43.394  21.544  26.142  1.00  0.00     0.198 A 
ATOM     75  C   UNL A   1      44.667  23.227  25.065  1.00  0.00     0.198 A 
ATOM     76  F   UNL A   1      44.741  25.382  25.849  1.00  0.00    -0.203 F 
ATOM     77  F   UNL A   1      43.005  20.265  26.243  1.00  0.00    -0.200 F 
ATOM     78  C   UNL A   1      44.261  21.914  25.138  1.00  0.00     0.200 A 
ATOM     79  F   UNL A   1      45.511  23.614  24.097  1.00  0.00    -0.200 F 
ATOM     80  F   UNL A   1      44.712  21.014  24.254  1.00  0.00    -0.200 F 
ENDBRANCH  56  70
BRANCH  57  81
ATOM     81  C   UNL A   1      40.423  30.447  33.386  1.00  0.00     0.064 A 
ATOM     82  C   UNL A   1      40.164  31.805  33.652  1.00  0.00     0.173 A 
ATOM     83  C   UNL A   1      39.325  29.592  33.235  1.00  0.00     0.173 A 
ATOM     84  F   UNL A   1      41.186  32.664  33.806  1.00  0.00    -0.203 F 
ATOM     85  C   UNL A   1      38.867  32.312  33.625  1.00  0.00     0.198 A 
ATOM     86  C   UNL A   1      38.024  30.103  33.227  1.00  0.00     0.198 A 
ATOM     87  F   UNL A   1      39.507  28.292  32.966  1.00  0.00    -0.203 F 
ATOM     88  F   UNL A   1      38.661  33.631  33.752  1.00  0.00    -0.200 F 
ATOM     89  C   UNL A   1      37.801  31.465  33.379  1.00  0.00     0.200 A 
ATOM     90  F   UNL A   1      36.991  29.289  32.963  1.00  0.00    -0.200 F 
ATOM     91  F   UNL A   1      36.563  31.963  33.242  1.00  0.00    -0.200 F 
ENDBRANCH  57  81
BRANCH  69  92
ATOM     92  C   UNL A   1      45.036  24.839  33.369  1.00  0.00     0.064 A 
ATOM     93  C   UNL A   1      44.374  23.633  33.655  1.00  0.00     0.173 A 
ATOM     94  C   UNL A   1      46.429  24.835  33.648  1.00  0.00     0.173 A 
ATOM     95  F   UNL A   1      43.089  23.446  33.334  1.00  0.00    -0.203 F 
ATOM     96  C   UNL A   1      45.035  22.538  34.224  1.00  0.00     0.198 A 
ATOM     97  C   UNL A   1      47.097  23.719  34.153  1.00  0.00     0.198 A 
ATOM     98  F   UNL A   1      47.202  25.903  33.408  1.00  0.00    -0.203 F 
ATOM     99  F   UNL A   1      44.342  21.426  34.512  1.00  0.00    -0.200 F 
ATOM    100  C   UNL A   1      46.395  22.574  34.457  1.00  0.00     0.200 A 
ATOM    101  F   UNL A   1      48.427  23.756  34.317  1.00  0.00    -0.200 F 
ATOM    102  F   UNL A   1      47.031  21.502  34.948  1.00  0.00    -0.200 F 
ENDBRANCH  69  92
ENDBRANCH  43  44
ENDBRANCH  35  38
ENDBRANCH  33  34
ENDBRANCH  32  33
ENDBRANCH  31  32
ENDBRANCH  30  31
ENDBRANCH   1  30
TORSDOF 19
ENDMDL
MODEL 2
REMARK VINA RESULT:     -12.1      3.690     10.056
REMARK SMILES COc1ccc(C)cc1Nc1nc(OCC(=O)NCCCCCCNC(=O)c2ccc(-c3c4nc(c(-c5c(F)c(F)c(F)c(F)c5F)c5ccc([nH]5)c(-c5c(F)c(F)c(F)c(F)c5F)c5nc(c(-c6c(F)c(F)c(F)c(F)c6F)c6ccc3[nH]6)C=C5)C=C4)cc2)cc(C(C)(C)C)n1
REMARK SMILES IDX 20 1 19 2 18 3 16 4 17 5 15 7 14 8 13 9 11 10 12 11 97 12
REMARK SMILES IDX 92 13 91 14 10 15 9 17 3 18 4 19 5 20 8 21 6 22 7 23 2 24
REMARK SMILES IDX 1 25 93 26 94 27 95 28 96 29 21 30 22 31 23 32 24 33 25 34
REMARK SMILES IDX 26 35 27 37 28 38 29 39 90 40 30 41 89 42 31 43 32 44 33 45
REMARK SMILES IDX 83 46 34 47 88 48 82 49 84 50 35 51 87 52 81 53 80 54 36 56
REMARK SMILES IDX 68 57 48 58 67 59 49 60 52 61 66 62 85 63 50 64 51 65 65 67
REMARK SMILES IDX 86 68 53 69 37 70 38 71 46 72 39 73 40 74 44 75 47 76 41 77
REMARK SMILES IDX 42 78 45 79 43 80 69 81 70 82 78 83 71 84 72 85 76 86 79 87
REMARK SMILES IDX 73 88 74 89 77 90 75 91 54 92 55 93 63 94 56 95 57 96 61 97
REMARK SMILES IDX 64 98 58 99 59 100 62 101 60 102
REMARK H PARENT 18 6 10 16 25 36 84 55 52 66
REMARK Flexibility Score: inf
ROOT
ATOM      1  C   UNL A   1      33.596  22.538  25.025  1.00  0.00     0.021 C 
ENDROOT
BRANCH   1   2
ATOM      2  C   UNL A   1      33.235  23.526  23.917  1.00  0.00     0.116 C 
BRANCH   2   3
ATOM      3  N   UNL A   1      31.807  23.732  23.803  1.00  0.00    -0.353 N 
ATOM      4  C   UNL A   1      31.138  24.717  23.144  1.00  0.00     0.258 C 
ATOM      5  O   UNL A   1      29.906  24.679  23.120  1.00  0.00    -0.271 OA
ATOM      6  H   UNL A   1      31.244  23.069  24.265  1.00  0.00     0.163 HD
BRANCH   4   7
ATOM      7  C   UNL A   1      31.911  25.837  22.429  1.00  0.00     0.331 C 
BRANCH   7   8
ATOM      8  O   UNL A   1      31.185  26.851  21.761  1.00  0.00    -0.467 OA
BRANCH   8   9
ATOM      9  C   UNL A   1      30.760  27.927  22.487  1.00  0.00     0.218 A 
ATOM     10  C   UNL A   1      30.776  28.842  24.581  1.00  0.00     0.230 A 
ATOM     11  N   UNL A   1      31.243  27.916  23.739  1.00  0.00    -0.177 NA
ATOM     12  N   UNL A   1      29.895  29.789  24.220  1.00  0.00    -0.217 NA
ATOM     13  C   UNL A   1      29.475  29.841  22.939  1.00  0.00     0.055 A 
ATOM     14  C   UNL A   1      29.913  28.909  22.023  1.00  0.00     0.093 A 
BRANCH  10  15
ATOM     15  N   UNL A   1      31.230  28.782  25.891  1.00  0.00    -0.321 N 
ATOM     16  H   UNL A   1      30.639  28.295  26.511  1.00  0.00     0.170 HD
BRANCH  15  17
ATOM     17  C   UNL A   1      32.398  29.305  26.474  1.00  0.00     0.084 A 
ATOM     18  C   UNL A   1      33.496  28.457  26.726  1.00  0.00     0.142 A 
ATOM     19  C   UNL A   1      34.657  28.970  27.318  1.00  0.00     0.049 A 
ATOM     20  C   UNL A   1      34.723  30.314  27.695  1.00  0.00     0.007 A 
ATOM     21  C   UNL A   1      32.503  30.659  26.825  1.00  0.00     0.033 A 
ATOM     22  C   UNL A   1      33.644  31.167  27.457  1.00  0.00    -0.049 A 
ATOM     23  C   UNL A   1      33.668  32.603  27.888  1.00  0.00     0.044 C 
BRANCH  18  24
ATOM     24  O   UNL A   1      33.345  27.145  26.338  1.00  0.00    -0.495 OA
ATOM     25  C   UNL A   1      34.263  26.679  25.356  1.00  0.00     0.278 C 
ENDBRANCH  18  24
ENDBRANCH  15  17
ENDBRANCH  10  15
BRANCH  13  26
ATOM     26  C   UNL A   1      28.515  30.978  22.580  1.00  0.00     0.004 C 
ATOM     27  C   UNL A   1      29.260  32.327  22.675  1.00  0.00     0.017 C 
ATOM     28  C   UNL A   1      28.029  30.770  21.133  1.00  0.00     0.017 C 
ATOM     29  C   UNL A   1      27.277  31.069  23.498  1.00  0.00     0.017 C 
ENDBRANCH  13  26
ENDBRANCH   8   9
ENDBRANCH   7   8
ENDBRANCH   4   7
ENDBRANCH   2   3
ENDBRANCH   1   2
BRANCH   1  30
ATOM     30  C   UNL A   1      34.709  21.531  24.697  1.00  0.00     0.002 C 
BRANCH  30  31
ATOM     31  C   UNL A   1      36.035  22.096  24.159  1.00  0.00     0.002 C 
BRANCH  31  32
ATOM     32  C   UNL A   1      37.307  21.653  24.882  1.00  0.00     0.021 C 
BRANCH  32  33
ATOM     33  C   UNL A   1      37.844  22.663  25.881  1.00  0.00     0.116 C 
BRANCH  33  34
ATOM     34  N   UNL A   1      39.154  22.342  26.428  1.00  0.00    -0.352 N 
ATOM     35  C   UNL A   1      40.157  23.172  26.895  1.00  0.00     0.251 C 
ATOM     36  H   UNL A   1      39.358  21.379  26.474  1.00  0.00     0.163 HD
ATOM     37  O   UNL A   1      41.241  22.690  27.192  1.00  0.00    -0.269 OA
BRANCH  35  38
ATOM     38  C   UNL A   1      39.897  24.612  27.172  1.00  0.00     0.039 A 
ATOM     39  C   UNL A   1      40.377  25.563  26.254  1.00  0.00     0.014 A 
ATOM     40  C   UNL A   1      39.354  25.046  28.373  1.00  0.00     0.014 A 
ATOM     41  C   UNL A   1      40.530  26.895  26.642  1.00  0.00     0.010 A 
ATOM     42  C   UNL A   1      39.614  26.325  28.804  1.00  0.00     0.010 A 
ATOM     43  C   UNL A   1      40.255  27.236  27.959  1.00  0.00    -0.014 A 
BRANCH  43  44
ATOM     44  C   UNL A   1      40.623  28.480  28.617  1.00  0.00     0.031 A 
ATOM     45  C   UNL A   1      39.607  29.542  28.776  1.00  0.00     0.074 A 
ATOM     46  C   UNL A   1      41.758  28.485  29.352  1.00  0.00     0.049 A 
ATOM     47  N   UNL A   1      39.819  30.665  29.368  1.00  0.00    -0.248 NA
ATOM     48  C   UNL A   1      38.261  29.439  28.220  1.00  0.00     0.031 C 
ATOM     49  C   UNL A   1      42.067  29.321  30.510  1.00  0.00     0.029 A 
ATOM     50  N   UNL A   1      42.972  27.839  29.058  1.00  0.00    -0.354 N 
ATOM     51  C   UNL A   1      38.607  31.298  29.525  1.00  0.00     0.074 A 
ATOM     52  C   UNL A   1      37.697  30.553  28.696  1.00  0.00     0.031 C 
ATOM     53  C   UNL A   1      43.400  29.385  30.657  1.00  0.00     0.029 A 
ATOM     54  C   UNL A   1      43.974  28.746  29.489  1.00  0.00     0.049 A 
ATOM     55  H   UNL A   1      43.099  26.955  28.645  1.00  0.00     0.167 HD
ATOM     56  C   UNL A   1      38.529  32.309  30.438  1.00  0.00     0.037 A 
ATOM     57  C   UNL A   1      44.792  29.377  28.596  1.00  0.00     0.037 A 
ATOM     58  C   UNL A   1      39.874  32.720  30.844  1.00  0.00     0.049 A 
ATOM     59  C   UNL A   1      44.737  30.885  28.665  1.00  0.00     0.074 A 
ATOM     60  C   UNL A   1      40.650  32.498  31.967  1.00  0.00     0.029 A 
ATOM     61  N   UNL A   1      40.723  33.248  29.875  1.00  0.00    -0.354 N 
ATOM     62  N   UNL A   1      43.728  31.557  29.147  1.00  0.00    -0.248 NA
ATOM     63  C   UNL A   1      45.810  31.754  28.194  1.00  0.00     0.031 C 
ATOM     64  C   UNL A   1      41.992  32.841  31.644  1.00  0.00     0.029 A 
ATOM     65  C   UNL A   1      42.019  33.301  30.337  1.00  0.00     0.049 A 
ATOM     66  H   UNL A   1      40.436  33.541  28.980  1.00  0.00     0.167 HD
ATOM     67  C   UNL A   1      43.988  32.902  29.068  1.00  0.00     0.074 A 
ATOM     68  C   UNL A   1      45.312  32.971  28.477  1.00  0.00     0.031 C 
ATOM     69  C   UNL A   1      43.081  33.833  29.492  1.00  0.00     0.037 A 
BRANCH  56  70
ATOM     70  C   UNL A   1      37.272  32.839  31.109  1.00  0.00     0.064 A 
ATOM     71  C   UNL A   1      36.335  33.591  30.358  1.00  0.00     0.173 A 
ATOM     72  C   UNL A   1      36.966  32.752  32.483  1.00  0.00     0.173 A 
ATOM     73  F   UNL A   1      36.476  33.767  29.037  1.00  0.00    -0.203 F 
ATOM     74  C   UNL A   1      35.223  34.215  30.936  1.00  0.00     0.198 A 
ATOM     75  C   UNL A   1      35.840  33.354  33.055  1.00  0.00     0.198 A 
ATOM     76  F   UNL A   1      37.746  32.112  33.353  1.00  0.00    -0.203 F 
ATOM     77  F   UNL A   1      34.402  34.953  30.174  1.00  0.00    -0.200 F 
ATOM     78  C   UNL A   1      34.974  34.096  32.285  1.00  0.00     0.200 A 
ATOM     79  F   UNL A   1      35.621  33.222  34.372  1.00  0.00    -0.200 F 
ATOM     80  F   UNL A   1      33.916  34.699  32.845  1.00  0.00    -0.200 F 
ENDBRANCH  56  70
BRANCH  57  81
ATOM     81  C   UNL A   1      45.017  28.577  27.362  1.00  0.00     0.064 A 
ATOM     82  C   UNL A   1      45.960  27.532  27.421  1.00  0.00     0.173 A 
ATOM     83  C   UNL A   1      44.054  28.527  26.347  1.00  0.00     0.173 A 
ATOM     84  F   UNL A   1      46.904  27.536  28.377  1.00  0.00    -0.203 F 
ATOM     85  C   UNL A   1      45.856  26.417  26.592  1.00  0.00     0.198 A 
ATOM     86  C   UNL A   1      43.965  27.415  25.507  1.00  0.00     0.198 A 
ATOM     87  F   UNL A   1      43.121  29.484  26.248  1.00  0.00    -0.203 F 
ATOM     88  F   UNL A   1      46.689  25.380  26.759  1.00  0.00    -0.200 F 
ATOM     89  C   UNL A   1      44.837  26.345  25.658  1.00  0.00     0.200 A 
ATOM     90  F   UNL A   1      42.965  27.330  24.617  1.00  0.00    -0.200 F 
ATOM     91  F   UNL A   1      44.666  25.229  24.935  1.00  0.00    -0.200 F 
ENDBRANCH  57  81
BRANCH  69  92
ATOM     92  C   UNL A   1      43.103  35.328  29.226  1.00  0.00     0.064 A 
ATOM     93  C   UNL A   1      42.435  35.962  28.165  1.00  0.00     0.173 A 
ATOM     94  C   UNL A   1      43.697  36.211  30.168  1.00  0.00     0.173 A 
ATOM     95  F   UNL A   1      41.726  35.267  27.268  1.00  0.00    -0.203 F 
ATOM     96  C   UNL A   1      42.413  37.354  28.025  1.00  0.00     0.198 A 
ATOM     97  C   UNL A   1      43.616  37.599  30.060  1.00  0.00     0.198 A 
ATOM     98  F   UNL A   1      44.350  35.757  31.247  1.00  0.00    -0.203 F 
ATOM     99  F   UNL A   1      41.793  37.902  26.969  1.00  0.00    -0.200 F 
ATOM    100  C   UNL A   1      42.987  38.172  28.977  1.00  0.00     0.200 A 
ATOM    101  F   UNL A   1      44.130  38.373  31.026  1.00  0.00    -0.200 F 
ATOM    102  F   UNL A   1      42.913  39.505  28.867  1.00  0.00    -0.200 F 
ENDBRANCH  69  92
ENDBRANCH  43  44
ENDBRANCH  35  38
ENDBRANCH  33  34
ENDBRANCH  32  33
ENDBRANCH  31  32
ENDBRANCH  30  31
ENDBRANCH   1  30
TORSDOF 19
ENDMDL
MODEL 3
REMARK VINA RESULT:     -11.5      3.636      9.525
REMARK SMILES COc1ccc(C)cc1Nc1nc(OCC(=O)NCCCCCCNC(=O)c2ccc(-c3c4nc(c(-c5c(F)c(F)c(F)c(F)c5F)c5ccc([nH]5)c(-c5c(F)c(F)c(F)c(F)c5F)c5nc(c(-c6c(F)c(F)c(F)c(F)c6F)c6ccc3[nH]6)C=C5)C=C4)cc2)cc(C(C)(C)C)n1
REMARK SMILES IDX 20 1 19 2 18 3 16 4 17 5 15 7 14 8 13 9 11 10 12 11 97 12
REMARK SMILES IDX 92 13 91 14 10 15 9 17 3 18 4 19 5 20 8 21 6 22 7 23 2 24
REMARK SMILES IDX 1 25 93 26 94 27 95 28 96 29 21 30 22 31 23 32 24 33 25 34
REMARK SMILES IDX 26 35 27 37 28 38 29 39 90 40 30 41 89 42 31 43 32 44 33 45
REMARK SMILES IDX 83 46 34 47 88 48 82 49 84 50 35 51 87 52 81 53 80 54 36 56
REMARK SMILES IDX 68 57 48 58 67 59 49 60 52 61 66 62 85 63 50 64 51 65 65 67
REMARK SMILES IDX 86 68 53 69 37 70 38 71 46 72 39 73 40 74 44 75 47 76 41 77
REMARK SMILES IDX 42 78 45 79 43 80 69 81 70 82 78 83 71 84 72 85 76 86 79 87
REMARK SMILES IDX 73 88 74 89 77 90 75 91 54 92 55 93 63 94 56 95 57 96 61 97
REMARK SMILES IDX 64 98 58 99 59 100 62 101 60 102
REMARK H PARENT 18 6 10 16 25 36 84 55 52 66
REMARK Flexibility Score: inf
ROOT
ATOM      1  C   UNL A   1      35.357  23.037  23.130  1.00  0.00     0.021 C 
ENDROOT
BRANCH   1   2
ATOM      2  C   UNL A   1      34.229  24.048  23.332  1.00  0.00     0.116 C 
BRANCH   2   3
ATOM      3  N   UNL A   1      33.561  24.388  22.094  1.00  0.00    -0.353 N 
ATOM      4  C   UNL A   1      33.283  25.620  21.587  1.00  0.00     0.258 C 
ATOM      5  O   UNL A   1      32.753  25.695  20.476  1.00  0.00    -0.271 OA
ATOM      6  H   UNL A   1      33.269  23.625  21.545  1.00  0.00     0.163 HD
BRANCH   4   7
ATOM      7  C   UNL A   1      33.645  26.887  22.380  1.00  0.00     0.331 C 
BRANCH   7   8
ATOM      8  O   UNL A   1      32.844  28.043  22.226  1.00  0.00    -0.467 OA
BRANCH   8   9
ATOM      9  C   UNL A   1      31.564  28.011  22.701  1.00  0.00     0.218 A 
ATOM     10  C   UNL A   1      30.046  26.688  23.780  1.00  0.00     0.230 A 
ATOM     11  N   UNL A   1      31.309  26.891  23.393  1.00  0.00    -0.177 NA
ATOM     12  N   UNL A   1      29.054  27.562  23.547  1.00  0.00    -0.217 NA
ATOM     13  C   UNL A   1      29.336  28.721  22.918  1.00  0.00     0.055 A 
ATOM     14  C   UNL A   1      30.617  28.988  22.486  1.00  0.00     0.093 A 
BRANCH  10  15
ATOM     15  N   UNL A   1      29.778  25.495  24.438  1.00  0.00    -0.321 N 
ATOM     16  H   UNL A   1      28.825  25.252  24.482  1.00  0.00     0.170 HD
BRANCH  15  17
ATOM     17  C   UNL A   1      30.651  24.579  25.053  1.00  0.00     0.084 A 
ATOM     18  C   UNL A   1      31.278  24.917  26.270  1.00  0.00     0.142 A 
ATOM     19  C   UNL A   1      32.156  24.013  26.879  1.00  0.00     0.049 A 
ATOM     20  C   UNL A   1      32.448  22.789  26.271  1.00  0.00     0.007 A 
ATOM     21  C   UNL A   1      30.928  23.328  24.481  1.00  0.00     0.033 A 
ATOM     22  C   UNL A   1      31.840  22.441  25.063  1.00  0.00    -0.049 A 
ATOM     23  C   UNL A   1      32.163  21.154  24.364  1.00  0.00     0.044 C 
BRANCH  18  24
ATOM     24  O   UNL A   1      30.949  26.145  26.796  1.00  0.00    -0.495 OA
ATOM     25  C   UNL A   1      32.009  27.090  26.876  1.00  0.00     0.278 C 
ENDBRANCH  18  24
ENDBRANCH  15  17
ENDBRANCH  10  15
BRANCH  13  26
ATOM     26  C   UNL A   1      28.171  29.698  22.732  1.00  0.00     0.004 C 
ATOM     27  C   UNL A   1      28.088  30.121  21.250  1.00  0.00     0.017 C 
ATOM     28  C   UNL A   1      26.865  28.982  23.127  1.00  0.00     0.017 C 
ATOM     29  C   UNL A   1      28.291  30.986  23.574  1.00  0.00     0.017 C 
ENDBRANCH  13  26
ENDBRANCH   8   9
ENDBRANCH   7   8
ENDBRANCH   4   7
ENDBRANCH   2   3
ENDBRANCH   1   2
BRANCH   1  30
ATOM     30  C   UNL A   1      35.781  22.238  24.372  1.00  0.00     0.002 C 
BRANCH  30  31
ATOM     31  C   UNL A   1      37.287  21.999  24.575  1.00  0.00     0.002 C 
BRANCH  31  32
ATOM     32  C   UNL A   1      37.775  21.922  26.022  1.00  0.00     0.021 C 
BRANCH  32  33
ATOM     33  C   UNL A   1      39.238  22.284  26.210  1.00  0.00     0.116 C 
BRANCH  33  34
ATOM     34  N   UNL A   1      40.165  21.173  26.063  1.00  0.00    -0.352 N 
ATOM     35  C   UNL A   1      41.533  21.116  26.259  1.00  0.00     0.251 C 
ATOM     36  H   UNL A   1      39.751  20.325  25.778  1.00  0.00     0.163 HD
ATOM     37  O   UNL A   1      42.139  20.100  25.948  1.00  0.00    -0.269 OA
BRANCH  35  38
ATOM     38  C   UNL A   1      42.254  22.209  26.968  1.00  0.00     0.039 A 
ATOM     39  C   UNL A   1      42.064  22.341  28.356  1.00  0.00     0.014 A 
ATOM     40  C   UNL A   1      42.960  23.190  26.286  1.00  0.00     0.014 A 
ATOM     41  C   UNL A   1      42.363  23.547  28.991  1.00  0.00     0.010 A 
ATOM     42  C   UNL A   1      43.142  24.419  26.876  1.00  0.00     0.010 A 
ATOM     43  C   UNL A   1      42.791  24.615  28.216  1.00  0.00    -0.014 A 
BRANCH  43  44
ATOM     44  C   UNL A   1      42.870  26.004  28.639  1.00  0.00     0.031 A 
ATOM     45  C   UNL A   1      41.683  26.874  28.492  1.00  0.00     0.074 A 
ATOM     46  C   UNL A   1      43.893  26.352  29.453  1.00  0.00     0.049 A 
ATOM     47  N   UNL A   1      41.636  28.106  28.861  1.00  0.00    -0.248 NA
ATOM     48  C   UNL A   1      40.448  26.425  27.855  1.00  0.00     0.031 C 
ATOM     49  C   UNL A   1      43.920  27.428  30.440  1.00  0.00     0.029 A 
ATOM     50  N   UNL A   1      45.222  25.897  29.400  1.00  0.00    -0.354 N 
ATOM     51  C   UNL A   1      40.328  28.524  28.783  1.00  0.00     0.074 A 
ATOM     52  C   UNL A   1      39.657  27.486  28.046  1.00  0.00     0.031 C 
ATOM     53  C   UNL A   1      45.197  27.761  30.686  1.00  0.00     0.029 A 
ATOM     54  C   UNL A   1      46.004  27.035  29.724  1.00  0.00     0.049 A 
ATOM     55  H   UNL A   1      45.540  24.990  29.187  1.00  0.00     0.167 HD
ATOM     56  C   UNL A   1      39.977  29.653  29.463  1.00  0.00     0.037 A 
ATOM     57  C   UNL A   1      46.809  27.630  28.796  1.00  0.00     0.037 A 
ATOM     58  C   UNL A   1      41.179  30.371  29.892  1.00  0.00     0.049 A 
ATOM     59  C   UNL A   1      46.501  29.090  28.554  1.00  0.00     0.074 A 
ATOM     60  C   UNL A   1      41.840  30.505  31.100  1.00  0.00     0.029 A 
ATOM     61  N   UNL A   1      42.040  30.859  28.913  1.00  0.00    -0.354 N 
ATOM     62  N   UNL A   1      45.346  29.643  28.803  1.00  0.00    -0.248 NA
ATOM     63  C   UNL A   1      47.468  30.039  28.013  1.00  0.00     0.031 C 
ATOM     64  C   UNL A   1      43.137  31.023  30.830  1.00  0.00     0.029 A 
ATOM     65  C   UNL A   1      43.245  31.233  29.465  1.00  0.00     0.049 A 
ATOM     66  H   UNL A   1      41.819  30.925  27.956  1.00  0.00     0.167 HD
ATOM     67  C   UNL A   1      45.391  30.974  28.477  1.00  0.00     0.074 A 
ATOM     68  C   UNL A   1      46.747  31.175  28.000  1.00  0.00     0.031 C 
ATOM     69  C   UNL A   1      44.300  31.785  28.624  1.00  0.00     0.037 A 
BRANCH  56  70
ATOM     70  C   UNL A   1      38.579  30.059  29.902  1.00  0.00     0.064 A 
ATOM     71  C   UNL A   1      37.639  30.504  28.941  1.00  0.00     0.173 A 
ATOM     72  C   UNL A   1      38.121  30.144  31.233  1.00  0.00     0.173 A 
ATOM     73  F   UNL A   1      37.915  30.484  27.630  1.00  0.00    -0.203 F 
ATOM     74  C   UNL A   1      36.380  31.010  29.287  1.00  0.00     0.198 A 
ATOM     75  C   UNL A   1      36.853  30.626  31.576  1.00  0.00     0.198 A 
ATOM     76  F   UNL A   1      38.876  29.799  32.276  1.00  0.00    -0.203 F 
ATOM     77  F   UNL A   1      35.557  31.460  28.328  1.00  0.00    -0.200 F 
ATOM     78  C   UNL A   1      35.985  31.070  30.605  1.00  0.00     0.200 A 
ATOM     79  F   UNL A   1      36.493  30.673  32.868  1.00  0.00    -0.200 F 
ATOM     80  F   UNL A   1      34.785  31.562  30.941  1.00  0.00    -0.200 F 
ENDBRANCH  56  70
BRANCH  57  81
ATOM     81  C   UNL A   1      47.308  26.673  27.773  1.00  0.00     0.064 A 
ATOM     82  C   UNL A   1      46.645  26.635  26.531  1.00  0.00     0.173 A 
ATOM     83  C   UNL A   1      48.615  26.172  27.828  1.00  0.00     0.173 A 
ATOM     84  F   UNL A   1      45.391  27.104  26.428  1.00  0.00    -0.203 F 
ATOM     85  C   UNL A   1      47.309  26.248  25.369  1.00  0.00     0.198 A 
ATOM     86  C   UNL A   1      49.269  25.767  26.663  1.00  0.00     0.198 A 
ATOM     87  F   UNL A   1      49.303  26.193  28.979  1.00  0.00    -0.203 F 
ATOM     88  F   UNL A   1      46.692  26.346  24.183  1.00  0.00    -0.200 F 
ATOM     89  C   UNL A   1      48.632  25.846  25.432  1.00  0.00     0.200 A 
ATOM     90  F   UNL A   1      50.559  25.401  26.716  1.00  0.00    -0.200 F 
ATOM     91  F   UNL A   1      49.307  25.578  24.305  1.00  0.00    -0.200 F 
ENDBRANCH  57  81
BRANCH  69  92
ATOM     92  C   UNL A   1      44.110  33.185  28.066  1.00  0.00     0.064 A 
ATOM     93  C   UNL A   1      43.857  33.479  26.716  1.00  0.00     0.173 A 
ATOM     94  C   UNL A   1      44.021  34.297  28.945  1.00  0.00     0.173 A 
ATOM     95  F   UNL A   1      43.785  32.517  25.789  1.00  0.00    -0.203 F 
ATOM     96  C   UNL A   1      43.596  34.781  26.274  1.00  0.00     0.198 A 
ATOM     97  C   UNL A   1      43.696  35.582  28.510  1.00  0.00     0.198 A 
ATOM     98  F   UNL A   1      44.214  34.172  30.265  1.00  0.00    -0.203 F 
ATOM     99  F   UNL A   1      43.401  35.009  24.966  1.00  0.00    -0.200 F 
ATOM    100  C   UNL A   1      43.499  35.828  27.169  1.00  0.00     0.200 A 
ATOM    101  F   UNL A   1      43.549  36.570  29.403  1.00  0.00    -0.200 F 
ATOM    102  F   UNL A   1      43.192  37.061  26.747  1.00  0.00    -0.200 F 
ENDBRANCH  69  92
ENDBRANCH  43  44
ENDBRANCH  35  38
ENDBRANCH  33  34
ENDBRANCH  32  33
ENDBRANCH  31  32
ENDBRANCH  30  31
ENDBRANCH   1  30
TORSDOF 19
ENDMDL
