MODEL 1
REMARK VINA RESULT:     -10.4      0.000      0.000
REMARK SMILES CC1=C(C#N)c2nc(N)c(C#N)c(C)c2/C1=C/c1ccc(-c2ccc(C(=O)NCCCCCCNC(=O)c3ccc(-c4c5nc(c(-c6c(F)c(F)c(F)c(F)c6F)c6ccc([nH]6)c(-c6c(F)c(F)c(F)c(F)c6F)c6nc(c(-c7c(F)c(F)c(F)c(F)c7F)c7ccc4[nH]7)C=C6)C=C5)cc3)cc2)o1
REMARK SMILES IDX 31 1 30 2 29 3 28 4 26 5 27 6 25 8 22 9 23 10 102 11 24 12
REMARK SMILES IDX 101 13 21 14 18 15 19 16 103 17 20 18 17 19 1 20 2 21 3 22
REMARK SMILES IDX 16 23 6 24 15 25 7 26 13 27 8 28 10 29 14 30 4 31 5 32 9 33
REMARK SMILES IDX 11 36 12 37 32 38 33 39 34 40 35 41 36 42 37 44 38 45 39 46
REMARK SMILES IDX 100 47 40 48 99 49 41 50 42 51 43 52 93 53 44 54 98 55 92 56
REMARK SMILES IDX 94 57 45 58 97 59 91 60 90 61 46 63 78 64 58 65 77 66 59 67
REMARK SMILES IDX 62 68 76 69 95 70 60 71 61 72 75 74 96 75 63 76 47 77 48 78
REMARK SMILES IDX 56 79 49 80 50 81 54 82 57 83 51 84 52 85 55 86 53 87 79 88
REMARK SMILES IDX 80 89 88 90 81 91 82 92 86 93 89 94 83 95 84 96 87 97 85 98
REMARK SMILES IDX 64 99 65 100 73 101 66 102 67 103 71 104 74 105 68 106
REMARK SMILES IDX 69 107 72 108 70 109
REMARK H PARENT 28 7 9 34 9 35 35 43 94 62 62 73
REMARK Flexibility Score: inf
ROOT
ATOM      1  C   UNL A   1      43.396  23.556  27.715  1.00  0.00     0.002 C 
ENDROOT
BRANCH   1   2
ATOM      2  C   UNL A   1      42.833  22.219  27.211  1.00  0.00     0.021 C 
BRANCH   2   3
ATOM      3  C   UNL A   1      41.571  21.807  27.973  1.00  0.00     0.116 C 
BRANCH   3   4
ATOM      4  N   UNL A   1      40.417  21.936  27.107  1.00  0.00    -0.352 N 
ATOM      5  C   UNL A   1      39.606  22.984  26.767  1.00  0.00     0.251 C 
ATOM      6  O   UNL A   1      38.660  22.739  26.018  1.00  0.00    -0.269 OA
ATOM      7  H   UNL A   1      40.162  21.091  26.671  1.00  0.00     0.163 HD
BRANCH   5   8
ATOM      8  C   UNL A   1      39.842  24.391  27.200  1.00  0.00     0.039 A 
ATOM      9  C   UNL A   1      40.009  27.061  28.063  1.00  0.00     0.017 A 
ATOM     10  C   UNL A   1      39.394  26.107  28.876  1.00  0.00     0.013 A 
ATOM     11  C   UNL A   1      40.597  26.666  26.863  1.00  0.00     0.013 A 
ATOM     12  C   UNL A   1      39.292  24.784  28.433  1.00  0.00     0.014 A 
ATOM     13  C   UNL A   1      40.563  25.334  26.469  1.00  0.00     0.014 A 
BRANCH   9  14
ATOM     14  C   UNL A   1      40.122  28.448  28.431  1.00  0.00     0.134 A 
ATOM     15  C   UNL A   1      39.313  30.278  29.339  1.00  0.00     0.128 A 
ATOM     16  C   UNL A   1      40.676  30.471  29.161  1.00  0.00     0.051 A 
ATOM     17  O   UNL A   1      38.991  29.023  28.902  1.00  0.00    -0.457 OA
ATOM     18  C   UNL A   1      41.186  29.314  28.536  1.00  0.00     0.051 A 
BRANCH  15  19
ATOM     19  C   UNL A   1      38.345  31.165  29.849  1.00  0.00     0.056 C 
ATOM     20  C   UNL A   1      39.973  29.705  32.238  1.00  0.00     0.046 C 
ATOM     21  C   UNL A   1      38.802  30.637  32.288  1.00  0.00    -0.023 C 
ATOM     22  C   UNL A   1      38.221  31.040  33.432  1.00  0.00     0.082 C 
ATOM     23  C   UNL A   1      38.114  31.298  31.163  1.00  0.00    -0.008 C 
ATOM     24  C   UNL A   1      37.147  31.980  33.124  1.00  0.00     0.092 A 
ATOM     25  C   UNL A   1      37.063  32.174  31.738  1.00  0.00     0.014 A 
ATOM     26  N   UNL A   1      36.354  32.553  34.043  1.00  0.00    -0.228 NA
ATOM     27  C   UNL A   1      36.088  33.035  31.235  1.00  0.00    -0.019 A 
ATOM     28  C   UNL A   1      35.404  33.386  33.564  1.00  0.00     0.142 A 
ATOM     29  C   UNL A   1      35.235  33.648  32.186  1.00  0.00     0.098 A 
ATOM     30  C   UNL A   1      35.934  33.295  29.762  1.00  0.00     0.046 C 
BRANCH  22  31
ATOM     31  C   UNL A   1      38.676  30.540  34.794  1.00  0.00     0.102 C 
ATOM     32  N   UNL A   1      39.053  30.127  35.923  1.00  0.00    -0.192 NA
ENDBRANCH  22  31
BRANCH  28  33
ATOM     33  N   UNL A   1      34.544  33.887  34.521  1.00  0.00    -0.383 N 
ATOM     34  H   UNL A   1      33.908  34.600  34.285  1.00  0.00     0.158 HD
ATOM     35  H   UNL A   1      34.570  33.532  35.440  1.00  0.00     0.158 HD
ENDBRANCH  28  33
BRANCH  29  36
ATOM     36  C   UNL A   1      34.189  34.543  31.774  1.00  0.00     0.103 C 
ATOM     37  N   UNL A   1      33.337  35.263  31.462  1.00  0.00    -0.192 NA
ENDBRANCH  29  36
ENDBRANCH  15  19
ENDBRANCH   9  14
ENDBRANCH   5   8
ENDBRANCH   3   4
ENDBRANCH   2   3
ENDBRANCH   1   2
BRANCH   1  38
ATOM     38  C   UNL A   1      44.879  23.500  28.105  1.00  0.00     0.002 C 
BRANCH  38  39
ATOM     39  C   UNL A   1      45.833  23.393  26.915  1.00  0.00     0.021 C 
BRANCH  39  40
ATOM     40  C   UNL A   1      45.273  24.014  25.643  1.00  0.00     0.116 C 
BRANCH  40  41
ATOM     41  N   UNL A   1      46.328  24.627  24.851  1.00  0.00    -0.352 N 
ATOM     42  C   UNL A   1      46.682  25.948  24.763  1.00  0.00     0.251 C 
ATOM     43  H   UNL A   1      46.861  24.008  24.302  1.00  0.00     0.163 HD
ATOM     44  O   UNL A   1      47.392  26.348  23.848  1.00  0.00    -0.269 OA
BRANCH  42  45
ATOM     45  C   UNL A   1      46.187  26.886  25.787  1.00  0.00     0.039 A 
ATOM     46  C   UNL A   1      44.823  27.169  25.848  1.00  0.00     0.014 A 
ATOM     47  C   UNL A   1      47.079  27.477  26.689  1.00  0.00     0.014 A 
ATOM     48  C   UNL A   1      44.345  28.011  26.851  1.00  0.00     0.010 A 
ATOM     49  C   UNL A   1      46.591  28.242  27.738  1.00  0.00     0.010 A 
ATOM     50  C   UNL A   1      45.222  28.529  27.820  1.00  0.00    -0.014 A 
BRANCH  50  51
ATOM     51  C   UNL A   1      44.724  29.405  28.908  1.00  0.00     0.031 A 
ATOM     52  C   UNL A   1      44.395  28.812  30.250  1.00  0.00     0.074 A 
ATOM     53  C   UNL A   1      44.555  30.721  28.680  1.00  0.00     0.049 A 
ATOM     54  N   UNL A   1      43.920  29.400  31.317  1.00  0.00    -0.248 NA
ATOM     55  C   UNL A   1      44.615  27.364  30.413  1.00  0.00     0.031 C 
ATOM     56  C   UNL A   1      44.825  31.402  27.413  1.00  0.00     0.029 A 
ATOM     57  N   UNL A   1      44.123  31.726  29.510  1.00  0.00    -0.354 N 
ATOM     58  C   UNL A   1      43.799  28.401  32.274  1.00  0.00     0.074 A 
ATOM     59  C   UNL A   1      44.175  27.156  31.645  1.00  0.00     0.031 C 
ATOM     60  C   UNL A   1      44.596  32.716  27.561  1.00  0.00     0.029 A 
ATOM     61  C   UNL A   1      44.116  32.966  28.918  1.00  0.00     0.049 A 
ATOM     62  H   UNL A   1      43.844  31.573  30.442  1.00  0.00     0.167 HD
ATOM     63  C   UNL A   1      43.446  28.523  33.574  1.00  0.00     0.037 A 
ATOM     64  C   UNL A   1      43.760  34.166  29.416  1.00  0.00     0.037 A 
ATOM     65  C   UNL A   1      43.091  29.766  34.200  1.00  0.00     0.049 A 
ATOM     66  C   UNL A   1      43.294  34.249  30.848  1.00  0.00     0.074 A 
ATOM     67  C   UNL A   1      42.728  29.991  35.516  1.00  0.00     0.029 A 
ATOM     68  N   UNL A   1      43.059  30.995  33.558  1.00  0.00    -0.354 N 
ATOM     69  N   UNL A   1      43.230  33.306  31.755  1.00  0.00    -0.248 NA
ATOM     70  C   UNL A   1      42.852  35.568  31.324  1.00  0.00     0.031 C 
ATOM     71  C   UNL A   1      42.428  31.348  35.659  1.00  0.00     0.029 A 
ATOM     72  C   UNL A   1      42.662  31.979  34.448  1.00  0.00     0.049 A 
ATOM     73  H   UNL A   1      43.287  31.145  32.612  1.00  0.00     0.167 HD
ATOM     74  C   UNL A   1      42.780  33.923  32.916  1.00  0.00     0.074 A 
ATOM     75  C   UNL A   1      42.607  35.325  32.603  1.00  0.00     0.031 C 
ATOM     76  C   UNL A   1      42.524  33.376  34.128  1.00  0.00     0.037 A 
BRANCH  63  77
ATOM     77  C   UNL A   1      43.464  27.291  34.429  1.00  0.00     0.064 A 
ATOM     78  C   UNL A   1      42.299  26.535  34.634  1.00  0.00     0.173 A 
ATOM     79  C   UNL A   1      44.669  26.796  34.951  1.00  0.00     0.173 A 
ATOM     80  F   UNL A   1      41.119  26.972  34.168  1.00  0.00    -0.203 F 
ATOM     81  C   UNL A   1      42.342  25.328  35.327  1.00  0.00     0.198 A 
ATOM     82  C   UNL A   1      44.713  25.575  35.616  1.00  0.00     0.198 A 
ATOM     83  F   UNL A   1      45.811  27.480  34.780  1.00  0.00    -0.203 F 
ATOM     84  F   UNL A   1      41.214  24.633  35.526  1.00  0.00    -0.200 F 
ATOM     85  C   UNL A   1      43.549  24.842  35.803  1.00  0.00     0.200 A 
ATOM     86  F   UNL A   1      45.883  25.096  36.060  1.00  0.00    -0.200 F 
ATOM     87  F   UNL A   1      43.594  23.663  36.438  1.00  0.00    -0.200 F 
ENDBRANCH  63  77
BRANCH  64  88
ATOM     88  C   UNL A   1      43.852  35.392  28.578  1.00  0.00     0.064 A 
ATOM     89  C   UNL A   1      45.078  36.055  28.409  1.00  0.00     0.173 A 
ATOM     90  C   UNL A   1      42.723  35.950  27.961  1.00  0.00     0.173 A 
ATOM     91  F   UNL A   1      46.185  35.574  28.993  1.00  0.00    -0.203 F 
ATOM     92  C   UNL A   1      45.162  37.243  27.687  1.00  0.00     0.198 A 
ATOM     93  C   UNL A   1      42.816  37.119  27.206  1.00  0.00     0.198 A 
ATOM     94  F   UNL A   1      41.526  35.358  28.084  1.00  0.00    -0.203 F 
ATOM     95  F   UNL A   1      46.334  37.889  27.599  1.00  0.00    -0.200 F 
ATOM     96  C   UNL A   1      44.032  37.772  27.082  1.00  0.00     0.200 A 
ATOM     97  F   UNL A   1      41.725  37.616  26.609  1.00  0.00    -0.200 F 
ATOM     98  F   UNL A   1      44.114  38.917  26.390  1.00  0.00    -0.200 F 
ENDBRANCH  64  88
BRANCH  76  99
ATOM     99  C   UNL A   1      42.066  34.291  35.228  1.00  0.00     0.064 A 
ATOM    100  C   UNL A   1      42.972  35.075  35.957  1.00  0.00     0.173 A 
ATOM    101  C   UNL A   1      40.696  34.450  35.495  1.00  0.00     0.173 A 
ATOM    102  F   UNL A   1      44.291  34.953  35.746  1.00  0.00    -0.203 F 
ATOM    103  C   UNL A   1      42.527  35.969  36.925  1.00  0.00     0.198 A 
ATOM    104  C   UNL A   1      40.253  35.374  36.437  1.00  0.00     0.198 A 
ATOM    105  F   UNL A   1      39.786  33.734  34.818  1.00  0.00    -0.203 F 
ATOM    106  F   UNL A   1      43.413  36.677  37.638  1.00  0.00    -0.200 F 
ATOM    107  C   UNL A   1      41.168  36.128  37.154  1.00  0.00     0.200 A 
ATOM    108  F   UNL A   1      38.938  35.543  36.639  1.00  0.00    -0.200 F 
ATOM    109  F   UNL A   1      40.740  37.008  38.070  1.00  0.00    -0.200 F 
ENDBRANCH  76  99
ENDBRANCH  50  51
ENDBRANCH  42  45
ENDBRANCH  40  41
ENDBRANCH  39  40
ENDBRANCH  38  39
ENDBRANCH   1  38
TORSDOF 18
ENDMDL
MODEL 2
REMARK VINA RESULT:     -10.0      1.430      2.409
REMARK SMILES CC1=C(C#N)c2nc(N)c(C#N)c(C)c2/C1=C/c1ccc(-c2ccc(C(=O)NCCCCCCNC(=O)c3ccc(-c4c5nc(c(-c6c(F)c(F)c(F)c(F)c6F)c6ccc([nH]6)c(-c6c(F)c(F)c(F)c(F)c6F)c6nc(c(-c7c(F)c(F)c(F)c(F)c7F)c7ccc4[nH]7)C=C6)C=C5)cc3)cc2)o1
REMARK SMILES IDX 31 1 30 2 29 3 28 4 26 5 27 6 25 8 22 9 23 10 102 11 24 12
REMARK SMILES IDX 101 13 21 14 18 15 19 16 103 17 20 18 17 19 1 20 2 21 3 22
REMARK SMILES IDX 16 23 6 24 15 25 7 26 13 27 8 28 10 29 14 30 4 31 5 32 9 33
REMARK SMILES IDX 11 36 12 37 32 38 33 39 34 40 35 41 36 42 37 44 38 45 39 46
REMARK SMILES IDX 100 47 40 48 99 49 41 50 42 51 43 52 93 53 44 54 98 55 92 56
REMARK SMILES IDX 94 57 45 58 97 59 91 60 90 61 46 63 78 64 58 65 77 66 59 67
REMARK SMILES IDX 62 68 76 69 95 70 60 71 61 72 75 74 96 75 63 76 47 77 48 78
REMARK SMILES IDX 56 79 49 80 50 81 54 82 57 83 51 84 52 85 55 86 53 87 79 88
REMARK SMILES IDX 80 89 88 90 81 91 82 92 86 93 89 94 83 95 84 96 87 97 85 98
REMARK SMILES IDX 64 99 65 100 73 101 66 102 67 103 71 104 74 105 68 106
REMARK SMILES IDX 69 107 72 108 70 109
REMARK H PARENT 28 7 9 34 9 35 35 43 94 62 62 73
REMARK Flexibility Score: inf
ROOT
ATOM      1  C   UNL A   1      44.004  24.186  25.002  1.00  0.00     0.002 C 
ENDROOT
BRANCH   1   2
ATOM      2  C   UNL A   1      43.109  22.939  25.051  1.00  0.00     0.021 C 
BRANCH   2   3
ATOM      3  C   UNL A   1      43.493  22.005  26.201  1.00  0.00     0.116 C 
BRANCH   3   4
ATOM      4  N   UNL A   1      42.295  21.516  26.851  1.00  0.00    -0.352 N 
ATOM      5  C   UNL A   1      41.268  22.127  27.518  1.00  0.00     0.251 C 
ATOM      6  O   UNL A   1      40.402  21.397  28.001  1.00  0.00    -0.269 OA
ATOM      7  H   UNL A   1      42.199  20.538  26.803  1.00  0.00     0.163 HD
BRANCH   5   8
ATOM      8  C   UNL A   1      41.117  23.606  27.634  1.00  0.00     0.039 A 
ATOM      9  C   UNL A   1      40.865  26.361  28.132  1.00  0.00     0.017 A 
ATOM     10  C   UNL A   1      41.980  25.670  28.608  1.00  0.00     0.013 A 
ATOM     11  C   UNL A   1      39.923  25.692  27.353  1.00  0.00     0.013 A 
ATOM     12  C   UNL A   1      42.091  24.295  28.379  1.00  0.00     0.014 A 
ATOM     13  C   UNL A   1      40.083  24.343  27.060  1.00  0.00     0.014 A 
BRANCH   9  14
ATOM     14  C   UNL A   1      40.660  27.768  28.357  1.00  0.00     0.134 A 
ATOM     15  C   UNL A   1      39.890  29.441  29.553  1.00  0.00     0.128 A 
ATOM     16  C   UNL A   1      40.765  29.971  28.615  1.00  0.00     0.051 A 
ATOM     17  O   UNL A   1      39.850  28.084  29.393  1.00  0.00    -0.457 OA
ATOM     18  C   UNL A   1      41.223  28.903  27.818  1.00  0.00     0.051 A 
BRANCH  15  19
ATOM     19  C   UNL A   1      39.114  30.104  30.525  1.00  0.00     0.056 C 
ATOM     20  C   UNL A   1      37.448  29.685  27.780  1.00  0.00     0.046 C 
ATOM     21  C   UNL A   1      37.084  30.414  29.036  1.00  0.00    -0.023 C 
ATOM     22  C   UNL A   1      35.909  31.042  29.217  1.00  0.00     0.082 C 
ATOM     23  C   UNL A   1      37.876  30.551  30.274  1.00  0.00    -0.008 C 
ATOM     24  C   UNL A   1      35.862  31.603  30.565  1.00  0.00     0.092 A 
ATOM     25  C   UNL A   1      37.051  31.307  31.248  1.00  0.00     0.014 A 
ATOM     26  N   UNL A   1      34.834  32.311  31.056  1.00  0.00    -0.228 NA
ATOM     27  C   UNL A   1      37.208  31.765  32.556  1.00  0.00    -0.019 A 
ATOM     28  C   UNL A   1      34.981  32.762  32.322  1.00  0.00     0.142 A 
ATOM     29  C   UNL A   1      36.138  32.520  33.095  1.00  0.00     0.098 A 
ATOM     30  C   UNL A   1      38.452  31.488  33.354  1.00  0.00     0.046 C 
BRANCH  22  31
ATOM     31  C   UNL A   1      34.848  31.109  28.130  1.00  0.00     0.102 C 
ATOM     32  N   UNL A   1      33.968  31.164  27.229  1.00  0.00    -0.192 NA
ENDBRANCH  22  31
BRANCH  28  33
ATOM     33  N   UNL A   1      33.950  33.565  32.768  1.00  0.00    -0.383 N 
ATOM     34  H   UNL A   1      33.600  33.454  33.682  1.00  0.00     0.158 HD
ATOM     35  H   UNL A   1      33.564  34.248  32.172  1.00  0.00     0.158 HD
ENDBRANCH  28  33
BRANCH  29  36
ATOM     36  C   UNL A   1      36.203  33.049  34.429  1.00  0.00     0.103 C 
ATOM     37  N   UNL A   1      36.236  33.485  35.502  1.00  0.00    -0.192 NA
ENDBRANCH  29  36
ENDBRANCH  15  19
ENDBRANCH   9  14
ENDBRANCH   5   8
ENDBRANCH   3   4
ENDBRANCH   2   3
ENDBRANCH   1   2
BRANCH   1  38
ATOM     38  C   UNL A   1      45.453  23.896  24.587  1.00  0.00     0.002 C 
BRANCH  38  39
ATOM     39  C   UNL A   1      46.408  23.684  25.763  1.00  0.00     0.021 C 
BRANCH  39  40
ATOM     40  C   UNL A   1      47.239  24.917  26.086  1.00  0.00     0.116 C 
BRANCH  40  41
ATOM     41  N   UNL A   1      47.373  25.778  24.920  1.00  0.00    -0.352 N 
ATOM     42  C   UNL A   1      46.816  27.008  24.690  1.00  0.00     0.251 C 
ATOM     43  H   UNL A   1      47.942  25.427  24.197  1.00  0.00     0.163 HD
ATOM     44  O   UNL A   1      46.783  27.480  23.559  1.00  0.00    -0.269 OA
BRANCH  42  45
ATOM     45  C   UNL A   1      46.249  27.756  25.826  1.00  0.00     0.039 A 
ATOM     46  C   UNL A   1      44.869  27.738  26.031  1.00  0.00     0.014 A 
ATOM     47  C   UNL A   1      47.089  28.467  26.690  1.00  0.00     0.014 A 
ATOM     48  C   UNL A   1      44.335  28.397  27.137  1.00  0.00     0.010 A 
ATOM     49  C   UNL A   1      46.565  29.046  27.837  1.00  0.00     0.010 A 
ATOM     50  C   UNL A   1      45.183  29.030  28.063  1.00  0.00    -0.014 A 
BRANCH  50  51
ATOM     51  C   UNL A   1      44.632  29.713  29.259  1.00  0.00     0.031 A 
ATOM     52  C   UNL A   1      44.367  28.924  30.510  1.00  0.00     0.074 A 
ATOM     53  C   UNL A   1      44.356  31.030  29.207  1.00  0.00     0.049 A 
ATOM     54  N   UNL A   1      43.859  29.327  31.647  1.00  0.00    -0.248 NA
ATOM     55  C   UNL A   1      44.701  27.489  30.480  1.00  0.00     0.031 C 
ATOM     56  C   UNL A   1      44.557  31.891  28.040  1.00  0.00     0.029 A 
ATOM     57  N   UNL A   1      43.858  31.879  30.163  1.00  0.00    -0.354 N 
ATOM     58  C   UNL A   1      43.829  28.204  32.463  1.00  0.00     0.074 A 
ATOM     59  C   UNL A   1      44.293  27.087  31.674  1.00  0.00     0.031 C 
ATOM     60  C   UNL A   1      44.227  33.152  28.362  1.00  0.00     0.029 A 
ATOM     61  C   UNL A   1      43.746  33.182  29.740  1.00  0.00     0.049 A 
ATOM     62  H   UNL A   1      43.603  31.583  31.067  1.00  0.00     0.167 HD
ATOM     63  C   UNL A   1      43.484  28.125  33.768  1.00  0.00     0.037 A 
ATOM     64  C   UNL A   1      43.304  34.274  30.394  1.00  0.00     0.037 A 
ATOM     65  C   UNL A   1      43.040  29.243  34.555  1.00  0.00     0.049 A 
ATOM     66  C   UNL A   1      42.850  34.130  31.825  1.00  0.00     0.074 A 
ATOM     67  C   UNL A   1      42.677  29.263  35.890  1.00  0.00     0.029 A 
ATOM     68  N   UNL A   1      42.905  30.539  34.081  1.00  0.00    -0.354 N 
ATOM     69  N   UNL A   1      42.871  33.074  32.599  1.00  0.00    -0.248 NA
ATOM     70  C   UNL A   1      42.312  35.336  32.472  1.00  0.00     0.031 C 
ATOM     71  C   UNL A   1      42.273  30.561  36.211  1.00  0.00     0.029 A 
ATOM     72  C   UNL A   1      42.443  31.363  35.094  1.00  0.00     0.049 A 
ATOM     73  H   UNL A   1      43.108  30.830  33.162  1.00  0.00     0.167 HD
ATOM     74  C   UNL A   1      42.389  33.495  33.832  1.00  0.00     0.074 A 
ATOM     75  C   UNL A   1      42.103  34.908  33.708  1.00  0.00     0.031 C 
ATOM     76  C   UNL A   1      42.191  32.774  34.962  1.00  0.00     0.037 A 
BRANCH  63  77
ATOM     77  C   UNL A   1      43.609  26.796  34.453  1.00  0.00     0.064 A 
ATOM     78  C   UNL A   1      42.482  25.991  34.682  1.00  0.00     0.173 A 
ATOM     79  C   UNL A   1      44.868  26.271  34.778  1.00  0.00     0.173 A 
ATOM     80  F   UNL A   1      41.254  26.453  34.403  1.00  0.00    -0.203 F 
ATOM     81  C   UNL A   1      42.613  24.709  35.207  1.00  0.00     0.198 A 
ATOM     82  C   UNL A   1      44.999  24.977  35.273  1.00  0.00     0.198 A 
ATOM     83  F   UNL A   1      45.977  27.000  34.575  1.00  0.00    -0.203 F 
ATOM     84  F   UNL A   1      41.522  23.966  35.434  1.00  0.00    -0.200 F 
ATOM     85  C   UNL A   1      43.870  24.197  35.487  1.00  0.00     0.200 A 
ATOM     86  F   UNL A   1      46.215  24.477  35.527  1.00  0.00    -0.200 F 
ATOM     87  F   UNL A   1      43.998  22.949  35.959  1.00  0.00    -0.200 F 
ENDBRANCH  63  77
BRANCH  64  88
ATOM     88  C   UNL A   1      43.289  35.603  29.725  1.00  0.00     0.064 A 
ATOM     89  C   UNL A   1      42.262  35.945  28.831  1.00  0.00     0.173 A 
ATOM     90  C   UNL A   1      44.311  36.542  29.928  1.00  0.00     0.173 A 
ATOM     91  F   UNL A   1      41.271  35.075  28.587  1.00  0.00    -0.203 F 
ATOM     92  C   UNL A   1      42.277  37.156  28.143  1.00  0.00     0.198 A 
ATOM     93  C   UNL A   1      44.304  37.770  29.267  1.00  0.00     0.198 A 
ATOM     94  F   UNL A   1      45.317  36.273  30.773  1.00  0.00    -0.203 F 
ATOM     95  F   UNL A   1      41.318  37.426  27.247  1.00  0.00    -0.200 F 
ATOM     96  C   UNL A   1      43.295  38.070  28.365  1.00  0.00     0.200 A 
ATOM     97  F   UNL A   1      45.281  38.658  29.498  1.00  0.00    -0.200 F 
ATOM     98  F   UNL A   1      43.311  39.234  27.701  1.00  0.00    -0.200 F 
ENDBRANCH  64  88
BRANCH  76  99
ATOM     99  C   UNL A   1      41.677  33.497  36.174  1.00  0.00     0.064 A 
ATOM    100  C   UNL A   1      42.545  34.113  37.086  1.00  0.00     0.173 A 
ATOM    101  C   UNL A   1      40.295  33.650  36.376  1.00  0.00     0.173 A 
ATOM    102  F   UNL A   1      43.873  33.989  36.942  1.00  0.00    -0.203 F 
ATOM    103  C   UNL A   1      42.052  34.838  38.166  1.00  0.00     0.198 A 
ATOM    104  C   UNL A   1      39.806  34.409  37.435  1.00  0.00     0.198 A 
ATOM    105  F   UNL A   1      39.420  33.092  35.526  1.00  0.00    -0.203 F 
ATOM    106  F   UNL A   1      42.901  35.383  39.048  1.00  0.00    -0.200 F 
ATOM    107  C   UNL A   1      40.684  34.997  38.332  1.00  0.00     0.200 A 
ATOM    108  F   UNL A   1      38.484  34.581  37.580  1.00  0.00    -0.200 F 
ATOM    109  F   UNL A   1      40.212  35.717  39.360  1.00  0.00    -0.200 F 
ENDBRANCH  76  99
ENDBRANCH  50  51
ENDBRANCH  42  45
ENDBRANCH  40  41
ENDBRANCH  39  40
ENDBRANCH  38  39
ENDBRANCH   1  38
TORSDOF 18
ENDMDL
MODEL 3
REMARK VINA RESULT:      -9.9      1.222      7.103
REMARK SMILES CC1=C(C#N)c2nc(N)c(C#N)c(C)c2/C1=C/c1ccc(-c2ccc(C(=O)NCCCCCCNC(=O)c3ccc(-c4c5nc(c(-c6c(F)c(F)c(F)c(F)c6F)c6ccc([nH]6)c(-c6c(F)c(F)c(F)c(F)c6F)c6nc(c(-c7c(F)c(F)c(F)c(F)c7F)c7ccc4[nH]7)C=C6)C=C5)cc3)cc2)o1
REMARK SMILES IDX 31 1 30 2 29 3 28 4 26 5 27 6 25 8 22 9 23 10 102 11 24 12
REMARK SMILES IDX 101 13 21 14 18 15 19 16 103 17 20 18 17 19 1 20 2 21 3 22
REMARK SMILES IDX 16 23 6 24 15 25 7 26 13 27 8 28 10 29 14 30 4 31 5 32 9 33
REMARK SMILES IDX 11 36 12 37 32 38 33 39 34 40 35 41 36 42 37 44 38 45 39 46
REMARK SMILES IDX 100 47 40 48 99 49 41 50 42 51 43 52 93 53 44 54 98 55 92 56
REMARK SMILES IDX 94 57 45 58 97 59 91 60 90 61 46 63 78 64 58 65 77 66 59 67
REMARK SMILES IDX 62 68 76 69 95 70 60 71 61 72 75 74 96 75 63 76 47 77 48 78
REMARK SMILES IDX 56 79 49 80 50 81 54 82 57 83 51 84 52 85 55 86 53 87 79 88
REMARK SMILES IDX 80 89 88 90 81 91 82 92 86 93 89 94 83 95 84 96 87 97 85 98
REMARK SMILES IDX 64 99 65 100 73 101 66 102 67 103 71 104 74 105 68 106
REMARK SMILES IDX 69 107 72 108 70 109
REMARK H PARENT 28 7 9 34 9 35 35 43 94 62 62 73
REMARK Flexibility Score: inf
ROOT
ATOM      1  C   UNL A   1      43.924  24.050  25.097  1.00  0.00     0.002 C 
ENDROOT
BRANCH   1   2
ATOM      2  C   UNL A   1      42.944  22.869  25.031  1.00  0.00     0.021 C 
BRANCH   2   3
ATOM      3  C   UNL A   1      43.396  21.701  25.909  1.00  0.00     0.116 C 
BRANCH   3   4
ATOM      4  N   UNL A   1      42.281  21.228  26.702  1.00  0.00    -0.352 N 
ATOM      5  C   UNL A   1      41.385  21.847  27.531  1.00  0.00     0.251 C 
ATOM      6  O   UNL A   1      40.564  21.129  28.102  1.00  0.00    -0.269 OA
ATOM      7  H   UNL A   1      42.137  20.257  26.630  1.00  0.00     0.163 HD
BRANCH   5   8
ATOM      8  C   UNL A   1      41.316  23.323  27.726  1.00  0.00     0.039 A 
ATOM      9  C   UNL A   1      41.221  26.058  28.368  1.00  0.00     0.017 A 
ATOM     10  C   UNL A   1      42.305  25.285  28.788  1.00  0.00     0.013 A 
ATOM     11  C   UNL A   1      40.232  25.482  27.574  1.00  0.00     0.013 A 
ATOM     12  C   UNL A   1      42.337  23.919  28.487  1.00  0.00     0.014 A 
ATOM     13  C   UNL A   1      40.314  24.143  27.209  1.00  0.00     0.014 A 
BRANCH   9  14
ATOM     14  C   UNL A   1      41.096  27.461  28.668  1.00  0.00     0.134 A 
ATOM     15  C   UNL A   1      40.453  29.108  29.972  1.00  0.00     0.128 A 
ATOM     16  C   UNL A   1      41.322  29.640  29.030  1.00  0.00     0.051 A 
ATOM     17  O   UNL A   1      40.338  27.764  29.747  1.00  0.00    -0.457 OA
ATOM     18  C   UNL A   1      41.698  28.592  28.165  1.00  0.00     0.051 A 
BRANCH  15  19
ATOM     19  C   UNL A   1      39.745  29.758  31.002  1.00  0.00     0.056 C 
ATOM     20  C   UNL A   1      37.977  29.581  28.294  1.00  0.00     0.046 C 
ATOM     21  C   UNL A   1      37.693  30.260  29.598  1.00  0.00    -0.023 C 
ATOM     22  C   UNL A   1      36.561  30.941  29.850  1.00  0.00     0.082 C 
ATOM     23  C   UNL A   1      38.527  30.285  30.815  1.00  0.00    -0.008 C 
ATOM     24  C   UNL A   1      36.586  31.429  31.226  1.00  0.00     0.092 A 
ATOM     25  C   UNL A   1      37.775  31.031  31.853  1.00  0.00     0.014 A 
ATOM     26  N   UNL A   1      35.614  32.165  31.787  1.00  0.00    -0.228 NA
ATOM     27  C   UNL A   1      37.997  31.408  33.178  1.00  0.00    -0.019 A 
ATOM     28  C   UNL A   1      35.824  32.538  33.069  1.00  0.00     0.142 A 
ATOM     29  C   UNL A   1      36.987  32.191  33.790  1.00  0.00     0.098 A 
ATOM     30  C   UNL A   1      39.246  31.021  33.919  1.00  0.00     0.046 C 
BRANCH  22  31
ATOM     31  C   UNL A   1      35.474  31.125  28.803  1.00  0.00     0.102 C 
ATOM     32  N   UNL A   1      34.572  31.278  27.936  1.00  0.00    -0.192 NA
ENDBRANCH  22  31
BRANCH  28  33
ATOM     33  N   UNL A   1      34.853  33.371  33.591  1.00  0.00    -0.383 N 
ATOM     34  H   UNL A   1      34.901  33.651  34.533  1.00  0.00     0.158 HD
ATOM     35  H   UNL A   1      34.114  33.683  33.020  1.00  0.00     0.158 HD
ENDBRANCH  28  33
BRANCH  29  36
ATOM     36  C   UNL A   1      37.122  32.642  35.148  1.00  0.00     0.103 C 
ATOM     37  N   UNL A   1      37.252  33.011  36.239  1.00  0.00    -0.192 NA
ENDBRANCH  29  36
ENDBRANCH  15  19
ENDBRANCH   9  14
ENDBRANCH   5   8
ENDBRANCH   3   4
ENDBRANCH   2   3
ENDBRANCH   1   2
BRANCH   1  38
ATOM     38  C   UNL A   1      45.324  23.728  24.559  1.00  0.00     0.002 C 
BRANCH  38  39
ATOM     39  C   UNL A   1      46.358  23.433  25.647  1.00  0.00     0.021 C 
BRANCH  39  40
ATOM     40  C   UNL A   1      47.232  24.633  25.980  1.00  0.00     0.116 C 
BRANCH  40  41
ATOM     41  N   UNL A   1      47.521  25.417  24.788  1.00  0.00    -0.352 N 
ATOM     42  C   UNL A   1      47.139  26.697  24.485  1.00  0.00     0.251 C 
ATOM     43  H   UNL A   1      48.065  24.964  24.104  1.00  0.00     0.163 HD
ATOM     44  O   UNL A   1      47.209  27.119  23.337  1.00  0.00    -0.269 OA
BRANCH  42  45
ATOM     45  C   UNL A   1      46.632  27.562  25.567  1.00  0.00     0.039 A 
ATOM     46  C   UNL A   1      45.254  27.701  25.737  1.00  0.00     0.014 A 
ATOM     47  C   UNL A   1      47.527  28.227  26.412  1.00  0.00     0.014 A 
ATOM     48  C   UNL A   1      44.773  28.473  26.794  1.00  0.00     0.010 A 
ATOM     49  C   UNL A   1      47.046  28.920  27.514  1.00  0.00     0.010 A 
ATOM     50  C   UNL A   1      45.665  29.062  27.706  1.00  0.00    -0.014 A 
BRANCH  50  51
ATOM     51  C   UNL A   1      45.167  29.864  28.850  1.00  0.00     0.031 A 
ATOM     52  C   UNL A   1      45.033  31.355  28.711  1.00  0.00     0.074 A 
ATOM     53  C   UNL A   1      44.857  29.252  30.009  1.00  0.00     0.049 A 
ATOM     54  N   UNL A   1      44.648  32.234  29.601  1.00  0.00    -0.248 NA
ATOM     55  C   UNL A   1      45.390  31.940  27.407  1.00  0.00     0.031 C 
ATOM     56  C   UNL A   1      44.965  27.814  30.261  1.00  0.00     0.029 A 
ATOM     57  N   UNL A   1      44.377  29.760  31.190  1.00  0.00    -0.354 N 
ATOM     58  C   UNL A   1      44.705  33.465  28.961  1.00  0.00     0.074 A 
ATOM     59  C   UNL A   1      45.233  33.235  27.636  1.00  0.00     0.031 C 
ATOM     60  C   UNL A   1      44.523  27.551  31.501  1.00  0.00     0.029 A 
ATOM     61  C   UNL A   1      44.146  28.803  32.149  1.00  0.00     0.049 A 
ATOM     62  H   UNL A   1      44.214  30.720  31.337  1.00  0.00     0.167 HD
ATOM     63  C   UNL A   1      44.309  34.671  29.426  1.00  0.00     0.037 A 
ATOM     64  C   UNL A   1      43.683  28.929  33.408  1.00  0.00     0.037 A 
ATOM     65  C   UNL A   1      43.767  34.892  30.738  1.00  0.00     0.049 A 
ATOM     66  C   UNL A   1      43.329  30.302  33.920  1.00  0.00     0.074 A 
ATOM     67  C   UNL A   1      43.329  36.079  31.298  1.00  0.00     0.029 A 
ATOM     68  N   UNL A   1      43.583  33.904  31.694  1.00  0.00    -0.354 N 
ATOM     69  N   UNL A   1      43.342  31.451  33.289  1.00  0.00    -0.248 NA
ATOM     70  C   UNL A   1      42.894  30.394  35.321  1.00  0.00     0.031 C 
ATOM     71  C   UNL A   1      42.927  35.819  32.610  1.00  0.00     0.029 A 
ATOM     72  C   UNL A   1      43.056  34.461  32.848  1.00  0.00     0.049 A 
ATOM     73  H   UNL A   1      43.794  32.950  31.570  1.00  0.00     0.167 HD
ATOM     74  C   UNL A   1      42.881  32.392  34.201  1.00  0.00     0.074 A 
ATOM     75  C   UNL A   1      42.578  31.676  35.422  1.00  0.00     0.031 C 
ATOM     76  C   UNL A   1      42.732  33.729  34.045  1.00  0.00     0.037 A 
BRANCH  63  77
ATOM     77  C   UNL A   1      44.404  35.850  28.504  1.00  0.00     0.064 A 
ATOM     78  C   UNL A   1      43.279  36.314  27.804  1.00  0.00     0.173 A 
ATOM     79  C   UNL A   1      45.590  36.592  28.406  1.00  0.00     0.173 A 
ATOM     80  F   UNL A   1      42.125  35.632  27.853  1.00  0.00    -0.203 F 
ATOM     81  C   UNL A   1      43.339  37.479  27.044  1.00  0.00     0.198 A 
ATOM     82  C   UNL A   1      45.639  37.773  27.671  1.00  0.00     0.198 A 
ATOM     83  F   UNL A   1      46.694  36.192  29.058  1.00  0.00    -0.203 F 
ATOM     84  F   UNL A   1      42.258  37.892  26.370  1.00  0.00    -0.200 F 
ATOM     85  C   UNL A   1      44.512  38.215  26.991  1.00  0.00     0.200 A 
ATOM     86  F   UNL A   1      46.768  38.493  27.635  1.00  0.00    -0.200 F 
ATOM     87  F   UNL A   1      44.558  39.355  26.288  1.00  0.00    -0.200 F 
ENDBRANCH  63  77
BRANCH  64  88
ATOM     88  C   UNL A   1      43.498  27.729  34.269  1.00  0.00     0.064 A 
ATOM     89  C   UNL A   1      42.251  27.089  34.350  1.00  0.00     0.173 A 
ATOM     90  C   UNL A   1      44.540  27.218  35.055  1.00  0.00     0.173 A 
ATOM     91  F   UNL A   1      41.216  27.550  33.633  1.00  0.00    -0.203 F 
ATOM     92  C   UNL A   1      42.046  26.012  35.208  1.00  0.00     0.198 A 
ATOM     93  C   UNL A   1      44.344  26.114  35.885  1.00  0.00     0.198 A 
ATOM     94  F   UNL A   1      45.755  27.785  35.017  1.00  0.00    -0.203 F 
ATOM     95  F   UNL A   1      40.827  25.464  35.313  1.00  0.00    -0.200 F 
ATOM     96  C   UNL A   1      43.095  25.522  35.971  1.00  0.00     0.200 A 
ATOM     97  F   UNL A   1      45.365  25.633  36.608  1.00  0.00    -0.200 F 
ATOM     98  F   UNL A   1      42.897  24.486  36.799  1.00  0.00    -0.200 F 
ENDBRANCH  64  88
BRANCH  76  99
ATOM     99  C   UNL A   1      42.182  34.513  35.202  1.00  0.00     0.064 A 
ATOM    100  C   UNL A   1      43.023  35.108  36.153  1.00  0.00     0.173 A 
ATOM    101  C   UNL A   1      40.800  34.744  35.310  1.00  0.00     0.173 A 
ATOM    102  F   UNL A   1      44.348  34.910  36.099  1.00  0.00    -0.203 F 
ATOM    103  C   UNL A   1      42.502  35.890  37.179  1.00  0.00     0.198 A 
ATOM    104  C   UNL A   1      40.287  35.558  36.315  1.00  0.00     0.198 A 
ATOM    105  F   UNL A   1      39.952  34.209  34.419  1.00  0.00    -0.203 F 
ATOM    106  F   UNL A   1      43.321  36.414  38.100  1.00  0.00    -0.200 F 
ATOM    107  C   UNL A   1      41.137  36.125  37.252  1.00  0.00     0.200 A 
ATOM    108  F   UNL A   1      38.970  35.804  36.369  1.00  0.00    -0.200 F 
ATOM    109  F   UNL A   1      40.640  36.898  38.228  1.00  0.00    -0.200 F 
ENDBRANCH  76  99
ENDBRANCH  50  51
ENDBRANCH  42  45
ENDBRANCH  40  41
ENDBRANCH  39  40
ENDBRANCH  38  39
ENDBRANCH   1  38
TORSDOF 18
ENDMDL
