MODEL 1
REMARK VINA RESULT:     -11.9      0.000      0.000
REMARK SMILES CCCNC(=O)N1[C@@H](C(=O)NCCCCCCNC(=O)c2ccc(-c3c4nc(c(-c5c(F)c(F)c(F)c(F)c5F)c5ccc([nH]5)c(-c5c(F)c(F)c(F)c(F)c5F)c5nc(c(-c6c(F)c(F)c(F)c(F)c6F)c6ccc3[nH]6)C=C5)C=C4)cc2)CC[C@H]2CCCC[C@@H]21
REMARK SMILES IDX 14 1 13 2 12 3 11 4 9 5 10 6 8 8 7 9 91 10 84 11 86 12 90 13
REMARK SMILES IDX 85 14 87 15 89 16 88 17 5 18 4 19 6 21 3 22 2 23 1 24 15 25
REMARK SMILES IDX 16 26 17 27 18 28 19 29 20 31 21 32 22 33 83 34 23 35 82 36
REMARK SMILES IDX 24 37 25 38 26 39 76 40 27 41 81 42 75 43 77 44 28 45 80 46
REMARK SMILES IDX 74 47 73 48 29 50 61 51 41 52 60 53 42 54 45 55 59 56 78 57
REMARK SMILES IDX 43 58 44 59 58 61 79 62 46 63 30 64 31 65 39 66 32 67 33 68
REMARK SMILES IDX 37 69 40 70 34 71 35 72 38 73 36 74 62 75 63 76 71 77 64 78
REMARK SMILES IDX 65 79 69 80 72 81 66 82 67 83 70 84 68 85 47 86 48 87 56 88
REMARK SMILES IDX 49 89 50 90 54 91 57 92 51 93 52 94 55 95 53 96
REMARK H PARENT 11 7 4 20 18 30 77 49 45 60
REMARK Flexibility Score: inf
ROOT
ATOM      1  C   UNL A   1      37.685  22.505  25.388  1.00  0.00     0.002 C 
ENDROOT
BRANCH   1   2
ATOM      2  C   UNL A   1      36.606  23.589  25.415  1.00  0.00     0.021 C 
BRANCH   2   3
ATOM      3  C   UNL A   1      35.404  23.281  26.302  1.00  0.00     0.116 C 
BRANCH   3   4
ATOM      4  N   UNL A   1      34.246  22.825  25.555  1.00  0.00    -0.354 N 
ATOM      5  C   UNL A   1      33.301  23.569  24.887  1.00  0.00     0.242 C 
ATOM      6  O   UNL A   1      32.584  22.985  24.074  1.00  0.00    -0.273 OA
ATOM      7  H   UNL A   1      34.119  21.850  25.520  1.00  0.00     0.163 HD
BRANCH   5   8
ATOM      8  C   UNL A   1      33.310  25.109  25.087  1.00  0.00     0.176 C 
ATOM      9  N   UNL A   1      32.091  25.804  25.510  1.00  0.00    -0.310 N 
ATOM     10  C   UNL A   1      32.201  27.255  25.717  1.00  0.00     0.091 C 
ATOM     11  C   UNL A   1      33.717  25.696  23.708  1.00  0.00     0.036 C 
ATOM     12  C   UNL A   1      33.403  27.851  24.958  1.00  0.00     0.012 C 
ATOM     13  C   UNL A   1      32.290  27.698  27.185  1.00  0.00     0.025 C 
ATOM     14  C   UNL A   1      33.502  27.211  23.579  1.00  0.00     0.008 C 
ATOM     15  C   UNL A   1      33.264  29.372  24.924  1.00  0.00     0.006 C 
ATOM     16  C   UNL A   1      32.201  29.229  27.251  1.00  0.00     0.002 C 
ATOM     17  C   UNL A   1      33.225  29.931  26.350  1.00  0.00     0.000 C 
BRANCH   9  18
ATOM     18  C   UNL A   1      31.020  25.107  26.007  1.00  0.00     0.318 C 
ATOM     19  N   UNL A   1      29.886  25.097  25.245  1.00  0.00    -0.338 N 
ATOM     20  H   UNL A   1      29.088  24.716  25.677  1.00  0.00     0.165 HD
ATOM     21  O   UNL A   1      31.054  24.501  27.074  1.00  0.00    -0.249 OA
BRANCH  19  22
ATOM     22  C   UNL A   1      29.696  25.571  23.883  1.00  0.00     0.117 C 
BRANCH  22  23
ATOM     23  C   UNL A   1      28.911  26.873  23.773  1.00  0.00     0.018 C 
ATOM     24  C   UNL A   1      29.726  28.025  23.218  1.00  0.00     0.006 C 
ENDBRANCH  22  23
ENDBRANCH  19  22
ENDBRANCH   9  18
ENDBRANCH   5   8
ENDBRANCH   3   4
ENDBRANCH   2   3
ENDBRANCH   1   2
BRANCH   1  25
ATOM     25  C   UNL A   1      37.309  21.216  24.651  1.00  0.00     0.002 C 
BRANCH  25  26
ATOM     26  C   UNL A   1      38.151  19.987  25.001  1.00  0.00     0.021 C 
BRANCH  26  27
ATOM     27  C   UNL A   1      39.258  20.230  26.023  1.00  0.00     0.116 C 
BRANCH  27  28
ATOM     28  N   UNL A   1      40.258  19.174  26.025  1.00  0.00    -0.352 N 
ATOM     29  C   UNL A   1      41.623  19.261  26.125  1.00  0.00     0.251 C 
ATOM     30  H   UNL A   1      39.902  18.260  25.942  1.00  0.00     0.163 HD
ATOM     31  O   UNL A   1      42.322  18.267  25.937  1.00  0.00    -0.269 OA
BRANCH  29  32
ATOM     32  C   UNL A   1      42.264  20.558  26.429  1.00  0.00     0.039 A 
ATOM     33  C   UNL A   1      42.704  21.354  25.368  1.00  0.00     0.014 A 
ATOM     34  C   UNL A   1      42.427  20.993  27.747  1.00  0.00     0.014 A 
ATOM     35  C   UNL A   1      43.230  22.622  25.626  1.00  0.00     0.010 A 
ATOM     36  C   UNL A   1      42.885  22.284  27.999  1.00  0.00     0.010 A 
ATOM     37  C   UNL A   1      43.279  23.116  26.940  1.00  0.00    -0.014 A 
BRANCH  37  38
ATOM     38  C   UNL A   1      43.690  24.518  27.213  1.00  0.00     0.031 A 
ATOM     39  C   UNL A   1      42.689  25.532  27.690  1.00  0.00     0.074 A 
ATOM     40  C   UNL A   1      44.960  24.890  26.964  1.00  0.00     0.049 A 
ATOM     41  N   UNL A   1      42.854  26.809  27.923  1.00  0.00    -0.248 NA
ATOM     42  C   UNL A   1      41.317  25.053  27.912  1.00  0.00     0.031 C 
ATOM     43  C   UNL A   1      46.013  24.009  26.454  1.00  0.00     0.029 A 
ATOM     44  N   UNL A   1      45.582  26.107  27.094  1.00  0.00    -0.354 N 
ATOM     45  C   UNL A   1      41.611  27.287  28.314  1.00  0.00     0.074 A 
ATOM     46  C   UNL A   1      40.688  26.175  28.235  1.00  0.00     0.031 C 
ATOM     47  C   UNL A   1      47.154  24.707  26.339  1.00  0.00     0.029 A 
ATOM     48  C   UNL A   1      46.904  26.093  26.719  1.00  0.00     0.049 A 
ATOM     49  H   UNL A   1      45.125  26.914  27.425  1.00  0.00     0.167 HD
ATOM     50  C   UNL A   1      41.276  28.536  28.723  1.00  0.00     0.037 A 
ATOM     51  C   UNL A   1      47.811  27.088  26.671  1.00  0.00     0.037 A 
ATOM     52  C   UNL A   1      42.202  29.636  28.808  1.00  0.00     0.049 A 
ATOM     53  C   UNL A   1      47.401  28.472  27.095  1.00  0.00     0.074 A 
ATOM     54  C   UNL A   1      41.973  30.921  29.270  1.00  0.00     0.029 A 
ATOM     55  N   UNL A   1      43.530  29.587  28.411  1.00  0.00    -0.354 N 
ATOM     56  N   UNL A   1      46.242  28.893  27.540  1.00  0.00    -0.248 NA
ATOM     57  C   UNL A   1      48.428  29.521  27.009  1.00  0.00     0.031 C 
ATOM     58  C   UNL A   1      43.143  31.665  29.093  1.00  0.00     0.029 A 
ATOM     59  C   UNL A   1      44.121  30.829  28.579  1.00  0.00     0.049 A 
ATOM     60  H   UNL A   1      43.985  28.787  28.061  1.00  0.00     0.167 HD
ATOM     61  C   UNL A   1      46.405  30.246  27.806  1.00  0.00     0.074 A 
ATOM     62  C   UNL A   1      47.781  30.570  27.497  1.00  0.00     0.031 C 
ATOM     63  C   UNL A   1      45.492  31.141  28.259  1.00  0.00     0.037 A 
BRANCH  50  64
ATOM     64  C   UNL A   1      39.844  28.783  29.106  1.00  0.00     0.064 A 
ATOM     65  C   UNL A   1      39.396  28.625  30.427  1.00  0.00     0.173 A 
ATOM     66  C   UNL A   1      38.919  29.232  28.151  1.00  0.00     0.173 A 
ATOM     67  F   UNL A   1      40.237  28.191  31.378  1.00  0.00    -0.203 F 
ATOM     68  C   UNL A   1      38.070  28.876  30.770  1.00  0.00     0.198 A 
ATOM     69  C   UNL A   1      37.602  29.515  28.505  1.00  0.00     0.198 A 
ATOM     70  F   UNL A   1      39.294  29.409  26.876  1.00  0.00    -0.203 F 
ATOM     71  F   UNL A   1      37.655  28.670  32.027  1.00  0.00    -0.200 F 
ATOM     72  C   UNL A   1      37.177  29.329  29.811  1.00  0.00     0.200 A 
ATOM     73  F   UNL A   1      36.745  29.968  27.580  1.00  0.00    -0.200 F 
ATOM     74  F   UNL A   1      35.904  29.581  30.145  1.00  0.00    -0.200 F 
ENDBRANCH  50  64
BRANCH  51  75
ATOM     75  C   UNL A   1      49.196  26.811  26.207  1.00  0.00     0.064 A 
ATOM     76  C   UNL A   1      49.558  26.994  24.865  1.00  0.00     0.173 A 
ATOM     77  C   UNL A   1      50.183  26.349  27.090  1.00  0.00     0.173 A 
ATOM     78  F   UNL A   1      48.645  27.414  23.977  1.00  0.00    -0.203 F 
ATOM     79  C   UNL A   1      50.846  26.705  24.420  1.00  0.00     0.198 A 
ATOM     80  C   UNL A   1      51.480  26.092  26.651  1.00  0.00     0.198 A 
ATOM     81  F   UNL A   1      49.891  26.159  28.385  1.00  0.00    -0.203 F 
ATOM     82  F   UNL A   1      51.150  26.841  23.123  1.00  0.00    -0.200 F 
ATOM     83  C   UNL A   1      51.808  26.260  25.315  1.00  0.00     0.200 A 
ATOM     84  F   UNL A   1      52.410  25.679  27.522  1.00  0.00    -0.200 F 
ATOM     85  F   UNL A   1      53.048  25.988  24.887  1.00  0.00    -0.200 F 
ENDBRANCH  51  75
BRANCH  63  86
ATOM     86  C   UNL A   1      45.957  32.555  28.460  1.00  0.00     0.064 A 
ATOM     87  C   UNL A   1      46.486  32.987  29.686  1.00  0.00     0.173 A 
ATOM     88  C   UNL A   1      45.907  33.481  27.406  1.00  0.00     0.173 A 
ATOM     89  F   UNL A   1      46.541  32.147  30.731  1.00  0.00    -0.203 F 
ATOM     90  C   UNL A   1      46.921  34.298  29.856  1.00  0.00     0.198 A 
ATOM     91  C   UNL A   1      46.376  34.782  27.570  1.00  0.00     0.198 A 
ATOM     92  F   UNL A   1      45.416  33.119  26.211  1.00  0.00    -0.203 F 
ATOM     93  F   UNL A   1      47.374  34.702  31.052  1.00  0.00    -0.200 F 
ATOM     94  C   UNL A   1      46.874  35.192  28.797  1.00  0.00     0.200 A 
ATOM     95  F   UNL A   1      46.343  35.638  26.540  1.00  0.00    -0.200 F 
ATOM     96  F   UNL A   1      47.303  36.450  28.960  1.00  0.00    -0.200 F 
ENDBRANCH  63  86
ENDBRANCH  37  38
ENDBRANCH  29  32
ENDBRANCH  27  28
ENDBRANCH  26  27
ENDBRANCH  25  26
ENDBRANCH   1  25
TORSDOF 16
ENDMDL
MODEL 2
REMARK VINA RESULT:     -11.9      0.215      1.590
REMARK SMILES CCCNC(=O)N1[C@@H](C(=O)NCCCCCCNC(=O)c2ccc(-c3c4nc(c(-c5c(F)c(F)c(F)c(F)c5F)c5ccc([nH]5)c(-c5c(F)c(F)c(F)c(F)c5F)c5nc(c(-c6c(F)c(F)c(F)c(F)c6F)c6ccc3[nH]6)C=C5)C=C4)cc2)CC[C@H]2CCCC[C@@H]21
REMARK SMILES IDX 14 1 13 2 12 3 11 4 9 5 10 6 8 8 7 9 91 10 84 11 86 12 90 13
REMARK SMILES IDX 85 14 87 15 89 16 88 17 5 18 4 19 6 21 3 22 2 23 1 24 15 25
REMARK SMILES IDX 16 26 17 27 18 28 19 29 20 31 21 32 22 33 83 34 23 35 82 36
REMARK SMILES IDX 24 37 25 38 26 39 76 40 27 41 81 42 75 43 77 44 28 45 80 46
REMARK SMILES IDX 74 47 73 48 29 50 61 51 41 52 60 53 42 54 45 55 59 56 78 57
REMARK SMILES IDX 43 58 44 59 58 61 79 62 46 63 30 64 31 65 39 66 32 67 33 68
REMARK SMILES IDX 37 69 40 70 34 71 35 72 38 73 36 74 62 75 63 76 71 77 64 78
REMARK SMILES IDX 65 79 69 80 72 81 66 82 67 83 70 84 68 85 47 86 48 87 56 88
REMARK SMILES IDX 49 89 50 90 54 91 57 92 51 93 52 94 55 95 53 96
REMARK H PARENT 11 7 4 20 18 30 77 49 45 60
REMARK Flexibility Score: inf
ROOT
ATOM      1  C   UNL A   1      37.332  22.371  25.579  1.00  0.00     0.002 C 
ENDROOT
BRANCH   1   2
ATOM      2  C   UNL A   1      36.292  23.481  25.412  1.00  0.00     0.021 C 
BRANCH   2   3
ATOM      3  C   UNL A   1      35.002  23.280  26.203  1.00  0.00     0.116 C 
BRANCH   3   4
ATOM      4  N   UNL A   1      33.870  22.925  25.366  1.00  0.00    -0.354 N 
ATOM      5  C   UNL A   1      33.011  23.750  24.680  1.00  0.00     0.242 C 
ATOM      6  O   UNL A   1      32.315  23.245  23.798  1.00  0.00    -0.273 OA
ATOM      7  H   UNL A   1      33.693  21.960  25.277  1.00  0.00     0.163 HD
BRANCH   5   8
ATOM      8  C   UNL A   1      33.090  25.276  24.953  1.00  0.00     0.176 C 
ATOM      9  N   UNL A   1      31.900  26.009  25.396  1.00  0.00    -0.310 N 
ATOM     10  C   UNL A   1      32.077  27.441  25.674  1.00  0.00     0.091 C 
ATOM     11  C   UNL A   1      33.543  25.908  23.609  1.00  0.00     0.036 C 
ATOM     12  C   UNL A   1      33.315  28.014  24.957  1.00  0.00     0.012 C 
ATOM     13  C   UNL A   1      32.167  27.809  27.162  1.00  0.00     0.025 C 
ATOM     14  C   UNL A   1      33.402  27.436  23.550  1.00  0.00     0.008 C 
ATOM     15  C   UNL A   1      33.249  29.539  24.995  1.00  0.00     0.006 C 
ATOM     16  C   UNL A   1      32.151  29.337  27.301  1.00  0.00     0.002 C 
ATOM     17  C   UNL A   1      33.218  30.032  26.446  1.00  0.00     0.000 C 
BRANCH   9  18
ATOM     18  C   UNL A   1      30.791  25.341  25.848  1.00  0.00     0.318 C 
ATOM     19  N   UNL A   1      29.688  25.366  25.042  1.00  0.00    -0.338 N 
ATOM     20  H   UNL A   1      28.863  25.007  25.441  1.00  0.00     0.165 HD
ATOM     21  O   UNL A   1      30.766  24.731  26.913  1.00  0.00    -0.249 OA
BRANCH  19  22
ATOM     22  C   UNL A   1      29.565  25.850  23.676  1.00  0.00     0.117 C 
BRANCH  22  23
ATOM     23  C   UNL A   1      28.974  27.250  23.554  1.00  0.00     0.018 C 
ATOM     24  C   UNL A   1      29.871  28.223  22.814  1.00  0.00     0.006 C 
ENDBRANCH  22  23
ENDBRANCH  19  22
ENDBRANCH   9  18
ENDBRANCH   5   8
ENDBRANCH   3   4
ENDBRANCH   2   3
ENDBRANCH   1   2
BRANCH   1  25
ATOM     25  C   UNL A   1      36.966  21.022  24.952  1.00  0.00     0.002 C 
BRANCH  25  26
ATOM     26  C   UNL A   1      38.074  19.967  24.965  1.00  0.00     0.021 C 
BRANCH  26  27
ATOM     27  C   UNL A   1      39.235  20.258  25.911  1.00  0.00     0.116 C 
BRANCH  27  28
ATOM     28  N   UNL A   1      40.218  19.188  25.934  1.00  0.00    -0.352 N 
ATOM     29  C   UNL A   1      41.582  19.254  26.078  1.00  0.00     0.251 C 
ATOM     30  H   UNL A   1      39.852  18.280  25.831  1.00  0.00     0.163 HD
ATOM     31  O   UNL A   1      42.271  18.252  25.901  1.00  0.00    -0.269 OA
BRANCH  29  32
ATOM     32  C   UNL A   1      42.231  20.538  26.414  1.00  0.00     0.039 A 
ATOM     33  C   UNL A   1      42.775  21.306  25.380  1.00  0.00     0.014 A 
ATOM     34  C   UNL A   1      42.301  20.990  27.734  1.00  0.00     0.014 A 
ATOM     35  C   UNL A   1      43.313  22.563  25.661  1.00  0.00     0.010 A 
ATOM     36  C   UNL A   1      42.773  22.273  28.004  1.00  0.00     0.010 A 
ATOM     37  C   UNL A   1      43.271  23.077  26.969  1.00  0.00    -0.014 A 
BRANCH  37  38
ATOM     38  C   UNL A   1      43.697  24.473  27.254  1.00  0.00     0.031 A 
ATOM     39  C   UNL A   1      42.706  25.494  27.733  1.00  0.00     0.074 A 
ATOM     40  C   UNL A   1      44.973  24.832  27.014  1.00  0.00     0.049 A 
ATOM     41  N   UNL A   1      42.884  26.768  27.977  1.00  0.00    -0.248 NA
ATOM     42  C   UNL A   1      41.326  25.030  27.945  1.00  0.00     0.031 C 
ATOM     43  C   UNL A   1      46.018  23.942  26.503  1.00  0.00     0.029 A 
ATOM     44  N   UNL A   1      45.608  26.040  27.157  1.00  0.00    -0.354 N 
ATOM     45  C   UNL A   1      41.645  27.258  28.364  1.00  0.00     0.074 A 
ATOM     46  C   UNL A   1      40.709  26.157  28.272  1.00  0.00     0.031 C 
ATOM     47  C   UNL A   1      47.167  24.627  26.399  1.00  0.00     0.029 A 
ATOM     48  C   UNL A   1      46.932  26.013  26.788  1.00  0.00     0.049 A 
ATOM     49  H   UNL A   1      45.158  26.850  27.491  1.00  0.00     0.167 HD
ATOM     50  C   UNL A   1      41.322  28.507  28.781  1.00  0.00     0.037 A 
ATOM     51  C   UNL A   1      47.850  26.998  26.753  1.00  0.00     0.037 A 
ATOM     52  C   UNL A   1      42.260  29.596  28.879  1.00  0.00     0.049 A 
ATOM     53  C   UNL A   1      47.454  28.383  27.184  1.00  0.00     0.074 A 
ATOM     54  C   UNL A   1      42.044  30.879  29.350  1.00  0.00     0.029 A 
ATOM     55  N   UNL A   1      43.589  29.534  28.488  1.00  0.00    -0.354 N 
ATOM     56  N   UNL A   1      46.298  28.815  27.627  1.00  0.00    -0.248 NA
ATOM     57  C   UNL A   1      48.494  29.421  27.112  1.00  0.00     0.031 C 
ATOM     58  C   UNL A   1      43.224  31.611  29.184  1.00  0.00     0.029 A 
ATOM     59  C   UNL A   1      44.195  30.768  28.669  1.00  0.00     0.049 A 
ATOM     60  H   UNL A   1      44.037  28.731  28.135  1.00  0.00     0.167 HD
ATOM     61  C   UNL A   1      46.475  30.164  27.903  1.00  0.00     0.074 A 
ATOM     62  C   UNL A   1      47.857  30.474  27.604  1.00  0.00     0.031 C 
ATOM     63  C   UNL A   1      45.571  31.066  28.359  1.00  0.00     0.037 A 
BRANCH  50  64
ATOM     64  C   UNL A   1      39.891  28.768  29.158  1.00  0.00     0.064 A 
ATOM     65  C   UNL A   1      38.946  29.198  28.213  1.00  0.00     0.173 A 
ATOM     66  C   UNL A   1      39.447  28.539  30.469  1.00  0.00     0.173 A 
ATOM     67  F   UNL A   1      39.318  29.440  26.947  1.00  0.00    -0.203 F 
ATOM     68  C   UNL A   1      37.619  29.418  28.574  1.00  0.00     0.198 A 
ATOM     69  C   UNL A   1      38.112  28.727  30.818  1.00  0.00     0.198 A 
ATOM     70  F   UNL A   1      40.305  28.119  31.411  1.00  0.00    -0.203 F 
ATOM     71  F   UNL A   1      36.747  29.876  27.666  1.00  0.00    -0.200 F 
ATOM     72  C   UNL A   1      37.202  29.174  29.874  1.00  0.00     0.200 A 
ATOM     73  F   UNL A   1      37.708  28.475  32.071  1.00  0.00    -0.200 F 
ATOM     74  F   UNL A   1      35.922  29.376  30.217  1.00  0.00    -0.200 F 
ENDBRANCH  50  64
BRANCH  51  75
ATOM     75  C   UNL A   1      49.235  26.707  26.293  1.00  0.00     0.064 A 
ATOM     76  C   UNL A   1      49.611  26.912  24.959  1.00  0.00     0.173 A 
ATOM     77  C   UNL A   1      50.207  26.212  27.175  1.00  0.00     0.173 A 
ATOM     78  F   UNL A   1      48.711  27.364  24.072  1.00  0.00    -0.203 F 
ATOM     79  C   UNL A   1      50.898  26.612  24.518  1.00  0.00     0.198 A 
ATOM     80  C   UNL A   1      51.504  25.943  26.741  1.00  0.00     0.198 A 
ATOM     81  F   UNL A   1      49.901  26.002  28.464  1.00  0.00    -0.203 F 
ATOM     82  F   UNL A   1      51.214  26.768  23.226  1.00  0.00    -0.200 F 
ATOM     83  C   UNL A   1      51.845  26.134  25.411  1.00  0.00     0.200 A 
ATOM     84  F   UNL A   1      52.420  25.499  27.611  1.00  0.00    -0.200 F 
ATOM     85  F   UNL A   1      53.084  25.850  24.988  1.00  0.00    -0.200 F 
ENDBRANCH  51  75
BRANCH  63  86
ATOM     86  C   UNL A   1      46.051  32.473  28.572  1.00  0.00     0.064 A 
ATOM     87  C   UNL A   1      45.954  33.444  27.564  1.00  0.00     0.173 A 
ATOM     88  C   UNL A   1      46.583  32.866  29.810  1.00  0.00     0.173 A 
ATOM     89  F   UNL A   1      45.468  33.116  26.356  1.00  0.00    -0.203 F 
ATOM     90  C   UNL A   1      46.396  34.746  27.778  1.00  0.00     0.198 A 
ATOM     91  C   UNL A   1      46.992  34.179  30.032  1.00  0.00     0.198 A 
ATOM     92  F   UNL A   1      46.694  31.980  30.811  1.00  0.00    -0.203 F 
ATOM     93  F   UNL A   1      46.341  35.642  26.783  1.00  0.00    -0.200 F 
ATOM     94  C   UNL A   1      46.906  35.115  29.013  1.00  0.00     0.200 A 
ATOM     95  F   UNL A   1      47.470  34.535  31.232  1.00  0.00    -0.200 F 
ATOM     96  F   UNL A   1      47.322  36.372  29.221  1.00  0.00    -0.200 F 
ENDBRANCH  63  86
ENDBRANCH  37  38
ENDBRANCH  29  32
ENDBRANCH  27  28
ENDBRANCH  26  27
ENDBRANCH  25  26
ENDBRANCH   1  25
TORSDOF 16
ENDMDL
MODEL 3
REMARK VINA RESULT:     -11.9      3.615      8.564
REMARK SMILES CCCNC(=O)N1[C@@H](C(=O)NCCCCCCNC(=O)c2ccc(-c3c4nc(c(-c5c(F)c(F)c(F)c(F)c5F)c5ccc([nH]5)c(-c5c(F)c(F)c(F)c(F)c5F)c5nc(c(-c6c(F)c(F)c(F)c(F)c6F)c6ccc3[nH]6)C=C5)C=C4)cc2)CC[C@H]2CCCC[C@@H]21
REMARK SMILES IDX 14 1 13 2 12 3 11 4 9 5 10 6 8 8 7 9 91 10 84 11 86 12 90 13
REMARK SMILES IDX 85 14 87 15 89 16 88 17 5 18 4 19 6 21 3 22 2 23 1 24 15 25
REMARK SMILES IDX 16 26 17 27 18 28 19 29 20 31 21 32 22 33 83 34 23 35 82 36
REMARK SMILES IDX 24 37 25 38 26 39 76 40 27 41 81 42 75 43 77 44 28 45 80 46
REMARK SMILES IDX 74 47 73 48 29 50 61 51 41 52 60 53 42 54 45 55 59 56 78 57
REMARK SMILES IDX 43 58 44 59 58 61 79 62 46 63 30 64 31 65 39 66 32 67 33 68
REMARK SMILES IDX 37 69 40 70 34 71 35 72 38 73 36 74 62 75 63 76 71 77 64 78
REMARK SMILES IDX 65 79 69 80 72 81 66 82 67 83 70 84 68 85 47 86 48 87 56 88
REMARK SMILES IDX 49 89 50 90 54 91 57 92 51 93 52 94 55 95 53 96
REMARK H PARENT 11 7 4 20 18 30 77 49 45 60
REMARK Flexibility Score: inf
ROOT
ATOM      1  C   UNL A   1      34.412  21.317  26.549  1.00  0.00     0.002 C 
ENDROOT
BRANCH   1   2
ATOM      2  C   UNL A   1      33.947  22.254  27.666  1.00  0.00     0.021 C 
BRANCH   2   3
ATOM      3  C   UNL A   1      32.460  22.593  27.646  1.00  0.00     0.116 C 
BRANCH   3   4
ATOM      4  N   UNL A   1      31.848  22.397  26.345  1.00  0.00    -0.354 N 
ATOM      5  C   UNL A   1      31.819  23.249  25.266  1.00  0.00     0.242 C 
ATOM      6  O   UNL A   1      31.516  22.774  24.170  1.00  0.00    -0.273 OA
ATOM      7  H   UNL A   1      31.391  21.534  26.216  1.00  0.00     0.163 HD
BRANCH   5   8
ATOM      8  C   UNL A   1      32.320  24.704  25.472  1.00  0.00     0.176 C 
ATOM      9  N   UNL A   1      31.359  25.806  25.581  1.00  0.00    -0.310 N 
ATOM     10  C   UNL A   1      31.919  27.143  25.818  1.00  0.00     0.091 C 
ATOM     11  C   UNL A   1      33.220  25.002  24.242  1.00  0.00     0.036 C 
ATOM     12  C   UNL A   1      33.396  27.230  25.387  1.00  0.00     0.012 C 
ATOM     13  C   UNL A   1      31.808  27.648  27.265  1.00  0.00     0.025 C 
ATOM     14  C   UNL A   1      33.587  26.483  24.073  1.00  0.00     0.008 C 
ATOM     15  C   UNL A   1      33.811  28.698  25.329  1.00  0.00     0.006 C 
ATOM     16  C   UNL A   1      32.249  29.117  27.317  1.00  0.00     0.002 C 
ATOM     17  C   UNL A   1      33.635  29.352  26.704  1.00  0.00     0.000 C 
BRANCH   9  18
ATOM     18  C   UNL A   1      30.027  25.559  25.790  1.00  0.00     0.318 C 
ATOM     19  N   UNL A   1      29.169  25.932  24.795  1.00  0.00    -0.338 N 
ATOM     20  H   UNL A   1      28.211  25.879  25.019  1.00  0.00     0.165 HD
ATOM     21  O   UNL A   1      29.599  25.017  26.806  1.00  0.00    -0.249 OA
BRANCH  19  22
ATOM     22  C   UNL A   1      29.474  26.396  23.451  1.00  0.00     0.117 C 
BRANCH  22  23
ATOM     23  C   UNL A   1      29.528  27.913  23.306  1.00  0.00     0.018 C 
ATOM     24  C   UNL A   1      30.715  28.401  22.500  1.00  0.00     0.006 C 
ENDBRANCH  22  23
ENDBRANCH  19  22
ENDBRANCH   9  18
ENDBRANCH   5   8
ENDBRANCH   3   4
ENDBRANCH   2   3
ENDBRANCH   1   2
BRANCH   1  25
ATOM     25  C   UNL A   1      35.575  21.831  25.695  1.00  0.00     0.002 C 
BRANCH  25  26
ATOM     26  C   UNL A   1      35.914  23.313  25.866  1.00  0.00     0.021 C 
BRANCH  26  27
ATOM     27  C   UNL A   1      37.238  23.750  25.248  1.00  0.00     0.116 C 
BRANCH  27  28
ATOM     28  N   UNL A   1      38.337  22.864  25.598  1.00  0.00    -0.352 N 
ATOM     29  C   UNL A   1      39.501  23.136  26.272  1.00  0.00     0.251 C 
ATOM     30  H   UNL A   1      38.230  21.929  25.309  1.00  0.00     0.163 HD
ATOM     31  O   UNL A   1      40.395  22.295  26.327  1.00  0.00    -0.269 OA
BRANCH  29  32
ATOM     32  C   UNL A   1      39.699  24.456  26.908  1.00  0.00     0.039 A 
ATOM     33  C   UNL A   1      39.245  24.646  28.216  1.00  0.00     0.014 A 
ATOM     34  C   UNL A   1      40.331  25.499  26.227  1.00  0.00     0.014 A 
ATOM     35  C   UNL A   1      39.500  25.853  28.869  1.00  0.00     0.010 A 
ATOM     36  C   UNL A   1      40.648  26.677  26.901  1.00  0.00     0.010 A 
ATOM     37  C   UNL A   1      40.247  26.860  28.233  1.00  0.00    -0.014 A 
BRANCH  37  38
ATOM     38  C   UNL A   1      40.659  28.084  28.969  1.00  0.00     0.031 A 
ATOM     39  C   UNL A   1      42.046  28.212  29.529  1.00  0.00     0.074 A 
ATOM     40  C   UNL A   1      39.751  29.055  29.188  1.00  0.00     0.049 A 
ATOM     41  N   UNL A   1      42.562  29.179  30.245  1.00  0.00    -0.248 NA
ATOM     42  C   UNL A   1      42.970  27.098  29.271  1.00  0.00     0.031 C 
ATOM     43  C   UNL A   1      38.358  29.026  28.735  1.00  0.00     0.029 A 
ATOM     44  N   UNL A   1      39.856  30.251  29.854  1.00  0.00    -0.354 N 
ATOM     45  C   UNL A   1      43.864  28.790  30.526  1.00  0.00     0.074 A 
ATOM     46  C   UNL A   1      44.045  27.474  29.950  1.00  0.00     0.031 C 
ATOM     47  C   UNL A   1      37.748  30.159  29.114  1.00  0.00     0.029 A 
ATOM     48  C   UNL A   1      38.688  30.974  29.877  1.00  0.00     0.049 A 
ATOM     49  H   UNL A   1      40.690  30.561  30.276  1.00  0.00     0.167 HD
ATOM     50  C   UNL A   1      44.829  29.477  31.186  1.00  0.00     0.037 A 
ATOM     51  C   UNL A   1      38.400  32.153  30.461  1.00  0.00     0.037 A 
ATOM     52  C   UNL A   1      44.645  30.791  31.750  1.00  0.00     0.049 A 
ATOM     53  C   UNL A   1      39.479  32.876  31.219  1.00  0.00     0.074 A 
ATOM     54  C   UNL A   1      45.579  31.595  32.381  1.00  0.00     0.029 A 
ATOM     55  N   UNL A   1      43.446  31.487  31.762  1.00  0.00    -0.354 N 
ATOM     56  N   UNL A   1      40.730  32.535  31.408  1.00  0.00    -0.248 NA
ATOM     57  C   UNL A   1      39.105  34.153  31.845  1.00  0.00     0.031 C 
ATOM     58  C   UNL A   1      44.929  32.749  32.830  1.00  0.00     0.029 A 
ATOM     59  C   UNL A   1      43.605  32.694  32.426  1.00  0.00     0.049 A 
ATOM     60  H   UNL A   1      42.605  31.171  31.359  1.00  0.00     0.167 HD
ATOM     61  C   UNL A   1      41.297  33.558  32.156  1.00  0.00     0.074 A 
ATOM     62  C   UNL A   1      40.260  34.547  32.363  1.00  0.00     0.031 C 
ATOM     63  C   UNL A   1      42.561  33.666  32.633  1.00  0.00     0.037 A 
BRANCH  50  64
ATOM     64  C   UNL A   1      46.171  28.821  31.342  1.00  0.00     0.064 A 
ATOM     65  C   UNL A   1      46.455  27.968  32.420  1.00  0.00     0.173 A 
ATOM     66  C   UNL A   1      47.170  29.006  30.375  1.00  0.00     0.173 A 
ATOM     67  F   UNL A   1      45.537  27.762  33.378  1.00  0.00    -0.203 F 
ATOM     68  C   UNL A   1      47.698  27.352  32.541  1.00  0.00     0.198 A 
ATOM     69  C   UNL A   1      48.400  28.361  30.480  1.00  0.00     0.198 A 
ATOM     70  F   UNL A   1      46.951  29.804  29.319  1.00  0.00    -0.203 F 
ATOM     71  F   UNL A   1      47.961  26.582  33.605  1.00  0.00    -0.200 F 
ATOM     72  C   UNL A   1      48.666  27.542  31.567  1.00  0.00     0.200 A 
ATOM     73  F   UNL A   1      49.329  28.534  29.530  1.00  0.00    -0.200 F 
ATOM     74  F   UNL A   1      49.858  26.940  31.678  1.00  0.00    -0.200 F 
ENDBRANCH  50  64
BRANCH  51  75
ATOM     75  C   UNL A   1      37.032  32.725  30.347  1.00  0.00     0.064 A 
ATOM     76  C   UNL A   1      36.658  33.488  29.233  1.00  0.00     0.173 A 
ATOM     77  C   UNL A   1      36.073  32.527  31.353  1.00  0.00     0.173 A 
ATOM     78  F   UNL A   1      37.546  33.723  28.255  1.00  0.00    -0.203 F 
ATOM     79  C   UNL A   1      35.387  34.051  29.137  1.00  0.00     0.198 A 
ATOM     80  C   UNL A   1      34.792  33.063  31.241  1.00  0.00     0.198 A 
ATOM     81  F   UNL A   1      36.377  31.802  32.439  1.00  0.00    -0.203 F 
ATOM     82  F   UNL A   1      35.075  34.819  28.086  1.00  0.00    -0.200 F 
ATOM     83  C   UNL A   1      34.453  33.833  30.139  1.00  0.00     0.200 A 
ATOM     84  F   UNL A   1      33.887  32.835  32.203  1.00  0.00    -0.200 F 
ATOM     85  F   UNL A   1      33.229  34.370  30.045  1.00  0.00    -0.200 F 
ENDBRANCH  51  75
BRANCH  63  86
ATOM     86  C   UNL A   1      42.897  34.903  33.417  1.00  0.00     0.064 A 
ATOM     87  C   UNL A   1      43.342  36.074  32.786  1.00  0.00     0.173 A 
ATOM     88  C   UNL A   1      42.739  34.930  34.811  1.00  0.00     0.173 A 
ATOM     89  F   UNL A   1      43.527  36.097  31.457  1.00  0.00    -0.203 F 
ATOM     90  C   UNL A   1      43.642  37.216  33.524  1.00  0.00     0.198 A 
ATOM     91  C   UNL A   1      43.007  36.084  35.542  1.00  0.00     0.198 A 
ATOM     92  F   UNL A   1      42.311  33.839  35.465  1.00  0.00    -0.203 F 
ATOM     93  F   UNL A   1      44.117  38.306  32.904  1.00  0.00    -0.200 F 
ATOM     94  C   UNL A   1      43.467  37.223  34.899  1.00  0.00     0.200 A 
ATOM     95  F   UNL A   1      42.820  36.093  36.869  1.00  0.00    -0.200 F 
ATOM     96  F   UNL A   1      43.746  38.326  35.606  1.00  0.00    -0.200 F 
ENDBRANCH  63  86
ENDBRANCH  37  38
ENDBRANCH  29  32
ENDBRANCH  27  28
ENDBRANCH  26  27
ENDBRANCH  25  26
ENDBRANCH   1  25
TORSDOF 16
ENDMDL
