MODEL 1
REMARK VINA RESULT:     -11.7      0.000      0.000
REMARK SMILES C[C@@H](C(=O)NCCCCCCNC(=O)c1ccc(-c2c3nc(c(-c4c(F)c(F)c(F)c(F)c4F)c4ccc([nH]4)c(-c4c(F)c(F)c(F)c(F)c4F)c4nc(c(-c5c(F)c(F)c(F)c(F)c5F)c5ccc2[nH]5)C=C4)C=C3)cc1)c1ccc(C[C@@H]2CCC[C@@H]2O)cc1Br
REMARK SMILES IDX 7 1 6 2 5 3 3 4 4 5 2 7 1 8 78 9 79 10 90 11 80 12 89 13
REMARK SMILES IDX 91 14 81 15 82 16 83 17 84 18 87 19 85 20 86 21 88 22 8 24
REMARK SMILES IDX 9 25 10 26 11 27 12 28 13 29 14 31 15 32 16 33 77 34 17 35
REMARK SMILES IDX 76 36 18 37 19 38 20 39 70 40 21 41 75 42 69 43 71 44 22 45
REMARK SMILES IDX 74 46 68 47 67 48 23 50 55 51 35 52 54 53 36 54 39 55 53 56
REMARK SMILES IDX 72 57 37 58 38 59 52 61 73 62 40 63 24 64 25 65 33 66 26 67
REMARK SMILES IDX 27 68 31 69 34 70 28 71 29 72 32 73 30 74 56 75 57 76 65 77
REMARK SMILES IDX 58 78 59 79 63 80 66 81 60 82 61 83 64 84 62 85 41 86 42 87
REMARK SMILES IDX 50 88 43 89 44 90 48 91 51 92 45 93 46 94 49 95 47 96
REMARK H PARENT 5 6 88 23 12 30 71 49 39 60
REMARK Flexibility Score: inf
ROOT
ATOM      1  C   UNL A   1      34.805  25.913  25.774  1.00  0.00     0.021 C 
ENDROOT
BRANCH   1   2
ATOM      2  C   UNL A   1      34.636  24.439  25.402  1.00  0.00     0.116 C 
BRANCH   2   3
ATOM      3  N   UNL A   1      34.700  24.293  23.965  1.00  0.00    -0.356 N 
ATOM      4  C   UNL A   1      33.944  23.514  23.140  1.00  0.00     0.227 C 
ATOM      5  O   UNL A   1      34.372  23.343  21.996  1.00  0.00    -0.274 OA
ATOM      6  H   UNL A   1      35.388  24.836  23.517  1.00  0.00     0.163 HD
BRANCH   4   7
ATOM      7  C   UNL A   1      32.580  22.989  23.619  1.00  0.00     0.106 C 
ATOM      8  C   UNL A   1      32.041  21.803  22.814  1.00  0.00     0.023 C 
BRANCH   7   9
ATOM      9  C   UNL A   1      31.606  24.149  23.825  1.00  0.00    -0.022 A 
ATOM     10  C   UNL A   1      31.441  25.011  22.718  1.00  0.00     0.006 A 
ATOM     11  C   UNL A   1      30.829  24.411  24.964  1.00  0.00     0.022 A 
ATOM     12  C   UNL A   1      30.617  26.133  22.774  1.00  0.00     0.004 A 
ATOM     13  C   UNL A   1      30.059  25.581  25.038  1.00  0.00     0.019 A 
ATOM     14  Br  UNL A   1      30.660  23.251  26.460  1.00  0.00    -0.051 Br
ATOM     15  C   UNL A   1      29.976  26.472  23.963  1.00  0.00    -0.047 A 
BRANCH  15  16
ATOM     16  C   UNL A   1      29.220  27.765  24.108  1.00  0.00     0.041 C 
BRANCH  16  17
ATOM     17  C   UNL A   1      28.967  28.586  22.824  1.00  0.00     0.022 C 
ATOM     18  C   UNL A   1      29.912  29.777  22.627  1.00  0.00     0.007 C 
ATOM     19  C   UNL A   1      27.580  29.215  22.635  1.00  0.00     0.117 C 
ATOM     20  C   UNL A   1      29.128  31.038  23.000  1.00  0.00     0.003 C 
ATOM     21  C   UNL A   1      27.687  30.606  23.243  1.00  0.00     0.032 C 
BRANCH  19  22
ATOM     22  O   UNL A   1      26.519  28.481  23.211  1.00  0.00    -0.393 OA
ATOM     23  H   UNL A   1      26.757  28.226  24.118  1.00  0.00     0.210 HD
ENDBRANCH  19  22
ENDBRANCH  16  17
ENDBRANCH  15  16
ENDBRANCH   7   9
ENDBRANCH   4   7
ENDBRANCH   2   3
ENDBRANCH   1   2
BRANCH   1  24
ATOM     24  C   UNL A   1      33.535  26.744  25.532  1.00  0.00     0.002 C 
BRANCH  24  25
ATOM     25  C   UNL A   1      33.594  27.650  24.298  1.00  0.00     0.002 C 
BRANCH  25  26
ATOM     26  C   UNL A   1      33.157  29.094  24.553  1.00  0.00     0.021 C 
BRANCH  26  27
ATOM     27  C   UNL A   1      32.658  29.348  25.970  1.00  0.00     0.116 C 
BRANCH  27  28
ATOM     28  N   UNL A   1      32.438  30.765  26.217  1.00  0.00    -0.352 N 
ATOM     29  C   UNL A   1      33.099  31.607  27.072  1.00  0.00     0.251 C 
ATOM     30  H   UNL A   1      31.712  31.177  25.695  1.00  0.00     0.163 HD
ATOM     31  O   UNL A   1      32.639  32.718  27.328  1.00  0.00    -0.269 OA
BRANCH  29  32
ATOM     32  C   UNL A   1      34.360  31.169  27.703  1.00  0.00     0.039 A 
ATOM     33  C   UNL A   1      35.368  32.109  27.924  1.00  0.00     0.014 A 
ATOM     34  C   UNL A   1      34.549  29.833  28.069  1.00  0.00     0.014 A 
ATOM     35  C   UNL A   1      36.546  31.720  28.562  1.00  0.00     0.010 A 
ATOM     36  C   UNL A   1      35.688  29.464  28.775  1.00  0.00     0.010 A 
ATOM     37  C   UNL A   1      36.703  30.402  29.022  1.00  0.00    -0.014 A 
BRANCH  37  38
ATOM     38  C   UNL A   1      37.925  29.986  29.756  1.00  0.00     0.031 A 
ATOM     39  C   UNL A   1      38.193  30.517  31.137  1.00  0.00     0.074 A 
ATOM     40  C   UNL A   1      38.815  29.172  29.158  1.00  0.00     0.049 A 
ATOM     41  N   UNL A   1      39.228  30.315  31.915  1.00  0.00    -0.248 NA
ATOM     42  C   UNL A   1      37.177  31.412  31.712  1.00  0.00     0.031 C 
ATOM     43  C   UNL A   1      38.687  28.628  27.805  1.00  0.00     0.029 A 
ATOM     44  N   UNL A   1      40.009  28.666  29.607  1.00  0.00    -0.354 N 
ATOM     45  C   UNL A   1      38.987  31.058  33.063  1.00  0.00     0.074 A 
ATOM     46  C   UNL A   1      37.745  31.767  32.855  1.00  0.00     0.031 C 
ATOM     47  C   UNL A   1      39.746  27.845  27.543  1.00  0.00     0.029 A 
ATOM     48  C   UNL A   1      40.647  27.865  28.691  1.00  0.00     0.049 A 
ATOM     49  H   UNL A   1      40.373  28.858  30.501  1.00  0.00     0.167 HD
ATOM     50  C   UNL A   1      39.720  31.119  34.200  1.00  0.00     0.037 A 
ATOM     51  C   UNL A   1      41.831  27.227  28.767  1.00  0.00     0.037 A 
ATOM     52  C   UNL A   1      40.953  30.404  34.407  1.00  0.00     0.049 A 
ATOM     53  C   UNL A   1      42.642  27.338  30.031  1.00  0.00     0.074 A 
ATOM     54  C   UNL A   1      41.754  30.371  35.534  1.00  0.00     0.029 A 
ATOM     55  N   UNL A   1      41.565  29.595  33.459  1.00  0.00    -0.354 N 
ATOM     56  N   UNL A   1      42.371  27.991  31.135  1.00  0.00    -0.248 NA
ATOM     57  C   UNL A   1      43.921  26.615  30.060  1.00  0.00     0.031 C 
ATOM     58  C   UNL A   1      42.876  29.584  35.251  1.00  0.00     0.029 A 
ATOM     59  C   UNL A   1      42.744  29.077  33.969  1.00  0.00     0.049 A 
ATOM     60  H   UNL A   1      41.213  29.417  32.557  1.00  0.00     0.167 HD
ATOM     61  C   UNL A   1      43.426  27.731  32.000  1.00  0.00     0.074 A 
ATOM     62  C   UNL A   1      44.332  26.845  31.300  1.00  0.00     0.031 C 
ATOM     63  C   UNL A   1      43.628  28.185  33.262  1.00  0.00     0.037 A 
BRANCH  50  64
ATOM     64  C   UNL A   1      39.205  31.985  35.314  1.00  0.00     0.064 A 
ATOM     65  C   UNL A   1      38.432  31.454  36.359  1.00  0.00     0.173 A 
ATOM     66  C   UNL A   1      39.514  33.353  35.360  1.00  0.00     0.173 A 
ATOM     67  F   UNL A   1      38.097  30.154  36.359  1.00  0.00    -0.203 F 
ATOM     68  C   UNL A   1      37.964  32.264  37.390  1.00  0.00     0.198 A 
ATOM     69  C   UNL A   1      39.073  34.154  36.411  1.00  0.00     0.198 A 
ATOM     70  F   UNL A   1      40.255  33.913  34.391  1.00  0.00    -0.203 F 
ATOM     71  F   UNL A   1      37.184  31.744  38.348  1.00  0.00    -0.200 F 
ATOM     72  C   UNL A   1      38.292  33.611  37.420  1.00  0.00     0.200 A 
ATOM     73  F   UNL A   1      39.404  35.452  36.447  1.00  0.00    -0.200 F 
ATOM     74  F   UNL A   1      37.849  34.388  38.417  1.00  0.00    -0.200 F 
ENDBRANCH  50  64
BRANCH  51  75
ATOM     75  C   UNL A   1      42.317  26.413  27.621  1.00  0.00     0.064 A 
ATOM     76  C   UNL A   1      41.873  25.096  27.431  1.00  0.00     0.173 A 
ATOM     77  C   UNL A   1      43.253  26.922  26.710  1.00  0.00     0.173 A 
ATOM     78  F   UNL A   1      40.992  24.556  28.286  1.00  0.00    -0.203 F 
ATOM     79  C   UNL A   1      42.371  24.311  26.393  1.00  0.00     0.198 A 
ATOM     80  C   UNL A   1      43.725  26.146  25.652  1.00  0.00     0.198 A 
ATOM     81  F   UNL A   1      43.707  28.178  26.841  1.00  0.00    -0.203 F 
ATOM     82  F   UNL A   1      41.975  23.037  26.271  1.00  0.00    -0.200 F 
ATOM     83  C   UNL A   1      43.294  24.838  25.502  1.00  0.00     0.200 A 
ATOM     84  F   UNL A   1      44.603  26.666  24.783  1.00  0.00    -0.200 F 
ATOM     85  F   UNL A   1      43.773  24.082  24.506  1.00  0.00    -0.200 F 
ENDBRANCH  51  75
BRANCH  63  86
ATOM     86  C   UNL A   1      44.852  27.696  33.982  1.00  0.00     0.064 A 
ATOM     87  C   UNL A   1      44.849  26.504  34.722  1.00  0.00     0.173 A 
ATOM     88  C   UNL A   1      46.054  28.415  33.904  1.00  0.00     0.173 A 
ATOM     89  F   UNL A   1      43.721  25.786  34.841  1.00  0.00    -0.203 F 
ATOM     90  C   UNL A   1      45.995  26.068  35.382  1.00  0.00     0.198 A 
ATOM     91  C   UNL A   1      47.207  27.959  34.535  1.00  0.00     0.198 A 
ATOM     92  F   UNL A   1      46.115  29.558  33.203  1.00  0.00    -0.203 F 
ATOM     93  F   UNL A   1      45.953  24.957  36.130  1.00  0.00    -0.200 F 
ATOM     94  C   UNL A   1      47.174  26.791  35.282  1.00  0.00     0.200 A 
ATOM     95  F   UNL A   1      48.350  28.649  34.424  1.00  0.00    -0.200 F 
ATOM     96  F   UNL A   1      48.278  26.366  35.912  1.00  0.00    -0.200 F 
ENDBRANCH  63  86
ENDBRANCH  37  38
ENDBRANCH  29  32
ENDBRANCH  27  28
ENDBRANCH  26  27
ENDBRANCH  25  26
ENDBRANCH  24  25
ENDBRANCH   1  24
TORSDOF 17
ENDMDL
MODEL 2
REMARK VINA RESULT:     -11.6      0.419      7.331
REMARK SMILES C[C@@H](C(=O)NCCCCCCNC(=O)c1ccc(-c2c3nc(c(-c4c(F)c(F)c(F)c(F)c4F)c4ccc([nH]4)c(-c4c(F)c(F)c(F)c(F)c4F)c4nc(c(-c5c(F)c(F)c(F)c(F)c5F)c5ccc2[nH]5)C=C4)C=C3)cc1)c1ccc(C[C@@H]2CCC[C@@H]2O)cc1Br
REMARK SMILES IDX 7 1 6 2 5 3 3 4 4 5 2 7 1 8 78 9 79 10 90 11 80 12 89 13
REMARK SMILES IDX 91 14 81 15 82 16 83 17 84 18 87 19 85 20 86 21 88 22 8 24
REMARK SMILES IDX 9 25 10 26 11 27 12 28 13 29 14 31 15 32 16 33 77 34 17 35
REMARK SMILES IDX 76 36 18 37 19 38 20 39 70 40 21 41 75 42 69 43 71 44 22 45
REMARK SMILES IDX 74 46 68 47 67 48 23 50 55 51 35 52 54 53 36 54 39 55 53 56
REMARK SMILES IDX 72 57 37 58 38 59 52 61 73 62 40 63 24 64 25 65 33 66 26 67
REMARK SMILES IDX 27 68 31 69 34 70 28 71 29 72 32 73 30 74 56 75 57 76 65 77
REMARK SMILES IDX 58 78 59 79 63 80 66 81 60 82 61 83 64 84 62 85 41 86 42 87
REMARK SMILES IDX 50 88 43 89 44 90 48 91 51 92 45 93 46 94 49 95 47 96
REMARK H PARENT 5 6 88 23 12 30 71 49 39 60
REMARK Flexibility Score: inf
ROOT
ATOM      1  C   UNL A   1      34.887  25.595  25.756  1.00  0.00     0.021 C 
ENDROOT
BRANCH   1   2
ATOM      2  C   UNL A   1      34.682  24.155  25.281  1.00  0.00     0.116 C 
BRANCH   2   3
ATOM      3  N   UNL A   1      34.667  24.121  23.836  1.00  0.00    -0.356 N 
ATOM      4  C   UNL A   1      33.825  23.457  22.994  1.00  0.00     0.227 C 
ATOM      5  O   UNL A   1      34.186  23.351  21.820  1.00  0.00    -0.274 OA
ATOM      6  H   UNL A   1      35.367  24.655  23.394  1.00  0.00     0.163 HD
BRANCH   4   7
ATOM      7  C   UNL A   1      32.455  22.977  23.503  1.00  0.00     0.106 C 
ATOM      8  C   UNL A   1      31.854  21.817  22.704  1.00  0.00     0.023 C 
BRANCH   7   9
ATOM      9  C   UNL A   1      31.528  24.170  23.740  1.00  0.00    -0.022 A 
ATOM     10  C   UNL A   1      31.387  25.058  22.650  1.00  0.00     0.006 A 
ATOM     11  C   UNL A   1      30.773  24.440  24.891  1.00  0.00     0.022 A 
ATOM     12  C   UNL A   1      30.607  26.210  22.735  1.00  0.00     0.004 A 
ATOM     13  C   UNL A   1      30.049  25.637  24.994  1.00  0.00     0.019 A 
ATOM     14  Br  UNL A   1      30.574  23.260  26.368  1.00  0.00    -0.051 Br
ATOM     15  C   UNL A   1      29.991  26.551  23.937  1.00  0.00    -0.047 A 
BRANCH  15  16
ATOM     16  C   UNL A   1      29.287  27.869  24.112  1.00  0.00     0.041 C 
BRANCH  16  17
ATOM     17  C   UNL A   1      28.988  28.689  22.837  1.00  0.00     0.022 C 
ATOM     18  C   UNL A   1      29.868  29.931  22.651  1.00  0.00     0.007 C 
ATOM     19  C   UNL A   1      27.569  29.245  22.657  1.00  0.00     0.117 C 
ATOM     20  C   UNL A   1      29.019  31.144  23.039  1.00  0.00     0.003 C 
ATOM     21  C   UNL A   1      27.603  30.633  23.278  1.00  0.00     0.032 C 
BRANCH  19  22
ATOM     22  O   UNL A   1      26.550  28.449  23.226  1.00  0.00    -0.393 OA
ATOM     23  H   UNL A   1      26.789  28.223  24.140  1.00  0.00     0.210 HD
ENDBRANCH  19  22
ENDBRANCH  16  17
ENDBRANCH  15  16
ENDBRANCH   7   9
ENDBRANCH   4   7
ENDBRANCH   2   3
ENDBRANCH   1   2
BRANCH   1  24
ATOM     24  C   UNL A   1      33.649  26.480  25.546  1.00  0.00     0.002 C 
BRANCH  24  25
ATOM     25  C   UNL A   1      33.707  27.370  24.301  1.00  0.00     0.002 C 
BRANCH  25  26
ATOM     26  C   UNL A   1      33.135  28.775  24.501  1.00  0.00     0.021 C 
BRANCH  26  27
ATOM     27  C   UNL A   1      32.703  29.069  25.933  1.00  0.00     0.116 C 
BRANCH  27  28
ATOM     28  N   UNL A   1      32.392  30.477  26.124  1.00  0.00    -0.352 N 
ATOM     29  C   UNL A   1      32.978  31.385  26.966  1.00  0.00     0.251 C 
ATOM     30  H   UNL A   1      31.659  30.827  25.568  1.00  0.00     0.163 HD
ATOM     31  O   UNL A   1      32.447  32.476  27.169  1.00  0.00    -0.269 OA
BRANCH  29  32
ATOM     32  C   UNL A   1      34.244  31.045  27.645  1.00  0.00     0.039 A 
ATOM     33  C   UNL A   1      35.199  32.045  27.837  1.00  0.00     0.014 A 
ATOM     34  C   UNL A   1      34.490  29.741  28.086  1.00  0.00     0.014 A 
ATOM     35  C   UNL A   1      36.379  31.749  28.520  1.00  0.00     0.010 A 
ATOM     36  C   UNL A   1      35.629  29.467  28.834  1.00  0.00     0.010 A 
ATOM     37  C   UNL A   1      36.590  30.466  29.053  1.00  0.00    -0.014 A 
BRANCH  37  38
ATOM     38  C   UNL A   1      37.813  30.152  29.833  1.00  0.00     0.031 A 
ATOM     39  C   UNL A   1      38.843  29.211  29.276  1.00  0.00     0.074 A 
ATOM     40  C   UNL A   1      37.968  30.676  31.065  1.00  0.00     0.049 A 
ATOM     41  N   UNL A   1      39.948  28.771  29.827  1.00  0.00    -0.248 NA
ATOM     42  C   UNL A   1      38.589  28.672  27.931  1.00  0.00     0.031 C 
ATOM     43  C   UNL A   1      37.016  31.566  31.732  1.00  0.00     0.029 A 
ATOM     44  N   UNL A   1      38.980  30.528  31.979  1.00  0.00    -0.354 N 
ATOM     45  C   UNL A   1      40.514  27.907  28.899  1.00  0.00     0.074 A 
ATOM     46  C   UNL A   1      39.602  27.830  27.780  1.00  0.00     0.031 C 
ATOM     47  C   UNL A   1      37.501  31.905  32.936  1.00  0.00     0.029 A 
ATOM     48  C   UNL A   1      38.775  31.225  33.145  1.00  0.00     0.049 A 
ATOM     49  H   UNL A   1      39.779  29.976  31.815  1.00  0.00     0.167 HD
ATOM     50  C   UNL A   1      41.702  27.259  28.962  1.00  0.00     0.037 A 
ATOM     51  C   UNL A   1      39.526  31.297  34.261  1.00  0.00     0.037 A 
ATOM     52  C   UNL A   1      42.612  27.345  30.074  1.00  0.00     0.049 A 
ATOM     53  C   UNL A   1      40.827  30.541  34.317  1.00  0.00     0.074 A 
ATOM     54  C   UNL A   1      43.855  26.756  30.221  1.00  0.00     0.029 A 
ATOM     55  N   UNL A   1      42.373  28.067  31.235  1.00  0.00    -0.354 N 
ATOM     56  N   UNL A   1      41.383  29.778  33.406  1.00  0.00    -0.248 NA
ATOM     57  C   UNL A   1      41.609  30.663  35.555  1.00  0.00     0.031 C 
ATOM     58  C   UNL A   1      44.346  27.079  31.490  1.00  0.00     0.029 A 
ATOM     59  C   UNL A   1      43.436  27.920  32.111  1.00  0.00     0.049 A 
ATOM     60  H   UNL A   1      41.567  28.604  31.411  1.00  0.00     0.167 HD
ATOM     61  C   UNL A   1      42.592  29.359  33.947  1.00  0.00     0.074 A 
ATOM     62  C   UNL A   1      42.697  29.966  35.256  1.00  0.00     0.031 C 
ATOM     63  C   UNL A   1      43.531  28.543  33.407  1.00  0.00     0.037 A 
BRANCH  50  64
ATOM     64  C   UNL A   1      42.090  26.404  27.789  1.00  0.00     0.064 A 
ATOM     65  C   UNL A   1      42.975  26.869  26.803  1.00  0.00     0.173 A 
ATOM     66  C   UNL A   1      41.603  25.094  27.665  1.00  0.00     0.173 A 
ATOM     67  F   UNL A   1      43.462  28.118  26.867  1.00  0.00    -0.203 F 
ATOM     68  C   UNL A   1      43.333  26.066  25.723  1.00  0.00     0.198 A 
ATOM     69  C   UNL A   1      41.990  24.282  26.602  1.00  0.00     0.198 A 
ATOM     70  F   UNL A   1      40.759  24.596  28.581  1.00  0.00    -0.203 F 
ATOM     71  F   UNL A   1      44.138  26.551  24.768  1.00  0.00    -0.200 F 
ATOM     72  C   UNL A   1      42.848  24.771  25.627  1.00  0.00     0.200 A 
ATOM     73  F   UNL A   1      41.532  23.025  26.519  1.00  0.00    -0.200 F 
ATOM     74  F   UNL A   1      43.200  23.996  24.593  1.00  0.00    -0.200 F 
ENDBRANCH  50  64
BRANCH  51  75
ATOM     75  C   UNL A   1      39.079  32.126  35.412  1.00  0.00     0.064 A 
ATOM     76  C   UNL A   1      39.398  33.490  35.486  1.00  0.00     0.173 A 
ATOM     77  C   UNL A   1      38.349  31.570  36.472  1.00  0.00     0.173 A 
ATOM     78  F   UNL A   1      40.110  34.065  34.507  1.00  0.00    -0.203 F 
ATOM     79  C   UNL A   1      39.031  34.256  36.591  1.00  0.00     0.198 A 
ATOM     80  C   UNL A   1      37.955  32.345  37.561  1.00  0.00     0.198 A 
ATOM     81  F   UNL A   1      38.012  30.271  36.450  1.00  0.00    -0.203 F 
ATOM     82  F   UNL A   1      39.402  35.541  36.664  1.00  0.00    -0.200 F 
ATOM     83  C   UNL A   1      38.307  33.685  37.626  1.00  0.00     0.200 A 
ATOM     84  F   UNL A   1      37.239  31.792  38.550  1.00  0.00    -0.200 F 
ATOM     85  F   UNL A   1      37.957  34.421  38.688  1.00  0.00    -0.200 F 
ENDBRANCH  51  75
BRANCH  63  86
ATOM     86  C   UNL A   1      44.774  28.296  34.213  1.00  0.00     0.064 A 
ATOM     87  C   UNL A   1      44.882  27.210  35.095  1.00  0.00     0.173 A 
ATOM     88  C   UNL A   1      45.886  29.142  34.076  1.00  0.00     0.173 A 
ATOM     89  F   UNL A   1      43.843  26.381  35.274  1.00  0.00    -0.203 F 
ATOM     90  C   UNL A   1      46.043  27.000  35.833  1.00  0.00     0.198 A 
ATOM     91  C   UNL A   1      47.058  28.908  34.789  1.00  0.00     0.198 A 
ATOM     92  F   UNL A   1      45.840  30.191  33.241  1.00  0.00    -0.203 F 
ATOM     93  F   UNL A   1      46.102  25.990  36.712  1.00  0.00    -0.200 F 
ATOM     94  C   UNL A   1      47.133  27.843  35.674  1.00  0.00     0.200 A 
ATOM     95  F   UNL A   1      48.116  29.714  34.621  1.00  0.00    -0.200 F 
ATOM     96  F   UNL A   1      48.253  27.635  36.379  1.00  0.00    -0.200 F 
ENDBRANCH  63  86
ENDBRANCH  37  38
ENDBRANCH  29  32
ENDBRANCH  27  28
ENDBRANCH  26  27
ENDBRANCH  25  26
ENDBRANCH  24  25
ENDBRANCH   1  24
TORSDOF 17
ENDMDL
MODEL 3
REMARK VINA RESULT:     -11.4      2.799      5.334
REMARK SMILES C[C@@H](C(=O)NCCCCCCNC(=O)c1ccc(-c2c3nc(c(-c4c(F)c(F)c(F)c(F)c4F)c4ccc([nH]4)c(-c4c(F)c(F)c(F)c(F)c4F)c4nc(c(-c5c(F)c(F)c(F)c(F)c5F)c5ccc2[nH]5)C=C4)C=C3)cc1)c1ccc(C[C@@H]2CCC[C@@H]2O)cc1Br
REMARK SMILES IDX 7 1 6 2 5 3 3 4 4 5 2 7 1 8 78 9 79 10 90 11 80 12 89 13
REMARK SMILES IDX 91 14 81 15 82 16 83 17 84 18 87 19 85 20 86 21 88 22 8 24
REMARK SMILES IDX 9 25 10 26 11 27 12 28 13 29 14 31 15 32 16 33 77 34 17 35
REMARK SMILES IDX 76 36 18 37 19 38 20 39 70 40 21 41 75 42 69 43 71 44 22 45
REMARK SMILES IDX 74 46 68 47 67 48 23 50 55 51 35 52 54 53 36 54 39 55 53 56
REMARK SMILES IDX 72 57 37 58 38 59 52 61 73 62 40 63 24 64 25 65 33 66 26 67
REMARK SMILES IDX 27 68 31 69 34 70 28 71 29 72 32 73 30 74 56 75 57 76 65 77
REMARK SMILES IDX 58 78 59 79 63 80 66 81 60 82 61 83 64 84 62 85 41 86 42 87
REMARK SMILES IDX 50 88 43 89 44 90 48 91 51 92 45 93 46 94 49 95 47 96
REMARK H PARENT 5 6 88 23 12 30 71 49 39 60
REMARK Flexibility Score: inf
ROOT
ATOM      1  C   UNL A   1      34.696  31.092  28.350  1.00  0.00     0.021 C 
ENDROOT
BRANCH   1   2
ATOM      2  C   UNL A   1      34.411  29.980  27.338  1.00  0.00     0.116 C 
BRANCH   2   3
ATOM      3  N   UNL A   1      33.411  29.084  27.875  1.00  0.00    -0.356 N 
ATOM      4  C   UNL A   1      32.421  28.405  27.229  1.00  0.00     0.227 C 
ATOM      5  O   UNL A   1      31.523  27.935  27.931  1.00  0.00    -0.274 OA
ATOM      6  H   UNL A   1      33.452  28.943  28.849  1.00  0.00     0.163 HD
BRANCH   4   7
ATOM      7  C   UNL A   1      32.518  28.168  25.712  1.00  0.00     0.106 C 
ATOM      8  C   UNL A   1      31.448  28.890  24.889  1.00  0.00     0.023 C 
BRANCH   7   9
ATOM      9  C   UNL A   1      32.689  26.677  25.417  1.00  0.00    -0.022 A 
ATOM     10  C   UNL A   1      34.004  26.176  25.549  1.00  0.00     0.006 A 
ATOM     11  C   UNL A   1      31.681  25.758  25.086  1.00  0.00     0.022 A 
ATOM     12  C   UNL A   1      34.316  24.847  25.272  1.00  0.00     0.004 A 
ATOM     13  C   UNL A   1      32.015  24.441  24.739  1.00  0.00     0.019 A 
ATOM     14  Br  UNL A   1      29.816  26.123  25.125  1.00  0.00    -0.051 Br
ATOM     15  C   UNL A   1      33.336  23.983  24.790  1.00  0.00    -0.047 A 
BRANCH  15  16
ATOM     16  C   UNL A   1      33.675  22.594  24.320  1.00  0.00     0.041 C 
BRANCH  16  17
ATOM     17  C   UNL A   1      34.001  21.540  25.401  1.00  0.00     0.022 C 
ATOM     18  C   UNL A   1      35.197  20.637  25.078  1.00  0.00     0.007 C 
ATOM     19  C   UNL A   1      32.904  20.534  25.777  1.00  0.00     0.117 C 
ATOM     20  C   UNL A   1      34.631  19.287  24.630  1.00  0.00     0.003 C 
ATOM     21  C   UNL A   1      33.125  19.341  24.858  1.00  0.00     0.032 C 
BRANCH  19  22
ATOM     22  O   UNL A   1      31.587  21.033  25.667  1.00  0.00    -0.393 OA
ATOM     23  H   UNL A   1      30.965  20.292  25.595  1.00  0.00     0.210 HD
ENDBRANCH  19  22
ENDBRANCH  16  17
ENDBRANCH  15  16
ENDBRANCH   7   9
ENDBRANCH   4   7
ENDBRANCH   2   3
ENDBRANCH   1   2
BRANCH   1  24
ATOM     24  C   UNL A   1      34.129  32.455  27.922  1.00  0.00     0.002 C 
BRANCH  24  25
ATOM     25  C   UNL A   1      34.122  33.516  29.027  1.00  0.00     0.002 C 
BRANCH  25  26
ATOM     26  C   UNL A   1      33.039  34.585  28.870  1.00  0.00     0.021 C 
BRANCH  26  27
ATOM     27  C   UNL A   1      33.394  35.923  29.506  1.00  0.00     0.116 C 
BRANCH  27  28
ATOM     28  N   UNL A   1      32.537  36.224  30.642  1.00  0.00    -0.352 N 
ATOM     29  C   UNL A   1      32.619  35.769  31.932  1.00  0.00     0.251 C 
ATOM     30  H   UNL A   1      31.794  36.843  30.459  1.00  0.00     0.163 HD
ATOM     31  O   UNL A   1      31.683  35.940  32.712  1.00  0.00    -0.269 OA
BRANCH  29  32
ATOM     32  C   UNL A   1      33.830  35.055  32.381  1.00  0.00     0.039 A 
ATOM     33  C   UNL A   1      33.707  33.753  32.869  1.00  0.00     0.014 A 
ATOM     34  C   UNL A   1      35.084  35.671  32.327  1.00  0.00     0.014 A 
ATOM     35  C   UNL A   1      34.848  33.048  33.253  1.00  0.00     0.010 A 
ATOM     36  C   UNL A   1      36.227  34.942  32.634  1.00  0.00     0.010 A 
ATOM     37  C   UNL A   1      36.121  33.625  33.108  1.00  0.00    -0.014 A 
BRANCH  37  38
ATOM     38  C   UNL A   1      37.350  32.867  33.455  1.00  0.00     0.031 A 
ATOM     39  C   UNL A   1      38.089  33.169  34.728  1.00  0.00     0.074 A 
ATOM     40  C   UNL A   1      37.825  31.942  32.597  1.00  0.00     0.049 A 
ATOM     41  N   UNL A   1      39.207  32.656  35.178  1.00  0.00    -0.248 NA
ATOM     42  C   UNL A   1      37.511  34.203  35.600  1.00  0.00     0.031 C 
ATOM     43  C   UNL A   1      37.220  31.593  31.311  1.00  0.00     0.029 A 
ATOM     44  N   UNL A   1      38.930  31.134  32.675  1.00  0.00    -0.354 N 
ATOM     45  C   UNL A   1      39.463  33.304  36.379  1.00  0.00     0.074 A 
ATOM     46  C   UNL A   1      38.425  34.294  36.556  1.00  0.00     0.031 C 
ATOM     47  C   UNL A   1      37.947  30.624  30.732  1.00  0.00     0.029 A 
ATOM     48  C   UNL A   1      39.091  30.314  31.584  1.00  0.00     0.049 A 
ATOM     49  H   UNL A   1      39.550  31.141  33.440  1.00  0.00     0.167 HD
ATOM     50  C   UNL A   1      40.458  33.074  37.269  1.00  0.00     0.037 A 
ATOM     51  C   UNL A   1      40.058  29.421  31.300  1.00  0.00     0.037 A 
ATOM     52  C   UNL A   1      41.486  32.080  37.094  1.00  0.00     0.049 A 
ATOM     53  C   UNL A   1      41.171  29.208  32.293  1.00  0.00     0.074 A 
ATOM     54  C   UNL A   1      42.518  31.744  37.951  1.00  0.00     0.029 A 
ATOM     55  N   UNL A   1      41.611  31.262  35.979  1.00  0.00    -0.354 N 
ATOM     56  N   UNL A   1      41.366  29.781  33.456  1.00  0.00    -0.248 NA
ATOM     57  C   UNL A   1      42.194  28.216  31.934  1.00  0.00     0.031 C 
ATOM     58  C   UNL A   1      43.297  30.760  37.334  1.00  0.00     0.029 A 
ATOM     59  C   UNL A   1      42.717  30.439  36.119  1.00  0.00     0.049 A 
ATOM     60  H   UNL A   1      41.005  31.268  35.204  1.00  0.00     0.167 HD
ATOM     61  C   UNL A   1      42.511  29.196  33.981  1.00  0.00     0.074 A 
ATOM     62  C   UNL A   1      42.956  28.211  33.019  1.00  0.00     0.031 C 
ATOM     63  C   UNL A   1      43.139  29.453  35.156  1.00  0.00     0.037 A 
BRANCH  50  64
ATOM     64  C   UNL A   1      40.480  33.907  38.519  1.00  0.00     0.064 A 
ATOM     65  C   UNL A   1      41.191  35.116  38.583  1.00  0.00     0.173 A 
ATOM     66  C   UNL A   1      39.754  33.514  39.654  1.00  0.00     0.173 A 
ATOM     67  F   UNL A   1      41.911  35.533  37.530  1.00  0.00    -0.203 F 
ATOM     68  C   UNL A   1      41.199  35.884  39.745  1.00  0.00     0.198 A 
ATOM     69  C   UNL A   1      39.737  34.302  40.802  1.00  0.00     0.198 A 
ATOM     70  F   UNL A   1      39.051  32.371  39.647  1.00  0.00    -0.203 F 
ATOM     71  F   UNL A   1      41.928  37.007  39.798  1.00  0.00    -0.200 F 
ATOM     72  C   UNL A   1      40.466  35.481  40.850  1.00  0.00     0.200 A 
ATOM     73  F   UNL A   1      39.015  33.919  41.865  1.00  0.00    -0.200 F 
ATOM     74  F   UNL A   1      40.467  36.225  41.964  1.00  0.00    -0.200 F 
ENDBRANCH  50  64
BRANCH  51  75
ATOM     75  C   UNL A   1      40.014  28.649  30.030  1.00  0.00     0.064 A 
ATOM     76  C   UNL A   1      39.413  27.383  29.976  1.00  0.00     0.173 A 
ATOM     77  C   UNL A   1      40.595  29.145  28.854  1.00  0.00     0.173 A 
ATOM     78  F   UNL A   1      38.861  26.856  31.078  1.00  0.00    -0.203 F 
ATOM     79  C   UNL A   1      39.422  26.631  28.802  1.00  0.00     0.198 A 
ATOM     80  C   UNL A   1      40.573  28.406  27.672  1.00  0.00     0.198 A 
ATOM     81  F   UNL A   1      41.178  30.353  28.848  1.00  0.00    -0.203 F 
ATOM     82  F   UNL A   1      38.894  25.400  28.795  1.00  0.00    -0.200 F 
ATOM     83  C   UNL A   1      39.998  27.144  27.651  1.00  0.00     0.200 A 
ATOM     84  F   UNL A   1      41.116  28.914  26.557  1.00  0.00    -0.200 F 
ATOM     85  F   UNL A   1      40.008  26.421  26.524  1.00  0.00    -0.200 F 
ENDBRANCH  51  75
BRANCH  63  86
ATOM     86  C   UNL A   1      44.347  28.625  35.486  1.00  0.00     0.064 A 
ATOM     87  C   UNL A   1      44.247  27.418  36.194  1.00  0.00     0.173 A 
ATOM     88  C   UNL A   1      45.621  29.029  35.058  1.00  0.00     0.173 A 
ATOM     89  F   UNL A   1      43.054  26.993  36.639  1.00  0.00    -0.203 F 
ATOM     90  C   UNL A   1      45.380  26.665  36.489  1.00  0.00     0.198 A 
ATOM     91  C   UNL A   1      46.747  28.257  35.324  1.00  0.00     0.198 A 
ATOM     92  F   UNL A   1      45.773  30.172  34.370  1.00  0.00    -0.203 F 
ATOM     93  F   UNL A   1      45.267  25.545  37.216  1.00  0.00    -0.200 F 
ATOM     94  C   UNL A   1      46.628  27.080  36.047  1.00  0.00     0.200 A 
ATOM     95  F   UNL A   1      47.950  28.651  34.882  1.00  0.00    -0.200 F 
ATOM     96  F   UNL A   1      47.716  26.350  36.326  1.00  0.00    -0.200 F 
ENDBRANCH  63  86
ENDBRANCH  37  38
ENDBRANCH  29  32
ENDBRANCH  27  28
ENDBRANCH  26  27
ENDBRANCH  25  26
ENDBRANCH  24  25
ENDBRANCH   1  24
TORSDOF 17
ENDMDL
