MODEL 1
REMARK VINA RESULT:     -11.9      0.000      0.000
REMARK SMILES O=C(NCCCCCCNC(=O)[C@H]1CC[C@H]2CCCC[C@@H]2[N@H+]1[C@@H]1CCCSC1)c1ccc(-c2c3nc(c(-c4c(F)c(F)c(F)c(F)c4F)c4ccc([nH]4)c(-c4c(F)c(F)c(F)c(F)c4F)c4nc(c(-c5c(F)c(F)c(F)c(F)c5F)c5ccc2[nH]5)C=C4)C=C3)cc1
REMARK SMILES IDX 6 1 5 2 4 3 3 4 1 5 2 6 29 8 30 9 91 10 31 11 90 12 32 13
REMARK SMILES IDX 33 14 34 15 84 16 35 17 89 18 83 19 85 20 36 21 88 22 82 23
REMARK SMILES IDX 81 24 37 26 69 27 49 28 68 29 50 30 53 31 67 32 86 33 51 34
REMARK SMILES IDX 52 35 66 37 87 38 54 39 38 40 39 41 47 42 40 43 41 44 45 45
REMARK SMILES IDX 48 46 42 47 43 48 46 49 44 50 70 51 71 52 79 53 72 54 73 55
REMARK SMILES IDX 77 56 80 57 74 58 75 59 78 60 76 61 55 62 56 63 64 64 57 65
REMARK SMILES IDX 58 66 62 67 65 68 59 69 60 70 63 71 61 72 7 73 8 74 9 75
REMARK SMILES IDX 10 76 11 77 12 79 13 80 14 81 22 82 15 83 21 84 16 86 20 87
REMARK SMILES IDX 17 88 19 89 18 90 23 91 24 92 28 93 25 94 27 95 26 96
REMARK H PARENT 3 7 85 25 53 36 10 78 22 85
REMARK Flexibility Score: inf
ROOT
ATOM      1  C   UNL A   1      32.434  26.669  25.931  1.00  0.00     0.002 C 
ENDROOT
BRANCH   1   2
ATOM      2  C   UNL A   1      33.093  27.631  26.919  1.00  0.00     0.021 C 
BRANCH   2   3
ATOM      3  C   UNL A   1      34.072  28.612  26.290  1.00  0.00     0.116 C 
BRANCH   3   4
ATOM      4  N   UNL A   1      33.843  29.978  26.730  1.00  0.00    -0.352 N 
ATOM      5  O   UNL A   1      34.162  31.815  28.007  1.00  0.00    -0.269 OA
ATOM      6  C   UNL A   1      34.584  30.735  27.603  1.00  0.00     0.251 C 
ATOM      7  H   UNL A   1      33.051  30.421  26.349  1.00  0.00     0.163 HD
BRANCH   6   8
ATOM      8  C   UNL A   1      35.894  30.236  28.067  1.00  0.00     0.039 A 
ATOM      9  C   UNL A   1      37.025  30.353  27.254  1.00  0.00     0.014 A 
ATOM     10  C   UNL A   1      35.999  29.665  29.339  1.00  0.00     0.014 A 
ATOM     11  C   UNL A   1      38.233  29.805  27.664  1.00  0.00     0.010 A 
ATOM     12  C   UNL A   1      37.236  29.191  29.786  1.00  0.00     0.010 A 
ATOM     13  C   UNL A   1      38.360  29.251  28.948  1.00  0.00    -0.014 A 
BRANCH  13  14
ATOM     14  C   UNL A   1      39.707  28.868  29.437  1.00  0.00     0.031 A 
ATOM     15  C   UNL A   1      40.469  29.727  30.402  1.00  0.00     0.074 A 
ATOM     16  C   UNL A   1      40.232  27.710  28.988  1.00  0.00     0.049 A 
ATOM     17  N   UNL A   1      41.657  29.529  30.914  1.00  0.00    -0.248 NA
ATOM     18  C   UNL A   1      39.825  30.972  30.847  1.00  0.00     0.031 C 
ATOM     19  C   UNL A   1      39.584  26.810  28.029  1.00  0.00     0.029 A 
ATOM     20  N   UNL A   1      41.419  27.087  29.275  1.00  0.00    -0.354 N 
ATOM     21  C   UNL A   1      41.912  30.626  31.725  1.00  0.00     0.074 A 
ATOM     22  C   UNL A   1      40.760  31.498  31.627  1.00  0.00     0.031 C 
ATOM     23  C   UNL A   1      40.365  25.739  27.832  1.00  0.00     0.029 A 
ATOM     24  C   UNL A   1      41.595  25.907  28.593  1.00  0.00     0.049 A 
ATOM     25  H   UNL A   1      42.080  27.450  29.907  1.00  0.00     0.167 HD
ATOM     26  C   UNL A   1      43.009  30.873  32.481  1.00  0.00     0.037 A 
ATOM     27  C   UNL A   1      42.646  25.069  28.556  1.00  0.00     0.037 A 
ATOM     28  C   UNL A   1      44.141  29.985  32.583  1.00  0.00     0.049 A 
ATOM     29  C   UNL A   1      43.855  25.390  29.386  1.00  0.00     0.074 A 
ATOM     30  C   UNL A   1      45.267  30.114  33.379  1.00  0.00     0.029 A 
ATOM     31  N   UNL A   1      44.297  28.812  31.859  1.00  0.00    -0.354 N 
ATOM     32  N   UNL A   1      44.054  26.396  30.202  1.00  0.00    -0.248 NA
ATOM     33  C   UNL A   1      44.990  24.463  29.286  1.00  0.00     0.031 C 
ATOM     34  C   UNL A   1      46.129  29.051  33.093  1.00  0.00     0.029 A 
ATOM     35  C   UNL A   1      45.518  28.229  32.161  1.00  0.00     0.049 A 
ATOM     36  H   UNL A   1      43.636  28.447  31.226  1.00  0.00     0.167 HD
ATOM     37  C   UNL A   1      45.328  26.220  30.719  1.00  0.00     0.074 A 
ATOM     38  C   UNL A   1      45.843  24.991  30.151  1.00  0.00     0.031 C 
ATOM     39  C   UNL A   1      46.016  27.009  31.580  1.00  0.00     0.037 A 
BRANCH  26  40
ATOM     40  C   UNL A   1      43.067  32.157  33.256  1.00  0.00     0.064 A 
ATOM     41  C   UNL A   1      42.546  32.259  34.554  1.00  0.00     0.173 A 
ATOM     42  C   UNL A   1      43.749  33.266  32.733  1.00  0.00     0.173 A 
ATOM     43  F   UNL A   1      41.879  31.230  35.098  1.00  0.00    -0.203 F 
ATOM     44  C   UNL A   1      42.703  33.427  35.297  1.00  0.00     0.198 A 
ATOM     45  C   UNL A   1      43.925  34.423  33.488  1.00  0.00     0.198 A 
ATOM     46  F   UNL A   1      44.273  33.217  31.499  1.00  0.00    -0.203 F 
ATOM     47  F   UNL A   1      42.183  33.509  36.530  1.00  0.00    -0.200 F 
ATOM     48  C   UNL A   1      43.402  34.503  34.769  1.00  0.00     0.200 A 
ATOM     49  F   UNL A   1      44.613  35.455  32.980  1.00  0.00    -0.200 F 
ATOM     50  F   UNL A   1      43.572  35.616  35.495  1.00  0.00    -0.200 F 
ENDBRANCH  26  40
BRANCH  27  51
ATOM     51  C   UNL A   1      42.614  23.872  27.678  1.00  0.00     0.064 A 
ATOM     52  C   UNL A   1      42.275  22.610  28.183  1.00  0.00     0.173 A 
ATOM     53  C   UNL A   1      42.939  23.963  26.315  1.00  0.00     0.173 A 
ATOM     54  F   UNL A   1      41.975  22.467  29.482  1.00  0.00    -0.203 F 
ATOM     55  C   UNL A   1      42.292  21.480  27.366  1.00  0.00     0.198 A 
ATOM     56  C   UNL A   1      42.919  22.840  25.492  1.00  0.00     0.198 A 
ATOM     57  F   UNL A   1      43.264  25.149  25.780  1.00  0.00    -0.203 F 
ATOM     58  F   UNL A   1      42.022  20.276  27.888  1.00  0.00    -0.200 F 
ATOM     59  C   UNL A   1      42.607  21.598  26.020  1.00  0.00     0.200 A 
ATOM     60  F   UNL A   1      43.207  22.963  24.189  1.00  0.00    -0.200 F 
ATOM     61  F   UNL A   1      42.623  20.511  25.237  1.00  0.00    -0.200 F 
ENDBRANCH  27  51
BRANCH  39  62
ATOM     62  C   UNL A   1      47.393  26.556  31.964  1.00  0.00     0.064 A 
ATOM     63  C   UNL A   1      48.527  26.980  31.255  1.00  0.00     0.173 A 
ATOM     64  C   UNL A   1      47.584  25.705  33.063  1.00  0.00     0.173 A 
ATOM     65  F   UNL A   1      48.393  27.778  30.184  1.00  0.00    -0.203 F 
ATOM     66  C   UNL A   1      49.799  26.547  31.615  1.00  0.00     0.198 A 
ATOM     67  C   UNL A   1      48.860  25.300  33.440  1.00  0.00     0.198 A 
ATOM     68  F   UNL A   1      46.532  25.274  33.776  1.00  0.00    -0.203 F 
ATOM     69  F   UNL A   1      50.862  26.920  30.890  1.00  0.00    -0.200 F 
ATOM     70  C   UNL A   1      49.966  25.713  32.711  1.00  0.00     0.200 A 
ATOM     71  F   UNL A   1      49.022  24.505  34.507  1.00  0.00    -0.200 F 
ATOM     72  F   UNL A   1      51.192  25.300  33.059  1.00  0.00    -0.200 F 
ENDBRANCH  39  62
ENDBRANCH  13  14
ENDBRANCH   6   8
ENDBRANCH   3   4
ENDBRANCH   2   3
ENDBRANCH   1   2
BRANCH   1  73
ATOM     73  C   UNL A   1      30.910  26.792  25.816  1.00  0.00     0.002 C 
BRANCH  73  74
ATOM     74  C   UNL A   1      30.307  26.324  24.485  1.00  0.00     0.021 C 
BRANCH  74  75
ATOM     75  C   UNL A   1      30.801  24.963  24.005  1.00  0.00     0.116 C 
BRANCH  75  76
ATOM     76  N   UNL A   1      30.222  23.874  24.769  1.00  0.00    -0.351 N 
ATOM     77  C   UNL A   1      30.850  22.961  25.573  1.00  0.00     0.278 C 
ATOM     78  H   UNL A   1      29.245  23.779  24.701  1.00  0.00     0.163 HD
ATOM     79  O   UNL A   1      30.164  22.104  26.132  1.00  0.00    -0.268 OA
BRANCH  77  80
ATOM     80  C   UNL A   1      32.380  23.045  25.741  1.00  0.00     0.274 C 
ATOM     81  C   UNL A   1      32.827  22.901  27.209  1.00  0.00     0.076 C 
ATOM     82  N   UNL A   1      33.102  22.171  24.777  1.00  0.00    -0.319 N 
ATOM     83  C   UNL A   1      34.341  22.700  27.351  1.00  0.00     0.016 C 
ATOM     84  C   UNL A   1      34.565  22.346  24.861  1.00  0.00     0.188 C 
ATOM     85  H   UNL A   1      32.823  22.517  23.859  1.00  0.00     0.349 HD
ATOM     86  C   UNL A   1      35.049  23.167  26.082  1.00  0.00     0.048 C 
ATOM     87  C   UNL A   1      35.092  23.044  23.593  1.00  0.00     0.065 C 
ATOM     88  C   UNL A   1      36.575  23.083  26.162  1.00  0.00     0.010 C 
ATOM     89  C   UNL A   1      36.624  23.108  23.608  1.00  0.00     0.006 C 
ATOM     90  C   UNL A   1      37.195  23.693  24.902  1.00  0.00     0.001 C 
BRANCH  82  91
ATOM     91  C   UNL A   1      32.638  20.752  24.688  1.00  0.00     0.194 C 
ATOM     92  C   UNL A   1      33.293  19.782  25.698  1.00  0.00     0.067 C 
ATOM     93  C   UNL A   1      32.784  20.232  23.234  1.00  0.00     0.134 C 
ATOM     94  C   UNL A   1      32.761  18.351  25.628  1.00  0.00     0.017 C 
ATOM     95  S   UNL A   1      32.100  18.563  22.971  1.00  0.00    -0.156 SA
ATOM     96  C   UNL A   1      33.000  17.692  24.280  1.00  0.00     0.070 C 
ENDBRANCH  82  91
ENDBRANCH  77  80
ENDBRANCH  75  76
ENDBRANCH  74  75
ENDBRANCH  73  74
ENDBRANCH   1  73
TORSDOF 14
ENDMDL
MODEL 2
REMARK VINA RESULT:     -11.9      3.529      8.847
REMARK SMILES O=C(NCCCCCCNC(=O)[C@H]1CC[C@H]2CCCC[C@@H]2[N@H+]1[C@@H]1CCCSC1)c1ccc(-c2c3nc(c(-c4c(F)c(F)c(F)c(F)c4F)c4ccc([nH]4)c(-c4c(F)c(F)c(F)c(F)c4F)c4nc(c(-c5c(F)c(F)c(F)c(F)c5F)c5ccc2[nH]5)C=C4)C=C3)cc1
REMARK SMILES IDX 6 1 5 2 4 3 3 4 1 5 2 6 29 8 30 9 91 10 31 11 90 12 32 13
REMARK SMILES IDX 33 14 34 15 84 16 35 17 89 18 83 19 85 20 36 21 88 22 82 23
REMARK SMILES IDX 81 24 37 26 69 27 49 28 68 29 50 30 53 31 67 32 86 33 51 34
REMARK SMILES IDX 52 35 66 37 87 38 54 39 38 40 39 41 47 42 40 43 41 44 45 45
REMARK SMILES IDX 48 46 42 47 43 48 46 49 44 50 70 51 71 52 79 53 72 54 73 55
REMARK SMILES IDX 77 56 80 57 74 58 75 59 78 60 76 61 55 62 56 63 64 64 57 65
REMARK SMILES IDX 58 66 62 67 65 68 59 69 60 70 63 71 61 72 7 73 8 74 9 75
REMARK SMILES IDX 10 76 11 77 12 79 13 80 14 81 22 82 15 83 21 84 16 86 20 87
REMARK SMILES IDX 17 88 19 89 18 90 23 91 24 92 28 93 25 94 27 95 26 96
REMARK H PARENT 3 7 85 25 53 36 10 78 22 85
REMARK Flexibility Score: inf
ROOT
ATOM      1  C   UNL A   1      34.946  22.380  24.425  1.00  0.00     0.002 C 
ENDROOT
BRANCH   1   2
ATOM      2  C   UNL A   1      35.525  23.451  25.349  1.00  0.00     0.021 C 
BRANCH   2   3
ATOM      3  C   UNL A   1      36.990  23.779  25.100  1.00  0.00     0.116 C 
BRANCH   3   4
ATOM      4  N   UNL A   1      37.878  22.722  25.555  1.00  0.00    -0.352 N 
ATOM      5  O   UNL A   1      39.769  21.854  26.436  1.00  0.00    -0.269 OA
ATOM      6  C   UNL A   1      39.038  22.829  26.279  1.00  0.00     0.251 C 
ATOM      7  H   UNL A   1      37.610  21.807  25.312  1.00  0.00     0.163 HD
BRANCH   6   8
ATOM      8  C   UNL A   1      39.415  24.132  26.863  1.00  0.00     0.039 A 
ATOM      9  C   UNL A   1      39.130  24.417  28.202  1.00  0.00     0.014 A 
ATOM     10  C   UNL A   1      40.081  25.072  26.070  1.00  0.00     0.014 A 
ATOM     11  C   UNL A   1      39.412  25.675  28.717  1.00  0.00     0.010 A 
ATOM     12  C   UNL A   1      40.441  26.307  26.615  1.00  0.00     0.010 A 
ATOM     13  C   UNL A   1      40.102  26.620  27.941  1.00  0.00    -0.014 A 
BRANCH  13  14
ATOM     14  C   UNL A   1      40.574  27.871  28.582  1.00  0.00     0.031 A 
ATOM     15  C   UNL A   1      42.003  28.050  29.005  1.00  0.00     0.074 A 
ATOM     16  C   UNL A   1      39.675  28.858  28.774  1.00  0.00     0.049 A 
ATOM     17  N   UNL A   1      42.564  29.081  29.583  1.00  0.00    -0.248 NA
ATOM     18  C   UNL A   1      42.921  26.928  28.756  1.00  0.00     0.031 C 
ATOM     19  C   UNL A   1      38.255  28.779  28.421  1.00  0.00     0.029 A 
ATOM     20  N   UNL A   1      39.814  30.114  29.304  1.00  0.00    -0.354 N 
ATOM     21  C   UNL A   1      43.892  28.732  29.784  1.00  0.00     0.074 A 
ATOM     22  C   UNL A   1      44.053  27.384  29.280  1.00  0.00     0.031 C 
ATOM     23  C   UNL A   1      37.661  29.944  28.714  1.00  0.00     0.029 A 
ATOM     24  C   UNL A   1      38.639  30.826  29.337  1.00  0.00     0.049 A 
ATOM     25  H   UNL A   1      40.672  30.471  29.628  1.00  0.00     0.167 HD
ATOM     26  C   UNL A   1      44.880  29.476  30.337  1.00  0.00     0.037 A 
ATOM     27  C   UNL A   1      38.369  32.042  29.845  1.00  0.00     0.037 A 
ATOM     28  C   UNL A   1      44.709  30.824  30.817  1.00  0.00     0.049 A 
ATOM     29  C   UNL A   1      39.484  32.824  30.475  1.00  0.00     0.074 A 
ATOM     30  C   UNL A   1      45.667  31.684  31.327  1.00  0.00     0.029 A 
ATOM     31  N   UNL A   1      43.500  31.504  30.859  1.00  0.00    -0.354 N 
ATOM     32  N   UNL A   1      40.750  32.509  30.596  1.00  0.00    -0.248 NA
ATOM     33  C   UNL A   1      39.133  34.131  31.047  1.00  0.00     0.031 C 
ATOM     34  C   UNL A   1      45.028  32.861  31.731  1.00  0.00     0.029 A 
ATOM     35  C   UNL A   1      43.682  32.757  31.423  1.00  0.00     0.049 A 
ATOM     36  H   UNL A   1      42.641  31.148  30.534  1.00  0.00     0.167 HD
ATOM     37  C   UNL A   1      41.348  33.578  31.246  1.00  0.00     0.074 A 
ATOM     38  C   UNL A   1      40.312  34.566  31.464  1.00  0.00     0.031 C 
ATOM     39  C   UNL A   1      42.637  33.725  31.638  1.00  0.00     0.037 A 
BRANCH  26  40
ATOM     40  C   UNL A   1      46.243  28.861  30.476  1.00  0.00     0.064 A 
ATOM     41  C   UNL A   1      46.583  28.060  31.575  1.00  0.00     0.173 A 
ATOM     42  C   UNL A   1      47.182  28.989  29.441  1.00  0.00     0.173 A 
ATOM     43  F   UNL A   1      45.724  27.912  32.594  1.00  0.00    -0.203 F 
ATOM     44  C   UNL A   1      47.816  27.414  31.634  1.00  0.00     0.198 A 
ATOM     45  C   UNL A   1      48.403  28.321  29.492  1.00  0.00     0.198 A 
ATOM     46  F   UNL A   1      46.902  29.737  28.363  1.00  0.00    -0.203 F 
ATOM     47  F   UNL A   1      48.127  26.666  32.702  1.00  0.00    -0.200 F 
ATOM     48  C   UNL A   1      48.719  27.534  30.589  1.00  0.00     0.200 A 
ATOM     49  F   UNL A   1      49.268  28.428  28.473  1.00  0.00    -0.200 F 
ATOM     50  F   UNL A   1      49.893  26.892  30.637  1.00  0.00    -0.200 F 
ENDBRANCH  26  40
BRANCH  27  51
ATOM     51  C   UNL A   1      36.982  32.571  29.812  1.00  0.00     0.064 A 
ATOM     52  C   UNL A   1      36.495  33.260  28.694  1.00  0.00     0.173 A 
ATOM     53  C   UNL A   1      36.119  32.414  30.907  1.00  0.00     0.173 A 
ATOM     54  F   UNL A   1      37.287  33.453  27.629  1.00  0.00    -0.203 F 
ATOM     55  C   UNL A   1      35.208  33.798  28.684  1.00  0.00     0.198 A 
ATOM     56  C   UNL A   1      34.821  32.918  30.882  1.00  0.00     0.198 A 
ATOM     57  F   UNL A   1      36.533  31.756  32.001  1.00  0.00    -0.203 F 
ATOM     58  F   UNL A   1      34.789  34.503  27.625  1.00  0.00    -0.200 F 
ATOM     59  C   UNL A   1      34.371  33.621  29.776  1.00  0.00     0.200 A 
ATOM     60  F   UNL A   1      34.011  32.729  31.932  1.00  0.00    -0.200 F 
ATOM     61  F   UNL A   1      33.136  34.138  29.765  1.00  0.00    -0.200 F 
ENDBRANCH  27  51
BRANCH  39  62
ATOM     62  C   UNL A   1      42.994  35.007  32.329  1.00  0.00     0.064 A 
ATOM     63  C   UNL A   1      42.931  35.126  33.726  1.00  0.00     0.173 A 
ATOM     64  C   UNL A   1      43.422  36.120  31.592  1.00  0.00     0.173 A 
ATOM     65  F   UNL A   1      42.508  34.095  34.473  1.00  0.00    -0.203 F 
ATOM     66  C   UNL A   1      43.257  36.323  34.356  1.00  0.00     0.198 A 
ATOM     67  C   UNL A   1      43.778  37.305  32.228  1.00  0.00     0.198 A 
ATOM     68  F   UNL A   1      43.503  36.056  30.254  1.00  0.00    -0.203 F 
ATOM     69  F   UNL A   1      43.137  36.432  35.686  1.00  0.00    -0.200 F 
ATOM     70  C   UNL A   1      43.687  37.409  33.608  1.00  0.00     0.200 A 
ATOM     71  F   UNL A   1      44.206  38.350  31.505  1.00  0.00    -0.200 F 
ATOM     72  F   UNL A   1      44.004  38.560  34.217  1.00  0.00    -0.200 F 
ENDBRANCH  39  62
ENDBRANCH  13  14
ENDBRANCH   6   8
ENDBRANCH   3   4
ENDBRANCH   2   3
ENDBRANCH   1   2
BRANCH   1  73
ATOM     73  C   UNL A   1      33.921  22.883  23.402  1.00  0.00     0.002 C 
BRANCH  73  74
ATOM     74  C   UNL A   1      32.459  22.531  23.702  1.00  0.00     0.021 C 
BRANCH  74  75
ATOM     75  C   UNL A   1      31.498  23.715  23.670  1.00  0.00     0.116 C 
BRANCH  75  76
ATOM     76  N   UNL A   1      31.460  24.350  22.366  1.00  0.00    -0.351 N 
ATOM     77  C   UNL A   1      31.870  25.607  22.010  1.00  0.00     0.278 C 
ATOM     78  H   UNL A   1      31.090  23.801  21.637  1.00  0.00     0.163 HD
ATOM     79  O   UNL A   1      31.741  25.953  20.835  1.00  0.00    -0.268 OA
BRANCH  77  80
ATOM     80  C   UNL A   1      32.470  26.527  23.091  1.00  0.00     0.274 C 
ATOM     81  C   UNL A   1      33.621  27.402  22.556  1.00  0.00     0.076 C 
ATOM     82  N   UNL A   1      31.423  27.263  23.849  1.00  0.00    -0.319 N 
ATOM     83  C   UNL A   1      34.028  28.510  23.536  1.00  0.00     0.016 C 
ATOM     84  C   UNL A   1      31.994  28.050  24.960  1.00  0.00     0.188 C 
ATOM     85  H   UNL A   1      30.854  26.532  24.276  1.00  0.00     0.349 HD
ATOM     86  C   UNL A   1      33.539  28.167  24.941  1.00  0.00     0.048 C 
ATOM     87  C   UNL A   1      31.591  27.433  26.313  1.00  0.00     0.065 C 
ATOM     88  C   UNL A   1      33.971  29.177  26.006  1.00  0.00     0.010 C 
ATOM     89  C   UNL A   1      32.064  28.316  27.472  1.00  0.00     0.006 C 
ATOM     90  C   UNL A   1      33.549  28.682  27.392  1.00  0.00     0.001 C 
BRANCH  82  91
ATOM     91  C   UNL A   1      30.388  27.976  23.036  1.00  0.00     0.194 C 
ATOM     92  C   UNL A   1      30.733  29.436  22.668  1.00  0.00     0.067 C 
ATOM     93  C   UNL A   1      29.005  27.882  23.731  1.00  0.00     0.134 C 
ATOM     94  C   UNL A   1      29.689  30.124  21.789  1.00  0.00     0.017 C 
ATOM     95  S   UNL A   1      27.634  28.578  22.751  1.00  0.00    -0.156 SA
ATOM     96  C   UNL A   1      28.326  30.225  22.450  1.00  0.00     0.070 C 
ENDBRANCH  82  91
ENDBRANCH  77  80
ENDBRANCH  75  76
ENDBRANCH  74  75
ENDBRANCH  73  74
ENDBRANCH   1  73
TORSDOF 14
ENDMDL
MODEL 3
REMARK VINA RESULT:     -11.9      0.772      1.789
REMARK SMILES O=C(NCCCCCCNC(=O)[C@H]1CC[C@H]2CCCC[C@@H]2[N@H+]1[C@@H]1CCCSC1)c1ccc(-c2c3nc(c(-c4c(F)c(F)c(F)c(F)c4F)c4ccc([nH]4)c(-c4c(F)c(F)c(F)c(F)c4F)c4nc(c(-c5c(F)c(F)c(F)c(F)c5F)c5ccc2[nH]5)C=C4)C=C3)cc1
REMARK SMILES IDX 6 1 5 2 4 3 3 4 1 5 2 6 29 8 30 9 91 10 31 11 90 12 32 13
REMARK SMILES IDX 33 14 34 15 84 16 35 17 89 18 83 19 85 20 36 21 88 22 82 23
REMARK SMILES IDX 81 24 37 26 69 27 49 28 68 29 50 30 53 31 67 32 86 33 51 34
REMARK SMILES IDX 52 35 66 37 87 38 54 39 38 40 39 41 47 42 40 43 41 44 45 45
REMARK SMILES IDX 48 46 42 47 43 48 46 49 44 50 70 51 71 52 79 53 72 54 73 55
REMARK SMILES IDX 77 56 80 57 74 58 75 59 78 60 76 61 55 62 56 63 64 64 57 65
REMARK SMILES IDX 58 66 62 67 65 68 59 69 60 70 63 71 61 72 7 73 8 74 9 75
REMARK SMILES IDX 10 76 11 77 12 79 13 80 14 81 22 82 15 83 21 84 16 86 20 87
REMARK SMILES IDX 17 88 19 89 18 90 23 91 24 92 28 93 25 94 27 95 26 96
REMARK H PARENT 3 7 85 25 53 36 10 78 22 85
REMARK Flexibility Score: inf
ROOT
ATOM      1  C   UNL A   1      33.482  26.357  25.064  1.00  0.00     0.002 C 
ENDROOT
BRANCH   1   2
ATOM      2  C   UNL A   1      33.638  27.846  25.374  1.00  0.00     0.021 C 
BRANCH   2   3
ATOM      3  C   UNL A   1      33.858  28.167  26.845  1.00  0.00     0.116 C 
BRANCH   3   4
ATOM      4  N   UNL A   1      33.646  29.575  27.140  1.00  0.00    -0.352 N 
ATOM      5  O   UNL A   1      34.071  31.561  28.132  1.00  0.00    -0.269 OA
ATOM      6  C   UNL A   1      34.469  30.444  27.812  1.00  0.00     0.251 C 
ATOM      7  H   UNL A   1      32.800  29.956  26.813  1.00  0.00     0.163 HD
BRANCH   6   8
ATOM      8  C   UNL A   1      35.842  30.024  28.161  1.00  0.00     0.039 A 
ATOM      9  C   UNL A   1      36.884  30.175  27.242  1.00  0.00     0.014 A 
ATOM     10  C   UNL A   1      36.095  29.494  29.430  1.00  0.00     0.014 A 
ATOM     11  C   UNL A   1      38.152  29.699  27.548  1.00  0.00     0.010 A 
ATOM     12  C   UNL A   1      37.390  29.095  29.768  1.00  0.00     0.010 A 
ATOM     13  C   UNL A   1      38.427  29.188  28.826  1.00  0.00    -0.014 A 
BRANCH  13  14
ATOM     14  C   UNL A   1      39.831  28.885  29.194  1.00  0.00     0.031 A 
ATOM     15  C   UNL A   1      40.654  29.836  30.013  1.00  0.00     0.074 A 
ATOM     16  C   UNL A   1      40.355  27.717  28.770  1.00  0.00     0.049 A 
ATOM     17  N   UNL A   1      41.896  29.715  30.409  1.00  0.00    -0.248 NA
ATOM     18  C   UNL A   1      40.009  31.086  30.440  1.00  0.00     0.031 C 
ATOM     19  C   UNL A   1      39.648  26.730  27.948  1.00  0.00     0.029 A 
ATOM     20  N   UNL A   1      41.589  27.156  28.971  1.00  0.00    -0.354 N 
ATOM     21  C   UNL A   1      42.188  30.874  31.113  1.00  0.00     0.074 A 
ATOM     22  C   UNL A   1      40.998  31.698  31.080  1.00  0.00     0.031 C 
ATOM     23  C   UNL A   1      40.447  25.675  27.741  1.00  0.00     0.029 A 
ATOM     24  C   UNL A   1      41.742  25.938  28.354  1.00  0.00     0.049 A 
ATOM     25  H   UNL A   1      42.297  27.585  29.504  1.00  0.00     0.167 HD
ATOM     26  C   UNL A   1      43.347  31.210  31.730  1.00  0.00     0.037 A 
ATOM     27  C   UNL A   1      42.817  25.135  28.262  1.00  0.00     0.037 A 
ATOM     28  C   UNL A   1      44.518  30.371  31.771  1.00  0.00     0.049 A 
ATOM     29  C   UNL A   1      44.091  25.554  28.936  1.00  0.00     0.074 A 
ATOM     30  C   UNL A   1      45.714  30.593  32.432  1.00  0.00     0.029 A 
ATOM     31  N   UNL A   1      44.646  29.155  31.114  1.00  0.00    -0.354 N 
ATOM     32  N   UNL A   1      44.332  26.622  29.657  1.00  0.00    -0.248 NA
ATOM     33  C   UNL A   1      45.246  24.662  28.778  1.00  0.00     0.031 C 
ATOM     34  C   UNL A   1      46.585  29.542  32.128  1.00  0.00     0.029 A 
ATOM     35  C   UNL A   1      45.915  28.637  31.323  1.00  0.00     0.049 A 
ATOM     36  H   UNL A   1      43.939  28.725  30.581  1.00  0.00     0.167 HD
ATOM     37  C   UNL A   1      45.659  26.526  30.047  1.00  0.00     0.074 A 
ATOM     38  C   UNL A   1      46.162  25.278  29.510  1.00  0.00     0.031 C 
ATOM     39  C   UNL A   1      46.399  27.396  30.775  1.00  0.00     0.037 A 
BRANCH  26  40
ATOM     40  C   UNL A   1      43.432  32.547  32.408  1.00  0.00     0.064 A 
ATOM     41  C   UNL A   1      43.815  33.703  31.713  1.00  0.00     0.173 A 
ATOM     42  C   UNL A   1      43.020  32.689  33.742  1.00  0.00     0.173 A 
ATOM     43  F   UNL A   1      44.224  33.622  30.439  1.00  0.00    -0.203 F 
ATOM     44  C   UNL A   1      43.786  34.952  32.333  1.00  0.00     0.198 A 
ATOM     45  C   UNL A   1      42.969  33.940  34.349  1.00  0.00     0.198 A 
ATOM     46  F   UNL A   1      42.636  31.614  34.448  1.00  0.00    -0.203 F 
ATOM     47  F   UNL A   1      44.172  36.042  31.655  1.00  0.00    -0.200 F 
ATOM     48  C   UNL A   1      43.352  35.071  33.644  1.00  0.00     0.200 A 
ATOM     49  F   UNL A   1      42.536  34.054  35.613  1.00  0.00    -0.200 F 
ATOM     50  F   UNL A   1      43.302  36.275  34.229  1.00  0.00    -0.200 F 
ENDBRANCH  26  40
BRANCH  27  51
ATOM     51  C   UNL A   1      42.743  23.878  27.474  1.00  0.00     0.064 A 
ATOM     52  C   UNL A   1      42.316  22.679  28.059  1.00  0.00     0.173 A 
ATOM     53  C   UNL A   1      43.115  23.848  26.121  1.00  0.00     0.173 A 
ATOM     54  F   UNL A   1      41.967  22.652  29.353  1.00  0.00    -0.203 F 
ATOM     55  C   UNL A   1      42.293  21.491  27.328  1.00  0.00     0.198 A 
ATOM     56  C   UNL A   1      43.056  22.669  25.383  1.00  0.00     0.198 A 
ATOM     57  F   UNL A   1      43.525  24.970  25.511  1.00  0.00    -0.203 F 
ATOM     58  F   UNL A   1      41.937  20.347  27.928  1.00  0.00    -0.200 F 
ATOM     59  C   UNL A   1      42.657  21.489  25.990  1.00  0.00     0.200 A 
ATOM     60  F   UNL A   1      43.392  22.676  24.086  1.00  0.00    -0.200 F 
ATOM     61  F   UNL A   1      42.634  20.347  25.290  1.00  0.00    -0.200 F 
ENDBRANCH  27  51
BRANCH  39  62
ATOM     62  C   UNL A   1      47.826  27.018  31.040  1.00  0.00     0.064 A 
ATOM     63  C   UNL A   1      48.172  26.166  32.099  1.00  0.00     0.173 A 
ATOM     64  C   UNL A   1      48.856  27.495  30.214  1.00  0.00     0.173 A 
ATOM     65  F   UNL A   1      47.225  25.701  32.928  1.00  0.00    -0.203 F 
ATOM     66  C   UNL A   1      49.501  25.829  32.340  1.00  0.00     0.198 A 
ATOM     67  C   UNL A   1      50.179  27.129  30.439  1.00  0.00     0.198 A 
ATOM     68  F   UNL A   1      48.577  28.308  29.185  1.00  0.00    -0.203 F 
ATOM     69  F   UNL A   1      49.813  25.059  33.391  1.00  0.00    -0.200 F 
ATOM     70  C   UNL A   1      50.502  26.304  31.507  1.00  0.00     0.200 A 
ATOM     71  F   UNL A   1      51.144  27.578  29.625  1.00  0.00    -0.200 F 
ATOM     72  F   UNL A   1      51.780  25.974  31.738  1.00  0.00    -0.200 F 
ENDBRANCH  39  62
ENDBRANCH  13  14
ENDBRANCH   6   8
ENDBRANCH   3   4
ENDBRANCH   2   3
ENDBRANCH   1   2
BRANCH   1  73
ATOM     73  C   UNL A   1      32.923  26.033  23.675  1.00  0.00     0.002 C 
BRANCH  73  74
ATOM     74  C   UNL A   1      31.577  25.298  23.657  1.00  0.00     0.021 C 
BRANCH  74  75
ATOM     75  C   UNL A   1      30.804  25.352  24.971  1.00  0.00     0.116 C 
BRANCH  75  76
ATOM     76  N   UNL A   1      30.268  24.055  25.340  1.00  0.00    -0.351 N 
ATOM     77  C   UNL A   1      30.939  22.932  25.746  1.00  0.00     0.278 C 
ATOM     78  H   UNL A   1      29.288  23.970  25.291  1.00  0.00     0.163 HD
ATOM     79  O   UNL A   1      30.284  21.923  26.006  1.00  0.00    -0.268 OA
BRANCH  77  80
ATOM     80  C   UNL A   1      32.475  22.984  25.856  1.00  0.00     0.274 C 
ATOM     81  C   UNL A   1      32.975  22.789  27.301  1.00  0.00     0.076 C 
ATOM     82  N   UNL A   1      33.142  22.125  24.841  1.00  0.00    -0.319 N 
ATOM     83  C   UNL A   1      34.489  22.556  27.378  1.00  0.00     0.016 C 
ATOM     84  C   UNL A   1      34.611  22.270  24.873  1.00  0.00     0.188 C 
ATOM     85  H   UNL A   1      32.835  22.502  23.944  1.00  0.00     0.349 HD
ATOM     86  C   UNL A   1      35.157  23.047  26.097  1.00  0.00     0.048 C 
ATOM     87  C   UNL A   1      35.103  22.995  23.606  1.00  0.00     0.065 C 
ATOM     88  C   UNL A   1      36.683  22.932  26.116  1.00  0.00     0.010 C 
ATOM     89  C   UNL A   1      36.635  23.030  23.564  1.00  0.00     0.006 C 
ATOM     90  C   UNL A   1      37.267  23.567  24.850  1.00  0.00     0.001 C 
BRANCH  82  91
ATOM     91  C   UNL A   1      32.649  20.717  24.730  1.00  0.00     0.194 C 
ATOM     92  C   UNL A   1      33.249  19.728  25.753  1.00  0.00     0.067 C 
ATOM     93  C   UNL A   1      32.825  20.202  23.278  1.00  0.00     0.134 C 
ATOM     94  C   UNL A   1      32.686  18.310  25.659  1.00  0.00     0.017 C 
ATOM     95  S   UNL A   1      32.110  18.551  22.985  1.00  0.00    -0.156 SA
ATOM     96  C   UNL A   1      32.949  17.652  24.315  1.00  0.00     0.070 C 
ENDBRANCH  82  91
ENDBRANCH  77  80
ENDBRANCH  75  76
ENDBRANCH  74  75
ENDBRANCH  73  74
ENDBRANCH   1  73
TORSDOF 14
ENDMDL
