MODEL 1
REMARK VINA RESULT:     -11.9      0.000      0.000
REMARK SMILES C[C@@H](C(=O)NCCCCCCNC(=O)c1ccc(-c2c3nc(c(-c4c(F)c(F)c(F)c(F)c4F)c4ccc([nH]4)c(-c4c(F)c(F)c(F)c(F)c4F)c4nc(c(-c5c(F)c(F)c(F)c(F)c5F)c5ccc2[nH]5)C=C4)C=C3)cc1)c1ccc(N[C@H]2CCC[C@@H]2O)cc1F
REMARK SMILES IDX 7 1 6 2 5 3 3 4 4 5 2 7 1 8 78 9 79 10 90 11 80 12 89 13
REMARK SMILES IDX 91 14 81 15 82 16 83 18 84 19 87 20 85 21 86 22 88 23 8 25
REMARK SMILES IDX 9 26 10 27 11 28 12 29 13 30 14 32 15 33 16 34 77 35 17 36
REMARK SMILES IDX 76 37 18 38 19 39 20 40 70 41 21 42 75 43 69 44 71 45 22 46
REMARK SMILES IDX 74 47 68 48 67 49 23 51 55 52 35 53 54 54 36 55 39 56 53 57
REMARK SMILES IDX 72 58 37 59 38 60 52 62 73 63 40 64 24 65 25 66 33 67 26 68
REMARK SMILES IDX 27 69 31 70 34 71 28 72 29 73 32 74 30 75 56 76 57 77 65 78
REMARK SMILES IDX 58 79 59 80 63 81 66 82 60 83 61 84 64 85 62 86 41 87 42 88
REMARK SMILES IDX 50 89 43 90 44 91 48 92 51 93 45 94 46 95 49 96 47 97
REMARK H PARENT 5 6 82 17 88 24 12 31 71 50 39 61
REMARK Flexibility Score: inf
ROOT
ATOM      1  C   UNL A   1      36.742  22.640  23.473  1.00  0.00     0.021 C 
ENDROOT
BRANCH   1   2
ATOM      2  C   UNL A   1      35.365  23.288  23.339  1.00  0.00     0.116 C 
BRANCH   2   3
ATOM      3  N   UNL A   1      34.876  23.734  24.625  1.00  0.00    -0.356 N 
ATOM      4  C   UNL A   1      33.599  23.875  25.085  1.00  0.00     0.227 C 
ATOM      5  O   UNL A   1      33.476  24.316  26.229  1.00  0.00    -0.274 OA
ATOM      6  H   UNL A   1      35.578  23.973  25.274  1.00  0.00     0.163 HD
BRANCH   4   7
ATOM      7  C   UNL A   1      32.416  23.422  24.214  1.00  0.00     0.108 C 
ATOM      8  C   UNL A   1      31.063  23.951  24.696  1.00  0.00     0.023 C 
BRANCH   7   9
ATOM      9  C   UNL A   1      32.357  21.911  24.071  1.00  0.00     0.000 A 
ATOM     10  C   UNL A   1      32.377  21.092  25.201  1.00  0.00     0.009 A 
ATOM     11  C   UNL A   1      32.288  21.294  22.820  1.00  0.00     0.129 A 
ATOM     12  C   UNL A   1      32.335  19.698  25.071  1.00  0.00     0.026 A 
ATOM     13  C   UNL A   1      32.229  19.907  22.697  1.00  0.00     0.065 A 
ATOM     14  F   UNL A   1      32.291  22.031  21.701  1.00  0.00    -0.207 F 
ATOM     15  C   UNL A   1      32.256  19.075  23.822  1.00  0.00     0.037 A 
BRANCH  15  16
ATOM     16  N   UNL A   1      32.191  17.712  23.631  1.00  0.00    -0.380 N 
ATOM     17  H   UNL A   1      31.345  17.382  23.250  1.00  0.00     0.160 HD
BRANCH  16  18
ATOM     18  C   UNL A   1      33.188  16.686  23.909  1.00  0.00     0.107 C 
ATOM     19  C   UNL A   1      34.637  17.180  23.866  1.00  0.00     0.027 C 
ATOM     20  C   UNL A   1      33.011  15.977  25.262  1.00  0.00     0.136 C 
ATOM     21  C   UNL A   1      35.321  16.551  25.082  1.00  0.00     0.005 C 
ATOM     22  C   UNL A   1      34.402  15.422  25.526  1.00  0.00     0.034 C 
BRANCH  20  23
ATOM     23  O   UNL A   1      32.044  14.940  25.194  1.00  0.00    -0.391 OA
ATOM     24  H   UNL A   1      31.712  14.748  26.085  1.00  0.00     0.211 HD
ENDBRANCH  20  23
ENDBRANCH  16  18
ENDBRANCH  15  16
ENDBRANCH   7   9
ENDBRANCH   4   7
ENDBRANCH   2   3
ENDBRANCH   1   2
BRANCH   1  25
ATOM     25  C   UNL A   1      36.985  21.945  24.819  1.00  0.00     0.002 C 
BRANCH  25  26
ATOM     26  C   UNL A   1      36.655  20.450  24.852  1.00  0.00     0.002 C 
BRANCH  26  27
ATOM     27  C   UNL A   1      37.864  19.518  24.950  1.00  0.00     0.021 C 
BRANCH  27  28
ATOM     28  C   UNL A   1      39.040  20.075  25.745  1.00  0.00     0.116 C 
BRANCH  28  29
ATOM     29  N   UNL A   1      40.115  19.110  25.890  1.00  0.00    -0.352 N 
ATOM     30  C   UNL A   1      41.453  19.327  26.086  1.00  0.00     0.251 C 
ATOM     31  H   UNL A   1      39.844  18.165  25.839  1.00  0.00     0.163 HD
ATOM     32  O   UNL A   1      42.246  18.387  26.017  1.00  0.00    -0.269 OA
BRANCH  30  33
ATOM     33  C   UNL A   1      41.957  20.688  26.367  1.00  0.00     0.039 A 
ATOM     34  C   UNL A   1      42.234  21.041  27.691  1.00  0.00     0.014 A 
ATOM     35  C   UNL A   1      42.119  21.628  25.343  1.00  0.00     0.014 A 
ATOM     36  C   UNL A   1      42.699  22.323  27.986  1.00  0.00     0.010 A 
ATOM     37  C   UNL A   1      42.645  22.885  25.631  1.00  0.00     0.010 A 
ATOM     38  C   UNL A   1      42.920  23.251  26.957  1.00  0.00    -0.014 A 
BRANCH  38  39
ATOM     39  C   UNL A   1      43.398  24.624  27.259  1.00  0.00     0.031 A 
ATOM     40  C   UNL A   1      42.453  25.634  27.848  1.00  0.00     0.074 A 
ATOM     41  C   UNL A   1      44.665  24.972  26.966  1.00  0.00     0.049 A 
ATOM     42  N   UNL A   1      42.667  26.890  28.154  1.00  0.00    -0.248 NA
ATOM     43  C   UNL A   1      41.076  25.183  28.103  1.00  0.00     0.031 C 
ATOM     44  C   UNL A   1      45.662  24.095  26.351  1.00  0.00     0.029 A 
ATOM     45  N   UNL A   1      45.328  26.160  27.144  1.00  0.00    -0.354 N 
ATOM     46  C   UNL A   1      41.451  27.379  28.612  1.00  0.00     0.074 A 
ATOM     47  C   UNL A   1      40.492  26.302  28.502  1.00  0.00     0.031 C 
ATOM     48  C   UNL A   1      46.818  24.766  26.230  1.00  0.00     0.029 A 
ATOM     49  C   UNL A   1      46.637  26.126  26.732  1.00  0.00     0.049 A 
ATOM     50  H   UNL A   1      44.906  26.962  27.530  1.00  0.00     0.167 HD
ATOM     51  C   UNL A   1      41.165  28.610  29.101  1.00  0.00     0.037 A 
ATOM     52  C   UNL A   1      47.584  27.082  26.763  1.00  0.00     0.037 A 
ATOM     53  C   UNL A   1      42.131  29.666  29.251  1.00  0.00     0.049 A 
ATOM     54  C   UNL A   1      47.247  28.432  27.336  1.00  0.00     0.074 A 
ATOM     55  C   UNL A   1      41.959  30.922  29.805  1.00  0.00     0.029 A 
ATOM     56  N   UNL A   1      43.455  29.584  28.847  1.00  0.00    -0.354 N 
ATOM     57  N   UNL A   1      46.114  28.860  27.834  1.00  0.00    -0.248 NA
ATOM     58  C   UNL A   1      48.328  29.427  27.362  1.00  0.00     0.031 C 
ATOM     59  C   UNL A   1      43.171  31.614  29.704  1.00  0.00     0.029 A 
ATOM     60  C   UNL A   1      44.108  30.774  29.125  1.00  0.00     0.049 A 
ATOM     61  H   UNL A   1      43.870  28.797  28.425  1.00  0.00     0.167 HD
ATOM     62  C   UNL A   1      46.352  30.160  28.263  1.00  0.00     0.074 A 
ATOM     63  C   UNL A   1      47.741  30.446  27.973  1.00  0.00     0.031 C 
ATOM     64  C   UNL A   1      45.496  31.036  28.845  1.00  0.00     0.037 A 
BRANCH  51  65
ATOM     65  C   UNL A   1      39.746  28.879  29.510  1.00  0.00     0.064 A 
ATOM     66  C   UNL A   1      39.299  28.642  30.819  1.00  0.00     0.173 A 
ATOM     67  C   UNL A   1      38.829  29.406  28.589  1.00  0.00     0.173 A 
ATOM     68  F   UNL A   1      40.134  28.128  31.734  1.00  0.00    -0.203 F 
ATOM     69  C   UNL A   1      37.978  28.892  31.181  1.00  0.00     0.198 A 
ATOM     70  C   UNL A   1      37.516  29.681  28.962  1.00  0.00     0.198 A 
ATOM     71  F   UNL A   1      39.206  29.656  27.325  1.00  0.00    -0.203 F 
ATOM     72  F   UNL A   1      37.561  28.609  32.422  1.00  0.00    -0.200 F 
ATOM     73  C   UNL A   1      37.089  29.416  30.255  1.00  0.00     0.200 A 
ATOM     74  F   UNL A   1      36.661  30.198  28.068  1.00  0.00    -0.200 F 
ATOM     75  F   UNL A   1      35.819  29.658  30.605  1.00  0.00    -0.200 F 
ENDBRANCH  51  65
BRANCH  52  76
ATOM     76  C   UNL A   1      48.956  26.782  26.283  1.00  0.00     0.064 A 
ATOM     77  C   UNL A   1      49.921  26.260  27.155  1.00  0.00     0.173 A 
ATOM     78  C   UNL A   1      49.334  27.012  24.952  1.00  0.00     0.173 A 
ATOM     79  F   UNL A   1      49.611  26.043  28.441  1.00  0.00    -0.203 F 
ATOM     80  C   UNL A   1      51.217  25.994  26.720  1.00  0.00     0.198 A 
ATOM     81  C   UNL A   1      50.624  26.724  24.512  1.00  0.00     0.198 A 
ATOM     82  F   UNL A   1      48.445  27.508  24.078  1.00  0.00    -0.203 F 
ATOM     83  F   UNL A   1      52.130  25.533  27.584  1.00  0.00    -0.200 F 
ATOM     84  C   UNL A   1      51.566  26.222  25.397  1.00  0.00     0.200 A 
ATOM     85  F   UNL A   1      50.954  26.934  23.231  1.00  0.00    -0.200 F 
ATOM     86  F   UNL A   1      52.812  25.965  24.978  1.00  0.00    -0.200 F 
ENDBRANCH  52  76
BRANCH  64  87
ATOM     87  C   UNL A   1      46.051  32.369  29.248  1.00  0.00     0.064 A 
ATOM     88  C   UNL A   1      46.010  33.474  28.386  1.00  0.00     0.173 A 
ATOM     89  C   UNL A   1      46.601  32.549  30.526  1.00  0.00     0.173 A 
ATOM     90  F   UNL A   1      45.507  33.347  27.149  1.00  0.00    -0.203 F 
ATOM     91  C   UNL A   1      46.523  34.707  28.781  1.00  0.00     0.198 A 
ATOM     92  C   UNL A   1      47.089  33.789  30.927  1.00  0.00     0.198 A 
ATOM     93  F   UNL A   1      46.658  31.524  31.388  1.00  0.00    -0.203 F 
ATOM     94  F   UNL A   1      46.515  35.739  27.925  1.00  0.00    -0.200 F 
ATOM     95  C   UNL A   1      47.056  34.865  30.051  1.00  0.00     0.200 A 
ATOM     96  F   UNL A   1      47.594  33.944  32.158  1.00  0.00    -0.200 F 
ATOM     97  F   UNL A   1      47.547  36.053  30.430  1.00  0.00    -0.200 F 
ENDBRANCH  64  87
ENDBRANCH  38  39
ENDBRANCH  30  33
ENDBRANCH  28  29
ENDBRANCH  27  28
ENDBRANCH  26  27
ENDBRANCH  25  26
ENDBRANCH   1  25
TORSDOF 17
ENDMDL
MODEL 2
REMARK VINA RESULT:     -11.8      6.006     10.413
REMARK SMILES C[C@@H](C(=O)NCCCCCCNC(=O)c1ccc(-c2c3nc(c(-c4c(F)c(F)c(F)c(F)c4F)c4ccc([nH]4)c(-c4c(F)c(F)c(F)c(F)c4F)c4nc(c(-c5c(F)c(F)c(F)c(F)c5F)c5ccc2[nH]5)C=C4)C=C3)cc1)c1ccc(N[C@H]2CCC[C@@H]2O)cc1F
REMARK SMILES IDX 7 1 6 2 5 3 3 4 4 5 2 7 1 8 78 9 79 10 90 11 80 12 89 13
REMARK SMILES IDX 91 14 81 15 82 16 83 18 84 19 87 20 85 21 86 22 88 23 8 25
REMARK SMILES IDX 9 26 10 27 11 28 12 29 13 30 14 32 15 33 16 34 77 35 17 36
REMARK SMILES IDX 76 37 18 38 19 39 20 40 70 41 21 42 75 43 69 44 71 45 22 46
REMARK SMILES IDX 74 47 68 48 67 49 23 51 55 52 35 53 54 54 36 55 39 56 53 57
REMARK SMILES IDX 72 58 37 59 38 60 52 62 73 63 40 64 24 65 25 66 33 67 26 68
REMARK SMILES IDX 27 69 31 70 34 71 28 72 29 73 32 74 30 75 56 76 57 77 65 78
REMARK SMILES IDX 58 79 59 80 63 81 66 82 60 83 61 84 64 85 62 86 41 87 42 88
REMARK SMILES IDX 50 89 43 90 44 91 48 92 51 93 45 94 46 95 49 96 47 97
REMARK H PARENT 5 6 82 17 88 24 12 31 71 50 39 61
REMARK Flexibility Score: inf
ROOT
ATOM      1  C   UNL A   1      33.215  29.301  27.133  1.00  0.00     0.021 C 
ENDROOT
BRANCH   1   2
ATOM      2  C   UNL A   1      33.030  27.809  26.858  1.00  0.00     0.116 C 
BRANCH   2   3
ATOM      3  N   UNL A   1      33.651  27.435  25.606  1.00  0.00    -0.356 N 
ATOM      4  C   UNL A   1      33.204  26.618  24.608  1.00  0.00     0.227 C 
ATOM      5  O   UNL A   1      33.969  26.449  23.657  1.00  0.00    -0.274 OA
ATOM      6  H   UNL A   1      34.537  27.834  25.448  1.00  0.00     0.163 HD
BRANCH   4   7
ATOM      7  C   UNL A   1      31.785  26.029  24.677  1.00  0.00     0.108 C 
ATOM      8  C   UNL A   1      31.686  24.607  24.119  1.00  0.00     0.023 C 
BRANCH   7   9
ATOM      9  C   UNL A   1      30.762  26.922  23.998  1.00  0.00     0.000 A 
ATOM     10  C   UNL A   1      31.174  27.985  23.192  1.00  0.00     0.009 A 
ATOM     11  C   UNL A   1      29.389  26.719  24.157  1.00  0.00     0.129 A 
ATOM     12  C   UNL A   1      30.232  28.817  22.575  1.00  0.00     0.026 A 
ATOM     13  C   UNL A   1      28.456  27.540  23.527  1.00  0.00     0.065 A 
ATOM     14  F   UNL A   1      28.939  25.729  24.939  1.00  0.00    -0.207 F 
ATOM     15  C   UNL A   1      28.856  28.613  22.723  1.00  0.00     0.037 A 
BRANCH  15  16
ATOM     16  N   UNL A   1      27.883  29.384  22.125  1.00  0.00    -0.380 N 
ATOM     17  H   UNL A   1      27.268  28.895  21.531  1.00  0.00     0.160 HD
BRANCH  16  18
ATOM     18  C   UNL A   1      27.628  30.814  22.242  1.00  0.00     0.107 C 
ATOM     19  C   UNL A   1      28.079  31.433  23.567  1.00  0.00     0.027 C 
ATOM     20  C   UNL A   1      28.259  31.665  21.128  1.00  0.00     0.136 C 
ATOM     21  C   UNL A   1      28.764  32.750  23.193  1.00  0.00     0.005 C 
ATOM     22  C   UNL A   1      28.324  33.044  21.766  1.00  0.00     0.034 C 
BRANCH  20  23
ATOM     23  O   UNL A   1      27.461  31.675  19.953  1.00  0.00    -0.391 OA
ATOM     24  H   UNL A   1      26.528  31.572  20.196  1.00  0.00     0.211 HD
ENDBRANCH  20  23
ENDBRANCH  16  18
ENDBRANCH  15  16
ENDBRANCH   7   9
ENDBRANCH   4   7
ENDBRANCH   2   3
ENDBRANCH   1   2
BRANCH   1  25
ATOM     25  C   UNL A   1      32.737  30.217  25.999  1.00  0.00     0.002 C 
BRANCH  25  26
ATOM     26  C   UNL A   1      31.333  30.803  26.180  1.00  0.00     0.002 C 
BRANCH  26  27
ATOM     27  C   UNL A   1      31.289  32.298  26.504  1.00  0.00     0.021 C 
BRANCH  27  28
ATOM     28  C   UNL A   1      32.598  32.880  27.024  1.00  0.00     0.116 C 
BRANCH  28  29
ATOM     29  N   UNL A   1      32.421  34.195  27.614  1.00  0.00    -0.352 N 
ATOM     30  C   UNL A   1      33.059  34.755  28.688  1.00  0.00     0.251 C 
ATOM     31  H   UNL A   1      31.746  34.765  27.179  1.00  0.00     0.163 HD
ATOM     32  O   UNL A   1      32.660  35.823  29.154  1.00  0.00    -0.269 OA
BRANCH  30  33
ATOM     33  C   UNL A   1      34.219  34.079  29.306  1.00  0.00     0.039 A 
ATOM     34  C   UNL A   1      35.506  34.480  28.935  1.00  0.00     0.014 A 
ATOM     35  C   UNL A   1      34.048  33.028  30.214  1.00  0.00     0.014 A 
ATOM     36  C   UNL A   1      36.619  33.849  29.493  1.00  0.00     0.010 A 
ATOM     37  C   UNL A   1      35.158  32.444  30.819  1.00  0.00     0.010 A 
ATOM     38  C   UNL A   1      36.454  32.835  30.449  1.00  0.00    -0.014 A 
BRANCH  38  39
ATOM     39  C   UNL A   1      37.629  32.144  31.037  1.00  0.00     0.031 A 
ATOM     40  C   UNL A   1      38.097  32.505  32.419  1.00  0.00     0.074 A 
ATOM     41  C   UNL A   1      38.298  31.226  30.314  1.00  0.00     0.049 A 
ATOM     42  N   UNL A   1      39.118  32.042  33.096  1.00  0.00    -0.248 NA
ATOM     43  C   UNL A   1      37.333  33.546  33.125  1.00  0.00     0.031 C 
ATOM     44  C   UNL A   1      37.968  30.823  28.947  1.00  0.00     0.029 A 
ATOM     45  N   UNL A   1      39.397  30.468  30.632  1.00  0.00    -0.354 N 
ATOM     46  C   UNL A   1      39.131  32.750  34.291  1.00  0.00     0.074 A 
ATOM     47  C   UNL A   1      38.045  33.704  34.231  1.00  0.00     0.031 C 
ATOM     48  C   UNL A   1      38.828  29.870  28.553  1.00  0.00     0.029 A 
ATOM     49  C   UNL A   1      39.784  29.616  29.627  1.00  0.00     0.049 A 
ATOM     50  H   UNL A   1      39.863  30.529  31.496  1.00  0.00     0.167 HD
ATOM     51  C   UNL A   1      39.959  32.600  35.353  1.00  0.00     0.037 A 
ATOM     52  C   UNL A   1      40.793  28.726  29.583  1.00  0.00     0.037 A 
ATOM     53  C   UNL A   1      41.009  31.619  35.430  1.00  0.00     0.049 A 
ATOM     54  C   UNL A   1      41.681  28.562  30.787  1.00  0.00     0.074 A 
ATOM     55  C   UNL A   1      41.853  31.338  36.489  1.00  0.00     0.029 A 
ATOM     56  N   UNL A   1      41.354  30.756  34.401  1.00  0.00    -0.354 N 
ATOM     57  N   UNL A   1      41.639  29.184  31.938  1.00  0.00    -0.248 NA
ATOM     58  C   UNL A   1      42.752  27.560  30.685  1.00  0.00     0.031 C 
ATOM     59  C   UNL A   1      42.734  30.326  36.090  1.00  0.00     0.029 A 
ATOM     60  C   UNL A   1      42.411  29.951  34.796  1.00  0.00     0.049 A 
ATOM     61  H   UNL A   1      40.914  30.719  33.522  1.00  0.00     0.167 HD
ATOM     62  C   UNL A   1      42.650  28.628  32.711  1.00  0.00     0.074 A 
ATOM     63  C   UNL A   1      43.285  27.612  31.897  1.00  0.00     0.031 C 
ATOM     64  C   UNL A   1      43.019  28.933  33.979  1.00  0.00     0.037 A 
BRANCH  51  65
ATOM     65  C   UNL A   1      39.760  33.523  36.520  1.00  0.00     0.064 A 
ATOM     66  C   UNL A   1      38.884  33.205  37.569  1.00  0.00     0.173 A 
ATOM     67  C   UNL A   1      40.474  34.727  36.604  1.00  0.00     0.173 A 
ATOM     68  F   UNL A   1      38.168  32.071  37.531  1.00  0.00    -0.203 F 
ATOM     69  C   UNL A   1      38.706  34.075  38.643  1.00  0.00     0.198 A 
ATOM     70  C   UNL A   1      40.315  35.581  37.693  1.00  0.00     0.198 A 
ATOM     71  F   UNL A   1      41.328  35.077  35.630  1.00  0.00    -0.203 F 
ATOM     72  F   UNL A   1      37.825  33.774  39.606  1.00  0.00    -0.200 F 
ATOM     73  C   UNL A   1      39.425  35.258  38.707  1.00  0.00     0.200 A 
ATOM     74  F   UNL A   1      41.019  36.720  37.758  1.00  0.00    -0.200 F 
ATOM     75  F   UNL A   1      39.255  36.093  39.741  1.00  0.00    -0.200 F 
ENDBRANCH  51  65
BRANCH  52  76
ATOM     76  C   UNL A   1      40.987  27.884  28.376  1.00  0.00     0.064 A 
ATOM     77  C   UNL A   1      40.327  26.655  28.248  1.00  0.00     0.173 A 
ATOM     78  C   UNL A   1      41.833  28.284  27.332  1.00  0.00     0.173 A 
ATOM     79  F   UNL A   1      39.524  26.222  29.231  1.00  0.00    -0.203 F 
ATOM     80  C   UNL A   1      40.517  25.848  27.129  1.00  0.00     0.198 A 
ATOM     81  C   UNL A   1      42.005  27.488  26.202  1.00  0.00     0.198 A 
ATOM     82  F   UNL A   1      42.485  29.455  27.405  1.00  0.00    -0.203 F 
ATOM     83  F   UNL A   1      39.905  24.659  27.050  1.00  0.00    -0.200 F 
ATOM     84  C   UNL A   1      41.353  26.267  26.103  1.00  0.00     0.200 A 
ATOM     85  F   UNL A   1      42.803  27.901  25.208  1.00  0.00    -0.200 F 
ATOM     86  F   UNL A   1      41.535  25.492  25.027  1.00  0.00    -0.200 F 
ENDBRANCH  52  76
BRANCH  64  87
ATOM     87  C   UNL A   1      44.132  28.126  34.581  1.00  0.00     0.064 A 
ATOM     88  C   UNL A   1      45.467  28.545  34.509  1.00  0.00     0.173 A 
ATOM     89  C   UNL A   1      43.850  26.935  35.267  1.00  0.00     0.173 A 
ATOM     90  F   UNL A   1      45.787  29.669  33.850  1.00  0.00    -0.203 F 
ATOM     91  C   UNL A   1      46.486  27.787  35.080  1.00  0.00     0.198 A 
ATOM     92  C   UNL A   1      44.867  26.193  35.860  1.00  0.00     0.198 A 
ATOM     93  F   UNL A   1      42.587  26.495  35.368  1.00  0.00    -0.203 F 
ATOM     94  F   UNL A   1      47.761  28.182  34.959  1.00  0.00    -0.200 F 
ATOM     95  C   UNL A   1      46.185  26.616  35.759  1.00  0.00     0.200 A 
ATOM     96  F   UNL A   1      44.574  25.068  36.526  1.00  0.00    -0.200 F 
ATOM     97  F   UNL A   1      47.166  25.889  36.311  1.00  0.00    -0.200 F 
ENDBRANCH  64  87
ENDBRANCH  38  39
ENDBRANCH  30  33
ENDBRANCH  28  29
ENDBRANCH  27  28
ENDBRANCH  26  27
ENDBRANCH  25  26
ENDBRANCH   1  25
TORSDOF 17
ENDMDL
MODEL 3
REMARK VINA RESULT:     -11.8      5.938     10.348
REMARK SMILES C[C@@H](C(=O)NCCCCCCNC(=O)c1ccc(-c2c3nc(c(-c4c(F)c(F)c(F)c(F)c4F)c4ccc([nH]4)c(-c4c(F)c(F)c(F)c(F)c4F)c4nc(c(-c5c(F)c(F)c(F)c(F)c5F)c5ccc2[nH]5)C=C4)C=C3)cc1)c1ccc(N[C@H]2CCC[C@@H]2O)cc1F
REMARK SMILES IDX 7 1 6 2 5 3 3 4 4 5 2 7 1 8 78 9 79 10 90 11 80 12 89 13
REMARK SMILES IDX 91 14 81 15 82 16 83 18 84 19 87 20 85 21 86 22 88 23 8 25
REMARK SMILES IDX 9 26 10 27 11 28 12 29 13 30 14 32 15 33 16 34 77 35 17 36
REMARK SMILES IDX 76 37 18 38 19 39 20 40 70 41 21 42 75 43 69 44 71 45 22 46
REMARK SMILES IDX 74 47 68 48 67 49 23 51 55 52 35 53 54 54 36 55 39 56 53 57
REMARK SMILES IDX 72 58 37 59 38 60 52 62 73 63 40 64 24 65 25 66 33 67 26 68
REMARK SMILES IDX 27 69 31 70 34 71 28 72 29 73 32 74 30 75 56 76 57 77 65 78
REMARK SMILES IDX 58 79 59 80 63 81 66 82 60 83 61 84 64 85 62 86 41 87 42 88
REMARK SMILES IDX 50 89 43 90 44 91 48 92 51 93 45 94 46 95 49 96 47 97
REMARK H PARENT 5 6 82 17 88 24 12 31 71 50 39 61
REMARK Flexibility Score: inf
ROOT
ATOM      1  C   UNL A   1      33.283  29.229  27.057  1.00  0.00     0.021 C 
ENDROOT
BRANCH   1   2
ATOM      2  C   UNL A   1      33.248  27.734  26.745  1.00  0.00     0.116 C 
BRANCH   2   3
ATOM      3  N   UNL A   1      33.795  27.467  25.433  1.00  0.00    -0.356 N 
ATOM      4  C   UNL A   1      33.327  26.674  24.426  1.00  0.00     0.227 C 
ATOM      5  O   UNL A   1      34.027  26.605  23.414  1.00  0.00    -0.274 OA
ATOM      6  H   UNL A   1      34.640  27.932  25.234  1.00  0.00     0.163 HD
BRANCH   4   7
ATOM      7  C   UNL A   1      31.958  25.988  24.563  1.00  0.00     0.108 C 
ATOM      8  C   UNL A   1      31.910  24.588  23.944  1.00  0.00     0.023 C 
BRANCH   7   9
ATOM      9  C   UNL A   1      30.833  26.839  23.999  1.00  0.00     0.000 A 
ATOM     10  C   UNL A   1      31.116  27.938  23.187  1.00  0.00     0.009 A 
ATOM     11  C   UNL A   1      29.493  26.560  24.274  1.00  0.00     0.129 A 
ATOM     12  C   UNL A   1      30.081  28.731  22.677  1.00  0.00     0.026 A 
ATOM     13  C   UNL A   1      28.466  27.343  23.750  1.00  0.00     0.065 A 
ATOM     14  F   UNL A   1      29.166  25.531  25.069  1.00  0.00    -0.207 F 
ATOM     15  C   UNL A   1      28.736  28.451  22.941  1.00  0.00     0.037 A 
BRANCH  15  16
ATOM     16  N   UNL A   1      27.675  29.181  22.451  1.00  0.00    -0.380 N 
ATOM     17  H   UNL A   1      26.928  28.647  22.097  1.00  0.00     0.160 HD
BRANCH  16  18
ATOM     18  C   UNL A   1      27.495  30.626  22.380  1.00  0.00     0.107 C 
ATOM     19  C   UNL A   1      27.935  31.383  23.635  1.00  0.00     0.027 C 
ATOM     20  C   UNL A   1      28.209  31.297  21.195  1.00  0.00     0.136 C 
ATOM     21  C   UNL A   1      28.702  32.607  23.129  1.00  0.00     0.005 C 
ATOM     22  C   UNL A   1      28.327  32.741  21.659  1.00  0.00     0.034 C 
BRANCH  20  23
ATOM     23  O   UNL A   1      27.453  31.200  19.997  1.00  0.00    -0.391 OA
ATOM     24  H   UNL A   1      26.508  31.151  20.214  1.00  0.00     0.211 HD
ENDBRANCH  20  23
ENDBRANCH  16  18
ENDBRANCH  15  16
ENDBRANCH   7   9
ENDBRANCH   4   7
ENDBRANCH   2   3
ENDBRANCH   1   2
BRANCH   1  25
ATOM     25  C   UNL A   1      32.754  30.123  25.927  1.00  0.00     0.002 C 
BRANCH  25  26
ATOM     26  C   UNL A   1      31.351  30.695  26.149  1.00  0.00     0.002 C 
BRANCH  26  27
ATOM     27  C   UNL A   1      31.300  32.192  26.463  1.00  0.00     0.021 C 
BRANCH  27  28
ATOM     28  C   UNL A   1      32.626  32.798  26.910  1.00  0.00     0.116 C 
BRANCH  28  29
ATOM     29  N   UNL A   1      32.457  34.103  27.523  1.00  0.00    -0.352 N 
ATOM     30  C   UNL A   1      33.118  34.650  28.590  1.00  0.00     0.251 C 
ATOM     31  H   UNL A   1      31.768  34.676  27.114  1.00  0.00     0.163 HD
ATOM     32  O   UNL A   1      32.724  35.710  29.081  1.00  0.00    -0.269 OA
BRANCH  30  33
ATOM     33  C   UNL A   1      34.296  33.972  29.170  1.00  0.00     0.039 A 
ATOM     34  C   UNL A   1      34.091  32.886  30.027  1.00  0.00     0.014 A 
ATOM     35  C   UNL A   1      35.594  34.423  28.910  1.00  0.00     0.014 A 
ATOM     36  C   UNL A   1      35.185  32.235  30.598  1.00  0.00     0.010 A 
ATOM     37  C   UNL A   1      36.687  33.732  29.428  1.00  0.00     0.010 A 
ATOM     38  C   UNL A   1      36.492  32.645  30.294  1.00  0.00    -0.014 A 
BRANCH  38  39
ATOM     39  C   UNL A   1      37.664  31.972  30.909  1.00  0.00     0.031 A 
ATOM     40  C   UNL A   1      38.090  32.335  32.304  1.00  0.00     0.074 A 
ATOM     41  C   UNL A   1      38.367  31.070  30.199  1.00  0.00     0.049 A 
ATOM     42  N   UNL A   1      39.101  31.885  33.005  1.00  0.00    -0.248 NA
ATOM     43  C   UNL A   1      37.290  33.358  32.995  1.00  0.00     0.031 C 
ATOM     44  C   UNL A   1      38.080  30.668  28.822  1.00  0.00     0.029 A 
ATOM     45  N   UNL A   1      39.471  30.330  30.541  1.00  0.00    -0.354 N 
ATOM     46  C   UNL A   1      39.071  32.587  34.203  1.00  0.00     0.074 A 
ATOM     47  C   UNL A   1      37.971  33.523  34.119  1.00  0.00     0.031 C 
ATOM     48  C   UNL A   1      38.967  29.733  28.445  1.00  0.00     0.029 A 
ATOM     49  C   UNL A   1      39.899  29.490  29.543  1.00  0.00     0.049 A 
ATOM     50  H   UNL A   1      39.914  30.394  31.417  1.00  0.00     0.167 HD
ATOM     51  C   UNL A   1      39.874  32.447  35.285  1.00  0.00     0.037 A 
ATOM     52  C   UNL A   1      40.924  28.618  29.521  1.00  0.00     0.037 A 
ATOM     53  C   UNL A   1      40.939  31.484  35.384  1.00  0.00     0.049 A 
ATOM     54  C   UNL A   1      41.784  28.463  30.746  1.00  0.00     0.074 A 
ATOM     55  C   UNL A   1      41.760  31.212  36.464  1.00  0.00     0.029 A 
ATOM     56  N   UNL A   1      41.326  30.632  34.361  1.00  0.00    -0.354 N 
ATOM     57  N   UNL A   1      41.701  29.078  31.898  1.00  0.00    -0.248 NA
ATOM     58  C   UNL A   1      42.875  27.481  30.667  1.00  0.00     0.031 C 
ATOM     59  C   UNL A   1      42.669  30.219  36.082  1.00  0.00     0.029 A 
ATOM     60  C   UNL A   1      42.385  29.844  34.779  1.00  0.00     0.049 A 
ATOM     61  H   UNL A   1      40.909  30.592  33.470  1.00  0.00     0.167 HD
ATOM     62  C   UNL A   1      42.702  28.537  32.694  1.00  0.00     0.074 A 
ATOM     63  C   UNL A   1      43.375  27.536  31.893  1.00  0.00     0.031 C 
ATOM     64  C   UNL A   1      43.033  28.841  33.973  1.00  0.00     0.037 A 
BRANCH  51  65
ATOM     65  C   UNL A   1      39.628  33.360  36.451  1.00  0.00     0.064 A 
ATOM     66  C   UNL A   1      40.253  34.612  36.552  1.00  0.00     0.173 A 
ATOM     67  C   UNL A   1      38.737  32.988  37.468  1.00  0.00     0.173 A 
ATOM     68  F   UNL A   1      41.123  35.009  35.611  1.00  0.00    -0.203 F 
ATOM     69  C   UNL A   1      40.018  35.445  37.643  1.00  0.00     0.198 A 
ATOM     70  C   UNL A   1      38.483  33.835  38.544  1.00  0.00     0.198 A 
ATOM     71  F   UNL A   1      38.109  31.803  37.419  1.00  0.00    -0.203 F 
ATOM     72  F   UNL A   1      40.666  36.613  37.743  1.00  0.00    -0.200 F 
ATOM     73  C   UNL A   1      39.129  35.059  38.635  1.00  0.00     0.200 A 
ATOM     74  F   UNL A   1      37.615  33.465  39.496  1.00  0.00    -0.200 F 
ATOM     75  F   UNL A   1      38.903  35.862  39.683  1.00  0.00    -0.200 F 
ENDBRANCH  51  65
BRANCH  52  76
ATOM     76  C   UNL A   1      41.164  27.786  28.315  1.00  0.00     0.064 A 
ATOM     77  C   UNL A   1      42.017  28.233  27.296  1.00  0.00     0.173 A 
ATOM     78  C   UNL A   1      40.550  26.537  28.151  1.00  0.00     0.173 A 
ATOM     79  F   UNL A   1      42.611  29.430  27.399  1.00  0.00    -0.203 F 
ATOM     80  C   UNL A   1      42.233  27.470  26.151  1.00  0.00     0.198 A 
ATOM     81  C   UNL A   1      40.785  25.763  27.017  1.00  0.00     0.198 A 
ATOM     82  F   UNL A   1      39.728  26.063  29.100  1.00  0.00    -0.203 F 
ATOM     83  F   UNL A   1      43.022  27.938  25.175  1.00  0.00    -0.200 F 
ATOM     84  C   UNL A   1      41.621  26.232  26.014  1.00  0.00     0.200 A 
ATOM     85  F   UNL A   1      40.201  24.563  26.893  1.00  0.00    -0.200 F 
ATOM     86  F   UNL A   1      41.830  25.498  24.914  1.00  0.00    -0.200 F 
ENDBRANCH  52  76
BRANCH  64  87
ATOM     87  C   UNL A   1      44.144  28.050  34.599  1.00  0.00     0.064 A 
ATOM     88  C   UNL A   1      43.904  26.831  35.248  1.00  0.00     0.173 A 
ATOM     89  C   UNL A   1      45.468  28.505  34.518  1.00  0.00     0.173 A 
ATOM     90  F   UNL A   1      42.652  26.363  35.365  1.00  0.00    -0.203 F 
ATOM     91  C   UNL A   1      44.948  26.107  35.817  1.00  0.00     0.198 A 
ATOM     92  C   UNL A   1      46.513  27.766  35.064  1.00  0.00     0.198 A 
ATOM     93  F   UNL A   1      45.749  29.663  33.902  1.00  0.00    -0.203 F 
ATOM     94  F   UNL A   1      44.691  24.968  36.474  1.00  0.00    -0.200 F 
ATOM     95  C   UNL A   1      46.251  26.572  35.720  1.00  0.00     0.200 A 
ATOM     96  F   UNL A   1      47.773  28.210  34.959  1.00  0.00    -0.200 F 
ATOM     97  F   UNL A   1      47.256  25.872  36.264  1.00  0.00    -0.200 F 
ENDBRANCH  64  87
ENDBRANCH  38  39
ENDBRANCH  30  33
ENDBRANCH  28  29
ENDBRANCH  27  28
ENDBRANCH  26  27
ENDBRANCH  25  26
ENDBRANCH   1  25
TORSDOF 17
ENDMDL
