MODEL 1
REMARK VINA RESULT:     -11.1      0.000      0.000
REMARK SMILES CC(C)C[N@H+](CC[NH+](C)C)[C@@H]1CCC[C@]([NH3+])(C(=O)NCCCCCCNC(=O)c2ccc(-c3c4nc(c(-c5c(F)c(F)c(F)c(F)c5F)c5ccc([nH]5)c(-c5c(F)c(F)c(F)c(F)c5F)c5nc(c(-c6c(F)c(F)c(F)c(F)c6F)c6ccc3[nH]6)C=C5)C=C4)cc2)C1
REMARK SMILES IDX 21 1 20 2 19 3 17 4 18 5 15 7 11 8 12 9 92 10 13 11 14 12
REMARK SMILES IDX 5 13 4 15 2 16 1 17 3 18 6 19 7 20 8 21 9 22 10 23 16 25
REMARK SMILES IDX 22 29 23 30 24 31 25 32 26 33 27 34 28 36 29 37 30 38 91 39
REMARK SMILES IDX 31 40 90 41 32 42 33 43 34 44 84 45 35 46 89 47 83 48 85 49
REMARK SMILES IDX 36 50 88 51 82 52 81 53 37 55 69 56 49 57 68 58 50 59 53 60
REMARK SMILES IDX 67 61 86 62 51 63 52 64 66 66 87 67 54 68 38 69 39 70 47 71
REMARK SMILES IDX 40 72 41 73 45 74 48 75 42 76 43 77 46 78 44 79 70 80 71 81
REMARK SMILES IDX 79 82 72 83 73 84 77 85 80 86 74 87 75 88 78 89 76 90 55 91
REMARK SMILES IDX 56 92 64 93 57 94 58 95 62 96 65 97 59 98 60 99 63 100
REMARK SMILES IDX 61 101
REMARK H PARENT 19 6 5 14 8 24 16 26 16 27 16 28 26 35 85 54 53 65
REMARK Flexibility Score: inf
ROOT
ATOM      1  C   UNL A   1      32.544  28.493  27.218  1.00  0.00     0.021 C 
ENDROOT
BRANCH   1   2
ATOM      2  C   UNL A   1      31.490  27.917  26.276  1.00  0.00     0.116 C 
BRANCH   2   3
ATOM      3  N   UNL A   1      31.180  26.516  26.529  1.00  0.00    -0.351 N 
ATOM      4  C   UNL A   1      31.393  25.407  25.764  1.00  0.00     0.281 C 
ATOM      5  O   UNL A   1      31.861  24.439  26.391  1.00  0.00    -0.268 OA
ATOM      6  H   UNL A   1      30.745  26.342  27.395  1.00  0.00     0.163 HD
BRANCH   4   7
ATOM      7  C   UNL A   1      30.979  25.207  24.242  1.00  0.00     0.179 C 
ATOM      8  C   UNL A   1      32.592  23.414  23.267  1.00  0.00     0.191 C 
ATOM      9  C   UNL A   1      33.360  24.595  22.571  1.00  0.00     0.065 C 
ATOM     10  C   UNL A   1      31.166  23.892  23.480  1.00  0.00     0.144 C 
ATOM     11  C   UNL A   1      32.957  26.065  22.882  1.00  0.00     0.013 C 
ATOM     12  C   UNL A   1      31.527  26.324  23.360  1.00  0.00     0.079 C 
BRANCH   8  13
ATOM     13  N   UNL A   1      33.270  22.704  24.403  1.00  0.00    -0.327 N 
ATOM     14  H   UNL A   1      32.634  22.887  25.179  1.00  0.00     0.348 HD
BRANCH  13  15
ATOM     15  C   UNL A   1      34.588  23.305  24.728  1.00  0.00     0.265 C 
BRANCH  15  16
ATOM     16  C   UNL A   1      35.991  22.668  24.399  1.00  0.00     0.038 C 
ATOM     17  C   UNL A   1      36.682  22.928  23.059  1.00  0.00     0.013 C 
ATOM     18  C   UNL A   1      36.999  22.995  25.513  1.00  0.00     0.013 C 
ENDBRANCH  15  16
ENDBRANCH  13  15
BRANCH  13  19
ATOM     19  C   UNL A   1      33.253  21.228  24.430  1.00  0.00     0.324 C 
BRANCH  19  20
ATOM     20  C   UNL A   1      32.240  20.184  23.892  1.00  0.00     0.323 C 
BRANCH  20  21
ATOM     21  N   UNL A   1      32.547  18.756  24.004  1.00  0.00    -0.335 N 
ATOM     22  C   UNL A   1      32.461  18.172  22.654  1.00  0.00     0.332 C 
ATOM     23  C   UNL A   1      33.884  18.495  24.530  1.00  0.00     0.332 C 
ATOM     24  H   UNL A   1      31.879  18.344  24.655  1.00  0.00     0.347 HD
ENDBRANCH  20  21
ENDBRANCH  19  20
ENDBRANCH  13  19
ENDBRANCH   8  13
BRANCH   7  25
ATOM     25  N   UNL A   1      29.475  25.359  24.252  1.00  0.00    -0.345 N 
ATOM     26  H   UNL A   1      29.062  24.702  23.589  1.00  0.00     0.345 HD
ATOM     27  H   UNL A   1      29.228  26.311  23.984  1.00  0.00     0.345 HD
ATOM     28  H   UNL A   1      29.119  25.165  25.188  1.00  0.00     0.345 HD
ENDBRANCH   7  25
ENDBRANCH   4   7
ENDBRANCH   2   3
ENDBRANCH   1   2
BRANCH   1  29
ATOM     29  C   UNL A   1      32.628  30.022  27.117  1.00  0.00     0.002 C 
BRANCH  29  30
ATOM     30  C   UNL A   1      31.485  30.705  26.360  1.00  0.00     0.002 C 
BRANCH  30  31
ATOM     31  C   UNL A   1      31.355  32.213  26.532  1.00  0.00     0.021 C 
BRANCH  31  32
ATOM     32  C   UNL A   1      32.594  32.904  27.074  1.00  0.00     0.116 C 
BRANCH  32  33
ATOM     33  N   UNL A   1      32.318  34.199  27.673  1.00  0.00    -0.352 N 
ATOM     34  C   UNL A   1      33.009  34.835  28.680  1.00  0.00     0.251 C 
ATOM     35  H   UNL A   1      31.541  34.684  27.313  1.00  0.00     0.163 HD
ATOM     36  O   UNL A   1      32.629  35.894  29.143  1.00  0.00    -0.269 OA
BRANCH  34  37
ATOM     37  C   UNL A   1      34.214  34.172  29.219  1.00  0.00     0.039 A 
ATOM     38  C   UNL A   1      35.470  34.578  28.764  1.00  0.00     0.014 A 
ATOM     39  C   UNL A   1      34.091  33.206  30.220  1.00  0.00     0.014 A 
ATOM     40  C   UNL A   1      36.615  34.054  29.361  1.00  0.00     0.010 A 
ATOM     41  C   UNL A   1      35.229  32.749  30.867  1.00  0.00     0.010 A 
ATOM     42  C   UNL A   1      36.500  33.159  30.436  1.00  0.00    -0.014 A 
BRANCH  42  43
ATOM     43  C   UNL A   1      37.689  32.584  31.107  1.00  0.00     0.031 A 
ATOM     44  C   UNL A   1      38.425  31.458  30.440  1.00  0.00     0.074 A 
ATOM     45  C   UNL A   1      38.033  32.992  32.342  1.00  0.00     0.049 A 
ATOM     46  N   UNL A   1      39.370  30.688  30.913  1.00  0.00    -0.248 NA
ATOM     47  C   UNL A   1      38.004  31.126  29.069  1.00  0.00     0.031 C 
ATOM     48  C   UNL A   1      37.367  34.050  33.100  1.00  0.00     0.029 A 
ATOM     49  N   UNL A   1      39.014  32.540  33.188  1.00  0.00    -0.354 N 
ATOM     50  C   UNL A   1      39.628  29.760  29.912  1.00  0.00     0.074 A 
ATOM     51  C   UNL A   1      38.707  30.030  28.831  1.00  0.00     0.031 C 
ATOM     52  C   UNL A   1      37.961  34.171  34.299  1.00  0.00     0.029 A 
ATOM     53  C   UNL A   1      39.018  33.168  34.409  1.00  0.00     0.049 A 
ATOM     54  H   UNL A   1      39.654  31.832  32.943  1.00  0.00     0.167 HD
ATOM     55  C   UNL A   1      40.565  28.784  29.892  1.00  0.00     0.037 A 
ATOM     56  C   UNL A   1      39.777  32.944  35.499  1.00  0.00     0.037 A 
ATOM     57  C   UNL A   1      41.499  28.551  30.960  1.00  0.00     0.049 A 
ATOM     58  C   UNL A   1      40.821  31.862  35.453  1.00  0.00     0.074 A 
ATOM     59  C   UNL A   1      42.534  27.635  31.018  1.00  0.00     0.029 A 
ATOM     60  N   UNL A   1      41.507  29.244  32.163  1.00  0.00    -0.354 N 
ATOM     61  N   UNL A   1      41.101  31.025  34.482  1.00  0.00    -0.248 NA
ATOM     62  C   UNL A   1      41.660  31.696  36.647  1.00  0.00     0.031 C 
ATOM     63  C   UNL A   1      43.137  27.741  32.275  1.00  0.00     0.029 A 
ATOM     64  C   UNL A   1      42.517  28.762  32.978  1.00  0.00     0.049 A 
ATOM     65  H   UNL A   1      40.886  29.970  32.401  1.00  0.00     0.167 HD
ATOM     66  C   UNL A   1      42.167  30.258  34.932  1.00  0.00     0.074 A 
ATOM     67  C   UNL A   1      42.484  30.729  36.265  1.00  0.00     0.031 C 
ATOM     68  C   UNL A   1      42.828  29.261  34.295  1.00  0.00     0.037 A 
BRANCH  55  69
ATOM     69  C   UNL A   1      40.607  27.893  28.683  1.00  0.00     0.064 A 
ATOM     70  C   UNL A   1      41.377  28.213  27.553  1.00  0.00     0.173 A 
ATOM     71  C   UNL A   1      39.861  26.706  28.650  1.00  0.00     0.173 A 
ATOM     72  F   UNL A   1      42.100  29.343  27.525  1.00  0.00    -0.203 F 
ATOM     73  C   UNL A   1      41.358  27.403  26.420  1.00  0.00     0.198 A 
ATOM     74  C   UNL A   1      39.875  25.879  27.530  1.00  0.00     0.198 A 
ATOM     75  F   UNL A   1      39.112  26.347  29.704  1.00  0.00    -0.203 F 
ATOM     76  F   UNL A   1      42.043  27.769  25.327  1.00  0.00    -0.200 F 
ATOM     77  C   UNL A   1      40.612  26.235  26.411  1.00  0.00     0.200 A 
ATOM     78  F   UNL A   1      39.164  24.743  27.528  1.00  0.00    -0.200 F 
ATOM     79  F   UNL A   1      40.593  25.459  25.319  1.00  0.00    -0.200 F 
ENDBRANCH  55  69
BRANCH  56  80
ATOM     80  C   UNL A   1      39.585  33.783  36.710  1.00  0.00     0.064 A 
ATOM     81  C   UNL A   1      40.170  35.053  36.804  1.00  0.00     0.173 A 
ATOM     82  C   UNL A   1      38.783  33.352  37.778  1.00  0.00     0.173 A 
ATOM     83  F   UNL A   1      40.958  35.501  35.816  1.00  0.00    -0.203 F 
ATOM     84  C   UNL A   1      39.970  35.857  37.925  1.00  0.00     0.198 A 
ATOM     85  C   UNL A   1      38.563  34.168  38.886  1.00  0.00     0.198 A 
ATOM     86  F   UNL A   1      38.193  32.149  37.732  1.00  0.00    -0.203 F 
ATOM     87  F   UNL A   1      40.565  37.054  38.003  1.00  0.00    -0.200 F 
ATOM     88  C   UNL A   1      39.159  35.417  38.961  1.00  0.00     0.200 A 
ATOM     89  F   UNL A   1      37.765  33.746  39.877  1.00  0.00    -0.200 F 
ATOM     90  F   UNL A   1      38.955  36.196  40.032  1.00  0.00    -0.200 F 
ENDBRANCH  56  80
BRANCH  68  91
ATOM     91  C   UNL A   1      43.998  28.640  34.999  1.00  0.00     0.064 A 
ATOM     92  C   UNL A   1      43.856  27.518  35.825  1.00  0.00     0.173 A 
ATOM     93  C   UNL A   1      45.295  29.128  34.768  1.00  0.00     0.173 A 
ATOM     94  F   UNL A   1      42.636  27.022  36.086  1.00  0.00    -0.203 F 
ATOM     95  C   UNL A   1      44.968  26.910  36.402  1.00  0.00     0.198 A 
ATOM     96  C   UNL A   1      46.406  28.502  35.324  1.00  0.00     0.198 A 
ATOM     97  F   UNL A   1      45.484  30.197  33.979  1.00  0.00    -0.203 F 
ATOM     98  F   UNL A   1      44.807  25.854  37.212  1.00  0.00    -0.200 F 
ATOM     99  C   UNL A   1      46.241  27.395  36.142  1.00  0.00     0.200 A 
ATOM    100  F   UNL A   1      47.636  28.963  35.057  1.00  0.00    -0.200 F 
ATOM    101  F   UNL A   1      47.312  26.796  36.681  1.00  0.00    -0.200 F 
ENDBRANCH  68  91
ENDBRANCH  42  43
ENDBRANCH  34  37
ENDBRANCH  32  33
ENDBRANCH  31  32
ENDBRANCH  30  31
ENDBRANCH  29  30
ENDBRANCH   1  29
TORSDOF 20
ENDMDL
MODEL 2
REMARK VINA RESULT:     -11.0      0.758      2.147
REMARK SMILES CC(C)C[N@H+](CC[NH+](C)C)[C@@H]1CCC[C@]([NH3+])(C(=O)NCCCCCCNC(=O)c2ccc(-c3c4nc(c(-c5c(F)c(F)c(F)c(F)c5F)c5ccc([nH]5)c(-c5c(F)c(F)c(F)c(F)c5F)c5nc(c(-c6c(F)c(F)c(F)c(F)c6F)c6ccc3[nH]6)C=C5)C=C4)cc2)C1
REMARK SMILES IDX 21 1 20 2 19 3 17 4 18 5 15 7 11 8 12 9 92 10 13 11 14 12
REMARK SMILES IDX 5 13 4 15 2 16 1 17 3 18 6 19 7 20 8 21 9 22 10 23 16 25
REMARK SMILES IDX 22 29 23 30 24 31 25 32 26 33 27 34 28 36 29 37 30 38 91 39
REMARK SMILES IDX 31 40 90 41 32 42 33 43 34 44 84 45 35 46 89 47 83 48 85 49
REMARK SMILES IDX 36 50 88 51 82 52 81 53 37 55 69 56 49 57 68 58 50 59 53 60
REMARK SMILES IDX 67 61 86 62 51 63 52 64 66 66 87 67 54 68 38 69 39 70 47 71
REMARK SMILES IDX 40 72 41 73 45 74 48 75 42 76 43 77 46 78 44 79 70 80 71 81
REMARK SMILES IDX 79 82 72 83 73 84 77 85 80 86 74 87 75 88 78 89 76 90 55 91
REMARK SMILES IDX 56 92 64 93 57 94 58 95 62 96 65 97 59 98 60 99 63 100
REMARK SMILES IDX 61 101
REMARK H PARENT 19 6 5 14 8 24 16 26 16 27 16 28 26 35 85 54 53 65
REMARK Flexibility Score: inf
ROOT
ATOM      1  C   UNL A   1      33.122  28.482  25.380  1.00  0.00     0.021 C 
ENDROOT
BRANCH   1   2
ATOM      2  C   UNL A   1      31.936  27.585  25.726  1.00  0.00     0.116 C 
BRANCH   2   3
ATOM      3  N   UNL A   1      32.302  26.393  26.479  1.00  0.00    -0.351 N 
ATOM      4  C   UNL A   1      32.255  25.075  26.134  1.00  0.00     0.281 C 
ATOM      5  O   UNL A   1      33.276  24.432  26.440  1.00  0.00    -0.268 OA
ATOM      6  H   UNL A   1      32.638  26.570  27.388  1.00  0.00     0.163 HD
BRANCH   4   7
ATOM      7  C   UNL A   1      31.008  24.292  25.534  1.00  0.00     0.179 C 
ATOM      8  C   UNL A   1      31.944  22.103  24.487  1.00  0.00     0.191 C 
ATOM      9  C   UNL A   1      31.781  22.794  23.084  1.00  0.00     0.065 C 
ATOM     10  C   UNL A   1      30.943  22.767  25.416  1.00  0.00     0.144 C 
ATOM     11  C   UNL A   1      31.360  24.290  23.009  1.00  0.00     0.013 C 
ATOM     12  C   UNL A   1      30.578  24.870  24.189  1.00  0.00     0.079 C 
BRANCH   8  13
ATOM     13  N   UNL A   1      33.336  21.876  25.003  1.00  0.00    -0.327 N 
ATOM     14  H   UNL A   1      33.393  22.550  25.765  1.00  0.00     0.348 HD
BRANCH  13  15
ATOM     15  C   UNL A   1      34.367  22.223  23.993  1.00  0.00     0.265 C 
BRANCH  15  16
ATOM     16  C   UNL A   1      35.622  23.141  24.245  1.00  0.00     0.038 C 
ATOM     17  C   UNL A   1      36.374  23.105  25.577  1.00  0.00     0.013 C 
ATOM     18  C   UNL A   1      36.655  22.952  23.123  1.00  0.00     0.013 C 
ENDBRANCH  15  16
ENDBRANCH  13  15
BRANCH  13  19
ATOM     19  C   UNL A   1      33.620  20.641  25.761  1.00  0.00     0.324 C 
BRANCH  19  20
ATOM     20  C   UNL A   1      33.256  19.155  25.512  1.00  0.00     0.323 C 
BRANCH  20  21
ATOM     21  N   UNL A   1      33.640  18.518  24.249  1.00  0.00    -0.335 N 
ATOM     22  C   UNL A   1      34.114  17.158  24.558  1.00  0.00     0.332 C 
ATOM     23  C   UNL A   1      32.533  18.412  23.302  1.00  0.00     0.332 C 
ATOM     24  H   UNL A   1      34.358  19.097  23.814  1.00  0.00     0.347 HD
ENDBRANCH  20  21
ENDBRANCH  19  20
ENDBRANCH  13  19
ENDBRANCH   8  13
BRANCH   7  25
ATOM     25  N   UNL A   1      29.891  24.585  26.509  1.00  0.00    -0.345 N 
ATOM     26  H   UNL A   1      28.995  24.350  26.081  1.00  0.00     0.345 HD
ATOM     27  H   UNL A   1      29.901  25.575  26.751  1.00  0.00     0.345 HD
ATOM     28  H   UNL A   1      30.020  24.027  27.353  1.00  0.00     0.345 HD
ENDBRANCH   7  25
ENDBRANCH   4   7
ENDBRANCH   2   3
ENDBRANCH   1   2
BRANCH   1  29
ATOM     29  C   UNL A   1      32.917  29.919  25.878  1.00  0.00     0.002 C 
BRANCH  29  30
ATOM     30  C   UNL A   1      31.482  30.450  25.810  1.00  0.00     0.002 C 
BRANCH  30  31
ATOM     31  C   UNL A   1      31.228  31.818  26.432  1.00  0.00     0.021 C 
BRANCH  31  32
ATOM     32  C   UNL A   1      32.476  32.557  26.881  1.00  0.00     0.116 C 
BRANCH  32  33
ATOM     33  N   UNL A   1      32.204  33.883  27.411  1.00  0.00    -0.352 N 
ATOM     34  C   UNL A   1      32.910  34.578  28.367  1.00  0.00     0.251 C 
ATOM     35  H   UNL A   1      31.417  34.343  27.039  1.00  0.00     0.163 HD
ATOM     36  O   UNL A   1      32.532  35.661  28.776  1.00  0.00    -0.269 OA
BRANCH  34  37
ATOM     37  C   UNL A   1      34.128  33.953  28.919  1.00  0.00     0.039 A 
ATOM     38  C   UNL A   1      35.363  34.569  28.701  1.00  0.00     0.014 A 
ATOM     39  C   UNL A   1      34.028  32.805  29.708  1.00  0.00     0.014 A 
ATOM     40  C   UNL A   1      36.499  34.062  29.328  1.00  0.00     0.010 A 
ATOM     41  C   UNL A   1      35.145  32.353  30.395  1.00  0.00     0.010 A 
ATOM     42  C   UNL A   1      36.391  32.969  30.202  1.00  0.00    -0.014 A 
BRANCH  42  43
ATOM     43  C   UNL A   1      37.570  32.402  30.898  1.00  0.00     0.031 A 
ATOM     44  C   UNL A   1      38.340  31.296  30.237  1.00  0.00     0.074 A 
ATOM     45  C   UNL A   1      37.876  32.799  32.146  1.00  0.00     0.049 A 
ATOM     46  N   UNL A   1      39.283  30.533  30.725  1.00  0.00    -0.248 NA
ATOM     47  C   UNL A   1      37.960  30.975  28.851  1.00  0.00     0.031 C 
ATOM     48  C   UNL A   1      37.174  33.839  32.900  1.00  0.00     0.029 A 
ATOM     49  N   UNL A   1      38.839  32.351  33.013  1.00  0.00    -0.354 N 
ATOM     50  C   UNL A   1      39.581  29.622  29.720  1.00  0.00     0.074 A 
ATOM     51  C   UNL A   1      38.685  29.893  28.618  1.00  0.00     0.031 C 
ATOM     52  C   UNL A   1      37.734  33.952  34.115  1.00  0.00     0.029 A 
ATOM     53  C   UNL A   1      38.802  32.964  34.241  1.00  0.00     0.049 A 
ATOM     54  H   UNL A   1      39.496  31.656  32.776  1.00  0.00     0.167 HD
ATOM     55  C   UNL A   1      40.532  28.660  29.713  1.00  0.00     0.037 A 
ATOM     56  C   UNL A   1      39.535  32.737  35.348  1.00  0.00     0.037 A 
ATOM     57  C   UNL A   1      41.441  28.426  30.803  1.00  0.00     0.049 A 
ATOM     58  C   UNL A   1      40.596  31.671  35.316  1.00  0.00     0.074 A 
ATOM     59  C   UNL A   1      42.487  27.525  30.877  1.00  0.00     0.029 A 
ATOM     60  N   UNL A   1      41.407  29.105  32.014  1.00  0.00    -0.354 N 
ATOM     61  N   UNL A   1      40.913  30.850  34.344  1.00  0.00    -0.248 NA
ATOM     62  C   UNL A   1      41.405  31.501  36.531  1.00  0.00     0.031 C 
ATOM     63  C   UNL A   1      43.056  27.623  32.151  1.00  0.00     0.029 A 
ATOM     64  C   UNL A   1      42.402  28.627  32.850  1.00  0.00     0.049 A 
ATOM     65  H   UNL A   1      40.769  29.818  32.244  1.00  0.00     0.167 HD
ATOM     66  C   UNL A   1      41.978  30.092  34.812  1.00  0.00     0.074 A 
ATOM     67  C   UNL A   1      42.253  30.550  36.159  1.00  0.00     0.031 C 
ATOM     68  C   UNL A   1      42.671  29.113  34.181  1.00  0.00     0.037 A 
BRANCH  55  69
ATOM     69  C   UNL A   1      40.620  27.785  28.495  1.00  0.00     0.064 A 
ATOM     70  C   UNL A   1      39.940  26.560  28.411  1.00  0.00     0.173 A 
ATOM     71  C   UNL A   1      41.401  28.175  27.397  1.00  0.00     0.173 A 
ATOM     72  F   UNL A   1      39.189  26.132  29.438  1.00  0.00    -0.203 F 
ATOM     73  C   UNL A   1      40.079  25.737  27.297  1.00  0.00     0.198 A 
ATOM     74  C   UNL A   1      41.507  27.367  26.268  1.00  0.00     0.198 A 
ATOM     75  F   UNL A   1      42.068  29.339  27.419  1.00  0.00    -0.203 F 
ATOM     76  F   UNL A   1      39.479  24.538  27.273  1.00  0.00    -0.200 F 
ATOM     77  C   UNL A   1      40.858  26.143  26.224  1.00  0.00     0.200 A 
ATOM     78  F   UNL A   1      42.250  27.767  25.227  1.00  0.00    -0.200 F 
ATOM     79  F   UNL A   1      40.993  25.348  25.154  1.00  0.00    -0.200 F 
ENDBRANCH  55  69
BRANCH  56  80
ATOM     80  C   UNL A   1      39.299  33.557  36.563  1.00  0.00     0.064 A 
ATOM     81  C   UNL A   1      38.503  33.075  37.612  1.00  0.00     0.173 A 
ATOM     82  C   UNL A   1      39.892  34.818  36.720  1.00  0.00     0.173 A 
ATOM     83  F   UNL A   1      37.901  31.882  37.500  1.00  0.00    -0.203 F 
ATOM     84  C   UNL A   1      38.301  33.827  38.768  1.00  0.00     0.198 A 
ATOM     85  C   UNL A   1      39.711  35.558  37.888  1.00  0.00     0.198 A 
ATOM     86  F   UNL A   1      40.670  35.320  35.751  1.00  0.00    -0.203 F 
ATOM     87  F   UNL A   1      37.511  33.356  39.742  1.00  0.00    -0.200 F 
ATOM     88  C   UNL A   1      38.912  35.065  38.908  1.00  0.00     0.200 A 
ATOM     89  F   UNL A   1      40.317  36.746  38.027  1.00  0.00    -0.200 F 
ATOM     90  F   UNL A   1      38.730  35.781  40.026  1.00  0.00    -0.200 F 
ENDBRANCH  56  80
BRANCH  68  91
ATOM     91  C   UNL A   1      43.831  28.500  34.908  1.00  0.00     0.064 A 
ATOM     92  C   UNL A   1      45.113  29.062  34.865  1.00  0.00     0.173 A 
ATOM     93  C   UNL A   1      43.629  27.381  35.733  1.00  0.00     0.173 A 
ATOM     94  F   UNL A   1      45.358  30.124  34.081  1.00  0.00    -0.203 F 
ATOM     95  C   UNL A   1      46.155  28.522  35.614  1.00  0.00     0.198 A 
ATOM     96  C   UNL A   1      44.665  26.861  36.501  1.00  0.00     0.198 A 
ATOM     97  F   UNL A   1      42.417  26.810  35.813  1.00  0.00    -0.203 F 
ATOM     98  F   UNL A   1      47.381  29.058  35.536  1.00  0.00    -0.200 F 
ATOM     99  C   UNL A   1      45.928  27.431  36.439  1.00  0.00     0.200 A 
ATOM    100  F   UNL A   1      44.439  25.816  37.310  1.00  0.00    -0.200 F 
ATOM    101  F   UNL A   1      46.927  26.925  37.176  1.00  0.00    -0.200 F 
ENDBRANCH  68  91
ENDBRANCH  42  43
ENDBRANCH  34  37
ENDBRANCH  32  33
ENDBRANCH  31  32
ENDBRANCH  30  31
ENDBRANCH  29  30
ENDBRANCH   1  29
TORSDOF 20
ENDMDL
MODEL 3
REMARK VINA RESULT:     -11.0      5.420     11.107
REMARK SMILES CC(C)C[N@H+](CC[NH+](C)C)[C@@H]1CCC[C@]([NH3+])(C(=O)NCCCCCCNC(=O)c2ccc(-c3c4nc(c(-c5c(F)c(F)c(F)c(F)c5F)c5ccc([nH]5)c(-c5c(F)c(F)c(F)c(F)c5F)c5nc(c(-c6c(F)c(F)c(F)c(F)c6F)c6ccc3[nH]6)C=C5)C=C4)cc2)C1
REMARK SMILES IDX 21 1 20 2 19 3 17 4 18 5 15 7 11 8 12 9 92 10 13 11 14 12
REMARK SMILES IDX 5 13 4 15 2 16 1 17 3 18 6 19 7 20 8 21 9 22 10 23 16 25
REMARK SMILES IDX 22 29 23 30 24 31 25 32 26 33 27 34 28 36 29 37 30 38 91 39
REMARK SMILES IDX 31 40 90 41 32 42 33 43 34 44 84 45 35 46 89 47 83 48 85 49
REMARK SMILES IDX 36 50 88 51 82 52 81 53 37 55 69 56 49 57 68 58 50 59 53 60
REMARK SMILES IDX 67 61 86 62 51 63 52 64 66 66 87 67 54 68 38 69 39 70 47 71
REMARK SMILES IDX 40 72 41 73 45 74 48 75 42 76 43 77 46 78 44 79 70 80 71 81
REMARK SMILES IDX 79 82 72 83 73 84 77 85 80 86 74 87 75 88 78 89 76 90 55 91
REMARK SMILES IDX 56 92 64 93 57 94 58 95 62 96 65 97 59 98 60 99 63 100
REMARK SMILES IDX 61 101
REMARK H PARENT 19 6 5 14 8 24 16 26 16 27 16 28 26 35 85 54 53 65
REMARK Flexibility Score: inf
ROOT
ATOM      1  C   UNL A   1      35.060  22.358  23.865  1.00  0.00     0.021 C 
ENDROOT
BRANCH   1   2
ATOM      2  C   UNL A   1      34.829  23.785  24.356  1.00  0.00     0.116 C 
BRANCH   2   3
ATOM      3  N   UNL A   1      34.229  24.659  23.356  1.00  0.00    -0.351 N 
ATOM      4  C   UNL A   1      33.087  25.402  23.398  1.00  0.00     0.281 C 
ATOM      5  O   UNL A   1      33.217  26.561  22.962  1.00  0.00    -0.268 OA
ATOM      6  H   UNL A   1      34.732  24.722  22.512  1.00  0.00     0.163 HD
BRANCH   4   7
ATOM      7  C   UNL A   1      31.635  24.895  23.801  1.00  0.00     0.179 C 
ATOM      8  C   UNL A   1      30.404  26.932  24.849  1.00  0.00     0.191 C 
ATOM      9  C   UNL A   1      30.676  26.277  26.252  1.00  0.00     0.065 C 
ATOM     10  C   UNL A   1      30.401  25.800  23.836  1.00  0.00     0.144 C 
ATOM     11  C   UNL A   1      31.562  25.001  26.347  1.00  0.00     0.013 C 
ATOM     12  C   UNL A   1      31.659  24.108  25.108  1.00  0.00     0.079 C 
BRANCH   8  13
ATOM     13  N   UNL A   1      31.155  28.184  24.499  1.00  0.00    -0.327 N 
ATOM     14  H   UNL A   1      31.957  27.816  23.988  1.00  0.00     0.348 HD
BRANCH  13  15
ATOM     15  C   UNL A   1      31.655  28.889  25.706  1.00  0.00     0.265 C 
BRANCH  15  16
ATOM     16  C   UNL A   1      33.168  29.184  26.034  1.00  0.00     0.038 C 
ATOM     17  C   UNL A   1      33.564  30.033  27.243  1.00  0.00     0.013 C 
ATOM     18  C   UNL A   1      33.963  27.870  26.108  1.00  0.00     0.013 C 
ENDBRANCH  15  16
ENDBRANCH  13  15
BRANCH  13  19
ATOM     19  C   UNL A   1      30.605  29.076  23.460  1.00  0.00     0.324 C 
BRANCH  19  20
ATOM     20  C   UNL A   1      29.166  29.294  22.925  1.00  0.00     0.323 C 
BRANCH  20  21
ATOM     21  N   UNL A   1      28.708  30.652  22.616  1.00  0.00    -0.335 N 
ATOM     22  C   UNL A   1      28.284  30.671  21.205  1.00  0.00     0.332 C 
ATOM     23  C   UNL A   1      27.578  31.077  23.438  1.00  0.00     0.332 C 
ATOM     24  H   UNL A   1      29.479  31.292  22.805  1.00  0.00     0.347 HD
ENDBRANCH  20  21
ENDBRANCH  19  20
ENDBRANCH  13  19
ENDBRANCH   8  13
BRANCH   7  25
ATOM     25  N   UNL A   1      31.278  23.911  22.710  1.00  0.00    -0.345 N 
ATOM     26  H   UNL A   1      30.753  23.133  23.111  1.00  0.00     0.345 HD
ATOM     27  H   UNL A   1      32.131  23.557  22.278  1.00  0.00     0.345 HD
ATOM     28  H   UNL A   1      30.708  24.377  22.004  1.00  0.00     0.345 HD
ENDBRANCH   7  25
ENDBRANCH   4   7
ENDBRANCH   2   3
ENDBRANCH   1   2
BRANCH   1  29
ATOM     29  C   UNL A   1      35.862  21.527  24.876  1.00  0.00     0.002 C 
BRANCH  29  30
ATOM     30  C   UNL A   1      37.382  21.538  24.692  1.00  0.00     0.002 C 
BRANCH  30  31
ATOM     31  C   UNL A   1      38.120  20.244  25.016  1.00  0.00     0.021 C 
BRANCH  31  32
ATOM     32  C   UNL A   1      39.299  20.399  25.960  1.00  0.00     0.116 C 
BRANCH  32  33
ATOM     33  N   UNL A   1      40.217  19.272  25.929  1.00  0.00    -0.352 N 
ATOM     34  C   UNL A   1      41.582  19.282  26.105  1.00  0.00     0.251 C 
ATOM     35  H   UNL A   1      39.812  18.391  25.763  1.00  0.00     0.163 HD
ATOM     36  O   UNL A   1      42.247  18.270  25.984  1.00  0.00    -0.269 OA
BRANCH  34  37
ATOM     37  C   UNL A   1      42.232  20.573  26.409  1.00  0.00     0.039 A 
ATOM     38  C   UNL A   1      42.640  21.390  25.353  1.00  0.00     0.014 A 
ATOM     39  C   UNL A   1      42.364  20.993  27.734  1.00  0.00     0.014 A 
ATOM     40  C   UNL A   1      43.131  22.666  25.626  1.00  0.00     0.010 A 
ATOM     41  C   UNL A   1      42.775  22.291  27.998  1.00  0.00     0.010 A 
ATOM     42  C   UNL A   1      43.173  23.134  26.948  1.00  0.00    -0.014 A 
BRANCH  42  43
ATOM     43  C   UNL A   1      43.678  24.485  27.285  1.00  0.00     0.031 A 
ATOM     44  C   UNL A   1      42.709  25.521  27.776  1.00  0.00     0.074 A 
ATOM     45  C   UNL A   1      44.964  24.806  27.051  1.00  0.00     0.049 A 
ATOM     46  N   UNL A   1      42.884  26.804  27.960  1.00  0.00    -0.248 NA
ATOM     47  C   UNL A   1      41.341  25.053  28.053  1.00  0.00     0.031 C 
ATOM     48  C   UNL A   1      45.985  23.892  26.540  1.00  0.00     0.029 A 
ATOM     49  N   UNL A   1      45.621  26.003  27.183  1.00  0.00    -0.354 N 
ATOM     50  C   UNL A   1      41.642  27.298  28.336  1.00  0.00     0.074 A 
ATOM     51  C   UNL A   1      40.714  26.191  28.304  1.00  0.00     0.031 C 
ATOM     52  C   UNL A   1      47.142  24.559  26.407  1.00  0.00     0.029 A 
ATOM     53  C   UNL A   1      46.933  25.956  26.779  1.00  0.00     0.049 A 
ATOM     54  H   UNL A   1      45.194  26.817  27.535  1.00  0.00     0.167 HD
ATOM     55  C   UNL A   1      41.314  28.561  28.695  1.00  0.00     0.037 A 
ATOM     56  C   UNL A   1      47.853  26.937  26.699  1.00  0.00     0.037 A 
ATOM     57  C   UNL A   1      42.258  29.644  28.757  1.00  0.00     0.049 A 
ATOM     58  C   UNL A   1      47.472  28.331  27.115  1.00  0.00     0.074 A 
ATOM     59  C   UNL A   1      42.051  30.947  29.173  1.00  0.00     0.029 A 
ATOM     60  N   UNL A   1      43.593  29.546  28.390  1.00  0.00    -0.354 N 
ATOM     61  N   UNL A   1      46.311  28.783  27.525  1.00  0.00    -0.248 NA
ATOM     62  C   UNL A   1      48.527  29.352  27.063  1.00  0.00     0.031 C 
ATOM     63  C   UNL A   1      43.248  31.650  29.011  1.00  0.00     0.029 A 
ATOM     64  C   UNL A   1      44.217  30.772  28.550  1.00  0.00     0.049 A 
ATOM     65  H   UNL A   1      44.031  28.728  28.063  1.00  0.00     0.167 HD
ATOM     66  C   UNL A   1      46.502  30.128  27.814  1.00  0.00     0.074 A 
ATOM     67  C   UNL A   1      47.893  30.420  27.531  1.00  0.00     0.031 C 
ATOM     68  C   UNL A   1      45.609  31.035  28.281  1.00  0.00     0.037 A 
BRANCH  55  69
ATOM     69  C   UNL A   1      39.875  28.831  29.031  1.00  0.00     0.064 A 
ATOM     70  C   UNL A   1      39.373  28.664  30.331  1.00  0.00     0.173 A 
ATOM     71  C   UNL A   1      38.983  29.256  28.035  1.00  0.00     0.173 A 
ATOM     72  F   UNL A   1      40.180  28.247  31.319  1.00  0.00    -0.203 F 
ATOM     73  C   UNL A   1      38.024  28.864  30.610  1.00  0.00     0.198 A 
ATOM     74  C   UNL A   1      37.642  29.492  28.326  1.00  0.00     0.198 A 
ATOM     75  F   UNL A   1      39.409  29.438  26.776  1.00  0.00    -0.203 F 
ATOM     76  F   UNL A   1      37.554  28.626  31.843  1.00  0.00    -0.200 F 
ATOM     77  C   UNL A   1      37.161  29.283  29.609  1.00  0.00     0.200 A 
ATOM     78  F   UNL A   1      36.812  29.910  27.361  1.00  0.00    -0.200 F 
ATOM     79  F   UNL A   1      35.862  29.472  29.879  1.00  0.00    -0.200 F 
ENDBRANCH  55  69
BRANCH  56  80
ATOM     80  C   UNL A   1      49.225  26.617  26.229  1.00  0.00     0.064 A 
ATOM     81  C   UNL A   1      49.614  26.888  24.910  1.00  0.00     0.173 A 
ATOM     82  C   UNL A   1      50.185  26.072  27.095  1.00  0.00     0.173 A 
ATOM     83  F   UNL A   1      48.726  27.392  24.042  1.00  0.00    -0.203 F 
ATOM     84  C   UNL A   1      50.909  26.617  24.471  1.00  0.00     0.198 A 
ATOM     85  C   UNL A   1      51.487  25.826  26.661  1.00  0.00     0.198 A 
ATOM     86  F   UNL A   1      49.866  25.803  28.369  1.00  0.00    -0.203 F 
ATOM     87  F   UNL A   1      51.246  26.858  23.197  1.00  0.00    -0.200 F 
ATOM     88  C   UNL A   1      51.846  26.094  25.350  1.00  0.00     0.200 A 
ATOM     89  F   UNL A   1      52.395  25.337  27.518  1.00  0.00    -0.200 F 
ATOM     90  F   UNL A   1      53.095  25.848  24.931  1.00  0.00    -0.200 F 
ENDBRANCH  56  80
BRANCH  68  91
ATOM     91  C   UNL A   1      46.109  32.419  28.570  1.00  0.00     0.064 A 
ATOM     92  C   UNL A   1      46.689  32.756  29.800  1.00  0.00     0.173 A 
ATOM     93  C   UNL A   1      46.085  33.398  27.562  1.00  0.00     0.173 A 
ATOM     94  F   UNL A   1      46.724  31.859  30.798  1.00  0.00    -0.203 F 
ATOM     95  C   UNL A   1      47.220  34.025  30.015  1.00  0.00     0.198 A 
ATOM     96  C   UNL A   1      46.641  34.655  27.772  1.00  0.00     0.198 A 
ATOM     97  F   UNL A   1      45.546  33.121  26.365  1.00  0.00    -0.203 F 
ATOM     98  F   UNL A   1      47.745  34.335  31.208  1.00  0.00    -0.200 F 
ATOM     99  C   UNL A   1      47.206  34.968  28.998  1.00  0.00     0.200 A 
ATOM    100  F   UNL A   1      46.642  35.559  26.782  1.00  0.00    -0.200 F 
ATOM    101  F   UNL A   1      47.737  36.183  29.201  1.00  0.00    -0.200 F 
ENDBRANCH  68  91
ENDBRANCH  42  43
ENDBRANCH  34  37
ENDBRANCH  32  33
ENDBRANCH  31  32
ENDBRANCH  30  31
ENDBRANCH  29  30
ENDBRANCH   1  29
TORSDOF 20
ENDMDL
