MODEL 1
REMARK VINA RESULT:     -12.3      0.000      0.000
REMARK SMILES CC1(C)C(n2c(SCC(=O)NCCCCCCNC(=O)c3ccc(-c4c5nc(c(-c6c(F)c(F)c(F)c(F)c6F)c6ccc([nH]6)c(-c6c(F)c(F)c(F)c(F)c6F)c6nc(c(-c7c(F)c(F)c(F)c(F)c7F)c7ccc4[nH]7)C=C6)C=C5)cc3)nc3cnccc32)C1(C)C
REMARK SMILES IDX 14 1 13 2 12 3 11 4 9 5 10 6 8 8 7 9 6 10 5 11 90 12 84 13
REMARK SMILES IDX 85 14 89 15 86 16 88 17 87 18 4 19 1 20 2 21 3 22 91 23
REMARK SMILES IDX 92 24 93 25 15 26 16 27 17 28 18 29 19 30 20 32 21 33 22 34
REMARK SMILES IDX 83 35 23 36 82 37 24 38 25 39 26 40 76 41 27 42 81 43 75 44
REMARK SMILES IDX 77 45 28 46 80 47 74 48 73 49 29 51 61 52 41 53 60 54 42 55
REMARK SMILES IDX 45 56 59 57 78 58 43 59 44 60 58 62 79 63 46 64 30 65 31 66
REMARK SMILES IDX 39 67 32 68 33 69 37 70 40 71 34 72 35 73 38 74 36 75 62 76
REMARK SMILES IDX 63 77 71 78 64 79 65 80 69 81 72 82 66 83 67 84 70 85 68 86
REMARK SMILES IDX 47 87 48 88 56 89 49 90 50 91 54 92 57 93 51 94 52 95 55 96
REMARK SMILES IDX 53 97
REMARK H PARENT 11 7 18 31 77 50 45 61
REMARK Flexibility Score: inf
ROOT
ATOM      1  C   UNL A   1      32.753  27.904  26.298  1.00  0.00     0.002 C 
ENDROOT
BRANCH   1   2
ATOM      2  C   UNL A   1      31.343  27.910  25.692  1.00  0.00     0.021 C 
BRANCH   2   3
ATOM      3  C   UNL A   1      30.877  26.533  25.229  1.00  0.00     0.116 C 
BRANCH   3   4
ATOM      4  N   UNL A   1      30.288  25.844  26.346  1.00  0.00    -0.355 N 
ATOM      5  C   UNL A   1      30.360  24.509  26.577  1.00  0.00     0.230 C 
ATOM      6  O   UNL A   1      29.449  24.011  27.248  1.00  0.00    -0.274 OA
ATOM      7  H   UNL A   1      29.788  26.388  26.998  1.00  0.00     0.163 HD
BRANCH   5   8
ATOM      8  C   UNL A   1      31.575  23.744  26.112  1.00  0.00     0.178 C 
BRANCH   8   9
ATOM      9  S   UNL A   1      31.364  22.677  24.711  1.00  0.00    -0.078 SA
BRANCH   9  10
ATOM     10  C   UNL A   1      32.658  21.544  24.542  1.00  0.00     0.169 A 
ATOM     11  N   UNL A   1      34.030  21.655  24.689  1.00  0.00    -0.315 N 
ATOM     12  C   UNL A   1      34.532  20.358  24.689  1.00  0.00     0.072 A 
ATOM     13  N   UNL A   1      32.325  20.320  24.176  1.00  0.00    -0.221 NA
ATOM     14  C   UNL A   1      33.456  19.567  24.298  1.00  0.00     0.108 A 
ATOM     15  C   UNL A   1      35.773  19.789  24.986  1.00  0.00     0.049 A 
ATOM     16  C   UNL A   1      33.635  18.189  24.136  1.00  0.00     0.141 A 
ATOM     17  C   UNL A   1      35.849  18.411  24.822  1.00  0.00     0.113 A 
ATOM     18  N   UNL A   1      34.838  17.619  24.401  1.00  0.00    -0.262 NA
BRANCH  11  19
ATOM     19  C   UNL A   1      34.842  22.777  25.126  1.00  0.00     0.102 C 
ATOM     20  C   UNL A   1      37.327  23.496  25.299  1.00  0.00     0.014 C 
ATOM     21  C   UNL A   1      36.100  23.279  24.432  1.00  0.00    -0.007 C 
ATOM     22  C   UNL A   1      36.460  22.858  23.026  1.00  0.00     0.014 C 
ATOM     23  C   UNL A   1      34.884  24.218  24.619  1.00  0.00    -0.007 C 
ATOM     24  C   UNL A   1      35.046  25.353  25.625  1.00  0.00     0.014 C 
ATOM     25  C   UNL A   1      34.080  24.633  23.397  1.00  0.00     0.014 C 
ENDBRANCH  11  19
ENDBRANCH   9  10
ENDBRANCH   8   9
ENDBRANCH   5   8
ENDBRANCH   3   4
ENDBRANCH   2   3
ENDBRANCH   1   2
BRANCH   1  26
ATOM     26  C   UNL A   1      33.041  29.076  27.237  1.00  0.00     0.002 C 
BRANCH  26  27
ATOM     27  C   UNL A   1      34.531  29.315  27.497  1.00  0.00     0.021 C 
BRANCH  27  28
ATOM     28  C   UNL A   1      34.929  30.793  27.467  1.00  0.00     0.116 C 
BRANCH  28  29
ATOM     29  N   UNL A   1      34.663  31.469  28.714  1.00  0.00    -0.352 N 
ATOM     30  C   UNL A   1      35.361  31.595  29.874  1.00  0.00     0.251 C 
ATOM     31  H   UNL A   1      33.796  31.936  28.727  1.00  0.00     0.163 HD
ATOM     32  O   UNL A   1      34.835  32.277  30.765  1.00  0.00    -0.269 OA
BRANCH  30  33
ATOM     33  C   UNL A   1      36.655  30.921  30.157  1.00  0.00     0.039 A 
ATOM     34  C   UNL A   1      37.920  31.499  30.023  1.00  0.00     0.014 A 
ATOM     35  C   UNL A   1      36.572  29.569  30.525  1.00  0.00     0.014 A 
ATOM     36  C   UNL A   1      39.065  30.723  30.104  1.00  0.00     0.010 A 
ATOM     37  C   UNL A   1      37.715  28.796  30.658  1.00  0.00     0.010 A 
ATOM     38  C   UNL A   1      38.954  29.363  30.375  1.00  0.00    -0.014 A 
BRANCH  38  39
ATOM     39  C   UNL A   1      40.180  28.583  30.353  1.00  0.00     0.031 A 
ATOM     40  C   UNL A   1      40.909  28.456  31.648  1.00  0.00     0.074 A 
ATOM     41  C   UNL A   1      40.600  27.964  29.235  1.00  0.00     0.049 A 
ATOM     42  N   UNL A   1      42.140  28.759  31.917  1.00  0.00    -0.248 NA
ATOM     43  C   UNL A   1      40.139  27.996  32.814  1.00  0.00     0.031 C 
ATOM     44  C   UNL A   1      39.893  27.793  27.962  1.00  0.00     0.029 A 
ATOM     45  N   UNL A   1      41.747  27.262  29.050  1.00  0.00    -0.354 N 
ATOM     46  C   UNL A   1      42.345  28.410  33.253  1.00  0.00     0.074 A 
ATOM     47  C   UNL A   1      41.059  28.027  33.777  1.00  0.00     0.031 C 
ATOM     48  C   UNL A   1      40.525  26.849  27.231  1.00  0.00     0.029 A 
ATOM     49  C   UNL A   1      41.742  26.461  27.922  1.00  0.00     0.049 A 
ATOM     50  H   UNL A   1      42.515  27.318  29.663  1.00  0.00     0.167 HD
ATOM     51  C   UNL A   1      43.588  28.324  33.805  1.00  0.00     0.037 A 
ATOM     52  C   UNL A   1      42.637  25.491  27.627  1.00  0.00     0.037 A 
ATOM     53  C   UNL A   1      44.562  29.059  33.051  1.00  0.00     0.049 A 
ATOM     54  C   UNL A   1      43.867  25.759  28.414  1.00  0.00     0.074 A 
ATOM     55  C   UNL A   1      44.743  30.397  32.759  1.00  0.00     0.029 A 
ATOM     56  N   UNL A   1      45.389  28.382  32.191  1.00  0.00    -0.354 N 
ATOM     57  N   UNL A   1      44.658  26.774  28.200  1.00  0.00    -0.248 NA
ATOM     58  C   UNL A   1      43.973  25.152  29.734  1.00  0.00     0.031 C 
ATOM     59  C   UNL A   1      45.261  30.418  31.432  1.00  0.00     0.029 A 
ATOM     60  C   UNL A   1      45.393  29.093  31.018  1.00  0.00     0.049 A 
ATOM     61  H   UNL A   1      45.884  27.552  32.379  1.00  0.00     0.167 HD
ATOM     62  C   UNL A   1      45.060  27.185  29.463  1.00  0.00     0.074 A 
ATOM     63  C   UNL A   1      44.679  26.098  30.360  1.00  0.00     0.031 C 
ATOM     64  C   UNL A   1      45.410  28.482  29.710  1.00  0.00     0.037 A 
BRANCH  51  65
ATOM     65  C   UNL A   1      43.972  27.363  34.901  1.00  0.00     0.064 A 
ATOM     66  C   UNL A   1      43.850  25.974  34.693  1.00  0.00     0.173 A 
ATOM     67  C   UNL A   1      44.185  27.763  36.237  1.00  0.00     0.173 A 
ATOM     68  F   UNL A   1      43.621  25.481  33.467  1.00  0.00    -0.203 F 
ATOM     69  C   UNL A   1      43.878  25.064  35.754  1.00  0.00     0.198 A 
ATOM     70  C   UNL A   1      44.264  26.848  37.285  1.00  0.00     0.198 A 
ATOM     71  F   UNL A   1      44.217  29.053  36.590  1.00  0.00    -0.203 F 
ATOM     72  F   UNL A   1      43.645  23.763  35.524  1.00  0.00    -0.200 F 
ATOM     73  C   UNL A   1      44.081  25.502  37.050  1.00  0.00     0.200 A 
ATOM     74  F   UNL A   1      44.444  27.295  38.537  1.00  0.00    -0.200 F 
ATOM     75  F   UNL A   1      44.052  24.639  38.074  1.00  0.00    -0.200 F 
ENDBRANCH  51  65
BRANCH  52  76
ATOM     76  C   UNL A   1      42.362  24.206  26.948  1.00  0.00     0.064 A 
ATOM     77  C   UNL A   1      43.274  23.644  26.046  1.00  0.00     0.173 A 
ATOM     78  C   UNL A   1      41.290  23.384  27.354  1.00  0.00     0.173 A 
ATOM     79  F   UNL A   1      44.351  24.340  25.654  1.00  0.00    -0.203 F 
ATOM     80  C   UNL A   1      43.124  22.334  25.578  1.00  0.00     0.198 A 
ATOM     81  C   UNL A   1      41.135  22.083  26.879  1.00  0.00     0.198 A 
ATOM     82  F   UNL A   1      40.421  23.796  28.288  1.00  0.00    -0.203 F 
ATOM     83  F   UNL A   1      44.042  21.810  24.754  1.00  0.00    -0.200 F 
ATOM     84  C   UNL A   1      42.058  21.554  25.998  1.00  0.00     0.200 A 
ATOM     85  F   UNL A   1      40.119  21.330  27.323  1.00  0.00    -0.200 F 
ATOM     86  F   UNL A   1      41.940  20.284  25.586  1.00  0.00    -0.200 F 
ENDBRANCH  52  76
BRANCH  64  87
ATOM     87  C   UNL A   1      45.533  29.414  28.538  1.00  0.00     0.064 A 
ATOM     88  C   UNL A   1      44.438  30.100  27.984  1.00  0.00     0.173 A 
ATOM     89  C   UNL A   1      46.810  29.771  28.085  1.00  0.00     0.173 A 
ATOM     90  F   UNL A   1      43.198  29.900  28.445  1.00  0.00    -0.203 F 
ATOM     91  C   UNL A   1      44.609  31.067  26.997  1.00  0.00     0.198 A 
ATOM     92  C   UNL A   1      46.982  30.764  27.123  1.00  0.00     0.198 A 
ATOM     93  F   UNL A   1      47.898  29.202  28.625  1.00  0.00    -0.203 F 
ATOM     94  F   UNL A   1      43.545  31.707  26.490  1.00  0.00    -0.200 F 
ATOM     95  C   UNL A   1      45.883  31.405  26.574  1.00  0.00     0.200 A 
ATOM     96  F   UNL A   1      48.218  31.131  26.758  1.00  0.00    -0.200 F 
ATOM     97  F   UNL A   1      46.053  32.375  25.664  1.00  0.00    -0.200 F 
ENDBRANCH  64  87
ENDBRANCH  38  39
ENDBRANCH  30  33
ENDBRANCH  28  29
ENDBRANCH  27  28
ENDBRANCH  26  27
ENDBRANCH   1  26
TORSDOF 16
ENDMDL
MODEL 2
REMARK VINA RESULT:     -12.2      1.402      2.007
REMARK SMILES CC1(C)C(n2c(SCC(=O)NCCCCCCNC(=O)c3ccc(-c4c5nc(c(-c6c(F)c(F)c(F)c(F)c6F)c6ccc([nH]6)c(-c6c(F)c(F)c(F)c(F)c6F)c6nc(c(-c7c(F)c(F)c(F)c(F)c7F)c7ccc4[nH]7)C=C6)C=C5)cc3)nc3cnccc32)C1(C)C
REMARK SMILES IDX 14 1 13 2 12 3 11 4 9 5 10 6 8 8 7 9 6 10 5 11 90 12 84 13
REMARK SMILES IDX 85 14 89 15 86 16 88 17 87 18 4 19 1 20 2 21 3 22 91 23
REMARK SMILES IDX 92 24 93 25 15 26 16 27 17 28 18 29 19 30 20 32 21 33 22 34
REMARK SMILES IDX 83 35 23 36 82 37 24 38 25 39 26 40 76 41 27 42 81 43 75 44
REMARK SMILES IDX 77 45 28 46 80 47 74 48 73 49 29 51 61 52 41 53 60 54 42 55
REMARK SMILES IDX 45 56 59 57 78 58 43 59 44 60 58 62 79 63 46 64 30 65 31 66
REMARK SMILES IDX 39 67 32 68 33 69 37 70 40 71 34 72 35 73 38 74 36 75 62 76
REMARK SMILES IDX 63 77 71 78 64 79 65 80 69 81 72 82 66 83 67 84 70 85 68 86
REMARK SMILES IDX 47 87 48 88 56 89 49 90 50 91 54 92 57 93 51 94 52 95 55 96
REMARK SMILES IDX 53 97
REMARK H PARENT 11 7 18 31 77 50 45 61
REMARK Flexibility Score: inf
ROOT
ATOM      1  C   UNL A   1      31.843  27.196  26.656  1.00  0.00     0.002 C 
ENDROOT
BRANCH   1   2
ATOM      2  C   UNL A   1      31.265  27.148  25.235  1.00  0.00     0.021 C 
BRANCH   2   3
ATOM      3  C   UNL A   1      30.106  26.167  25.086  1.00  0.00     0.116 C 
BRANCH   3   4
ATOM      4  N   UNL A   1      29.876  25.527  26.353  1.00  0.00    -0.355 N 
ATOM      5  C   UNL A   1      29.878  24.188  26.572  1.00  0.00     0.230 C 
ATOM      6  O   UNL A   1      29.213  23.780  27.531  1.00  0.00    -0.274 OA
ATOM      7  H   UNL A   1      29.700  26.109  27.128  1.00  0.00     0.163 HD
BRANCH   5   8
ATOM      8  C   UNL A   1      30.760  23.303  25.726  1.00  0.00     0.178 C 
BRANCH   8   9
ATOM      9  S   UNL A   1      32.319  22.821  26.421  1.00  0.00    -0.078 SA
BRANCH   9  10
ATOM     10  C   UNL A   1      33.016  21.466  25.607  1.00  0.00     0.169 A 
ATOM     11  N   UNL A   1      34.324  21.110  25.323  1.00  0.00    -0.315 N 
ATOM     12  C   UNL A   1      34.288  19.791  24.885  1.00  0.00     0.072 A 
ATOM     13  N   UNL A   1      32.174  20.575  25.118  1.00  0.00    -0.221 NA
ATOM     14  C   UNL A   1      32.934  19.521  24.705  1.00  0.00     0.108 A 
ATOM     15  C   UNL A   1      35.256  18.815  24.638  1.00  0.00     0.049 A 
ATOM     16  C   UNL A   1      32.540  18.274  24.206  1.00  0.00     0.141 A 
ATOM     17  C   UNL A   1      34.770  17.601  24.169  1.00  0.00     0.113 A 
ATOM     18  N   UNL A   1      33.467  17.319  23.940  1.00  0.00    -0.262 NA
BRANCH  11  19
ATOM     19  C   UNL A   1      35.574  21.744  25.702  1.00  0.00     0.102 C 
ATOM     20  C   UNL A   1      38.097  21.699  25.106  1.00  0.00     0.014 C 
ATOM     21  C   UNL A   1      36.690  22.138  24.744  1.00  0.00    -0.007 C 
ATOM     22  C   UNL A   1      36.476  22.200  23.250  1.00  0.00     0.014 C 
ATOM     23  C   UNL A   1      35.999  23.211  25.621  1.00  0.00    -0.007 C 
ATOM     24  C   UNL A   1      36.830  23.805  26.753  1.00  0.00     0.014 C 
ATOM     25  C   UNL A   1      35.103  24.240  24.953  1.00  0.00     0.014 C 
ENDBRANCH  11  19
ENDBRANCH   9  10
ENDBRANCH   8   9
ENDBRANCH   5   8
ENDBRANCH   3   4
ENDBRANCH   2   3
ENDBRANCH   1   2
BRANCH   1  26
ATOM     26  C   UNL A   1      31.478  28.456  27.444  1.00  0.00     0.002 C 
BRANCH  26  27
ATOM     27  C   UNL A   1      32.085  29.742  26.877  1.00  0.00     0.021 C 
BRANCH  27  28
ATOM     28  C   UNL A   1      33.572  29.911  27.197  1.00  0.00     0.116 C 
BRANCH  28  29
ATOM     29  N   UNL A   1      33.839  31.060  28.028  1.00  0.00    -0.352 N 
ATOM     30  C   UNL A   1      34.969  31.556  28.600  1.00  0.00     0.251 C 
ATOM     31  H   UNL A   1      33.036  31.597  28.221  1.00  0.00     0.163 HD
ATOM     32  O   UNL A   1      34.845  32.599  29.257  1.00  0.00    -0.269 OA
BRANCH  30  33
ATOM     33  C   UNL A   1      36.300  30.897  28.544  1.00  0.00     0.039 A 
ATOM     34  C   UNL A   1      36.542  29.584  28.131  1.00  0.00     0.014 A 
ATOM     35  C   UNL A   1      37.380  31.662  29.014  1.00  0.00     0.014 A 
ATOM     36  C   UNL A   1      37.784  29.001  28.320  1.00  0.00     0.010 A 
ATOM     37  C   UNL A   1      38.639  31.101  29.159  1.00  0.00     0.010 A 
ATOM     38  C   UNL A   1      38.816  29.749  28.878  1.00  0.00    -0.014 A 
BRANCH  38  39
ATOM     39  C   UNL A   1      40.067  29.057  29.140  1.00  0.00     0.031 A 
ATOM     40  C   UNL A   1      40.395  28.798  30.572  1.00  0.00     0.074 A 
ATOM     41  C   UNL A   1      40.855  28.626  28.139  1.00  0.00     0.049 A 
ATOM     42  N   UNL A   1      41.456  29.136  31.234  1.00  0.00    -0.248 NA
ATOM     43  C   UNL A   1      39.368  28.133  31.389  1.00  0.00     0.031 C 
ATOM     44  C   UNL A   1      40.573  28.590  26.701  1.00  0.00     0.029 A 
ATOM     45  N   UNL A   1      42.071  28.029  28.231  1.00  0.00    -0.354 N 
ATOM     46  C   UNL A   1      41.295  28.619  32.520  1.00  0.00     0.074 A 
ATOM     47  C   UNL A   1      39.958  28.088  32.583  1.00  0.00     0.031 C 
ATOM     48  C   UNL A   1      41.482  27.798  26.093  1.00  0.00     0.029 A 
ATOM     49  C   UNL A   1      42.476  27.393  27.072  1.00  0.00     0.049 A 
ATOM     50  H   UNL A   1      42.617  28.047  29.050  1.00  0.00     0.167 HD
ATOM     51  C   UNL A   1      42.324  28.533  33.409  1.00  0.00     0.037 A 
ATOM     52  C   UNL A   1      43.512  26.531  26.953  1.00  0.00     0.037 A 
ATOM     53  C   UNL A   1      43.397  29.425  33.074  1.00  0.00     0.049 A 
ATOM     54  C   UNL A   1      44.424  26.763  28.101  1.00  0.00     0.074 A 
ATOM     55  C   UNL A   1      43.521  30.799  33.006  1.00  0.00     0.029 A 
ATOM     56  N   UNL A   1      44.504  28.926  32.434  1.00  0.00    -0.354 N 
ATOM     57  N   UNL A   1      45.137  27.844  28.254  1.00  0.00    -0.248 NA
ATOM     58  C   UNL A   1      44.200  25.986  29.313  1.00  0.00     0.031 C 
ATOM     59  C   UNL A   1      44.399  31.036  31.909  1.00  0.00     0.029 A 
ATOM     60  C   UNL A   1      44.779  29.791  31.406  1.00  0.00     0.049 A 
ATOM     61  H   UNL A   1      45.002  28.110  32.667  1.00  0.00     0.167 HD
ATOM     62  C   UNL A   1      45.109  28.101  29.617  1.00  0.00     0.074 A 
ATOM     63  C   UNL A   1      44.593  26.879  30.227  1.00  0.00     0.031 C 
ATOM     64  C   UNL A   1      45.238  29.370  30.104  1.00  0.00     0.037 A 
BRANCH  51  65
ATOM     65  C   UNL A   1      42.466  27.455  34.453  1.00  0.00     0.064 A 
ATOM     66  C   UNL A   1      43.033  26.212  34.108  1.00  0.00     0.173 A 
ATOM     67  C   UNL A   1      41.808  27.500  35.700  1.00  0.00     0.173 A 
ATOM     68  F   UNL A   1      43.662  26.046  32.934  1.00  0.00    -0.203 F 
ATOM     69  C   UNL A   1      42.897  25.086  34.925  1.00  0.00     0.198 A 
ATOM     70  C   UNL A   1      41.720  26.388  36.536  1.00  0.00     0.198 A 
ATOM     71  F   UNL A   1      41.139  28.585  36.106  1.00  0.00    -0.203 F 
ATOM     72  F   UNL A   1      43.355  23.897  34.505  1.00  0.00    -0.200 F 
ATOM     73  C   UNL A   1      42.237  25.174  36.137  1.00  0.00     0.200 A 
ATOM     74  F   UNL A   1      41.060  26.490  37.699  1.00  0.00    -0.200 F 
ATOM     75  F   UNL A   1      42.056  24.085  36.895  1.00  0.00    -0.200 F 
ENDBRANCH  51  65
BRANCH  52  76
ATOM     76  C   UNL A   1      43.577  25.338  26.081  1.00  0.00     0.064 A 
ATOM     77  C   UNL A   1      44.696  25.077  25.280  1.00  0.00     0.173 A 
ATOM     78  C   UNL A   1      42.630  24.300  26.196  1.00  0.00     0.173 A 
ATOM     79  F   UNL A   1      45.671  25.990  25.165  1.00  0.00    -0.203 F 
ATOM     80  C   UNL A   1      44.859  23.847  24.633  1.00  0.00     0.198 A 
ATOM     81  C   UNL A   1      42.786  23.080  25.541  1.00  0.00     0.198 A 
ATOM     82  F   UNL A   1      41.575  24.417  27.016  1.00  0.00    -0.203 F 
ATOM     83  F   UNL A   1      45.966  23.612  23.914  1.00  0.00    -0.200 F 
ATOM     84  C   UNL A   1      43.907  22.849  24.767  1.00  0.00     0.200 A 
ATOM     85  F   UNL A   1      41.874  22.113  25.710  1.00  0.00    -0.200 F 
ATOM     86  F   UNL A   1      44.085  21.656  24.184  1.00  0.00    -0.200 F 
ENDBRANCH  52  76
BRANCH  64  87
ATOM     87  C   UNL A   1      45.605  30.461  29.138  1.00  0.00     0.064 A 
ATOM     88  C   UNL A   1      46.934  30.768  28.797  1.00  0.00     0.173 A 
ATOM     89  C   UNL A   1      44.592  31.082  28.397  1.00  0.00     0.173 A 
ATOM     90  F   UNL A   1      47.958  30.132  29.377  1.00  0.00    -0.203 F 
ATOM     91  C   UNL A   1      47.233  31.682  27.790  1.00  0.00     0.198 A 
ATOM     92  C   UNL A   1      44.893  31.970  27.367  1.00  0.00     0.198 A 
ATOM     93  F   UNL A   1      43.306  30.777  28.630  1.00  0.00    -0.203 F 
ATOM     94  F   UNL A   1      48.511  31.953  27.484  1.00  0.00    -0.200 F 
ATOM     95  C   UNL A   1      46.211  32.275  27.069  1.00  0.00     0.200 A 
ATOM     96  F   UNL A   1      43.905  32.497  26.631  1.00  0.00    -0.200 F 
ATOM     97  F   UNL A   1      46.499  33.113  26.062  1.00  0.00    -0.200 F 
ENDBRANCH  64  87
ENDBRANCH  38  39
ENDBRANCH  30  33
ENDBRANCH  28  29
ENDBRANCH  27  28
ENDBRANCH  26  27
ENDBRANCH   1  26
TORSDOF 16
ENDMDL
MODEL 3
REMARK VINA RESULT:     -12.2      3.781      6.101
REMARK SMILES CC1(C)C(n2c(SCC(=O)NCCCCCCNC(=O)c3ccc(-c4c5nc(c(-c6c(F)c(F)c(F)c(F)c6F)c6ccc([nH]6)c(-c6c(F)c(F)c(F)c(F)c6F)c6nc(c(-c7c(F)c(F)c(F)c(F)c7F)c7ccc4[nH]7)C=C6)C=C5)cc3)nc3cnccc32)C1(C)C
REMARK SMILES IDX 14 1 13 2 12 3 11 4 9 5 10 6 8 8 7 9 6 10 5 11 90 12 84 13
REMARK SMILES IDX 85 14 89 15 86 16 88 17 87 18 4 19 1 20 2 21 3 22 91 23
REMARK SMILES IDX 92 24 93 25 15 26 16 27 17 28 18 29 19 30 20 32 21 33 22 34
REMARK SMILES IDX 83 35 23 36 82 37 24 38 25 39 26 40 76 41 27 42 81 43 75 44
REMARK SMILES IDX 77 45 28 46 80 47 74 48 73 49 29 51 61 52 41 53 60 54 42 55
REMARK SMILES IDX 45 56 59 57 78 58 43 59 44 60 58 62 79 63 46 64 30 65 31 66
REMARK SMILES IDX 39 67 32 68 33 69 37 70 40 71 34 72 35 73 38 74 36 75 62 76
REMARK SMILES IDX 63 77 71 78 64 79 65 80 69 81 72 82 66 83 67 84 70 85 68 86
REMARK SMILES IDX 47 87 48 88 56 89 49 90 50 91 54 92 57 93 51 94 52 95 55 96
REMARK SMILES IDX 53 97
REMARK H PARENT 11 7 18 31 77 50 45 61
REMARK Flexibility Score: inf
ROOT
ATOM      1  C   UNL A   1      35.381  33.575  28.518  1.00  0.00     0.002 C 
ENDROOT
BRANCH   1   2
ATOM      2  C   UNL A   1      34.361  32.451  28.741  1.00  0.00     0.021 C 
BRANCH   2   3
ATOM      3  C   UNL A   1      34.456  31.333  27.707  1.00  0.00     0.116 C 
BRANCH   3   4
ATOM      4  N   UNL A   1      33.317  30.467  27.857  1.00  0.00    -0.355 N 
ATOM      5  C   UNL A   1      32.985  29.450  27.021  1.00  0.00     0.230 C 
ATOM      6  O   UNL A   1      31.792  29.130  26.982  1.00  0.00    -0.274 OA
ATOM      7  H   UNL A   1      32.729  30.625  28.630  1.00  0.00     0.163 HD
BRANCH   5   8
ATOM      8  C   UNL A   1      34.077  28.708  26.290  1.00  0.00     0.178 C 
BRANCH   8   9
ATOM      9  S   UNL A   1      33.859  28.472  24.546  1.00  0.00    -0.078 SA
BRANCH   9  10
ATOM     10  C   UNL A   1      32.252  27.983  24.140  1.00  0.00     0.169 A 
ATOM     11  N   UNL A   1      31.537  26.820  24.371  1.00  0.00    -0.315 N 
ATOM     12  C   UNL A   1      30.213  27.101  24.050  1.00  0.00     0.072 A 
ATOM     13  N   UNL A   1      31.530  28.846  23.452  1.00  0.00    -0.221 NA
ATOM     14  C   UNL A   1      30.263  28.341  23.419  1.00  0.00     0.108 A 
ATOM     15  C   UNL A   1      28.998  26.438  24.240  1.00  0.00     0.049 A 
ATOM     16  C   UNL A   1      29.088  28.902  22.908  1.00  0.00     0.141 A 
ATOM     17  C   UNL A   1      27.882  27.084  23.722  1.00  0.00     0.113 A 
ATOM     18  N   UNL A   1      27.900  28.265  23.064  1.00  0.00    -0.262 NA
BRANCH  11  19
ATOM     19  C   UNL A   1      31.893  25.629  25.121  1.00  0.00     0.102 C 
ATOM     20  C   UNL A   1      30.992  23.256  25.649  1.00  0.00     0.014 C 
ATOM     21  C   UNL A   1      31.664  24.196  24.664  1.00  0.00    -0.007 C 
ATOM     22  C   UNL A   1      31.329  23.857  23.231  1.00  0.00     0.014 C 
ATOM     23  C   UNL A   1      33.096  24.696  24.976  1.00  0.00    -0.007 C 
ATOM     24  C   UNL A   1      33.755  24.137  26.232  1.00  0.00     0.014 C 
ATOM     25  C   UNL A   1      34.078  24.873  23.830  1.00  0.00     0.014 C 
ENDBRANCH  11  19
ENDBRANCH   9  10
ENDBRANCH   8   9
ENDBRANCH   5   8
ENDBRANCH   3   4
ENDBRANCH   2   3
ENDBRANCH   1   2
BRANCH   1  26
ATOM     26  C   UNL A   1      34.761  34.941  28.221  1.00  0.00     0.002 C 
BRANCH  26  27
ATOM     27  C   UNL A   1      33.337  35.110  28.760  1.00  0.00     0.021 C 
BRANCH  27  28
ATOM     28  C   UNL A   1      33.225  36.148  29.879  1.00  0.00     0.116 C 
BRANCH  28  29
ATOM     29  N   UNL A   1      32.534  35.644  31.041  1.00  0.00    -0.352 N 
ATOM     30  C   UNL A   1      32.935  34.934  32.130  1.00  0.00     0.251 C 
ATOM     31  H   UNL A   1      31.574  35.859  31.048  1.00  0.00     0.163 HD
ATOM     32  O   UNL A   1      32.063  34.674  32.972  1.00  0.00    -0.269 OA
BRANCH  30  33
ATOM     33  C   UNL A   1      34.308  34.403  32.332  1.00  0.00     0.039 A 
ATOM     34  C   UNL A   1      35.470  35.172  32.444  1.00  0.00     0.014 A 
ATOM     35  C   UNL A   1      34.427  33.004  32.341  1.00  0.00     0.014 A 
ATOM     36  C   UNL A   1      36.719  34.575  32.413  1.00  0.00     0.010 A 
ATOM     37  C   UNL A   1      35.673  32.396  32.362  1.00  0.00     0.010 A 
ATOM     38  C   UNL A   1      36.815  33.190  32.325  1.00  0.00    -0.014 A 
BRANCH  38  39
ATOM     39  C   UNL A   1      38.149  32.627  32.201  1.00  0.00     0.031 A 
ATOM     40  C   UNL A   1      39.006  32.674  33.421  1.00  0.00     0.074 A 
ATOM     41  C   UNL A   1      38.564  32.045  31.061  1.00  0.00     0.049 A 
ATOM     42  N   UNL A   1      40.187  33.190  33.562  1.00  0.00    -0.248 NA
ATOM     43  C   UNL A   1      38.438  32.135  34.666  1.00  0.00     0.031 C 
ATOM     44  C   UNL A   1      37.783  31.709  29.867  1.00  0.00     0.029 A 
ATOM     45  N   UNL A   1      39.793  31.539  30.780  1.00  0.00    -0.354 N 
ATOM     46  C   UNL A   1      40.571  32.932  34.879  1.00  0.00     0.074 A 
ATOM     47  C   UNL A   1      39.424  32.358  35.534  1.00  0.00     0.031 C 
ATOM     48  C   UNL A   1      38.496  30.858  29.099  1.00  0.00     0.029 A 
ATOM     49  C   UNL A   1      39.820  30.706  29.677  1.00  0.00     0.049 A 
ATOM     50  H   UNL A   1      40.593  31.747  31.314  1.00  0.00     0.167 HD
ATOM     51  C   UNL A   1      41.856  33.077  35.309  1.00  0.00     0.037 A 
ATOM     52  C   UNL A   1      40.838  29.890  29.316  1.00  0.00     0.037 A 
ATOM     53  C   UNL A   1      42.616  33.936  34.448  1.00  0.00     0.049 A 
ATOM     54  C   UNL A   1      42.071  30.391  29.974  1.00  0.00     0.074 A 
ATOM     55  C   UNL A   1      42.538  35.273  34.110  1.00  0.00     0.029 A 
ATOM     56  N   UNL A   1      43.464  33.376  33.526  1.00  0.00    -0.354 N 
ATOM     57  N   UNL A   1      42.654  31.516  29.662  1.00  0.00    -0.248 NA
ATOM     58  C   UNL A   1      42.401  29.862  31.290  1.00  0.00     0.031 C 
ATOM     59  C   UNL A   1      42.919  35.331  32.739  1.00  0.00     0.029 A 
ATOM     60  C   UNL A   1      43.237  34.032  32.343  1.00  0.00     0.049 A 
ATOM     61  H   UNL A   1      44.108  32.649  33.683  1.00  0.00     0.167 HD
ATOM     62  C   UNL A   1      43.094  32.037  30.870  1.00  0.00     0.074 A 
ATOM     63  C   UNL A   1      42.989  30.937  31.823  1.00  0.00     0.031 C 
ATOM     64  C   UNL A   1      43.237  33.383  31.053  1.00  0.00     0.037 A 
BRANCH  51  65
ATOM     65  C   UNL A   1      42.498  32.237  36.383  1.00  0.00     0.064 A 
ATOM     66  C   UNL A   1      43.001  32.848  37.549  1.00  0.00     0.173 A 
ATOM     67  C   UNL A   1      42.889  30.896  36.181  1.00  0.00     0.173 A 
ATOM     68  F   UNL A   1      42.714  34.129  37.830  1.00  0.00    -0.203 F 
ATOM     69  C   UNL A   1      43.878  32.185  38.411  1.00  0.00     0.198 A 
ATOM     70  C   UNL A   1      43.723  30.221  37.071  1.00  0.00     0.198 A 
ATOM     71  F   UNL A   1      42.568  30.228  35.066  1.00  0.00    -0.203 F 
ATOM     72  F   UNL A   1      44.421  32.842  39.447  1.00  0.00    -0.200 F 
ATOM     73  C   UNL A   1      44.242  30.872  38.170  1.00  0.00     0.200 A 
ATOM     74  F   UNL A   1      44.078  28.954  36.809  1.00  0.00    -0.200 F 
ATOM     75  F   UNL A   1      45.125  30.253  38.962  1.00  0.00    -0.200 F 
ENDBRANCH  51  65
BRANCH  52  76
ATOM     76  C   UNL A   1      40.724  28.553  28.696  1.00  0.00     0.064 A 
ATOM     77  C   UNL A   1      40.009  27.518  29.311  1.00  0.00     0.173 A 
ATOM     78  C   UNL A   1      41.126  28.333  27.362  1.00  0.00     0.173 A 
ATOM     79  F   UNL A   1      39.542  27.670  30.559  1.00  0.00    -0.203 F 
ATOM     80  C   UNL A   1      39.710  26.332  28.631  1.00  0.00     0.198 A 
ATOM     81  C   UNL A   1      40.838  27.148  26.689  1.00  0.00     0.198 A 
ATOM     82  F   UNL A   1      41.730  29.300  26.656  1.00  0.00    -0.203 F 
ATOM     83  F   UNL A   1      38.980  25.382  29.233  1.00  0.00    -0.200 F 
ATOM     84  C   UNL A   1      40.121  26.150  27.320  1.00  0.00     0.200 A 
ATOM     85  F   UNL A   1      41.212  27.002  25.410  1.00  0.00    -0.200 F 
ATOM     86  F   UNL A   1      39.796  25.034  26.654  1.00  0.00    -0.200 F 
ENDBRANCH  52  76
BRANCH  64  87
ATOM     87  C   UNL A   1      43.091  34.277  29.854  1.00  0.00     0.064 A 
ATOM     88  C   UNL A   1      44.156  34.576  28.986  1.00  0.00     0.173 A 
ATOM     89  C   UNL A   1      41.809  34.685  29.463  1.00  0.00     0.173 A 
ATOM     90  F   UNL A   1      45.390  34.121  29.230  1.00  0.00    -0.203 F 
ATOM     91  C   UNL A   1      43.953  35.285  27.806  1.00  0.00     0.198 A 
ATOM     92  C   UNL A   1      41.604  35.364  28.264  1.00  0.00     0.198 A 
ATOM     93  F   UNL A   1      40.744  34.368  30.215  1.00  0.00    -0.203 F 
ATOM     94  F   UNL A   1      44.989  35.554  26.996  1.00  0.00    -0.200 F 
ATOM     95  C   UNL A   1      42.675  35.670  27.440  1.00  0.00     0.200 A 
ATOM     96  F   UNL A   1      40.359  35.683  27.884  1.00  0.00    -0.200 F 
ATOM     97  F   UNL A   1      42.471  36.304  26.276  1.00  0.00    -0.200 F 
ENDBRANCH  64  87
ENDBRANCH  38  39
ENDBRANCH  30  33
ENDBRANCH  28  29
ENDBRANCH  27  28
ENDBRANCH  26  27
ENDBRANCH   1  26
TORSDOF 16
ENDMDL
