MODEL 1
REMARK VINA RESULT:     -13.3      0.000      0.000
REMARK SMILES CC(C)(C)c1csc(NC(=O)Cn2cccc2C(=O)NCCCCCCNC(=O)c2ccc(-c3c4nc(c(-c5c(F)c(F)c(F)c(F)c5F)c5ccc([nH]5)c(-c5c(F)c(F)c(F)c(F)c5F)c5nc(c(-c6c(F)c(F)c(F)c(F)c6F)c6ccc3[nH]6)C=C5)C=C4)cc2)n1
REMARK SMILES IDX 22 1 21 2 20 3 18 4 19 5 17 7 13 8 14 9 15 10 16 11 12 12
REMARK SMILES IDX 10 13 9 14 11 16 8 17 5 18 6 19 93 20 7 21 2 22 1 23 3 24
REMARK SMILES IDX 4 25 23 26 24 27 25 28 26 29 27 30 28 31 29 33 30 34 31 35
REMARK SMILES IDX 92 36 32 37 91 38 33 39 34 40 35 41 85 42 36 43 90 44 84 45
REMARK SMILES IDX 86 46 37 47 89 48 83 49 82 50 38 52 70 53 50 54 69 55 51 56
REMARK SMILES IDX 54 57 68 58 87 59 52 60 53 61 67 63 88 64 55 65 39 66 40 67
REMARK SMILES IDX 48 68 41 69 42 70 46 71 49 72 43 73 44 74 47 75 45 76 71 77
REMARK SMILES IDX 72 78 80 79 73 80 74 81 78 82 81 83 75 84 76 85 79 86 77 87
REMARK SMILES IDX 56 88 57 89 65 90 58 91 59 92 63 93 66 94 60 95 61 96 64 97
REMARK SMILES IDX 62 98
REMARK H PARENT 20 6 9 15 27 32 86 51 54 62
REMARK Flexibility Score: inf
ROOT
ATOM      1  C   UNL A   1      37.018  23.187  24.847  1.00  0.00     0.021 C 
ENDROOT
BRANCH   1   2
ATOM      2  C   UNL A   1      36.650  22.973  23.382  1.00  0.00     0.116 C 
BRANCH   2   3
ATOM      3  N   UNL A   1      35.004  22.736  23.039  1.00  0.00    -0.351 N 
ATOM      4  C   UNL A   1      33.310  23.837  23.250  1.00  0.00     0.267 C 
ATOM      5  O   UNL A   1      32.137  23.579  22.898  1.00  0.00    -0.268 OA
ATOM      6  H   UNL A   1      34.828  21.852  22.642  1.00  0.00     0.163 HD
BRANCH   4   7
ATOM      7  C   UNL A   1      33.182  25.425  24.018  1.00  0.00     0.107 A 
ATOM      8  N   UNL A   1      32.567  25.965  25.200  1.00  0.00    -0.334 N 
ATOM      9  C   UNL A   1      32.550  27.344  25.110  1.00  0.00     0.087 A 
ATOM     10  C   UNL A   1      33.175  27.727  23.958  1.00  0.00     0.020 A 
ATOM     11  C   UNL A   1      33.605  26.555  23.306  1.00  0.00     0.033 A 
BRANCH   8  12
ATOM     12  C   UNL A   1      31.851  25.359  26.337  1.00  0.00     0.222 C 
BRANCH  12  13
ATOM     13  C   UNL A   1      30.507  24.812  26.005  1.00  0.00     0.246 C 
ATOM     14  N   UNL A   1      30.355  23.480  26.075  1.00  0.00    -0.300 N 
ATOM     15  H   UNL A   1      29.437  23.124  26.061  1.00  0.00     0.172 HD
ATOM     16  O   UNL A   1      29.571  25.521  25.635  1.00  0.00    -0.273 OA
BRANCH  14  17
ATOM     17  C   UNL A   1      31.378  22.586  26.160  1.00  0.00     0.189 A 
ATOM     18  C   UNL A   1      33.127  20.225  25.390  1.00  0.00     0.059 A 
ATOM     19  C   UNL A   1      34.302  21.069  26.376  1.00  0.00     0.093 A 
ATOM     20  N   UNL A   1      31.490  21.144  25.321  1.00  0.00    -0.224 NA
ATOM     21  S   UNL A   1      33.474  23.048  27.259  1.00  0.00    -0.105 S 
BRANCH  18  22
ATOM     22  C   UNL A   1      33.221  18.881  24.661  1.00  0.00     0.005 C 
ATOM     23  C   UNL A   1      32.526  17.775  25.480  1.00  0.00     0.017 C 
ATOM     24  C   UNL A   1      34.684  18.469  24.429  1.00  0.00     0.017 C 
ATOM     25  C   UNL A   1      32.526  18.937  23.283  1.00  0.00     0.017 C 
ENDBRANCH  18  22
ENDBRANCH  14  17
ENDBRANCH  12  13
ENDBRANCH   8  12
ENDBRANCH   4   7
ENDBRANCH   2   3
ENDBRANCH   1   2
BRANCH   1  26
ATOM     26  C   UNL A   1      37.765  22.010  25.427  1.00  0.00     0.002 C 
BRANCH  26  27
ATOM     27  C   UNL A   1      37.566  20.714  24.630  1.00  0.00     0.002 C 
BRANCH  27  28
ATOM     28  C   UNL A   1      38.530  19.562  24.996  1.00  0.00     0.021 C 
BRANCH  28  29
ATOM     29  C   UNL A   1      39.311  19.862  26.258  1.00  0.00     0.116 C 
BRANCH  29  30
ATOM     30  N   UNL A   1      40.477  18.993  26.306  1.00  0.00    -0.352 N 
ATOM     31  C   UNL A   1      41.777  19.272  26.029  1.00  0.00     0.251 C 
ATOM     32  H   UNL A   1      40.296  18.064  26.578  1.00  0.00     0.163 HD
ATOM     33  O   UNL A   1      42.532  18.389  25.640  1.00  0.00    -0.269 OA
BRANCH  31  34
ATOM     34  C   UNL A   1      42.285  20.604  26.356  1.00  0.00     0.039 A 
ATOM     35  C   UNL A   1      42.429  20.982  27.689  1.00  0.00     0.014 A 
ATOM     36  C   UNL A   1      42.454  21.525  25.315  1.00  0.00     0.014 A 
ATOM     37  C   UNL A   1      42.646  22.322  27.965  1.00  0.00     0.010 A 
ATOM     38  C   UNL A   1      42.806  22.817  25.579  1.00  0.00     0.010 A 
ATOM     39  C   UNL A   1      42.788  23.233  26.899  1.00  0.00    -0.014 A 
BRANCH  39  40
ATOM     40  C   UNL A   1      43.223  24.607  27.150  1.00  0.00     0.031 A 
ATOM     41  C   UNL A   1      41.850  25.393  27.403  1.00  0.00     0.074 A 
ATOM     42  C   UNL A   1      44.605  24.807  27.076  1.00  0.00     0.049 A 
ATOM     43  N   UNL A   1      41.512  26.597  27.087  1.00  0.00    -0.248 NA
ATOM     44  C   UNL A   1      40.630  24.715  27.999  1.00  0.00     0.031 C 
ATOM     45  C   UNL A   1      45.668  23.742  27.045  1.00  0.00     0.029 A 
ATOM     46  N   UNL A   1      45.459  25.905  27.094  1.00  0.00    -0.354 N 
ATOM     47  C   UNL A   1      40.290  26.918  27.731  1.00  0.00     0.074 A 
ATOM     48  C   UNL A   1      39.700  25.677  28.098  1.00  0.00     0.031 C 
ATOM     49  C   UNL A   1      46.927  24.248  26.882  1.00  0.00     0.029 A 
ATOM     50  C   UNL A   1      46.873  25.692  26.806  1.00  0.00     0.049 A 
ATOM     51  H   UNL A   1      45.117  26.805  27.298  1.00  0.00     0.167 HD
ATOM     52  C   UNL A   1      40.015  28.204  28.120  1.00  0.00     0.037 A 
ATOM     53  C   UNL A   1      47.831  26.664  26.512  1.00  0.00     0.037 A 
ATOM     54  C   UNL A   1      41.130  29.012  27.742  1.00  0.00     0.049 A 
ATOM     55  C   UNL A   1      47.086  27.873  26.856  1.00  0.00     0.074 A 
ATOM     56  C   UNL A   1      41.602  29.328  26.493  1.00  0.00     0.029 A 
ATOM     57  N   UNL A   1      42.160  29.041  28.657  1.00  0.00    -0.354 N 
ATOM     58  N   UNL A   1      46.783  28.198  28.075  1.00  0.00    -0.248 NA
ATOM     59  C   UNL A   1      46.486  28.639  25.768  1.00  0.00     0.031 C 
ATOM     60  C   UNL A   1      42.941  28.912  26.605  1.00  0.00     0.029 A 
ATOM     61  C   UNL A   1      43.323  28.921  27.951  1.00  0.00     0.049 A 
ATOM     62  H   UNL A   1      42.075  29.132  29.633  1.00  0.00     0.167 HD
ATOM     63  C   UNL A   1      45.657  28.952  27.884  1.00  0.00     0.074 A 
ATOM     64  C   UNL A   1      45.692  29.415  26.497  1.00  0.00     0.031 C 
ATOM     65  C   UNL A   1      44.554  28.695  28.642  1.00  0.00     0.037 A 
BRANCH  52  66
ATOM     66  C   UNL A   1      39.059  28.856  29.081  1.00  0.00     0.064 A 
ATOM     67  C   UNL A   1      38.249  29.911  28.574  1.00  0.00     0.173 A 
ATOM     68  C   UNL A   1      39.180  28.786  30.471  1.00  0.00     0.173 A 
ATOM     69  F   UNL A   1      38.049  30.047  27.253  1.00  0.00    -0.203 F 
ATOM     70  C   UNL A   1      37.722  30.904  29.394  1.00  0.00     0.198 A 
ATOM     71  C   UNL A   1      38.600  29.760  31.297  1.00  0.00     0.198 A 
ATOM     72  F   UNL A   1      39.943  27.849  31.050  1.00  0.00    -0.203 F 
ATOM     73  F   UNL A   1      37.104  31.963  28.849  1.00  0.00    -0.200 F 
ATOM     74  C   UNL A   1      37.908  30.835  30.758  1.00  0.00     0.200 A 
ATOM     75  F   UNL A   1      38.782  29.696  32.624  1.00  0.00    -0.200 F 
ATOM     76  F   UNL A   1      37.454  31.818  31.548  1.00  0.00    -0.200 F 
ENDBRANCH  52  66
BRANCH  53  77
ATOM     77  C   UNL A   1      49.237  27.001  25.944  1.00  0.00     0.064 A 
ATOM     78  C   UNL A   1      49.660  26.920  24.613  1.00  0.00     0.173 A 
ATOM     79  C   UNL A   1      50.209  27.653  26.791  1.00  0.00     0.173 A 
ATOM     80  F   UNL A   1      48.951  26.211  23.725  1.00  0.00    -0.203 F 
ATOM     81  C   UNL A   1      50.842  27.573  24.153  1.00  0.00     0.198 A 
ATOM     82  C   UNL A   1      51.328  28.360  26.330  1.00  0.00     0.198 A 
ATOM     83  F   UNL A   1      50.097  27.644  28.128  1.00  0.00    -0.203 F 
ATOM     84  F   UNL A   1      51.201  27.479  22.864  1.00  0.00    -0.200 F 
ATOM     85  C   UNL A   1      51.631  28.345  24.995  1.00  0.00     0.200 A 
ATOM     86  F   UNL A   1      52.070  29.079  27.188  1.00  0.00    -0.200 F 
ATOM     87  F   UNL A   1      52.672  29.053  24.533  1.00  0.00    -0.200 F 
ENDBRANCH  53  77
BRANCH  65  88
ATOM     88  C   UNL A   1      44.768  27.918  29.948  1.00  0.00     0.064 A 
ATOM     89  C   UNL A   1      45.682  28.408  30.900  1.00  0.00     0.173 A 
ATOM     90  C   UNL A   1      44.191  26.668  30.267  1.00  0.00     0.173 A 
ATOM     91  F   UNL A   1      46.248  29.609  30.721  1.00  0.00    -0.203 F 
ATOM     92  C   UNL A   1      46.028  27.690  32.052  1.00  0.00     0.198 A 
ATOM     93  C   UNL A   1      44.535  25.946  31.423  1.00  0.00     0.198 A 
ATOM     94  F   UNL A   1      43.273  26.115  29.472  1.00  0.00    -0.203 F 
ATOM     95  F   UNL A   1      46.913  28.207  32.917  1.00  0.00    -0.200 F 
ATOM     96  C   UNL A   1      45.460  26.457  32.313  1.00  0.00     0.200 A 
ATOM     97  F   UNL A   1      43.965  24.755  31.671  1.00  0.00    -0.200 F 
ATOM     98  F   UNL A   1      45.781  25.780  33.425  1.00  0.00    -0.200 F 
ENDBRANCH  65  88
ENDBRANCH  39  40
ENDBRANCH  31  34
ENDBRANCH  29  30
ENDBRANCH  28  29
ENDBRANCH  27  28
ENDBRANCH  26  27
ENDBRANCH   1  26
TORSDOF 17
ENDMDL
MODEL 2
REMARK VINA RESULT:     -13.2      3.778      8.826
REMARK SMILES CC(C)(C)c1csc(NC(=O)Cn2cccc2C(=O)NCCCCCCNC(=O)c2ccc(-c3c4nc(c(-c5c(F)c(F)c(F)c(F)c5F)c5ccc([nH]5)c(-c5c(F)c(F)c(F)c(F)c5F)c5nc(c(-c6c(F)c(F)c(F)c(F)c6F)c6ccc3[nH]6)C=C5)C=C4)cc2)n1
REMARK SMILES IDX 22 1 21 2 20 3 18 4 19 5 17 7 13 8 14 9 15 10 16 11 12 12
REMARK SMILES IDX 10 13 9 14 11 16 8 17 5 18 6 19 93 20 7 21 2 22 1 23 3 24
REMARK SMILES IDX 4 25 23 26 24 27 25 28 26 29 27 30 28 31 29 33 30 34 31 35
REMARK SMILES IDX 92 36 32 37 91 38 33 39 34 40 35 41 85 42 36 43 90 44 84 45
REMARK SMILES IDX 86 46 37 47 89 48 83 49 82 50 38 52 70 53 50 54 69 55 51 56
REMARK SMILES IDX 54 57 68 58 87 59 52 60 53 61 67 63 88 64 55 65 39 66 40 67
REMARK SMILES IDX 48 68 41 69 42 70 46 71 49 72 43 73 44 74 47 75 45 76 71 77
REMARK SMILES IDX 72 78 80 79 73 80 74 81 78 82 81 83 75 84 76 85 79 86 77 87
REMARK SMILES IDX 56 88 57 89 65 90 58 91 59 92 63 93 66 94 60 95 61 96 64 97
REMARK SMILES IDX 62 98
REMARK H PARENT 20 6 9 15 27 32 86 51 54 62
REMARK Flexibility Score: inf
ROOT
ATOM      1  C   UNL A   1      38.719  24.398  27.006  1.00  0.00     0.021 C 
ENDROOT
BRANCH   1   2
ATOM      2  C   UNL A   1      37.674  23.983  25.974  1.00  0.00     0.116 C 
BRANCH   2   3
ATOM      3  N   UNL A   1      36.478  22.899  26.499  1.00  0.00    -0.351 N 
ATOM      4  C   UNL A   1      34.616  22.384  25.870  1.00  0.00     0.267 C 
ATOM      5  O   UNL A   1      33.835  21.510  26.306  1.00  0.00    -0.268 OA
ATOM      6  H   UNL A   1      36.752  22.398  27.301  1.00  0.00     0.163 HD
BRANCH   4   7
ATOM      7  C   UNL A   1      33.718  23.126  24.538  1.00  0.00     0.107 A 
ATOM      8  N   UNL A   1      32.377  23.596  24.318  1.00  0.00    -0.334 N 
ATOM      9  C   UNL A   1      32.185  23.794  22.965  1.00  0.00     0.087 A 
ATOM     10  C   UNL A   1      33.351  23.535  22.302  1.00  0.00     0.020 A 
ATOM     11  C   UNL A   1      34.308  23.168  23.267  1.00  0.00     0.033 A 
BRANCH   8  12
ATOM     12  C   UNL A   1      31.198  23.737  25.191  1.00  0.00     0.222 C 
BRANCH  12  13
ATOM     13  C   UNL A   1      31.478  24.337  26.524  1.00  0.00     0.246 C 
ATOM     14  N   UNL A   1      31.507  25.676  26.599  1.00  0.00    -0.300 N 
ATOM     15  H   UNL A   1      31.486  26.085  27.494  1.00  0.00     0.172 HD
ATOM     16  O   UNL A   1      31.725  23.659  27.522  1.00  0.00    -0.273 OA
BRANCH  14  17
ATOM     17  C   UNL A   1      31.565  26.512  25.525  1.00  0.00     0.189 A 
ATOM     18  C   UNL A   1      30.719  28.736  23.638  1.00  0.00     0.059 A 
ATOM     19  C   UNL A   1      32.418  28.713  23.216  1.00  0.00     0.093 A 
ATOM     20  N   UNL A   1      30.310  27.456  24.950  1.00  0.00    -0.224 NA
ATOM     21  S   UNL A   1      33.616  27.132  24.418  1.00  0.00    -0.105 S 
BRANCH  18  22
ATOM     22  C   UNL A   1      29.564  29.571  23.075  1.00  0.00     0.005 C 
ATOM     23  C   UNL A   1      29.867  30.000  21.625  1.00  0.00     0.017 C 
ATOM     24  C   UNL A   1      29.324  30.836  23.916  1.00  0.00     0.017 C 
ATOM     25  C   UNL A   1      28.245  28.768  23.050  1.00  0.00     0.017 C 
ENDBRANCH  18  22
ENDBRANCH  14  17
ENDBRANCH  12  13
ENDBRANCH   8  12
ENDBRANCH   4   7
ENDBRANCH   2   3
ENDBRANCH   1   2
BRANCH   1  26
ATOM     26  C   UNL A   1      40.111  23.966  26.616  1.00  0.00     0.002 C 
BRANCH  26  27
ATOM     27  C   UNL A   1      40.409  22.500  26.961  1.00  0.00     0.002 C 
BRANCH  27  28
ATOM     28  C   UNL A   1      41.553  21.852  26.147  1.00  0.00     0.021 C 
BRANCH  28  29
ATOM     29  C   UNL A   1      42.477  22.892  25.550  1.00  0.00     0.116 C 
BRANCH  29  30
ATOM     30  N   UNL A   1      43.814  22.697  26.092  1.00  0.00    -0.352 N 
ATOM     31  C   UNL A   1      44.633  23.584  26.716  1.00  0.00     0.251 C 
ATOM     32  H   UNL A   1      44.179  21.789  25.990  1.00  0.00     0.163 HD
ATOM     33  O   UNL A   1      45.849  23.443  26.672  1.00  0.00    -0.269 OA
BRANCH  31  34
ATOM     34  C   UNL A   1      44.026  24.610  27.564  1.00  0.00     0.039 A 
ATOM     35  C   UNL A   1      43.185  24.236  28.609  1.00  0.00     0.014 A 
ATOM     36  C   UNL A   1      44.176  25.952  27.193  1.00  0.00     0.014 A 
ATOM     37  C   UNL A   1      42.419  25.220  29.212  1.00  0.00     0.010 A 
ATOM     38  C   UNL A   1      43.529  26.940  27.878  1.00  0.00     0.010 A 
ATOM     39  C   UNL A   1      42.571  26.561  28.803  1.00  0.00    -0.014 A 
BRANCH  39  40
ATOM     40  C   UNL A   1      41.937  27.642  29.557  1.00  0.00     0.031 A 
ATOM     41  C   UNL A   1      42.687  27.602  30.972  1.00  0.00     0.074 A 
ATOM     42  C   UNL A   1      40.924  28.320  28.869  1.00  0.00     0.049 A 
ATOM     43  N   UNL A   1      42.234  27.829  32.158  1.00  0.00    -0.248 NA
ATOM     44  C   UNL A   1      44.124  27.136  31.110  1.00  0.00     0.031 C 
ATOM     45  C   UNL A   1      40.627  28.239  27.396  1.00  0.00     0.029 A 
ATOM     46  N   UNL A   1      39.971  29.281  29.187  1.00  0.00    -0.354 N 
ATOM     47  C   UNL A   1      43.325  27.907  33.061  1.00  0.00     0.074 A 
ATOM     48  C   UNL A   1      44.420  27.274  32.411  1.00  0.00     0.031 C 
ATOM     49  C   UNL A   1      39.518  28.952  27.035  1.00  0.00     0.029 A 
ATOM     50  C   UNL A   1      38.953  29.607  28.194  1.00  0.00     0.049 A 
ATOM     51  H   UNL A   1      39.983  29.732  30.062  1.00  0.00     0.167 HD
ATOM     52  C   UNL A   1      43.271  28.721  34.164  1.00  0.00     0.037 A 
ATOM     53  C   UNL A   1      37.772  30.323  28.399  1.00  0.00     0.037 A 
ATOM     54  C   UNL A   1      41.996  29.364  34.157  1.00  0.00     0.049 A 
ATOM     55  C   UNL A   1      38.018  30.851  29.739  1.00  0.00     0.074 A 
ATOM     56  C   UNL A   1      40.741  28.828  34.302  1.00  0.00     0.029 A 
ATOM     57  N   UNL A   1      41.933  30.516  33.404  1.00  0.00    -0.354 N 
ATOM     58  N   UNL A   1      38.901  31.768  29.990  1.00  0.00    -0.248 NA
ATOM     59  C   UNL A   1      37.387  30.173  30.867  1.00  0.00     0.031 C 
ATOM     60  C   UNL A   1      40.115  29.308  33.136  1.00  0.00     0.029 A 
ATOM     61  C   UNL A   1      40.763  30.469  32.702  1.00  0.00     0.049 A 
ATOM     62  H   UNL A   1      42.604  31.236  33.377  1.00  0.00     0.167 HD
ATOM     63  C   UNL A   1      39.209  31.500  31.295  1.00  0.00     0.074 A 
ATOM     64  C   UNL A   1      38.087  30.739  31.844  1.00  0.00     0.031 C 
ATOM     65  C   UNL A   1      40.520  31.420  31.662  1.00  0.00     0.037 A 
BRANCH  52  66
ATOM     66  C   UNL A   1      44.276  29.318  35.110  1.00  0.00     0.064 A 
ATOM     67  C   UNL A   1      45.284  30.149  34.544  1.00  0.00     0.173 A 
ATOM     68  C   UNL A   1      44.533  28.824  36.391  1.00  0.00     0.173 A 
ATOM     69  F   UNL A   1      45.119  30.696  33.328  1.00  0.00    -0.203 F 
ATOM     70  C   UNL A   1      46.517  30.347  35.158  1.00  0.00     0.198 A 
ATOM     71  C   UNL A   1      45.757  29.073  37.029  1.00  0.00     0.198 A 
ATOM     72  F   UNL A   1      43.663  28.008  37.002  1.00  0.00    -0.203 F 
ATOM     73  F   UNL A   1      47.489  31.005  34.509  1.00  0.00    -0.200 F 
ATOM     74  C   UNL A   1      46.758  29.797  36.399  1.00  0.00     0.200 A 
ATOM     75  F   UNL A   1      45.995  28.536  38.235  1.00  0.00    -0.200 F 
ATOM     76  F   UNL A   1      47.962  29.935  36.971  1.00  0.00    -0.200 F 
ENDBRANCH  52  66
BRANCH  53  77
ATOM     77  C   UNL A   1      36.363  30.721  27.878  1.00  0.00     0.064 A 
ATOM     78  C   UNL A   1      35.330  29.867  27.478  1.00  0.00     0.173 A 
ATOM     79  C   UNL A   1      35.935  32.099  27.966  1.00  0.00     0.173 A 
ATOM     80  F   UNL A   1      35.591  28.584  27.198  1.00  0.00    -0.203 F 
ATOM     81  C   UNL A   1      33.983  30.316  27.352  1.00  0.00     0.198 A 
ATOM     82  C   UNL A   1      34.602  32.528  27.919  1.00  0.00     0.198 A 
ATOM     83  F   UNL A   1      36.813  33.100  28.122  1.00  0.00    -0.203 F 
ATOM     84  F   UNL A   1      33.022  29.457  26.980  1.00  0.00    -0.200 F 
ATOM     85  C   UNL A   1      33.613  31.624  27.639  1.00  0.00     0.200 A 
ATOM     86  F   UNL A   1      34.297  33.808  28.186  1.00  0.00    -0.200 F 
ATOM     87  F   UNL A   1      32.329  32.010  27.635  1.00  0.00    -0.200 F 
ENDBRANCH  53  77
BRANCH  65  88
ATOM     88  C   UNL A   1      41.548  32.075  30.730  1.00  0.00     0.064 A 
ATOM     89  C   UNL A   1      41.405  33.434  30.393  1.00  0.00     0.173 A 
ATOM     90  C   UNL A   1      42.611  31.410  30.078  1.00  0.00     0.173 A 
ATOM     91  F   UNL A   1      40.461  34.172  30.993  1.00  0.00    -0.203 F 
ATOM     92  C   UNL A   1      42.224  34.067  29.448  1.00  0.00     0.198 A 
ATOM     93  C   UNL A   1      43.435  32.042  29.130  1.00  0.00     0.198 A 
ATOM     94  F   UNL A   1      42.885  30.132  30.345  1.00  0.00    -0.203 F 
ATOM     95  F   UNL A   1      42.031  35.362  29.163  1.00  0.00    -0.200 F 
ATOM     96  C   UNL A   1      43.235  33.372  28.813  1.00  0.00     0.200 A 
ATOM     97  F   UNL A   1      44.423  31.358  28.530  1.00  0.00    -0.200 F 
ATOM     98  F   UNL A   1      44.027  33.984  27.921  1.00  0.00    -0.200 F 
ENDBRANCH  65  88
ENDBRANCH  39  40
ENDBRANCH  31  34
ENDBRANCH  29  30
ENDBRANCH  28  29
ENDBRANCH  27  28
ENDBRANCH  26  27
ENDBRANCH   1  26
TORSDOF 17
ENDMDL
MODEL 3
REMARK VINA RESULT:     -13.2      5.099     11.021
REMARK SMILES CC(C)(C)c1csc(NC(=O)Cn2cccc2C(=O)NCCCCCCNC(=O)c2ccc(-c3c4nc(c(-c5c(F)c(F)c(F)c(F)c5F)c5ccc([nH]5)c(-c5c(F)c(F)c(F)c(F)c5F)c5nc(c(-c6c(F)c(F)c(F)c(F)c6F)c6ccc3[nH]6)C=C5)C=C4)cc2)n1
REMARK SMILES IDX 22 1 21 2 20 3 18 4 19 5 17 7 13 8 14 9 15 10 16 11 12 12
REMARK SMILES IDX 10 13 9 14 11 16 8 17 5 18 6 19 93 20 7 21 2 22 1 23 3 24
REMARK SMILES IDX 4 25 23 26 24 27 25 28 26 29 27 30 28 31 29 33 30 34 31 35
REMARK SMILES IDX 92 36 32 37 91 38 33 39 34 40 35 41 85 42 36 43 90 44 84 45
REMARK SMILES IDX 86 46 37 47 89 48 83 49 82 50 38 52 70 53 50 54 69 55 51 56
REMARK SMILES IDX 54 57 68 58 87 59 52 60 53 61 67 63 88 64 55 65 39 66 40 67
REMARK SMILES IDX 48 68 41 69 42 70 46 71 49 72 43 73 44 74 47 75 45 76 71 77
REMARK SMILES IDX 72 78 80 79 73 80 74 81 78 82 81 83 75 84 76 85 79 86 77 87
REMARK SMILES IDX 56 88 57 89 65 90 58 91 59 92 63 93 66 94 60 95 61 96 64 97
REMARK SMILES IDX 62 98
REMARK H PARENT 20 6 9 15 27 32 86 51 54 62
REMARK Flexibility Score: inf
ROOT
ATOM      1  C   UNL A   1      31.642  28.800  27.092  1.00  0.00     0.021 C 
ENDROOT
BRANCH   1   2
ATOM      2  C   UNL A   1      31.422  27.710  26.046  1.00  0.00     0.116 C 
BRANCH   2   3
ATOM      3  N   UNL A   1      30.730  26.260  26.594  1.00  0.00    -0.351 N 
ATOM      4  C   UNL A   1      31.345  24.329  26.742  1.00  0.00     0.267 C 
ATOM      5  O   UNL A   1      30.761  23.337  27.229  1.00  0.00    -0.268 OA
ATOM      6  H   UNL A   1      29.809  26.384  26.919  1.00  0.00     0.163 HD
BRANCH   4   7
ATOM      7  C   UNL A   1      32.885  23.674  26.168  1.00  0.00     0.107 A 
ATOM      8  N   UNL A   1      33.687  23.784  24.980  1.00  0.00    -0.334 N 
ATOM      9  C   UNL A   1      34.645  22.788  24.989  1.00  0.00     0.087 A 
ATOM     10  C   UNL A   1      34.543  22.077  26.150  1.00  0.00     0.020 A 
ATOM     11  C   UNL A   1      33.494  22.644  26.898  1.00  0.00     0.033 A 
BRANCH   8  12
ATOM     12  C   UNL A   1      33.580  24.601  23.758  1.00  0.00     0.222 C 
BRANCH  12  13
ATOM     13  C   UNL A   1      32.787  23.980  22.662  1.00  0.00     0.246 C 
ATOM     14  N   UNL A   1      32.222  24.809  21.771  1.00  0.00    -0.300 N 
ATOM     15  H   UNL A   1      31.874  24.416  20.938  1.00  0.00     0.172 HD
ATOM     16  O   UNL A   1      32.600  22.766  22.579  1.00  0.00    -0.273 OA
BRANCH  14  17
ATOM     17  C   UNL A   1      32.094  26.154  21.935  1.00  0.00     0.189 A 
ATOM     18  C   UNL A   1      30.758  28.793  22.627  1.00  0.00     0.059 A 
ATOM     19  C   UNL A   1      32.416  29.325  22.797  1.00  0.00     0.093 A 
ATOM     20  N   UNL A   1      30.655  26.985  22.130  1.00  0.00    -0.224 NA
ATOM     21  S   UNL A   1      33.946  27.633  22.377  1.00  0.00    -0.105 S 
BRANCH  18  22
ATOM     22  C   UNL A   1      29.443  29.570  22.760  1.00  0.00     0.005 C 
ATOM     23  C   UNL A   1      28.289  28.615  23.124  1.00  0.00     0.017 C 
ATOM     24  C   UNL A   1      29.083  30.293  21.452  1.00  0.00     0.017 C 
ATOM     25  C   UNL A   1      29.527  30.635  23.876  1.00  0.00     0.017 C 
ENDBRANCH  18  22
ENDBRANCH  14  17
ENDBRANCH  12  13
ENDBRANCH   8  12
ENDBRANCH   4   7
ENDBRANCH   2   3
ENDBRANCH   1   2
BRANCH   1  26
ATOM     26  C   UNL A   1      32.175  30.075  26.487  1.00  0.00     0.002 C 
BRANCH  26  27
ATOM     27  C   UNL A   1      33.394  30.636  27.232  1.00  0.00     0.002 C 
BRANCH  27  28
ATOM     28  C   UNL A   1      33.500  32.178  27.251  1.00  0.00     0.021 C 
BRANCH  28  29
ATOM     29  C   UNL A   1      32.168  32.830  27.557  1.00  0.00     0.116 C 
BRANCH  29  30
ATOM     30  N   UNL A   1      32.357  34.271  27.627  1.00  0.00    -0.352 N 
ATOM     31  C   UNL A   1      32.951  35.021  28.592  1.00  0.00     0.251 C 
ATOM     32  H   UNL A   1      32.000  34.778  26.862  1.00  0.00     0.163 HD
ATOM     33  O   UNL A   1      32.617  36.186  28.766  1.00  0.00    -0.269 OA
BRANCH  31  34
ATOM     34  C   UNL A   1      34.097  34.454  29.303  1.00  0.00     0.039 A 
ATOM     35  C   UNL A   1      35.375  34.578  28.766  1.00  0.00     0.014 A 
ATOM     36  C   UNL A   1      33.852  33.653  30.425  1.00  0.00     0.014 A 
ATOM     37  C   UNL A   1      36.388  33.806  29.311  1.00  0.00     0.010 A 
ATOM     38  C   UNL A   1      34.875  33.000  31.051  1.00  0.00     0.010 A 
ATOM     39  C   UNL A   1      36.110  32.989  30.426  1.00  0.00    -0.014 A 
BRANCH  39  40
ATOM     40  C   UNL A   1      37.196  32.328  31.150  1.00  0.00     0.031 A 
ATOM     41  C   UNL A   1      37.479  31.014  30.278  1.00  0.00     0.074 A 
ATOM     42  C   UNL A   1      37.611  32.986  32.313  1.00  0.00     0.049 A 
ATOM     43  N   UNL A   1      37.822  29.828  30.652  1.00  0.00    -0.248 NA
ATOM     44  C   UNL A   1      37.245  30.974  28.780  1.00  0.00     0.031 C 
ATOM     45  C   UNL A   1      37.263  34.390  32.725  1.00  0.00     0.029 A 
ATOM     46  N   UNL A   1      38.467  32.700  33.371  1.00  0.00    -0.354 N 
ATOM     47  C   UNL A   1      38.189  29.072  29.510  1.00  0.00     0.074 A 
ATOM     48  C   UNL A   1      37.623  29.746  28.393  1.00  0.00     0.031 C 
ATOM     49  C   UNL A   1      37.749  34.721  33.959  1.00  0.00     0.029 A 
ATOM     50  C   UNL A   1      38.490  33.609  34.512  1.00  0.00     0.049 A 
ATOM     51  H   UNL A   1      39.045  31.904  33.350  1.00  0.00     0.167 HD
ATOM     52  C   UNL A   1      39.148  28.095  29.590  1.00  0.00     0.037 A 
ATOM     53  C   UNL A   1      39.057  33.375  35.766  1.00  0.00     0.037 A 
ATOM     54  C   UNL A   1      39.599  28.048  30.944  1.00  0.00     0.049 A 
ATOM     55  C   UNL A   1      39.815  32.158  35.485  1.00  0.00     0.074 A 
ATOM     56  C   UNL A   1      38.921  27.691  32.083  1.00  0.00     0.029 A 
ATOM     57  N   UNL A   1      40.601  28.943  31.252  1.00  0.00    -0.354 N 
ATOM     58  N   UNL A   1      40.874  32.138  34.735  1.00  0.00    -0.248 NA
ATOM     59  C   UNL A   1      39.238  30.883  35.899  1.00  0.00     0.031 C 
ATOM     60  C   UNL A   1      39.124  28.834  32.877  1.00  0.00     0.029 A 
ATOM     61  C   UNL A   1      40.283  29.496  32.459  1.00  0.00     0.049 A 
ATOM     62  H   UNL A   1      41.394  29.145  30.706  1.00  0.00     0.167 HD
ATOM     63  C   UNL A   1      40.857  30.850  34.274  1.00  0.00     0.074 A 
ATOM     64  C   UNL A   1      40.040  30.079  35.211  1.00  0.00     0.031 C 
ATOM     65  C   UNL A   1      41.018  30.625  32.939  1.00  0.00     0.037 A 
BRANCH  52  66
ATOM     66  C   UNL A   1      40.019  27.360  28.608  1.00  0.00     0.064 A 
ATOM     67  C   UNL A   1      40.822  28.149  27.737  1.00  0.00     0.173 A 
ATOM     68  C   UNL A   1      39.814  26.033  28.223  1.00  0.00     0.173 A 
ATOM     69  F   UNL A   1      41.100  29.430  28.033  1.00  0.00    -0.203 F 
ATOM     70  C   UNL A   1      41.262  27.681  26.502  1.00  0.00     0.198 A 
ATOM     71  C   UNL A   1      40.307  25.551  27.002  1.00  0.00     0.198 A 
ATOM     72  F   UNL A   1      39.049  25.213  28.957  1.00  0.00    -0.203 F 
ATOM     73  F   UNL A   1      41.876  28.517  25.651  1.00  0.00    -0.200 F 
ATOM     74  C   UNL A   1      40.993  26.382  26.129  1.00  0.00     0.200 A 
ATOM     75  F   UNL A   1      40.045  24.287  26.635  1.00  0.00    -0.200 F 
ATOM     76  F   UNL A   1      41.363  25.942  24.918  1.00  0.00    -0.200 F 
ENDBRANCH  52  66
BRANCH  53  77
ATOM     77  C   UNL A   1      39.170  33.786  37.261  1.00  0.00     0.064 A 
ATOM     78  C   UNL A   1      38.213  33.610  38.266  1.00  0.00     0.173 A 
ATOM     79  C   UNL A   1      40.441  34.231  37.783  1.00  0.00     0.173 A 
ATOM     80  F   UNL A   1      36.939  33.350  37.943  1.00  0.00    -0.203 F 
ATOM     81  C   UNL A   1      38.544  33.702  39.650  1.00  0.00     0.198 A 
ATOM     82  C   UNL A   1      40.789  34.245  39.141  1.00  0.00     0.198 A 
ATOM     83  F   UNL A   1      41.422  34.661  36.976  1.00  0.00    -0.203 F 
ATOM     84  F   UNL A   1      37.596  33.512  40.580  1.00  0.00    -0.200 F 
ATOM     85  C   UNL A   1      39.841  33.949  40.082  1.00  0.00     0.200 A 
ATOM     86  F   UNL A   1      42.054  34.509  39.508  1.00  0.00    -0.200 F 
ATOM     87  F   UNL A   1      40.170  33.915  41.381  1.00  0.00    -0.200 F 
ENDBRANCH  53  77
BRANCH  65  88
ATOM     88  C   UNL A   1      41.658  31.749  32.113  1.00  0.00     0.064 A 
ATOM     89  C   UNL A   1      42.917  32.252  32.492  1.00  0.00     0.173 A 
ATOM     90  C   UNL A   1      41.054  32.417  31.024  1.00  0.00     0.173 A 
ATOM     91  F   UNL A   1      43.600  31.657  33.480  1.00  0.00    -0.203 F 
ATOM     92  C   UNL A   1      43.504  33.361  31.869  1.00  0.00     0.198 A 
ATOM     93  C   UNL A   1      41.642  33.530  30.397  1.00  0.00     0.198 A 
ATOM     94  F   UNL A   1      39.882  32.009  30.534  1.00  0.00    -0.203 F 
ATOM     95  F   UNL A   1      44.701  33.800  32.283  1.00  0.00    -0.200 F 
ATOM     96  C   UNL A   1      42.866  34.004  30.825  1.00  0.00     0.200 A 
ATOM     97  F   UNL A   1      41.017  34.138  29.374  1.00  0.00    -0.200 F 
ATOM     98  F   UNL A   1      43.438  35.056  30.221  1.00  0.00    -0.200 F 
ENDBRANCH  65  88
ENDBRANCH  39  40
ENDBRANCH  31  34
ENDBRANCH  29  30
ENDBRANCH  28  29
ENDBRANCH  27  28
ENDBRANCH  26  27
ENDBRANCH   1  26
TORSDOF 17
ENDMDL
