MODEL 1
REMARK VINA RESULT:     -11.2      0.000      0.000
REMARK SMILES CC[C@H](C)[C@@H](NC(=S)Nc1ccccc1)C(=O)NCCCCCCNC(=O)c1ccc(-c2c3nc(c(-c4c(F)c(F)c(F)c(F)c4F)c4ccc([nH]4)c(-c4c(F)c(F)c(F)c(F)c4F)c4nc(c(-c5c(F)c(F)c(F)c(F)c5F)c5ccc2[nH]5)C=C4)C=C3)cc1
REMARK SMILES IDX 20 1 19 2 18 3 16 4 17 5 5 7 3 8 4 9 2 10 1 11 6 12 7 14
REMARK SMILES IDX 8 15 9 16 10 18 11 19 15 20 12 21 14 22 13 23 21 24 22 25
REMARK SMILES IDX 23 26 24 27 25 28 26 29 27 31 28 32 29 33 90 34 30 35 89 36
REMARK SMILES IDX 31 37 32 38 33 39 83 40 34 41 88 42 82 43 84 44 35 45 87 46
REMARK SMILES IDX 81 47 80 48 36 50 68 51 48 52 67 53 49 54 52 55 66 56 85 57
REMARK SMILES IDX 50 58 51 59 65 61 86 62 53 63 37 64 38 65 46 66 39 67 40 68
REMARK SMILES IDX 44 69 47 70 41 71 42 72 45 73 43 74 69 75 70 76 78 77 71 78
REMARK SMILES IDX 72 79 76 80 79 81 73 82 74 83 77 84 75 85 54 86 55 87 63 88
REMARK SMILES IDX 56 89 57 90 61 91 64 92 58 93 59 94 62 95 60 96
REMARK H PARENT 18 6 6 13 9 17 25 30 84 49 52 60
REMARK Flexibility Score: inf
ROOT
ATOM      1  C   UNL A   1      36.871  23.529  25.786  1.00  0.00     0.021 C 
ENDROOT
BRANCH   1   2
ATOM      2  C   UNL A   1      35.622  24.327  25.417  1.00  0.00     0.116 C 
BRANCH   2   3
ATOM      3  N   UNL A   1      35.374  24.172  24.004  1.00  0.00    -0.354 N 
ATOM      4  C   UNL A   1      34.260  23.780  23.345  1.00  0.00     0.242 C 
ATOM      5  O   UNL A   1      34.426  23.341  22.202  1.00  0.00    -0.273 OA
ATOM      6  H   UNL A   1      36.140  24.385  23.425  1.00  0.00     0.163 HD
BRANCH   4   7
ATOM      7  C   UNL A   1      32.881  23.715  24.035  1.00  0.00     0.173 C 
BRANCH   7   8
ATOM      8  C   UNL A   1      31.845  24.430  23.090  1.00  0.00     0.018 C 
ATOM      9  C   UNL A   1      30.397  23.993  23.346  1.00  0.00     0.010 C 
BRANCH   8  10
ATOM     10  C   UNL A   1      32.019  25.972  23.198  1.00  0.00     0.002 C 
ATOM     11  C   UNL A   1      31.526  26.807  22.027  1.00  0.00     0.004 C 
ENDBRANCH   8  10
ENDBRANCH   7   8
BRANCH   7  12
ATOM     12  N   UNL A   1      32.456  22.355  24.436  1.00  0.00    -0.350 N 
ATOM     13  H   UNL A   1      31.890  21.922  23.757  1.00  0.00     0.163 HD
BRANCH  12  14
ATOM     14  C   UNL A   1      32.664  21.570  25.509  1.00  0.00     0.171 C 
ATOM     15  S   UNL A   1      32.824  22.353  26.983  1.00  0.00    -0.041 S 
BRANCH  14  16
ATOM     16  N   UNL A   1      32.563  20.229  25.529  1.00  0.00    -0.333 N 
ATOM     17  H   UNL A   1      32.040  19.889  26.292  1.00  0.00     0.169 HD
BRANCH  16  18
ATOM     18  C   UNL A   1      33.046  19.221  24.692  1.00  0.00     0.040 A 
ATOM     19  C   UNL A   1      34.336  18.737  24.939  1.00  0.00     0.026 A 
ATOM     20  C   UNL A   1      32.302  18.706  23.633  1.00  0.00     0.026 A 
ATOM     21  C   UNL A   1      34.818  17.641  24.223  1.00  0.00     0.002 A 
ATOM     22  C   UNL A   1      32.798  17.627  22.899  1.00  0.00     0.002 A 
ATOM     23  C   UNL A   1      34.041  17.076  23.214  1.00  0.00     0.000 A 
ENDBRANCH  16  18
ENDBRANCH  14  16
ENDBRANCH  12  14
ENDBRANCH   7  12
ENDBRANCH   4   7
ENDBRANCH   2   3
ENDBRANCH   1   2
BRANCH   1  24
ATOM     24  C   UNL A   1      36.660  22.007  25.752  1.00  0.00     0.002 C 
BRANCH  24  25
ATOM     25  C   UNL A   1      37.381  21.293  24.604  1.00  0.00     0.002 C 
BRANCH  25  26
ATOM     26  C   UNL A   1      38.150  20.042  25.027  1.00  0.00     0.021 C 
BRANCH  26  27
ATOM     27  C   UNL A   1      39.409  20.328  25.833  1.00  0.00     0.116 C 
BRANCH  27  28
ATOM     28  N   UNL A   1      40.306  19.186  25.906  1.00  0.00    -0.352 N 
ATOM     29  C   UNL A   1      41.658  19.201  26.138  1.00  0.00     0.251 C 
ATOM     30  H   UNL A   1      39.895  18.300  25.776  1.00  0.00     0.163 HD
ATOM     31  O   UNL A   1      42.331  18.180  26.071  1.00  0.00    -0.269 OA
BRANCH  29  32
ATOM     32  C   UNL A   1      42.292  20.497  26.434  1.00  0.00     0.039 A 
ATOM     33  C   UNL A   1      42.788  21.263  25.380  1.00  0.00     0.014 A 
ATOM     34  C   UNL A   1      42.312  20.977  27.747  1.00  0.00     0.014 A 
ATOM     35  C   UNL A   1      43.265  22.547  25.636  1.00  0.00     0.010 A 
ATOM     36  C   UNL A   1      42.727  22.279  27.990  1.00  0.00     0.010 A 
ATOM     37  C   UNL A   1      43.211  23.073  26.937  1.00  0.00    -0.014 A 
BRANCH  37  38
ATOM     38  C   UNL A   1      43.673  24.450  27.229  1.00  0.00     0.031 A 
ATOM     39  C   UNL A   1      42.691  25.471  27.720  1.00  0.00     0.074 A 
ATOM     40  C   UNL A   1      44.947  24.796  26.969  1.00  0.00     0.049 A 
ATOM     41  N   UNL A   1      42.864  26.750  27.939  1.00  0.00    -0.248 NA
ATOM     42  C   UNL A   1      41.318  25.000  27.961  1.00  0.00     0.031 C 
ATOM     43  C   UNL A   1      45.974  23.902  26.432  1.00  0.00     0.029 A 
ATOM     44  N   UNL A   1      45.589  26.002  27.099  1.00  0.00    -0.354 N 
ATOM     45  C   UNL A   1      41.621  27.236  28.319  1.00  0.00     0.074 A 
ATOM     46  C   UNL A   1      40.692  26.129  28.252  1.00  0.00     0.031 C 
ATOM     47  C   UNL A   1      47.118  24.588  26.282  1.00  0.00     0.029 A 
ATOM     48  C   UNL A   1      46.897  25.975  26.683  1.00  0.00     0.049 A 
ATOM     49  H   UNL A   1      45.153  26.808  27.457  1.00  0.00     0.167 HD
ATOM     50  C   UNL A   1      41.292  28.489  28.711  1.00  0.00     0.037 A 
ATOM     51  C   UNL A   1      47.809  26.963  26.621  1.00  0.00     0.037 A 
ATOM     52  C   UNL A   1      42.231  29.575  28.808  1.00  0.00     0.049 A 
ATOM     53  C   UNL A   1      47.429  28.342  27.088  1.00  0.00     0.074 A 
ATOM     54  C   UNL A   1      42.021  30.859  29.277  1.00  0.00     0.029 A 
ATOM     55  N   UNL A   1      43.562  29.499  28.424  1.00  0.00    -0.354 N 
ATOM     56  N   UNL A   1      46.272  28.774  27.528  1.00  0.00    -0.248 NA
ATOM     57  C   UNL A   1      48.481  29.367  27.059  1.00  0.00     0.031 C 
ATOM     58  C   UNL A   1      43.215  31.575  29.136  1.00  0.00     0.029 A 
ATOM     59  C   UNL A   1      44.181  30.722  28.623  1.00  0.00     0.049 A 
ATOM     60  H   UNL A   1      44.002  28.696  28.065  1.00  0.00     0.167 HD
ATOM     61  C   UNL A   1      46.460  30.111  27.847  1.00  0.00     0.074 A 
ATOM     62  C   UNL A   1      47.847  30.417  27.562  1.00  0.00     0.031 C 
ATOM     63  C   UNL A   1      45.564  31.005  28.333  1.00  0.00     0.037 A 
BRANCH  50  64
ATOM     64  C   UNL A   1      39.855  28.746  29.059  1.00  0.00     0.064 A 
ATOM     65  C   UNL A   1      39.359  28.530  30.353  1.00  0.00     0.173 A 
ATOM     66  C   UNL A   1      38.963  29.222  28.086  1.00  0.00     0.173 A 
ATOM     67  F   UNL A   1      40.168  28.063  31.317  1.00  0.00    -0.203 F 
ATOM     68  C   UNL A   1      38.015  28.741  30.651  1.00  0.00     0.198 A 
ATOM     69  C   UNL A   1      37.627  29.462  28.395  1.00  0.00     0.198 A 
ATOM     70  F   UNL A   1      39.385  29.450  26.833  1.00  0.00    -0.203 F 
ATOM     71  F   UNL A   1      37.552  28.469  31.879  1.00  0.00    -0.200 F 
ATOM     72  C   UNL A   1      37.152  29.212  29.673  1.00  0.00     0.200 A 
ATOM     73  F   UNL A   1      36.796  29.928  27.452  1.00  0.00    -0.200 F 
ATOM     74  F   UNL A   1      35.858  29.414  29.960  1.00  0.00    -0.200 F 
ENDBRANCH  50  64
BRANCH  51  75
ATOM     75  C   UNL A   1      49.173  26.670  26.115  1.00  0.00     0.064 A 
ATOM     76  C   UNL A   1      50.143  26.095  26.947  1.00  0.00     0.173 A 
ATOM     77  C   UNL A   1      49.525  26.928  24.782  1.00  0.00     0.173 A 
ATOM     78  F   UNL A   1      49.858  25.845  28.234  1.00  0.00    -0.203 F 
ATOM     79  C   UNL A   1      51.418  25.800  26.469  1.00  0.00     0.198 A 
ATOM     80  C   UNL A   1      50.793  26.611  24.298  1.00  0.00     0.198 A 
ATOM     81  F   UNL A   1      48.629  27.471  23.944  1.00  0.00    -0.203 F 
ATOM     82  F   UNL A   1      52.337  25.279  27.292  1.00  0.00    -0.200 F 
ATOM     83  C   UNL A   1      51.740  26.052  25.143  1.00  0.00     0.200 A 
ATOM     84  F   UNL A   1      51.094  26.841  23.013  1.00  0.00    -0.200 F 
ATOM     85  F   UNL A   1      52.963  25.757  24.680  1.00  0.00    -0.200 F 
ENDBRANCH  51  75
BRANCH  63  86
ATOM     86  C   UNL A   1      46.057  32.394  28.610  1.00  0.00     0.064 A 
ATOM     87  C   UNL A   1      45.976  33.406  27.643  1.00  0.00     0.173 A 
ATOM     88  C   UNL A   1      46.557  32.731  29.878  1.00  0.00     0.173 A 
ATOM     89  F   UNL A   1      45.520  33.130  26.413  1.00  0.00    -0.203 F 
ATOM     90  C   UNL A   1      46.392  34.704  27.932  1.00  0.00     0.198 A 
ATOM     91  C   UNL A   1      46.947  34.033  30.170  1.00  0.00     0.198 A 
ATOM     92  F   UNL A   1      46.648  31.798  30.838  1.00  0.00    -0.203 F 
ATOM     93  F   UNL A   1      46.339  35.648  26.983  1.00  0.00    -0.200 F 
ATOM     94  C   UNL A   1      46.868  35.018  29.196  1.00  0.00     0.200 A 
ATOM     95  F   UNL A   1      47.394  34.339  31.396  1.00  0.00    -0.200 F 
ATOM     96  F   UNL A   1      47.255  36.270  29.475  1.00  0.00    -0.200 F 
ENDBRANCH  63  86
ENDBRANCH  37  38
ENDBRANCH  29  32
ENDBRANCH  27  28
ENDBRANCH  26  27
ENDBRANCH  25  26
ENDBRANCH  24  25
ENDBRANCH   1  24
TORSDOF 19
ENDMDL
MODEL 2
REMARK VINA RESULT:     -11.2      1.471      7.562
REMARK SMILES CC[C@H](C)[C@@H](NC(=S)Nc1ccccc1)C(=O)NCCCCCCNC(=O)c1ccc(-c2c3nc(c(-c4c(F)c(F)c(F)c(F)c4F)c4ccc([nH]4)c(-c4c(F)c(F)c(F)c(F)c4F)c4nc(c(-c5c(F)c(F)c(F)c(F)c5F)c5ccc2[nH]5)C=C4)C=C3)cc1
REMARK SMILES IDX 20 1 19 2 18 3 16 4 17 5 5 7 3 8 4 9 2 10 1 11 6 12 7 14
REMARK SMILES IDX 8 15 9 16 10 18 11 19 15 20 12 21 14 22 13 23 21 24 22 25
REMARK SMILES IDX 23 26 24 27 25 28 26 29 27 31 28 32 29 33 90 34 30 35 89 36
REMARK SMILES IDX 31 37 32 38 33 39 83 40 34 41 88 42 82 43 84 44 35 45 87 46
REMARK SMILES IDX 81 47 80 48 36 50 68 51 48 52 67 53 49 54 52 55 66 56 85 57
REMARK SMILES IDX 50 58 51 59 65 61 86 62 53 63 37 64 38 65 46 66 39 67 40 68
REMARK SMILES IDX 44 69 47 70 41 71 42 72 45 73 43 74 69 75 70 76 78 77 71 78
REMARK SMILES IDX 72 79 76 80 79 81 73 82 74 83 77 84 75 85 54 86 55 87 63 88
REMARK SMILES IDX 56 89 57 90 61 91 64 92 58 93 59 94 62 95 60 96
REMARK H PARENT 18 6 6 13 9 17 25 30 84 49 52 60
REMARK Flexibility Score: inf
ROOT
ATOM      1  C   UNL A   1      38.985  23.166  26.495  1.00  0.00     0.021 C 
ENDROOT
BRANCH   1   2
ATOM      2  C   UNL A   1      37.574  23.567  26.072  1.00  0.00     0.116 C 
BRANCH   2   3
ATOM      3  N   UNL A   1      37.489  23.514  24.632  1.00  0.00    -0.354 N 
ATOM      4  C   UNL A   1      36.419  23.363  23.819  1.00  0.00     0.242 C 
ATOM      5  O   UNL A   1      36.652  22.943  22.680  1.00  0.00    -0.273 OA
ATOM      6  H   UNL A   1      38.351  23.600  24.165  1.00  0.00     0.163 HD
BRANCH   4   7
ATOM      7  C   UNL A   1      34.973  23.533  24.330  1.00  0.00     0.173 C 
BRANCH   7   8
ATOM      8  C   UNL A   1      34.192  24.387  23.264  1.00  0.00     0.018 C 
ATOM      9  C   UNL A   1      33.254  23.546  22.390  1.00  0.00     0.010 C 
BRANCH   8  10
ATOM     10  C   UNL A   1      33.442  25.549  23.978  1.00  0.00     0.002 C 
ATOM     11  C   UNL A   1      32.581  25.183  25.175  1.00  0.00     0.004 C 
ENDBRANCH   8  10
ENDBRANCH   7   8
BRANCH   7  12
ATOM     12  N   UNL A   1      34.288  22.265  24.672  1.00  0.00    -0.350 N 
ATOM     13  H   UNL A   1      33.544  22.063  24.059  1.00  0.00     0.163 HD
BRANCH  12  14
ATOM     14  C   UNL A   1      34.444  21.324  25.620  1.00  0.00     0.171 C 
ATOM     15  S   UNL A   1      34.065  21.779  27.188  1.00  0.00    -0.041 S 
BRANCH  14  16
ATOM     16  N   UNL A   1      34.685  20.020  25.396  1.00  0.00    -0.333 N 
ATOM     17  H   UNL A   1      35.436  19.665  25.926  1.00  0.00     0.169 HD
BRANCH  16  18
ATOM     18  C   UNL A   1      34.089  19.066  24.567  1.00  0.00     0.040 A 
ATOM     19  C   UNL A   1      32.843  19.378  24.011  1.00  0.00     0.026 A 
ATOM     20  C   UNL A   1      34.682  17.835  24.297  1.00  0.00     0.026 A 
ATOM     21  C   UNL A   1      32.265  18.524  23.072  1.00  0.00     0.002 A 
ATOM     22  C   UNL A   1      34.088  16.968  23.378  1.00  0.00     0.002 A 
ATOM     23  C   UNL A   1      32.897  17.327  22.743  1.00  0.00     0.000 A 
ENDBRANCH  16  18
ENDBRANCH  14  16
ENDBRANCH  12  14
ENDBRANCH   7  12
ENDBRANCH   4   7
ENDBRANCH   2   3
ENDBRANCH   1   2
BRANCH   1  24
ATOM     24  C   UNL A   1      39.349  21.718  26.127  1.00  0.00     0.002 C 
BRANCH  24  25
ATOM     25  C   UNL A   1      40.808  21.344  26.403  1.00  0.00     0.002 C 
BRANCH  25  26
ATOM     26  C   UNL A   1      41.144  19.878  26.125  1.00  0.00     0.021 C 
BRANCH  26  27
ATOM     27  C   UNL A   1      42.538  19.464  26.574  1.00  0.00     0.116 C 
BRANCH  27  28
ATOM     28  N   UNL A   1      43.322  18.865  25.505  1.00  0.00    -0.352 N 
ATOM     29  C   UNL A   1      44.241  19.485  24.697  1.00  0.00     0.251 C 
ATOM     30  H   UNL A   1      43.176  17.905  25.344  1.00  0.00     0.163 HD
ATOM     31  O   UNL A   1      44.764  18.902  23.756  1.00  0.00    -0.269 OA
BRANCH  29  32
ATOM     32  C   UNL A   1      44.558  20.897  24.971  1.00  0.00     0.039 A 
ATOM     33  C   UNL A   1      44.065  21.879  24.112  1.00  0.00     0.014 A 
ATOM     34  C   UNL A   1      45.270  21.239  26.125  1.00  0.00     0.014 A 
ATOM     35  C   UNL A   1      44.243  23.222  24.438  1.00  0.00     0.010 A 
ATOM     36  C   UNL A   1      45.390  22.576  26.480  1.00  0.00     0.010 A 
ATOM     37  C   UNL A   1      44.882  23.578  25.638  1.00  0.00    -0.014 A 
BRANCH  37  38
ATOM     38  C   UNL A   1      45.048  24.997  26.028  1.00  0.00     0.031 A 
ATOM     39  C   UNL A   1      46.405  25.632  25.949  1.00  0.00     0.074 A 
ATOM     40  C   UNL A   1      44.002  25.679  26.530  1.00  0.00     0.049 A 
ATOM     41  N   UNL A   1      46.786  26.824  26.334  1.00  0.00    -0.248 NA
ATOM     42  C   UNL A   1      47.487  24.802  25.399  1.00  0.00     0.031 C 
ATOM     43  C   UNL A   1      42.652  25.144  26.710  1.00  0.00     0.029 A 
ATOM     44  N   UNL A   1      43.919  26.963  27.005  1.00  0.00    -0.354 N 
ATOM     45  C   UNL A   1      48.152  26.875  26.094  1.00  0.00     0.074 A 
ATOM     46  C   UNL A   1      48.543  25.581  25.580  1.00  0.00     0.031 C 
ATOM     47  C   UNL A   1      41.873  26.093  27.252  1.00  0.00     0.029 A 
ATOM     48  C   UNL A   1      42.676  27.291  27.486  1.00  0.00     0.049 A 
ATOM     49  H   UNL A   1      44.678  27.589  27.001  1.00  0.00     0.167 HD
ATOM     50  C   UNL A   1      48.998  27.917  26.267  1.00  0.00     0.037 A 
ATOM     51  C   UNL A   1      42.238  28.427  28.061  1.00  0.00     0.037 A 
ATOM     52  C   UNL A   1      48.592  29.212  26.746  1.00  0.00     0.049 A 
ATOM     53  C   UNL A   1      43.189  29.582  28.217  1.00  0.00     0.074 A 
ATOM     54  C   UNL A   1      49.351  30.361  26.874  1.00  0.00     0.029 A 
ATOM     55  N   UNL A   1      47.311  29.524  27.178  1.00  0.00    -0.354 N 
ATOM     56  N   UNL A   1      44.461  29.651  27.909  1.00  0.00    -0.248 NA
ATOM     57  C   UNL A   1      42.643  30.818  28.793  1.00  0.00     0.031 C 
ATOM     58  C   UNL A   1      48.539  31.359  27.426  1.00  0.00     0.029 A 
ATOM     59  C   UNL A   1      47.263  30.843  27.598  1.00  0.00     0.049 A 
ATOM     60  H   UNL A   1      46.550  28.901  27.185  1.00  0.00     0.167 HD
ATOM     61  C   UNL A   1      44.864  30.939  28.231  1.00  0.00     0.074 A 
ATOM     62  C   UNL A   1      43.696  31.623  28.749  1.00  0.00     0.031 C 
ATOM     63  C   UNL A   1      46.089  31.505  28.109  1.00  0.00     0.037 A 
BRANCH  50  64
ATOM     64  C   UNL A   1      50.444  27.692  25.937  1.00  0.00     0.064 A 
ATOM     65  C   UNL A   1      50.933  27.828  24.629  1.00  0.00     0.173 A 
ATOM     66  C   UNL A   1      51.356  27.342  26.944  1.00  0.00     0.173 A 
ATOM     67  F   UNL A   1      50.099  28.148  23.627  1.00  0.00    -0.203 F 
ATOM     68  C   UNL A   1      52.271  27.582  24.334  1.00  0.00     0.198 A 
ATOM     69  C   UNL A   1      52.700  27.128  26.651  1.00  0.00     0.198 A 
ATOM     70  F   UNL A   1      50.943  27.203  28.213  1.00  0.00    -0.203 F 
ATOM     71  F   UNL A   1      52.701  27.657  23.067  1.00  0.00    -0.200 F 
ATOM     72  C   UNL A   1      53.155  27.237  25.345  1.00  0.00     0.200 A 
ATOM     73  F   UNL A   1      53.555  26.806  27.632  1.00  0.00    -0.200 F 
ATOM     74  F   UNL A   1      54.442  27.000  25.061  1.00  0.00    -0.200 F 
ENDBRANCH  50  64
BRANCH  51  75
ATOM     75  C   UNL A   1      40.827  28.524  28.510  1.00  0.00     0.064 A 
ATOM     76  C   UNL A   1      40.461  28.186  29.819  1.00  0.00     0.173 A 
ATOM     77  C   UNL A   1      39.821  28.986  27.649  1.00  0.00     0.173 A 
ATOM     78  F   UNL A   1      41.386  27.723  30.674  1.00  0.00    -0.203 F 
ATOM     79  C   UNL A   1      39.140  28.295  30.249  1.00  0.00     0.198 A 
ATOM     80  C   UNL A   1      38.504  29.118  28.085  1.00  0.00     0.198 A 
ATOM     81  F   UNL A   1      40.122  29.330  26.388  1.00  0.00    -0.203 F 
ATOM     82  F   UNL A   1      38.810  27.937  31.496  1.00  0.00    -0.200 F 
ATOM     83  C   UNL A   1      38.164  28.768  29.383  1.00  0.00     0.200 A 
ATOM     84  F   UNL A   1      37.568  29.590  27.252  1.00  0.00    -0.200 F 
ATOM     85  F   UNL A   1      36.895  28.884  29.800  1.00  0.00    -0.200 F 
ENDBRANCH  51  75
BRANCH  63  86
ATOM     86  C   UNL A   1      46.230  32.940  28.520  1.00  0.00     0.064 A 
ATOM     87  C   UNL A   1      46.738  33.295  29.778  1.00  0.00     0.173 A 
ATOM     88  C   UNL A   1      45.914  33.971  27.622  1.00  0.00     0.173 A 
ATOM     89  F   UNL A   1      47.040  32.346  30.676  1.00  0.00    -0.203 F 
ATOM     90  C   UNL A   1      46.910  34.632  30.127  1.00  0.00     0.198 A 
ATOM     91  C   UNL A   1      46.112  35.304  27.964  1.00  0.00     0.198 A 
ATOM     92  F   UNL A   1      45.431  33.681  26.404  1.00  0.00    -0.203 F 
ATOM     93  F   UNL A   1      47.364  34.951  31.346  1.00  0.00    -0.200 F 
ATOM     94  C   UNL A   1      46.605  35.634  29.217  1.00  0.00     0.200 A 
ATOM     95  F   UNL A   1      45.830  36.271  27.079  1.00  0.00    -0.200 F 
ATOM     96  F   UNL A   1      46.785  36.920  29.551  1.00  0.00    -0.200 F 
ENDBRANCH  63  86
ENDBRANCH  37  38
ENDBRANCH  29  32
ENDBRANCH  27  28
ENDBRANCH  26  27
ENDBRANCH  25  26
ENDBRANCH  24  25
ENDBRANCH   1  24
TORSDOF 19
ENDMDL
MODEL 3
REMARK VINA RESULT:     -11.2      6.713     11.323
REMARK SMILES CC[C@H](C)[C@@H](NC(=S)Nc1ccccc1)C(=O)NCCCCCCNC(=O)c1ccc(-c2c3nc(c(-c4c(F)c(F)c(F)c(F)c4F)c4ccc([nH]4)c(-c4c(F)c(F)c(F)c(F)c4F)c4nc(c(-c5c(F)c(F)c(F)c(F)c5F)c5ccc2[nH]5)C=C4)C=C3)cc1
REMARK SMILES IDX 20 1 19 2 18 3 16 4 17 5 5 7 3 8 4 9 2 10 1 11 6 12 7 14
REMARK SMILES IDX 8 15 9 16 10 18 11 19 15 20 12 21 14 22 13 23 21 24 22 25
REMARK SMILES IDX 23 26 24 27 25 28 26 29 27 31 28 32 29 33 90 34 30 35 89 36
REMARK SMILES IDX 31 37 32 38 33 39 83 40 34 41 88 42 82 43 84 44 35 45 87 46
REMARK SMILES IDX 81 47 80 48 36 50 68 51 48 52 67 53 49 54 52 55 66 56 85 57
REMARK SMILES IDX 50 58 51 59 65 61 86 62 53 63 37 64 38 65 46 66 39 67 40 68
REMARK SMILES IDX 44 69 47 70 41 71 42 72 45 73 43 74 69 75 70 76 78 77 71 78
REMARK SMILES IDX 72 79 76 80 79 81 73 82 74 83 77 84 75 85 54 86 55 87 63 88
REMARK SMILES IDX 56 89 57 90 61 91 64 92 58 93 59 94 62 95 60 96
REMARK H PARENT 18 6 6 13 9 17 25 30 84 49 52 60
REMARK Flexibility Score: inf
ROOT
ATOM      1  C   UNL A   1      34.998  30.801  27.837  1.00  0.00     0.021 C 
ENDROOT
BRANCH   1   2
ATOM      2  C   UNL A   1      34.559  29.538  27.100  1.00  0.00     0.116 C 
BRANCH   2   3
ATOM      3  N   UNL A   1      33.420  28.976  27.783  1.00  0.00    -0.354 N 
ATOM      4  C   UNL A   1      32.469  28.117  27.349  1.00  0.00     0.242 C 
ATOM      5  O   UNL A   1      31.404  28.118  27.974  1.00  0.00    -0.273 OA
ATOM      6  H   UNL A   1      33.315  29.266  28.718  1.00  0.00     0.163 HD
BRANCH   4   7
ATOM      7  C   UNL A   1      32.632  27.309  26.044  1.00  0.00     0.173 C 
BRANCH   7   8
ATOM      8  C   UNL A   1      32.226  25.821  26.355  1.00  0.00     0.018 C 
ATOM      9  C   UNL A   1      30.929  25.393  25.656  1.00  0.00     0.010 C 
BRANCH   8  10
ATOM     10  C   UNL A   1      33.414  24.876  26.015  1.00  0.00     0.002 C 
ATOM     11  C   UNL A   1      33.888  24.854  24.571  1.00  0.00     0.004 C 
ENDBRANCH   8  10
ENDBRANCH   7   8
BRANCH   7  12
ATOM     12  N   UNL A   1      31.915  27.873  24.877  1.00  0.00    -0.350 N 
ATOM     13  H   UNL A   1      31.023  27.475  24.755  1.00  0.00     0.163 HD
BRANCH  12  14
ATOM     14  C   UNL A   1      32.195  28.803  23.946  1.00  0.00     0.171 C 
ATOM     15  S   UNL A   1      33.689  28.677  23.195  1.00  0.00    -0.041 S 
BRANCH  14  16
ATOM     16  N   UNL A   1      31.321  29.689  23.438  1.00  0.00    -0.333 N 
ATOM     17  H   UNL A   1      31.754  30.468  23.017  1.00  0.00     0.169 HD
BRANCH  16  18
ATOM     18  C   UNL A   1      29.926  29.733  23.384  1.00  0.00     0.040 A 
ATOM     19  C   UNL A   1      29.302  30.939  23.725  1.00  0.00     0.026 A 
ATOM     20  C   UNL A   1      29.155  28.631  23.023  1.00  0.00     0.026 A 
ATOM     21  C   UNL A   1      27.924  31.082  23.560  1.00  0.00     0.002 A 
ATOM     22  C   UNL A   1      27.773  28.768  22.886  1.00  0.00     0.002 A 
ATOM     23  C   UNL A   1      27.163  30.000  23.124  1.00  0.00     0.000 A 
ENDBRANCH  16  18
ENDBRANCH  14  16
ENDBRANCH  12  14
ENDBRANCH   7  12
ENDBRANCH   4   7
ENDBRANCH   2   3
ENDBRANCH   1   2
BRANCH   1  24
ATOM     24  C   UNL A   1      33.852  31.792  28.094  1.00  0.00     0.002 C 
BRANCH  24  25
ATOM     25  C   UNL A   1      34.291  33.118  28.724  1.00  0.00     0.002 C 
BRANCH  25  26
ATOM     26  C   UNL A   1      33.262  34.241  28.604  1.00  0.00     0.021 C 
BRANCH  26  27
ATOM     27  C   UNL A   1      33.681  35.542  29.275  1.00  0.00     0.116 C 
BRANCH  27  28
ATOM     28  N   UNL A   1      32.722  36.003  30.266  1.00  0.00    -0.352 N 
ATOM     29  C   UNL A   1      32.736  35.759  31.616  1.00  0.00     0.251 C 
ATOM     30  H   UNL A   1      31.978  36.554  29.930  1.00  0.00     0.163 HD
ATOM     31  O   UNL A   1      31.813  36.110  32.341  1.00  0.00    -0.269 OA
BRANCH  29  32
ATOM     32  C   UNL A   1      33.884  35.021  32.171  1.00  0.00     0.039 A 
ATOM     33  C   UNL A   1      33.720  33.682  32.523  1.00  0.00     0.014 A 
ATOM     34  C   UNL A   1      35.134  35.642  32.257  1.00  0.00     0.014 A 
ATOM     35  C   UNL A   1      34.831  32.940  32.920  1.00  0.00     0.010 A 
ATOM     36  C   UNL A   1      36.249  34.885  32.589  1.00  0.00     0.010 A 
ATOM     37  C   UNL A   1      36.106  33.530  32.928  1.00  0.00    -0.014 A 
BRANCH  37  38
ATOM     38  C   UNL A   1      37.310  32.753  33.305  1.00  0.00     0.031 A 
ATOM     39  C   UNL A   1      38.027  33.074  34.582  1.00  0.00     0.074 A 
ATOM     40  C   UNL A   1      37.799  31.827  32.459  1.00  0.00     0.049 A 
ATOM     41  N   UNL A   1      39.148  32.585  35.048  1.00  0.00    -0.248 NA
ATOM     42  C   UNL A   1      37.422  34.110  35.433  1.00  0.00     0.031 C 
ATOM     43  C   UNL A   1      37.219  31.476  31.163  1.00  0.00     0.029 A 
ATOM     44  N   UNL A   1      38.911  31.030  32.555  1.00  0.00    -0.354 N 
ATOM     45  C   UNL A   1      39.392  33.271  36.230  1.00  0.00     0.074 A 
ATOM     46  C   UNL A   1      38.333  34.244  36.384  1.00  0.00     0.031 C 
ATOM     47  C   UNL A   1      37.978  30.530  30.585  1.00  0.00     0.029 A 
ATOM     48  C   UNL A   1      39.112  30.233  31.456  1.00  0.00     0.049 A 
ATOM     49  H   UNL A   1      39.508  31.030  33.338  1.00  0.00     0.167 HD
ATOM     50  C   UNL A   1      40.399  33.088  37.116  1.00  0.00     0.037 A 
ATOM     51  C   UNL A   1      40.107  29.369  31.179  1.00  0.00     0.037 A 
ATOM     52  C   UNL A   1      41.428  32.094  36.971  1.00  0.00     0.049 A 
ATOM     53  C   UNL A   1      41.199  29.161  32.192  1.00  0.00     0.074 A 
ATOM     54  C   UNL A   1      42.442  31.766  37.853  1.00  0.00     0.029 A 
ATOM     55  N   UNL A   1      41.573  31.268  35.866  1.00  0.00    -0.354 N 
ATOM     56  N   UNL A   1      41.377  29.754  33.348  1.00  0.00    -0.248 NA
ATOM     57  C   UNL A   1      42.225  28.161  31.866  1.00  0.00     0.031 C 
ATOM     58  C   UNL A   1      43.228  30.771  37.261  1.00  0.00     0.029 A 
ATOM     59  C   UNL A   1      42.676  30.447  36.031  1.00  0.00     0.049 A 
ATOM     60  H   UNL A   1      40.980  31.266  35.081  1.00  0.00     0.167 HD
ATOM     61  C   UNL A   1      42.518  29.186  33.897  1.00  0.00     0.074 A 
ATOM     62  C   UNL A   1      42.985  28.191  32.952  1.00  0.00     0.031 C 
ATOM     63  C   UNL A   1      43.123  29.462  35.078  1.00  0.00     0.037 A 
BRANCH  50  64
ATOM     64  C   UNL A   1      40.430  33.987  38.317  1.00  0.00     0.064 A 
ATOM     65  C   UNL A   1      41.162  35.184  38.324  1.00  0.00     0.173 A 
ATOM     66  C   UNL A   1      39.713  33.651  39.476  1.00  0.00     0.173 A 
ATOM     67  F   UNL A   1      41.875  35.545  37.246  1.00  0.00    -0.203 F 
ATOM     68  C   UNL A   1      41.208  35.991  39.458  1.00  0.00     0.198 A 
ATOM     69  C   UNL A   1      39.735  34.476  40.596  1.00  0.00     0.198 A 
ATOM     70  F   UNL A   1      38.993  32.521  39.522  1.00  0.00    -0.203 F 
ATOM     71  F   UNL A   1      41.964  37.098  39.461  1.00  0.00    -0.200 F 
ATOM     72  C   UNL A   1      40.491  35.639  40.591  1.00  0.00     0.200 A 
ATOM     73  F   UNL A   1      39.033  34.140  41.688  1.00  0.00    -0.200 F 
ATOM     74  F   UNL A   1      40.537  36.415  41.683  1.00  0.00    -0.200 F 
ENDBRANCH  50  64
BRANCH  51  75
ATOM     75  C   UNL A   1      40.094  28.626  29.894  1.00  0.00     0.064 A 
ATOM     76  C   UNL A   1      40.711  29.151  28.752  1.00  0.00     0.173 A 
ATOM     77  C   UNL A   1      39.494  27.362  29.791  1.00  0.00     0.173 A 
ATOM     78  F   UNL A   1      41.284  30.363  28.797  1.00  0.00    -0.203 F 
ATOM     79  C   UNL A   1      40.719  28.446  27.549  1.00  0.00     0.198 A 
ATOM     80  C   UNL A   1      39.522  26.647  28.595  1.00  0.00     0.198 A 
ATOM     81  F   UNL A   1      38.897  26.813  30.860  1.00  0.00    -0.203 F 
ATOM     82  F   UNL A   1      41.288  28.984  26.463  1.00  0.00    -0.200 F 
ATOM     83  C   UNL A   1      40.130  27.192  27.474  1.00  0.00     0.200 A 
ATOM     84  F   UNL A   1      38.967  25.430  28.531  1.00  0.00    -0.200 F 
ATOM     85  F   UNL A   1      40.147  26.509  26.321  1.00  0.00    -0.200 F 
ENDBRANCH  51  75
BRANCH  63  86
ATOM     86  C   UNL A   1      44.344  28.666  35.430  1.00  0.00     0.064 A 
ATOM     87  C   UNL A   1      45.631  29.115  35.098  1.00  0.00     0.173 A 
ATOM     88  C   UNL A   1      44.229  27.475  36.162  1.00  0.00     0.173 A 
ATOM     89  F   UNL A   1      45.791  30.241  34.387  1.00  0.00    -0.203 F 
ATOM     90  C   UNL A   1      46.759  28.390  35.476  1.00  0.00     0.198 A 
ATOM     91  C   UNL A   1      45.359  26.767  36.559  1.00  0.00     0.198 A 
ATOM     92  F   UNL A   1      43.020  27.008  36.508  1.00  0.00    -0.203 F 
ATOM     93  F   UNL A   1      47.977  28.818  35.119  1.00  0.00    -0.200 F 
ATOM     94  C   UNL A   1      46.622  27.222  36.212  1.00  0.00     0.200 A 
ATOM     95  F   UNL A   1      45.226  25.647  37.283  1.00  0.00    -0.200 F 
ATOM     96  F   UNL A   1      47.710  26.534  36.586  1.00  0.00    -0.200 F 
ENDBRANCH  63  86
ENDBRANCH  37  38
ENDBRANCH  29  32
ENDBRANCH  27  28
ENDBRANCH  26  27
ENDBRANCH  25  26
ENDBRANCH  24  25
ENDBRANCH   1  24
TORSDOF 19
ENDMDL
