MODEL 1
REMARK VINA RESULT:     -13.9      0.000      0.000
REMARK SMILES O=C(NCCCCCCNC(=O)[C@H]1CCCN(c2cc(-c3ccccn3)nc(-c3ccccc3F)n2)C1)c1ccc(-c2c3nc(c(-c4c(F)c(F)c(F)c(F)c4F)c4ccc([nH]4)c(-c4c(F)c(F)c(F)c(F)c4F)c4nc(c(-c5c(F)c(F)c(F)c(F)c5F)c5ccc2[nH]5)C=C4)C=C3)cc1
REMARK SMILES IDX 6 1 5 2 4 3 3 4 1 5 2 6 38 8 39 9 100 10 40 11 99 12 41 13
REMARK SMILES IDX 42 14 43 15 93 16 44 17 98 18 92 19 94 20 45 21 97 22 91 23
REMARK SMILES IDX 90 24 46 26 78 27 58 28 77 29 59 30 62 31 76 32 95 33 60 34
REMARK SMILES IDX 61 35 75 37 96 38 63 39 47 40 48 41 56 42 49 43 50 44 54 45
REMARK SMILES IDX 57 46 51 47 52 48 55 49 53 50 79 51 80 52 88 53 81 54 82 55
REMARK SMILES IDX 86 56 89 57 83 58 84 59 87 60 85 61 64 62 65 63 73 64 66 65
REMARK SMILES IDX 67 66 71 67 74 68 68 69 69 70 72 71 70 72 7 73 8 74 9 75
REMARK SMILES IDX 10 76 11 77 12 79 13 80 14 81 37 82 15 83 17 84 16 85 18 86
REMARK SMILES IDX 19 87 36 88 20 89 28 90 27 91 21 92 22 93 26 94 23 95 25 96
REMARK SMILES IDX 24 97 29 98 30 99 34 100 31 101 33 102 35 103 32 104
REMARK H PARENT 3 7 94 25 62 36 10 78
REMARK Flexibility Score: inf
ROOT
ATOM      1  C   UNL A   1      35.607  21.954  24.464  1.00  0.00     0.002 C 
ENDROOT
BRANCH   1   2
ATOM      2  C   UNL A   1      35.839  23.462  24.566  1.00  0.00     0.021 C 
BRANCH   2   3
ATOM      3  C   UNL A   1      36.827  23.878  25.649  1.00  0.00     0.116 C 
BRANCH   3   4
ATOM      4  N   UNL A   1      37.819  22.848  25.909  1.00  0.00    -0.352 N 
ATOM      5  O   UNL A   1      39.861  22.021  26.393  1.00  0.00    -0.269 OA
ATOM      6  C   UNL A   1      39.084  22.972  26.420  1.00  0.00     0.251 C 
ATOM      7  H   UNL A   1      37.542  21.930  25.687  1.00  0.00     0.163 HD
BRANCH   6   8
ATOM      8  C   UNL A   1      39.524  24.263  26.986  1.00  0.00     0.039 A 
ATOM      9  C   UNL A   1      40.216  25.192  26.201  1.00  0.00     0.014 A 
ATOM     10  C   UNL A   1      39.221  24.552  28.317  1.00  0.00     0.014 A 
ATOM     11  C   UNL A   1      40.710  26.355  26.781  1.00  0.00     0.010 A 
ATOM     12  C   UNL A   1      39.651  25.756  28.877  1.00  0.00     0.010 A 
ATOM     13  C   UNL A   1      40.418  26.655  28.120  1.00  0.00    -0.014 A 
BRANCH  13  14
ATOM     14  C   UNL A   1      40.869  27.935  28.718  1.00  0.00     0.031 A 
ATOM     15  C   UNL A   1      42.301  28.132  29.116  1.00  0.00     0.074 A 
ATOM     16  C   UNL A   1      39.965  28.908  28.935  1.00  0.00     0.049 A 
ATOM     17  N   UNL A   1      42.853  29.138  29.744  1.00  0.00    -0.248 NA
ATOM     18  C   UNL A   1      43.237  27.051  28.773  1.00  0.00     0.031 C 
ATOM     19  C   UNL A   1      38.548  28.831  28.577  1.00  0.00     0.029 A 
ATOM     20  N   UNL A   1      40.097  30.145  29.514  1.00  0.00    -0.354 N 
ATOM     21  C   UNL A   1      44.192  28.805  29.892  1.00  0.00     0.074 A 
ATOM     22  C   UNL A   1      44.368  27.491  29.311  1.00  0.00     0.031 C 
ATOM     23  C   UNL A   1      37.944  29.975  28.930  1.00  0.00     0.029 A 
ATOM     24  C   UNL A   1      38.915  30.835  29.600  1.00  0.00     0.049 A 
ATOM     25  H   UNL A   1      40.956  30.501  29.835  1.00  0.00     0.167 HD
ATOM     26  C   UNL A   1      45.181  29.537  30.459  1.00  0.00     0.037 A 
ATOM     27  C   UNL A   1      38.631  32.016  30.182  1.00  0.00     0.037 A 
ATOM     28  C   UNL A   1      44.992  30.848  31.025  1.00  0.00     0.049 A 
ATOM     29  C   UNL A   1      39.730  32.784  30.857  1.00  0.00     0.074 A 
ATOM     30  C   UNL A   1      45.938  31.687  31.584  1.00  0.00     0.029 A 
ATOM     31  N   UNL A   1      43.772  31.504  31.115  1.00  0.00    -0.354 N 
ATOM     32  N   UNL A   1      40.998  32.474  30.971  1.00  0.00    -0.248 NA
ATOM     33  C   UNL A   1      39.364  34.060  31.486  1.00  0.00     0.031 C 
ATOM     34  C   UNL A   1      45.282  32.818  32.075  1.00  0.00     0.029 A 
ATOM     35  C   UNL A   1      43.937  32.723  31.753  1.00  0.00     0.049 A 
ATOM     36  H   UNL A   1      42.915  31.156  30.776  1.00  0.00     0.167 HD
ATOM     37  C   UNL A   1      41.589  33.523  31.660  1.00  0.00     0.074 A 
ATOM     38  C   UNL A   1      40.538  34.481  31.939  1.00  0.00     0.031 C 
ATOM     39  C   UNL A   1      42.886  33.676  32.017  1.00  0.00     0.037 A 
BRANCH  26  40
ATOM     40  C   UNL A   1      46.555  28.933  30.523  1.00  0.00     0.064 A 
ATOM     41  C   UNL A   1      47.447  29.086  29.449  1.00  0.00     0.173 A 
ATOM     42  C   UNL A   1      46.975  28.156  31.613  1.00  0.00     0.173 A 
ATOM     43  F   UNL A   1      47.094  29.811  28.376  1.00  0.00    -0.203 F 
ATOM     44  C   UNL A   1      48.700  28.479  29.460  1.00  0.00     0.198 A 
ATOM     45  C   UNL A   1      48.243  27.578  31.636  1.00  0.00     0.198 A 
ATOM     46  F   UNL A   1      46.168  27.983  32.670  1.00  0.00    -0.203 F 
ATOM     47  F   UNL A   1      49.518  28.615  28.408  1.00  0.00    -0.200 F 
ATOM     48  C   UNL A   1      49.100  27.733  30.557  1.00  0.00     0.200 A 
ATOM     49  F   UNL A   1      48.638  26.879  32.710  1.00  0.00    -0.200 F 
ATOM     50  F   UNL A   1      50.313  27.165  30.577  1.00  0.00    -0.200 F 
ENDBRANCH  26  40
BRANCH  27  51
ATOM     51  C   UNL A   1      37.236  32.522  30.129  1.00  0.00     0.064 A 
ATOM     52  C   UNL A   1      36.816  33.395  29.114  1.00  0.00     0.173 A 
ATOM     53  C   UNL A   1      36.326  32.219  31.150  1.00  0.00     0.173 A 
ATOM     54  F   UNL A   1      37.656  33.724  28.121  1.00  0.00    -0.203 F 
ATOM     55  C   UNL A   1      35.550  33.975  29.142  1.00  0.00     0.198 A 
ATOM     56  C   UNL A   1      35.050  32.778  31.162  1.00  0.00     0.198 A 
ATOM     57  F   UNL A   1      36.678  31.379  32.134  1.00  0.00    -0.203 F 
ATOM     58  F   UNL A   1      35.193  34.849  28.192  1.00  0.00    -0.200 F 
ATOM     59  C   UNL A   1      34.667  33.666  30.167  1.00  0.00     0.200 A 
ATOM     60  F   UNL A   1      34.195  32.466  32.145  1.00  0.00    -0.200 F 
ATOM     61  F   UNL A   1      33.453  34.229  30.199  1.00  0.00    -0.200 F 
ENDBRANCH  27  51
BRANCH  39  62
ATOM     62  C   UNL A   1      43.281  34.941  32.721  1.00  0.00     0.064 A 
ATOM     63  C   UNL A   1      43.206  35.016  34.123  1.00  0.00     0.173 A 
ATOM     64  C   UNL A   1      43.597  36.108  32.016  1.00  0.00     0.173 A 
ATOM     65  F   UNL A   1      42.900  33.925  34.842  1.00  0.00    -0.203 F 
ATOM     66  C   UNL A   1      43.398  36.223  34.786  1.00  0.00     0.198 A 
ATOM     67  C   UNL A   1      43.817  37.310  32.686  1.00  0.00     0.198 A 
ATOM     68  F   UNL A   1      43.693  36.085  30.679  1.00  0.00    -0.203 F 
ATOM     69  F   UNL A   1      43.266  36.281  36.119  1.00  0.00    -0.200 F 
ATOM     70  C   UNL A   1      43.701  37.370  34.068  1.00  0.00     0.200 A 
ATOM     71  F   UNL A   1      44.129  38.414  31.994  1.00  0.00    -0.200 F 
ATOM     72  F   UNL A   1      43.876  38.534  34.707  1.00  0.00    -0.200 F 
ENDBRANCH  39  62
ENDBRANCH  13  14
ENDBRANCH   6   8
ENDBRANCH   3   4
ENDBRANCH   2   3
ENDBRANCH   1   2
BRANCH   1  73
ATOM     73  C   UNL A   1      34.240  21.472  24.964  1.00  0.00     0.002 C 
BRANCH  73  74
ATOM     74  C   UNL A   1      34.118  21.320  26.484  1.00  0.00     0.021 C 
BRANCH  74  75
ATOM     75  C   UNL A   1      33.664  22.583  27.208  1.00  0.00     0.116 C 
BRANCH  75  76
ATOM     76  N   UNL A   1      32.279  22.490  27.621  1.00  0.00    -0.356 N 
ATOM     77  C   UNL A   1      31.179  23.085  27.077  1.00  0.00     0.224 C 
ATOM     78  H   UNL A   1      32.107  21.918  28.403  1.00  0.00     0.163 HD
ATOM     79  O   UNL A   1      30.092  22.910  27.625  1.00  0.00    -0.275 OA
BRANCH  77  80
ATOM     80  C   UNL A   1      31.342  23.891  25.804  1.00  0.00     0.098 C 
ATOM     81  C   UNL A   1      31.142  22.988  24.573  1.00  0.00     0.017 C 
ATOM     82  C   UNL A   1      30.332  25.037  25.781  1.00  0.00     0.131 C 
ATOM     83  C   UNL A   1      31.237  23.800  23.282  1.00  0.00     0.022 C 
ATOM     84  N   UNL A   1      30.398  25.726  24.496  1.00  0.00    -0.356 N 
ATOM     85  C   UNL A   1      30.231  24.951  23.278  1.00  0.00     0.118 C 
BRANCH  84  86
ATOM     86  C   UNL A   1      30.661  27.074  24.473  1.00  0.00     0.133 A 
ATOM     87  C   UNL A   1      29.951  27.900  23.627  1.00  0.00     0.077 A 
ATOM     88  N   UNL A   1      31.576  27.565  25.321  1.00  0.00    -0.211 NA
ATOM     89  C   UNL A   1      30.181  29.259  23.717  1.00  0.00     0.095 A 
ATOM     90  C   UNL A   1      31.768  28.897  25.317  1.00  0.00     0.165 A 
ATOM     91  N   UNL A   1      31.103  29.773  24.552  1.00  0.00    -0.226 NA
BRANCH  89  92
ATOM     92  C   UNL A   1      29.361  30.213  22.957  1.00  0.00     0.089 A 
ATOM     93  C   UNL A   1      28.866  31.372  23.558  1.00  0.00     0.030 A 
ATOM     94  N   UNL A   1      29.092  29.899  21.664  1.00  0.00    -0.255 NA
ATOM     95  C   UNL A   1      28.079  32.243  22.810  1.00  0.00     0.004 A 
ATOM     96  C   UNL A   1      28.336  30.767  20.958  1.00  0.00     0.112 A 
ATOM     97  C   UNL A   1      27.809  31.936  21.482  1.00  0.00     0.020 A 
ENDBRANCH  89  92
BRANCH  90  98
ATOM     98  C   UNL A   1      32.812  29.428  26.186  1.00  0.00     0.055 A 
ATOM     99  C   UNL A   1      34.026  28.740  26.369  1.00  0.00     0.015 A 
ATOM    100  C   UNL A   1      32.648  30.648  26.848  1.00  0.00     0.134 A 
ATOM    101  C   UNL A   1      35.041  29.272  27.172  1.00  0.00     0.001 A 
ATOM    102  C   UNL A   1      33.651  31.180  27.659  1.00  0.00     0.040 A 
ATOM    103  F   UNL A   1      31.499  31.333  26.737  1.00  0.00    -0.206 F 
ATOM    104  C   UNL A   1      34.854  30.494  27.817  1.00  0.00     0.003 A 
ENDBRANCH  90  98
ENDBRANCH  84  86
ENDBRANCH  77  80
ENDBRANCH  75  76
ENDBRANCH  74  75
ENDBRANCH  73  74
ENDBRANCH   1  73
TORSDOF 16
ENDMDL
MODEL 2
REMARK VINA RESULT:     -13.7      3.724      9.591
REMARK SMILES O=C(NCCCCCCNC(=O)[C@H]1CCCN(c2cc(-c3ccccn3)nc(-c3ccccc3F)n2)C1)c1ccc(-c2c3nc(c(-c4c(F)c(F)c(F)c(F)c4F)c4ccc([nH]4)c(-c4c(F)c(F)c(F)c(F)c4F)c4nc(c(-c5c(F)c(F)c(F)c(F)c5F)c5ccc2[nH]5)C=C4)C=C3)cc1
REMARK SMILES IDX 6 1 5 2 4 3 3 4 1 5 2 6 38 8 39 9 100 10 40 11 99 12 41 13
REMARK SMILES IDX 42 14 43 15 93 16 44 17 98 18 92 19 94 20 45 21 97 22 91 23
REMARK SMILES IDX 90 24 46 26 78 27 58 28 77 29 59 30 62 31 76 32 95 33 60 34
REMARK SMILES IDX 61 35 75 37 96 38 63 39 47 40 48 41 56 42 49 43 50 44 54 45
REMARK SMILES IDX 57 46 51 47 52 48 55 49 53 50 79 51 80 52 88 53 81 54 82 55
REMARK SMILES IDX 86 56 89 57 83 58 84 59 87 60 85 61 64 62 65 63 73 64 66 65
REMARK SMILES IDX 67 66 71 67 74 68 68 69 69 70 72 71 70 72 7 73 8 74 9 75
REMARK SMILES IDX 10 76 11 77 12 79 13 80 14 81 37 82 15 83 17 84 16 85 18 86
REMARK SMILES IDX 19 87 36 88 20 89 28 90 27 91 21 92 22 93 26 94 23 95 25 96
REMARK SMILES IDX 24 97 29 98 30 99 34 100 31 101 33 102 35 103 32 104
REMARK H PARENT 3 7 94 25 62 36 10 78
REMARK Flexibility Score: inf
ROOT
ATOM      1  C   UNL A   1      32.330  27.334  25.481  1.00  0.00     0.002 C 
ENDROOT
BRANCH   1   2
ATOM      2  C   UNL A   1      33.059  27.846  26.724  1.00  0.00     0.021 C 
BRANCH   2   3
ATOM      3  C   UNL A   1      34.240  28.764  26.432  1.00  0.00     0.116 C 
BRANCH   3   4
ATOM      4  N   UNL A   1      33.974  30.138  26.823  1.00  0.00    -0.352 N 
ATOM      5  O   UNL A   1      34.154  31.999  28.085  1.00  0.00    -0.269 OA
ATOM      6  C   UNL A   1      34.631  30.922  27.734  1.00  0.00     0.251 C 
ATOM      7  H   UNL A   1      33.214  30.566  26.368  1.00  0.00     0.163 HD
BRANCH   6   8
ATOM      8  C   UNL A   1      35.908  30.461  28.314  1.00  0.00     0.039 A 
ATOM      9  C   UNL A   1      37.126  30.756  27.693  1.00  0.00     0.014 A 
ATOM     10  C   UNL A   1      35.882  29.738  29.508  1.00  0.00     0.014 A 
ATOM     11  C   UNL A   1      38.307  30.225  28.199  1.00  0.00     0.010 A 
ATOM     12  C   UNL A   1      37.077  29.272  30.058  1.00  0.00     0.010 A 
ATOM     13  C   UNL A   1      38.295  29.491  29.395  1.00  0.00    -0.014 A 
BRANCH  13  14
ATOM     14  C   UNL A   1      39.562  28.997  29.985  1.00  0.00     0.031 A 
ATOM     15  C   UNL A   1      40.189  29.700  31.152  1.00  0.00     0.074 A 
ATOM     16  C   UNL A   1      40.166  27.927  29.435  1.00  0.00     0.049 A 
ATOM     17  N   UNL A   1      41.340  29.475  31.731  1.00  0.00    -0.248 NA
ATOM     18  C   UNL A   1      39.427  30.810  31.742  1.00  0.00     0.031 C 
ATOM     19  C   UNL A   1      39.642  27.158  28.305  1.00  0.00     0.029 A 
ATOM     20  N   UNL A   1      41.350  27.307  29.740  1.00  0.00    -0.354 N 
ATOM     21  C   UNL A   1      41.453  30.426  32.735  1.00  0.00     0.074 A 
ATOM     22  C   UNL A   1      40.264  31.249  32.674  1.00  0.00     0.031 C 
ATOM     23  C   UNL A   1      40.491  26.161  28.023  1.00  0.00     0.029 A 
ATOM     24  C   UNL A   1      41.651  26.262  28.903  1.00  0.00     0.049 A 
ATOM     25  H   UNL A   1      41.928  27.584  30.487  1.00  0.00     0.167 HD
ATOM     26  C   UNL A   1      42.459  30.589  33.628  1.00  0.00     0.037 A 
ATOM     27  C   UNL A   1      42.752  25.490  28.826  1.00  0.00     0.037 A 
ATOM     28  C   UNL A   1      43.632  29.754  33.683  1.00  0.00     0.049 A 
ATOM     29  C   UNL A   1      43.881  25.726  29.787  1.00  0.00     0.074 A 
ATOM     30  C   UNL A   1      44.687  29.811  34.576  1.00  0.00     0.029 A 
ATOM     31  N   UNL A   1      43.912  28.720  32.800  1.00  0.00    -0.354 N 
ATOM     32  N   UNL A   1      43.969  26.610  30.750  1.00  0.00    -0.248 NA
ATOM     33  C   UNL A   1      45.062  24.864  29.653  1.00  0.00     0.031 C 
ATOM     34  C   UNL A   1      45.635  28.861  34.193  1.00  0.00     0.029 A 
ATOM     35  C   UNL A   1      45.139  28.156  33.107  1.00  0.00     0.049 A 
ATOM     36  H   UNL A   1      43.325  28.430  32.064  1.00  0.00     0.167 HD
ATOM     37  C   UNL A   1      45.199  26.398  31.354  1.00  0.00     0.074 A 
ATOM     38  C   UNL A   1      45.825  25.299  30.649  1.00  0.00     0.031 C 
ATOM     39  C   UNL A   1      45.749  27.053  32.405  1.00  0.00     0.037 A 
BRANCH  26  40
ATOM     40  C   UNL A   1      42.356  31.724  34.606  1.00  0.00     0.064 A 
ATOM     41  C   UNL A   1      41.690  31.546  35.830  1.00  0.00     0.173 A 
ATOM     42  C   UNL A   1      42.858  33.002  34.317  1.00  0.00     0.173 A 
ATOM     43  F   UNL A   1      41.181  30.348  36.155  1.00  0.00    -0.203 F 
ATOM     44  C   UNL A   1      41.525  32.604  36.721  1.00  0.00     0.198 A 
ATOM     45  C   UNL A   1      42.721  34.049  35.226  1.00  0.00     0.198 A 
ATOM     46  F   UNL A   1      43.509  33.227  33.166  1.00  0.00    -0.203 F 
ATOM     47  F   UNL A   1      40.859  32.414  37.867  1.00  0.00    -0.200 F 
ATOM     48  C   UNL A   1      42.048  33.852  36.421  1.00  0.00     0.200 A 
ATOM     49  F   UNL A   1      43.251  35.248  34.946  1.00  0.00    -0.200 F 
ATOM     50  F   UNL A   1      41.907  34.864  37.287  1.00  0.00    -0.200 F 
ENDBRANCH  26  40
BRANCH  27  51
ATOM     51  C   UNL A   1      42.807  24.424  27.795  1.00  0.00     0.064 A 
ATOM     52  C   UNL A   1      42.480  23.095  28.103  1.00  0.00     0.173 A 
ATOM     53  C   UNL A   1      43.282  24.699  26.506  1.00  0.00     0.173 A 
ATOM     54  F   UNL A   1      42.031  22.780  29.327  1.00  0.00    -0.203 F 
ATOM     55  C   UNL A   1      42.663  22.075  27.172  1.00  0.00     0.198 A 
ATOM     56  C   UNL A   1      43.439  23.682  25.567  1.00  0.00     0.198 A 
ATOM     57  F   UNL A   1      43.595  25.957  26.162  1.00  0.00    -0.203 F 
ATOM     58  F   UNL A   1      42.397  20.806  27.510  1.00  0.00    -0.200 F 
ATOM     59  C   UNL A   1      43.143  22.370  25.905  1.00  0.00     0.200 A 
ATOM     60  F   UNL A   1      43.888  23.973  24.339  1.00  0.00    -0.200 F 
ATOM     61  F   UNL A   1      43.325  21.388  25.012  1.00  0.00    -0.200 F 
ENDBRANCH  27  51
BRANCH  39  62
ATOM     62  C   UNL A   1      47.088  26.591  32.902  1.00  0.00     0.064 A 
ATOM     63  C   UNL A   1      48.263  27.171  32.395  1.00  0.00     0.173 A 
ATOM     64  C   UNL A   1      47.215  25.497  33.766  1.00  0.00     0.173 A 
ATOM     65  F   UNL A   1      48.193  28.218  31.558  1.00  0.00    -0.203 F 
ATOM     66  C   UNL A   1      49.512  26.647  32.708  1.00  0.00     0.198 A 
ATOM     67  C   UNL A   1      48.470  24.992  34.100  1.00  0.00     0.198 A 
ATOM     68  F   UNL A   1      46.123  24.917  34.286  1.00  0.00    -0.203 F 
ATOM     69  F   UNL A   1      50.616  27.182  32.166  1.00  0.00    -0.200 F 
ATOM     70  C   UNL A   1      49.616  25.557  33.557  1.00  0.00     0.200 A 
ATOM     71  F   UNL A   1      48.570  23.950  34.937  1.00  0.00    -0.200 F 
ATOM     72  F   UNL A   1      50.819  25.045  33.850  1.00  0.00    -0.200 F 
ENDBRANCH  39  62
ENDBRANCH  13  14
ENDBRANCH   6   8
ENDBRANCH   3   4
ENDBRANCH   2   3
ENDBRANCH   1   2
BRANCH   1  73
ATOM     73  C   UNL A   1      31.528  28.393  24.717  1.00  0.00     0.002 C 
BRANCH  73  74
ATOM     74  C   UNL A   1      32.078  28.758  23.334  1.00  0.00     0.021 C 
BRANCH  74  75
ATOM     75  C   UNL A   1      33.357  28.021  22.952  1.00  0.00     0.116 C 
BRANCH  75  76
ATOM     76  N   UNL A   1      33.241  27.398  21.649  1.00  0.00    -0.356 N 
ATOM     77  C   UNL A   1      32.985  26.095  21.340  1.00  0.00     0.224 C 
ATOM     78  H   UNL A   1      33.365  27.998  20.879  1.00  0.00     0.163 HD
ATOM     79  O   UNL A   1      32.983  25.766  20.155  1.00  0.00    -0.275 OA
BRANCH  77  80
ATOM     80  C   UNL A   1      32.670  25.129  22.466  1.00  0.00     0.098 C 
ATOM     81  C   UNL A   1      31.173  25.195  22.819  1.00  0.00     0.017 C 
ATOM     82  C   UNL A   1      33.046  23.707  22.050  1.00  0.00     0.131 C 
ATOM     83  C   UNL A   1      30.827  24.178  23.906  1.00  0.00     0.022 C 
ATOM     84  N   UNL A   1      32.616  22.765  23.078  1.00  0.00    -0.356 N 
ATOM     85  C   UNL A   1      31.221  22.762  23.485  1.00  0.00     0.118 C 
BRANCH  84  86
ATOM     86  C   UNL A   1      33.548  21.940  23.662  1.00  0.00     0.133 A 
ATOM     87  C   UNL A   1      34.752  22.457  24.090  1.00  0.00     0.077 A 
ATOM     88  N   UNL A   1      33.236  20.649  23.849  1.00  0.00    -0.211 NA
ATOM     89  C   UNL A   1      35.610  21.609  24.762  1.00  0.00     0.095 A 
ATOM     90  C   UNL A   1      34.145  19.881  24.478  1.00  0.00     0.165 A 
ATOM     91  N   UNL A   1      35.324  20.306  24.951  1.00  0.00    -0.226 NA
BRANCH  89  92
ATOM     92  C   UNL A   1      36.844  22.118  25.377  1.00  0.00     0.089 A 
ATOM     93  C   UNL A   1      36.924  23.430  25.848  1.00  0.00     0.030 A 
ATOM     94  N   UNL A   1      37.896  21.263  25.440  1.00  0.00    -0.255 NA
ATOM     95  C   UNL A   1      38.115  23.880  26.408  1.00  0.00     0.004 A 
ATOM     96  C   UNL A   1      39.037  21.723  25.999  1.00  0.00     0.112 A 
ATOM     97  C   UNL A   1      39.194  23.009  26.488  1.00  0.00     0.020 A 
ENDBRANCH  89  92
BRANCH  90  98
ATOM     98  C   UNL A   1      33.842  18.462  24.620  1.00  0.00     0.055 A 
ATOM     99  C   UNL A   1      34.361  17.513  23.719  1.00  0.00     0.015 A 
ATOM    100  C   UNL A   1      33.042  17.996  25.667  1.00  0.00     0.134 A 
ATOM    101  C   UNL A   1      34.100  16.148  23.881  1.00  0.00     0.001 A 
ATOM    102  C   UNL A   1      32.768  16.638  25.829  1.00  0.00     0.040 A 
ATOM    103  F   UNL A   1      32.492  18.858  26.538  1.00  0.00    -0.206 F 
ATOM    104  C   UNL A   1      33.303  15.710  24.938  1.00  0.00     0.003 A 
ENDBRANCH  90  98
ENDBRANCH  84  86
ENDBRANCH  77  80
ENDBRANCH  75  76
ENDBRANCH  74  75
ENDBRANCH  73  74
ENDBRANCH   1  73
TORSDOF 16
ENDMDL
MODEL 3
REMARK VINA RESULT:     -13.4      3.958      8.242
REMARK SMILES O=C(NCCCCCCNC(=O)[C@H]1CCCN(c2cc(-c3ccccn3)nc(-c3ccccc3F)n2)C1)c1ccc(-c2c3nc(c(-c4c(F)c(F)c(F)c(F)c4F)c4ccc([nH]4)c(-c4c(F)c(F)c(F)c(F)c4F)c4nc(c(-c5c(F)c(F)c(F)c(F)c5F)c5ccc2[nH]5)C=C4)C=C3)cc1
REMARK SMILES IDX 6 1 5 2 4 3 3 4 1 5 2 6 38 8 39 9 100 10 40 11 99 12 41 13
REMARK SMILES IDX 42 14 43 15 93 16 44 17 98 18 92 19 94 20 45 21 97 22 91 23
REMARK SMILES IDX 90 24 46 26 78 27 58 28 77 29 59 30 62 31 76 32 95 33 60 34
REMARK SMILES IDX 61 35 75 37 96 38 63 39 47 40 48 41 56 42 49 43 50 44 54 45
REMARK SMILES IDX 57 46 51 47 52 48 55 49 53 50 79 51 80 52 88 53 81 54 82 55
REMARK SMILES IDX 86 56 89 57 83 58 84 59 87 60 85 61 64 62 65 63 73 64 66 65
REMARK SMILES IDX 67 66 71 67 74 68 68 69 69 70 72 71 70 72 7 73 8 74 9 75
REMARK SMILES IDX 10 76 11 77 12 79 13 80 14 81 37 82 15 83 17 84 16 85 18 86
REMARK SMILES IDX 19 87 36 88 20 89 28 90 27 91 21 92 22 93 26 94 23 95 25 96
REMARK SMILES IDX 24 97 29 98 30 99 34 100 31 101 33 102 35 103 32 104
REMARK H PARENT 3 7 94 25 62 36 10 78
REMARK Flexibility Score: inf
ROOT
ATOM      1  C   UNL A   1      31.977  27.454  25.292  1.00  0.00     0.002 C 
ENDROOT
BRANCH   1   2
ATOM      2  C   UNL A   1      32.772  28.033  26.465  1.00  0.00     0.021 C 
BRANCH   2   3
ATOM      3  C   UNL A   1      33.829  29.056  26.068  1.00  0.00     0.116 C 
BRANCH   3   4
ATOM      4  N   UNL A   1      33.399  30.418  26.331  1.00  0.00    -0.352 N 
ATOM      5  O   UNL A   1      33.259  32.357  27.476  1.00  0.00    -0.269 OA
ATOM      6  C   UNL A   1      33.867  31.313  27.257  1.00  0.00     0.251 C 
ATOM      7  H   UNL A   1      32.665  30.746  25.763  1.00  0.00     0.163 HD
BRANCH   6   8
ATOM      8  C   UNL A   1      35.100  31.009  28.011  1.00  0.00     0.039 A 
ATOM      9  C   UNL A   1      36.167  31.913  28.037  1.00  0.00     0.014 A 
ATOM     10  C   UNL A   1      35.178  29.807  28.717  1.00  0.00     0.014 A 
ATOM     11  C   UNL A   1      37.356  31.563  28.667  1.00  0.00     0.010 A 
ATOM     12  C   UNL A   1      36.344  29.491  29.415  1.00  0.00     0.010 A 
ATOM     13  C   UNL A   1      37.450  30.356  29.375  1.00  0.00    -0.014 A 
BRANCH  13  14
ATOM     14  C   UNL A   1      38.686  30.017  30.121  1.00  0.00     0.031 A 
ATOM     15  C   UNL A   1      39.701  29.081  29.537  1.00  0.00     0.074 A 
ATOM     16  C   UNL A   1      38.868  30.533  31.351  1.00  0.00     0.049 A 
ATOM     17  N   UNL A   1      40.785  28.593  30.083  1.00  0.00    -0.248 NA
ATOM     18  C   UNL A   1      39.465  28.626  28.158  1.00  0.00     0.031 C 
ATOM     19  C   UNL A   1      37.953  31.463  32.014  1.00  0.00     0.029 A 
ATOM     20  N   UNL A   1      39.873  30.345  32.264  1.00  0.00    -0.354 N 
ATOM     21  C   UNL A   1      41.346  27.756  29.129  1.00  0.00     0.074 A 
ATOM     22  C   UNL A   1      40.472  27.782  27.976  1.00  0.00     0.031 C 
ATOM     23  C   UNL A   1      38.445  31.776  33.221  1.00  0.00     0.029 A 
ATOM     24  C   UNL A   1      39.671  31.017  33.444  1.00  0.00     0.049 A 
ATOM     25  H   UNL A   1      40.662  29.783  32.091  1.00  0.00     0.167 HD
ATOM     26  C   UNL A   1      42.492  27.036  29.213  1.00  0.00     0.037 A 
ATOM     27  C   UNL A   1      40.374  31.001  34.592  1.00  0.00     0.037 A 
ATOM     28  C   UNL A   1      43.357  27.029  30.365  1.00  0.00     0.049 A 
ATOM     29  C   UNL A   1      41.608  30.151  34.685  1.00  0.00     0.074 A 
ATOM     30  C   UNL A   1      44.560  26.368  30.532  1.00  0.00     0.029 A 
ATOM     31  N   UNL A   1      43.104  27.705  31.551  1.00  0.00    -0.354 N 
ATOM     32  N   UNL A   1      42.146  29.383  33.770  1.00  0.00    -0.248 NA
ATOM     33  C   UNL A   1      42.332  30.161  35.963  1.00  0.00     0.031 C 
ATOM     34  C   UNL A   1      45.000  26.585  31.839  1.00  0.00     0.029 A 
ATOM     35  C   UNL A   1      44.112  27.447  32.466  1.00  0.00     0.049 A 
ATOM     36  H   UNL A   1      42.324  28.282  31.718  1.00  0.00     0.167 HD
ATOM     37  C   UNL A   1      43.283  28.837  34.348  1.00  0.00     0.074 A 
ATOM     38  C   UNL A   1      43.358  29.363  35.696  1.00  0.00     0.031 C 
ATOM     39  C   UNL A   1      44.184  27.984  33.802  1.00  0.00     0.037 A 
BRANCH  26  40
ATOM     40  C   UNL A   1      42.870  26.176  28.042  1.00  0.00     0.064 A 
ATOM     41  C   UNL A   1      43.643  26.705  26.994  1.00  0.00     0.173 A 
ATOM     42  C   UNL A   1      42.426  24.851  27.919  1.00  0.00     0.173 A 
ATOM     43  F   UNL A   1      44.086  27.971  27.054  1.00  0.00    -0.203 F 
ATOM     44  C   UNL A   1      43.948  25.944  25.869  1.00  0.00     0.198 A 
ATOM     45  C   UNL A   1      42.763  24.082  26.807  1.00  0.00     0.198 A 
ATOM     46  F   UNL A   1      41.693  24.292  28.892  1.00  0.00    -0.203 F 
ATOM     47  F   UNL A   1      44.659  26.484  24.870  1.00  0.00    -0.200 F 
ATOM     48  C   UNL A   1      43.515  24.631  25.780  1.00  0.00     0.200 A 
ATOM     49  F   UNL A   1      42.366  22.803  26.736  1.00  0.00    -0.200 F 
ATOM     50  F   UNL A   1      43.826  23.892  24.706  1.00  0.00    -0.200 F 
ENDBRANCH  26  40
BRANCH  27  51
ATOM     51  C   UNL A   1      39.906  31.833  35.729  1.00  0.00     0.064 A 
ATOM     52  C   UNL A   1      38.819  31.436  36.523  1.00  0.00     0.173 A 
ATOM     53  C   UNL A   1      40.475  33.088  35.979  1.00  0.00     0.173 A 
ATOM     54  F   UNL A   1      38.234  30.247  36.315  1.00  0.00    -0.203 F 
ATOM     55  C   UNL A   1      38.297  32.280  37.500  1.00  0.00     0.198 A 
ATOM     56  C   UNL A   1      39.968  33.920  36.974  1.00  0.00     0.198 A 
ATOM     57  F   UNL A   1      41.523  33.505  35.253  1.00  0.00    -0.203 F 
ATOM     58  F   UNL A   1      37.224  31.900  38.207  1.00  0.00    -0.200 F 
ATOM     59  C   UNL A   1      38.871  33.522  37.725  1.00  0.00     0.200 A 
ATOM     60  F   UNL A   1      40.536  35.113  37.199  1.00  0.00    -0.200 F 
ATOM     61  F   UNL A   1      38.365  34.336  38.659  1.00  0.00    -0.200 F 
ENDBRANCH  27  51
BRANCH  39  62
ATOM     62  C   UNL A   1      45.365  27.578  34.633  1.00  0.00     0.064 A 
ATOM     63  C   UNL A   1      45.273  26.467  35.489  1.00  0.00     0.173 A 
ATOM     64  C   UNL A   1      46.529  28.355  34.688  1.00  0.00     0.173 A 
ATOM     65  F   UNL A   1      44.175  25.695  35.478  1.00  0.00    -0.203 F 
ATOM     66  C   UNL A   1      46.288  26.174  36.393  1.00  0.00     0.198 A 
ATOM     67  C   UNL A   1      47.556  28.042  35.576  1.00  0.00     0.198 A 
ATOM     68  F   UNL A   1      46.670  29.418  33.883  1.00  0.00    -0.203 F 
ATOM     69  F   UNL A   1      46.152  25.143  37.239  1.00  0.00    -0.200 F 
ATOM     70  C   UNL A   1      47.427  26.962  36.439  1.00  0.00     0.200 A 
ATOM     71  F   UNL A   1      48.666  28.792  35.606  1.00  0.00    -0.200 F 
ATOM     72  F   UNL A   1      48.400  26.685  37.317  1.00  0.00    -0.200 F 
ENDBRANCH  39  62
ENDBRANCH  13  14
ENDBRANCH   6   8
ENDBRANCH   3   4
ENDBRANCH   2   3
ENDBRANCH   1   2
BRANCH   1  73
ATOM     73  C   UNL A   1      31.209  28.484  24.458  1.00  0.00     0.002 C 
BRANCH  73  74
ATOM     74  C   UNL A   1      31.733  28.693  23.033  1.00  0.00     0.021 C 
BRANCH  74  75
ATOM     75  C   UNL A   1      33.082  28.037  22.757  1.00  0.00     0.116 C 
BRANCH  75  76
ATOM     76  N   UNL A   1      33.080  27.332  21.492  1.00  0.00    -0.356 N 
ATOM     77  C   UNL A   1      32.934  25.998  21.253  1.00  0.00     0.224 C 
ATOM     78  H   UNL A   1      33.201  27.894  20.693  1.00  0.00     0.163 HD
ATOM     79  O   UNL A   1      33.019  25.601  20.092  1.00  0.00    -0.275 OA
BRANCH  77  80
ATOM     80  C   UNL A   1      32.630  25.079  22.420  1.00  0.00     0.098 C 
ATOM     81  C   UNL A   1      31.127  25.120  22.751  1.00  0.00     0.017 C 
ATOM     82  C   UNL A   1      33.051  23.650  22.079  1.00  0.00     0.131 C 
ATOM     83  C   UNL A   1      30.794  24.147  23.881  1.00  0.00     0.022 C 
ATOM     84  N   UNL A   1      32.632  22.746  23.146  1.00  0.00    -0.356 N 
ATOM     85  C   UNL A   1      31.232  22.724  23.534  1.00  0.00     0.118 C 
BRANCH  84  86
ATOM     86  C   UNL A   1      33.578  21.978  23.781  1.00  0.00     0.133 A 
ATOM     87  C   UNL A   1      34.764  22.547  24.194  1.00  0.00     0.077 A 
ATOM     88  N   UNL A   1      33.298  20.690  24.031  1.00  0.00    -0.211 NA
ATOM     89  C   UNL A   1      35.635  21.757  24.918  1.00  0.00     0.095 A 
ATOM     90  C   UNL A   1      34.219  19.979  24.707  1.00  0.00     0.165 A 
ATOM     91  N   UNL A   1      35.381  20.459  25.171  1.00  0.00    -0.226 NA
BRANCH  89  92
ATOM     92  C   UNL A   1      36.848  22.329  25.519  1.00  0.00     0.089 A 
ATOM     93  C   UNL A   1      36.892  23.668  25.914  1.00  0.00     0.030 A 
ATOM     94  N   UNL A   1      37.918  21.504  25.646  1.00  0.00    -0.255 NA
ATOM     95  C   UNL A   1      38.065  24.176  26.464  1.00  0.00     0.004 A 
ATOM     96  C   UNL A   1      39.040  22.021  26.194  1.00  0.00     0.112 A 
ATOM     97  C   UNL A   1      39.161  23.337  26.609  1.00  0.00     0.020 A 
ENDBRANCH  89  92
BRANCH  90  98
ATOM     98  C   UNL A   1      33.951  18.561  24.918  1.00  0.00     0.055 A 
ATOM     99  C   UNL A   1      32.684  18.114  25.336  1.00  0.00     0.015 A 
ATOM    100  C   UNL A   1      34.940  17.599  24.692  1.00  0.00     0.134 A 
ATOM    101  C   UNL A   1      32.420  16.749  25.499  1.00  0.00     0.001 A 
ATOM    102  C   UNL A   1      34.688  16.238  24.864  1.00  0.00     0.040 A 
ATOM    103  F   UNL A   1      36.177  17.969  24.325  1.00  0.00    -0.206 F 
ATOM    104  C   UNL A   1      33.423  15.810  25.262  1.00  0.00     0.003 A 
ENDBRANCH  90  98
ENDBRANCH  84  86
ENDBRANCH  77  80
ENDBRANCH  75  76
ENDBRANCH  74  75
ENDBRANCH  73  74
ENDBRANCH   1  73
TORSDOF 16
ENDMDL
