MODEL 1
REMARK VINA RESULT:     -12.9      0.000      0.000
REMARK SMILES CCOC(=O)[C@H]1CCCN(c2cc(C(=O)NCCCCCCNC(=O)c3ccc(-c4c5nc(c(-c6c(F)c(F)c(F)c(F)c6F)c6ccc([nH]6)c(-c6c(F)c(F)c(F)c(F)c6F)c6nc(c(-c7c(F)c(F)c(F)c(F)c7F)c7ccc4[nH]7)C=C6)C=C5)cc3)c3cc(NC(=O)c4ccc(Cl)cc4)ccc3n2)C1
REMARK SMILES IDX 18 1 17 2 16 3 14 4 15 5 13 7 11 8 12 9 105 10 104 11 89 12
REMARK SMILES IDX 103 13 90 14 102 15 91 16 10 17 6 18 7 19 106 20 8 21 9 22
REMARK SMILES IDX 4 23 5 24 3 25 2 26 1 27 92 28 93 29 94 31 95 32 96 33
REMARK SMILES IDX 101 34 97 35 100 36 98 37 99 38 19 39 20 40 21 41 22 42
REMARK SMILES IDX 23 43 24 44 25 46 26 47 27 48 88 49 28 50 87 51 29 52 30 53
REMARK SMILES IDX 31 54 81 55 32 56 86 57 80 58 82 59 33 60 85 61 79 62 78 63
REMARK SMILES IDX 34 65 66 66 46 67 65 68 47 69 50 70 64 71 83 72 48 73 49 74
REMARK SMILES IDX 63 76 84 77 51 78 35 79 36 80 44 81 37 82 38 83 42 84 45 85
REMARK SMILES IDX 39 86 40 87 43 88 41 89 67 90 68 91 76 92 69 93 70 94 74 95
REMARK SMILES IDX 77 96 71 97 72 98 75 99 73 100 52 101 53 102 61 103 54 104
REMARK SMILES IDX 55 105 59 106 62 107 56 108 57 109 60 110 58 111
REMARK H PARENT 16 6 92 30 23 45 82 64 50 75
REMARK Flexibility Score: inf
ROOT
ATOM      1  C   UNL A   1      39.521  23.431  26.755  1.00  0.00     0.021 C 
ENDROOT
BRANCH   1   2
ATOM      2  C   UNL A   1      38.049  23.771  26.496  1.00  0.00     0.116 C 
BRANCH   2   3
ATOM      3  N   UNL A   1      37.638  23.814  25.099  1.00  0.00    -0.352 N 
ATOM      4  C   UNL A   1      36.470  23.533  24.413  1.00  0.00     0.252 C 
ATOM      5  O   UNL A   1      36.520  23.739  23.195  1.00  0.00    -0.269 OA
ATOM      6  H   UNL A   1      38.362  24.114  24.503  1.00  0.00     0.163 HD
BRANCH   4   7
ATOM      7  C   UNL A   1      35.177  22.981  24.960  1.00  0.00     0.052 A 
ATOM      8  C   UNL A   1      33.698  21.044  24.939  1.00  0.00     0.130 A 
ATOM      9  C   UNL A   1      34.922  21.637  24.635  1.00  0.00     0.061 A 
ATOM     10  N   UNL A   1      32.784  21.693  25.681  1.00  0.00    -0.231 NA
ATOM     11  C   UNL A   1      32.988  22.976  25.997  1.00  0.00     0.074 A 
ATOM     12  C   UNL A   1      34.126  23.688  25.570  1.00  0.00     0.015 A 
ATOM     13  C   UNL A   1      31.992  23.651  26.698  1.00  0.00     0.031 A 
ATOM     14  C   UNL A   1      34.072  25.079  25.665  1.00  0.00     0.037 A 
ATOM     15  C   UNL A   1      32.006  25.043  26.850  1.00  0.00     0.028 A 
ATOM     16  C   UNL A   1      33.007  25.772  26.230  1.00  0.00     0.042 A 
BRANCH   8  17
ATOM     17  N   UNL A   1      33.359  19.834  24.366  1.00  0.00    -0.356 N 
ATOM     18  C   UNL A   1      34.147  17.572  23.952  1.00  0.00     0.118 C 
ATOM     19  C   UNL A   1      33.043  17.410  22.896  1.00  0.00     0.019 C 
ATOM     20  C   UNL A   1      33.742  18.591  25.020  1.00  0.00     0.133 C 
ATOM     21  C   UNL A   1      32.570  18.758  22.343  1.00  0.00     0.022 C 
ATOM     22  C   UNL A   1      32.223  19.757  23.454  1.00  0.00     0.118 C 
BRANCH  18  23
ATOM     23  C   UNL A   1      34.459  16.262  24.641  1.00  0.00     0.310 C 
ATOM     24  O   UNL A   1      35.418  16.076  25.380  1.00  0.00    -0.252 OA
BRANCH  23  25
ATOM     25  O   UNL A   1      33.553  15.308  24.292  1.00  0.00    -0.466 OA
BRANCH  25  26
ATOM     26  C   UNL A   1      32.953  14.605  25.390  1.00  0.00     0.229 C 
ATOM     27  C   UNL A   1      32.018  15.525  26.153  1.00  0.00     0.049 C 
ENDBRANCH  25  26
ENDBRANCH  23  25
ENDBRANCH  18  23
ENDBRANCH   8  17
BRANCH  16  28
ATOM     28  N   UNL A   1      32.921  27.175  26.168  1.00  0.00    -0.322 N 
ATOM     29  C   UNL A   1      32.997  28.010  25.063  1.00  0.00     0.255 C 
ATOM     30  H   UNL A   1      32.788  27.629  27.033  1.00  0.00     0.170 HD
ATOM     31  O   UNL A   1      33.249  29.205  25.203  1.00  0.00    -0.269 OA
BRANCH  29  32
ATOM     32  C   UNL A   1      32.751  27.479  23.690  1.00  0.00     0.040 A 
ATOM     33  C   UNL A   1      33.782  27.560  22.749  1.00  0.00     0.015 A 
ATOM     34  C   UNL A   1      31.565  26.808  23.360  1.00  0.00     0.015 A 
ATOM     35  C   UNL A   1      33.685  26.870  21.538  1.00  0.00     0.021 A 
ATOM     36  C   UNL A   1      31.466  26.125  22.143  1.00  0.00     0.021 A 
ATOM     37  C   UNL A   1      32.535  26.139  21.248  1.00  0.00     0.041 A 
ATOM     38  Cl  UNL A   1      32.441  25.244  19.783  1.00  0.00    -0.084 Cl
ENDBRANCH  29  32
ENDBRANCH  16  28
ENDBRANCH   4   7
ENDBRANCH   2   3
ENDBRANCH   1   2
BRANCH   1  39
ATOM     39  C   UNL A   1      40.006  21.983  26.553  1.00  0.00     0.002 C 
BRANCH  39  40
ATOM     40  C   UNL A   1      41.370  21.522  27.090  1.00  0.00     0.002 C 
BRANCH  40  41
ATOM     41  C   UNL A   1      42.603  21.619  26.193  1.00  0.00     0.021 C 
BRANCH  41  42
ATOM     42  C   UNL A   1      42.592  22.671  25.093  1.00  0.00     0.116 C 
BRANCH  42  43
ATOM     43  N   UNL A   1      43.903  23.229  24.813  1.00  0.00    -0.352 N 
ATOM     44  C   UNL A   1      44.495  24.389  25.259  1.00  0.00     0.251 C 
ATOM     45  H   UNL A   1      44.460  22.690  24.206  1.00  0.00     0.163 HD
ATOM     46  O   UNL A   1      45.574  24.734  24.779  1.00  0.00    -0.269 OA
BRANCH  44  47
ATOM     47  C   UNL A   1      43.868  25.241  26.304  1.00  0.00     0.039 A 
ATOM     48  C   UNL A   1      44.088  26.626  26.266  1.00  0.00     0.014 A 
ATOM     49  C   UNL A   1      43.143  24.697  27.366  1.00  0.00     0.014 A 
ATOM     50  C   UNL A   1      43.561  27.455  27.264  1.00  0.00     0.010 A 
ATOM     51  C   UNL A   1      42.553  25.529  28.318  1.00  0.00     0.010 A 
ATOM     52  C   UNL A   1      42.781  26.914  28.295  1.00  0.00    -0.014 A 
BRANCH  52  53
ATOM     53  C   UNL A   1      42.265  27.754  29.409  1.00  0.00     0.031 A 
ATOM     54  C   UNL A   1      42.978  27.741  30.737  1.00  0.00     0.074 A 
ATOM     55  C   UNL A   1      41.136  28.472  29.258  1.00  0.00     0.049 A 
ATOM     56  N   UNL A   1      42.643  28.310  31.868  1.00  0.00    -0.248 NA
ATOM     57  C   UNL A   1      44.219  26.955  30.810  1.00  0.00     0.031 C 
ATOM     58  C   UNL A   1      40.335  28.538  28.037  1.00  0.00     0.029 A 
ATOM     59  N   UNL A   1      40.460  29.272  30.147  1.00  0.00    -0.354 N 
ATOM     60  C   UNL A   1      43.612  27.926  32.787  1.00  0.00     0.074 A 
ATOM     61  C   UNL A   1      44.523  27.040  32.096  1.00  0.00     0.031 C 
ATOM     62  C   UNL A   1      39.280  29.344  28.249  1.00  0.00     0.029 A 
ATOM     63  C   UNL A   1      39.316  29.827  29.627  1.00  0.00     0.049 A 
ATOM     64  H   UNL A   1      40.766  29.432  31.068  1.00  0.00     0.167 HD
ATOM     65  C   UNL A   1      43.744  28.296  34.084  1.00  0.00     0.037 A 
ATOM     66  C   UNL A   1      38.398  30.629  30.202  1.00  0.00     0.037 A 
ATOM     67  C   UNL A   1      42.864  29.214  34.756  1.00  0.00     0.049 A 
ATOM     68  C   UNL A   1      38.582  31.048  31.636  1.00  0.00     0.074 A 
ATOM     69  C   UNL A   1      42.947  29.704  36.047  1.00  0.00     0.029 A 
ATOM     70  N   UNL A   1      41.741  29.789  34.181  1.00  0.00    -0.354 N 
ATOM     71  N   UNL A   1      39.531  30.719  32.480  1.00  0.00    -0.248 NA
ATOM     72  C   UNL A   1      37.573  31.959  32.196  1.00  0.00     0.031 C 
ATOM     73  C   UNL A   1      41.854  30.549  36.265  1.00  0.00     0.029 A 
ATOM     74  C   UNL A   1      41.115  30.619  35.095  1.00  0.00     0.049 A 
ATOM     75  H   UNL A   1      41.434  29.631  33.258  1.00  0.00     0.167 HD
ATOM     76  C   UNL A   1      39.250  31.400  33.656  1.00  0.00     0.074 A 
ATOM     77  C   UNL A   1      38.047  32.171  33.416  1.00  0.00     0.031 C 
ATOM     78  C   UNL A   1      39.926  31.388  34.831  1.00  0.00     0.037 A 
BRANCH  65  79
ATOM     79  C   UNL A   1      44.890  27.710  34.860  1.00  0.00     0.064 A 
ATOM     80  C   UNL A   1      44.754  26.519  35.588  1.00  0.00     0.173 A 
ATOM     81  C   UNL A   1      46.147  28.333  34.849  1.00  0.00     0.173 A 
ATOM     82  F   UNL A   1      43.570  25.891  35.640  1.00  0.00    -0.203 F 
ATOM     83  C   UNL A   1      45.825  25.989  36.302  1.00  0.00     0.198 A 
ATOM     84  C   UNL A   1      47.225  27.783  35.540  1.00  0.00     0.198 A 
ATOM     85  F   UNL A   1      46.334  29.471  34.163  1.00  0.00    -0.203 F 
ATOM     86  F   UNL A   1      45.658  24.877  37.032  1.00  0.00    -0.200 F 
ATOM     87  C   UNL A   1      47.061  26.618  36.272  1.00  0.00     0.200 A 
ATOM     88  F   UNL A   1      48.422  28.386  35.501  1.00  0.00    -0.200 F 
ATOM     89  F   UNL A   1      48.093  26.103  36.955  1.00  0.00    -0.200 F 
ENDBRANCH  65  79
BRANCH  66  90
ATOM     90  C   UNL A   1      37.239  31.114  29.410  1.00  0.00     0.064 A 
ATOM     91  C   UNL A   1      36.164  30.263  29.118  1.00  0.00     0.173 A 
ATOM     92  C   UNL A   1      37.179  32.430  28.932  1.00  0.00     0.173 A 
ATOM     93  F   UNL A   1      36.188  28.988  29.532  1.00  0.00    -0.203 F 
ATOM     94  C   UNL A   1      35.078  30.707  28.365  1.00  0.00     0.198 A 
ATOM     95  C   UNL A   1      36.080  32.881  28.201  1.00  0.00     0.198 A 
ATOM     96  F   UNL A   1      38.183  33.283  29.183  1.00  0.00    -0.203 F 
ATOM     97  F   UNL A   1      34.083  29.861  28.066  1.00  0.00    -0.200 F 
ATOM     98  C   UNL A   1      35.034  32.018  27.913  1.00  0.00     0.200 A 
ATOM     99  F   UNL A   1      36.037  34.150  27.774  1.00  0.00    -0.200 F 
ATOM    100  F   UNL A   1      33.988  32.444  27.193  1.00  0.00    -0.200 F 
ENDBRANCH  66  90
BRANCH  78 101
ATOM    101  C   UNL A   1      39.404  32.260  35.934  1.00  0.00     0.064 A 
ATOM    102  C   UNL A   1      39.849  33.578  36.101  1.00  0.00     0.173 A 
ATOM    103  C   UNL A   1      38.411  31.784  36.804  1.00  0.00     0.173 A 
ATOM    104  F   UNL A   1      40.807  34.074  35.302  1.00  0.00    -0.203 F 
ATOM    105  C   UNL A   1      39.334  34.383  37.113  1.00  0.00     0.198 A 
ATOM    106  C   UNL A   1      37.880  32.599  37.799  1.00  0.00     0.198 A 
ATOM    107  F   UNL A   1      37.948  30.530  36.680  1.00  0.00    -0.203 F 
ATOM    108  F   UNL A   1      39.802  35.627  37.281  1.00  0.00    -0.200 F 
ATOM    109  C   UNL A   1      38.346  33.895  37.957  1.00  0.00     0.200 A 
ATOM    110  F   UNL A   1      36.918  32.130  38.605  1.00  0.00    -0.200 F 
ATOM    111  F   UNL A   1      37.847  34.674  38.926  1.00  0.00    -0.200 F 
ENDBRANCH  78 101
ENDBRANCH  52  53
ENDBRANCH  44  47
ENDBRANCH  42  43
ENDBRANCH  41  42
ENDBRANCH  40  41
ENDBRANCH  39  40
ENDBRANCH   1  39
TORSDOF 19
ENDMDL
MODEL 2
REMARK VINA RESULT:     -12.8      4.469      6.678
REMARK SMILES CCOC(=O)[C@H]1CCCN(c2cc(C(=O)NCCCCCCNC(=O)c3ccc(-c4c5nc(c(-c6c(F)c(F)c(F)c(F)c6F)c6ccc([nH]6)c(-c6c(F)c(F)c(F)c(F)c6F)c6nc(c(-c7c(F)c(F)c(F)c(F)c7F)c7ccc4[nH]7)C=C6)C=C5)cc3)c3cc(NC(=O)c4ccc(Cl)cc4)ccc3n2)C1
REMARK SMILES IDX 18 1 17 2 16 3 14 4 15 5 13 7 11 8 12 9 105 10 104 11 89 12
REMARK SMILES IDX 103 13 90 14 102 15 91 16 10 17 6 18 7 19 106 20 8 21 9 22
REMARK SMILES IDX 4 23 5 24 3 25 2 26 1 27 92 28 93 29 94 31 95 32 96 33
REMARK SMILES IDX 101 34 97 35 100 36 98 37 99 38 19 39 20 40 21 41 22 42
REMARK SMILES IDX 23 43 24 44 25 46 26 47 27 48 88 49 28 50 87 51 29 52 30 53
REMARK SMILES IDX 31 54 81 55 32 56 86 57 80 58 82 59 33 60 85 61 79 62 78 63
REMARK SMILES IDX 34 65 66 66 46 67 65 68 47 69 50 70 64 71 83 72 48 73 49 74
REMARK SMILES IDX 63 76 84 77 51 78 35 79 36 80 44 81 37 82 38 83 42 84 45 85
REMARK SMILES IDX 39 86 40 87 43 88 41 89 67 90 68 91 76 92 69 93 70 94 74 95
REMARK SMILES IDX 77 96 71 97 72 98 75 99 73 100 52 101 53 102 61 103 54 104
REMARK SMILES IDX 55 105 59 106 62 107 56 108 57 109 60 110 58 111
REMARK H PARENT 16 6 92 30 23 45 82 64 50 75
REMARK Flexibility Score: inf
ROOT
ATOM      1  C   UNL A   1      39.401  23.507  26.761  1.00  0.00     0.021 C 
ENDROOT
BRANCH   1   2
ATOM      2  C   UNL A   1      37.903  23.719  26.514  1.00  0.00     0.116 C 
BRANCH   2   3
ATOM      3  N   UNL A   1      37.488  23.792  25.120  1.00  0.00    -0.352 N 
ATOM      4  C   UNL A   1      36.325  23.508  24.427  1.00  0.00     0.252 C 
ATOM      5  O   UNL A   1      36.368  23.747  23.215  1.00  0.00    -0.269 OA
ATOM      6  H   UNL A   1      38.206  24.121  24.531  1.00  0.00     0.163 HD
BRANCH   4   7
ATOM      7  C   UNL A   1      35.043  22.917  24.961  1.00  0.00     0.052 A 
ATOM      8  C   UNL A   1      33.613  20.944  24.909  1.00  0.00     0.130 A 
ATOM      9  C   UNL A   1      34.823  21.571  24.618  1.00  0.00     0.061 A 
ATOM     10  N   UNL A   1      32.679  21.561  25.654  1.00  0.00    -0.231 NA
ATOM     11  C   UNL A   1      32.850  22.845  25.986  1.00  0.00     0.074 A 
ATOM     12  C   UNL A   1      33.971  23.590  25.574  1.00  0.00     0.015 A 
ATOM     13  C   UNL A   1      31.833  23.487  26.689  1.00  0.00     0.031 A 
ATOM     14  C   UNL A   1      33.883  24.978  25.684  1.00  0.00     0.037 A 
ATOM     15  C   UNL A   1      31.812  24.877  26.858  1.00  0.00     0.028 A 
ATOM     16  C   UNL A   1      32.798  25.638  26.252  1.00  0.00     0.042 A 
BRANCH   8  17
ATOM     17  N   UNL A   1      33.307  19.733  24.320  1.00  0.00    -0.356 N 
ATOM     18  C   UNL A   1      34.144  17.489  23.905  1.00  0.00     0.118 C 
ATOM     19  C   UNL A   1      33.064  17.315  22.826  1.00  0.00     0.019 C 
ATOM     20  C   UNL A   1      33.699  18.492  24.972  1.00  0.00     0.133 C 
ATOM     21  C   UNL A   1      32.579  18.660  22.273  1.00  0.00     0.022 C 
ATOM     22  C   UNL A   1      32.191  19.643  23.384  1.00  0.00     0.118 C 
BRANCH  18  23
ATOM     23  C   UNL A   1      34.465  16.179  24.590  1.00  0.00     0.310 C 
ATOM     24  O   UNL A   1      35.503  15.948  25.197  1.00  0.00    -0.252 OA
BRANCH  23  25
ATOM     25  O   UNL A   1      33.461  15.278  24.400  1.00  0.00    -0.466 OA
BRANCH  25  26
ATOM     26  C   UNL A   1      32.985  14.636  25.592  1.00  0.00     0.229 C 
ATOM     27  C   UNL A   1      31.739  15.336  26.103  1.00  0.00     0.049 C 
ENDBRANCH  25  26
ENDBRANCH  23  25
ENDBRANCH  18  23
ENDBRANCH   8  17
BRANCH  16  28
ATOM     28  N   UNL A   1      32.677  27.039  26.206  1.00  0.00    -0.322 N 
ATOM     29  C   UNL A   1      32.780  27.892  25.118  1.00  0.00     0.255 C 
ATOM     30  H   UNL A   1      32.493  27.475  27.070  1.00  0.00     0.170 HD
ATOM     31  O   UNL A   1      32.994  29.091  25.285  1.00  0.00    -0.269 OA
BRANCH  29  32
ATOM     32  C   UNL A   1      32.610  27.377  23.727  1.00  0.00     0.040 A 
ATOM     33  C   UNL A   1      33.684  27.487  22.839  1.00  0.00     0.015 A 
ATOM     34  C   UNL A   1      31.453  26.690  23.331  1.00  0.00     0.015 A 
ATOM     35  C   UNL A   1      33.658  26.813  21.615  1.00  0.00     0.021 A 
ATOM     36  C   UNL A   1      31.425  26.022  22.102  1.00  0.00     0.021 A 
ATOM     37  C   UNL A   1      32.537  26.067  21.261  1.00  0.00     0.041 A 
ATOM     38  Cl  UNL A   1      32.530  25.191  19.782  1.00  0.00    -0.084 Cl
ENDBRANCH  29  32
ENDBRANCH  16  28
ENDBRANCH   4   7
ENDBRANCH   2   3
ENDBRANCH   1   2
BRANCH   1  39
ATOM     39  C   UNL A   1      40.011  22.111  26.540  1.00  0.00     0.002 C 
BRANCH  39  40
ATOM     40  C   UNL A   1      40.959  21.487  27.576  1.00  0.00     0.002 C 
BRANCH  40  41
ATOM     41  C   UNL A   1      41.608  20.135  27.283  1.00  0.00     0.021 C 
BRANCH  41  42
ATOM     42  C   UNL A   1      41.467  19.577  25.874  1.00  0.00     0.116 C 
BRANCH  42  43
ATOM     43  N   UNL A   1      42.695  18.999  25.356  1.00  0.00    -0.352 N 
ATOM     44  C   UNL A   1      43.896  19.590  25.035  1.00  0.00     0.251 C 
ATOM     45  H   UNL A   1      42.664  18.025  25.212  1.00  0.00     0.163 HD
ATOM     46  O   UNL A   1      44.764  18.920  24.478  1.00  0.00    -0.269 OA
BRANCH  44  47
ATOM     47  C   UNL A   1      44.177  21.018  25.339  1.00  0.00     0.039 A 
ATOM     48  C   UNL A   1      44.850  21.335  26.528  1.00  0.00     0.014 A 
ATOM     49  C   UNL A   1      43.716  22.053  24.522  1.00  0.00     0.014 A 
ATOM     50  C   UNL A   1      45.083  22.672  26.876  1.00  0.00     0.010 A 
ATOM     51  C   UNL A   1      44.015  23.381  24.829  1.00  0.00     0.010 A 
ATOM     52  C   UNL A   1      44.674  23.706  26.024  1.00  0.00    -0.014 A 
BRANCH  52  53
ATOM     53  C   UNL A   1      44.842  25.137  26.396  1.00  0.00     0.031 A 
ATOM     54  C   UNL A   1      46.198  25.783  26.263  1.00  0.00     0.074 A 
ATOM     55  C   UNL A   1      43.811  25.836  26.905  1.00  0.00     0.049 A 
ATOM     56  N   UNL A   1      46.591  26.977  26.627  1.00  0.00    -0.248 NA
ATOM     57  C   UNL A   1      47.263  24.959  25.670  1.00  0.00     0.031 C 
ATOM     58  C   UNL A   1      42.461  25.317  27.119  1.00  0.00     0.029 A 
ATOM     59  N   UNL A   1      43.745  27.134  27.352  1.00  0.00    -0.354 N 
ATOM     60  C   UNL A   1      47.949  27.035  26.335  1.00  0.00     0.074 A 
ATOM     61  C   UNL A   1      48.323  25.741  25.806  1.00  0.00     0.031 C 
ATOM     62  C   UNL A   1      41.696  26.288  27.645  1.00  0.00     0.029 A 
ATOM     63  C   UNL A   1      42.507  27.488  27.833  1.00  0.00     0.049 A 
ATOM     64  H   UNL A   1      44.511  27.751  27.330  1.00  0.00     0.167 HD
ATOM     65  C   UNL A   1      48.802  28.078  26.473  1.00  0.00     0.037 A 
ATOM     66  C   UNL A   1      42.082  28.648  28.370  1.00  0.00     0.037 A 
ATOM     67  C   UNL A   1      48.417  29.378  26.955  1.00  0.00     0.049 A 
ATOM     68  C   UNL A   1      43.041  29.801  28.488  1.00  0.00     0.074 A 
ATOM     69  C   UNL A   1      49.189  30.520  27.073  1.00  0.00     0.029 A 
ATOM     70  N   UNL A   1      47.143  29.709  27.391  1.00  0.00    -0.354 N 
ATOM     71  N   UNL A   1      44.310  29.859  28.160  1.00  0.00    -0.248 NA
ATOM     72  C   UNL A   1      42.508  31.055  29.040  1.00  0.00     0.031 C 
ATOM     73  C   UNL A   1      48.391  31.533  27.612  1.00  0.00     0.029 A 
ATOM     74  C   UNL A   1      47.110  31.034  27.791  1.00  0.00     0.049 A 
ATOM     75  H   UNL A   1      46.375  29.093  27.413  1.00  0.00     0.167 HD
ATOM     76  C   UNL A   1      44.719  31.156  28.440  1.00  0.00     0.074 A 
ATOM     77  C   UNL A   1      43.560  31.857  28.955  1.00  0.00     0.031 C 
ATOM     78  C   UNL A   1      45.943  31.716  28.287  1.00  0.00     0.037 A 
BRANCH  65  79
ATOM     79  C   UNL A   1      50.237  27.856  26.090  1.00  0.00     0.064 A 
ATOM     80  C   UNL A   1      51.224  27.594  27.052  1.00  0.00     0.173 A 
ATOM     81  C   UNL A   1      50.625  27.877  24.742  1.00  0.00     0.173 A 
ATOM     82  F   UNL A   1      50.909  27.575  28.355  1.00  0.00    -0.203 F 
ATOM     83  C   UNL A   1      52.551  27.390  26.681  1.00  0.00     0.198 A 
ATOM     84  C   UNL A   1      51.947  27.643  24.372  1.00  0.00     0.198 A 
ATOM     85  F   UNL A   1      49.720  28.117  23.781  1.00  0.00    -0.203 F 
ATOM     86  F   UNL A   1      53.485  27.192  27.622  1.00  0.00    -0.200 F 
ATOM     87  C   UNL A   1      52.910  27.409  25.342  1.00  0.00     0.200 A 
ATOM     88  F   UNL A   1      52.291  27.649  23.077  1.00  0.00    -0.200 F 
ATOM     89  F   UNL A   1      54.186  27.208  24.986  1.00  0.00    -0.200 F 
ENDBRANCH  65  79
BRANCH  66  90
ATOM     90  C   UNL A   1      40.668  28.785  28.807  1.00  0.00     0.064 A 
ATOM     91  C   UNL A   1      39.664  29.125  27.891  1.00  0.00     0.173 A 
ATOM     92  C   UNL A   1      40.291  28.577  30.142  1.00  0.00     0.173 A 
ATOM     93  F   UNL A   1      39.979  29.359  26.609  1.00  0.00    -0.203 F 
ATOM     94  C   UNL A   1      38.338  29.267  28.295  1.00  0.00     0.198 A 
ATOM     95  C   UNL A   1      38.961  28.693  30.540  1.00  0.00     0.198 A 
ATOM     96  F   UNL A   1      41.215  28.250  31.057  1.00  0.00    -0.203 F 
ATOM     97  F   UNL A   1      37.404  29.633  27.407  1.00  0.00    -0.200 F 
ATOM     98  C   UNL A   1      37.986  29.044  29.618  1.00  0.00     0.200 A 
ATOM     99  F   UNL A   1      38.624  28.469  31.817  1.00  0.00    -0.200 F 
ATOM    100  F   UNL A   1      36.710  29.177  30.005  1.00  0.00    -0.200 F 
ENDBRANCH  66  90
BRANCH  78 101
ATOM    101  C   UNL A   1      46.086  33.166  28.644  1.00  0.00     0.064 A 
ATOM    102  C   UNL A   1      46.468  33.570  29.930  1.00  0.00     0.173 A 
ATOM    103  C   UNL A   1      45.882  34.159  27.674  1.00  0.00     0.173 A 
ATOM    104  F   UNL A   1      46.662  32.658  30.896  1.00  0.00    -0.203 F 
ATOM    105  C   UNL A   1      46.623  34.919  30.238  1.00  0.00     0.198 A 
ATOM    106  C   UNL A   1      46.061  35.504  27.978  1.00  0.00     0.198 A 
ATOM    107  F   UNL A   1      45.521  33.820  26.427  1.00  0.00    -0.203 F 
ATOM    108  F   UNL A   1      46.950  35.287  31.485  1.00  0.00    -0.200 F 
ATOM    109  C   UNL A   1      46.425  35.884  29.261  1.00  0.00     0.200 A 
ATOM    110  F   UNL A   1      45.882  36.434  27.030  1.00  0.00    -0.200 F 
ATOM    111  F   UNL A   1      46.580  37.182  29.558  1.00  0.00    -0.200 F 
ENDBRANCH  78 101
ENDBRANCH  52  53
ENDBRANCH  44  47
ENDBRANCH  42  43
ENDBRANCH  41  42
ENDBRANCH  40  41
ENDBRANCH  39  40
ENDBRANCH   1  39
TORSDOF 19
ENDMDL
MODEL 3
REMARK VINA RESULT:     -11.5      4.743      6.041
REMARK SMILES CCOC(=O)[C@H]1CCCN(c2cc(C(=O)NCCCCCCNC(=O)c3ccc(-c4c5nc(c(-c6c(F)c(F)c(F)c(F)c6F)c6ccc([nH]6)c(-c6c(F)c(F)c(F)c(F)c6F)c6nc(c(-c7c(F)c(F)c(F)c(F)c7F)c7ccc4[nH]7)C=C6)C=C5)cc3)c3cc(NC(=O)c4ccc(Cl)cc4)ccc3n2)C1
REMARK SMILES IDX 18 1 17 2 16 3 14 4 15 5 13 7 11 8 12 9 105 10 104 11 89 12
REMARK SMILES IDX 103 13 90 14 102 15 91 16 10 17 6 18 7 19 106 20 8 21 9 22
REMARK SMILES IDX 4 23 5 24 3 25 2 26 1 27 92 28 93 29 94 31 95 32 96 33
REMARK SMILES IDX 101 34 97 35 100 36 98 37 99 38 19 39 20 40 21 41 22 42
REMARK SMILES IDX 23 43 24 44 25 46 26 47 27 48 88 49 28 50 87 51 29 52 30 53
REMARK SMILES IDX 31 54 81 55 32 56 86 57 80 58 82 59 33 60 85 61 79 62 78 63
REMARK SMILES IDX 34 65 66 66 46 67 65 68 47 69 50 70 64 71 83 72 48 73 49 74
REMARK SMILES IDX 63 76 84 77 51 78 35 79 36 80 44 81 37 82 38 83 42 84 45 85
REMARK SMILES IDX 39 86 40 87 43 88 41 89 67 90 68 91 76 92 69 93 70 94 74 95
REMARK SMILES IDX 77 96 71 97 72 98 75 99 73 100 52 101 53 102 61 103 54 104
REMARK SMILES IDX 55 105 59 106 62 107 56 108 57 109 60 110 58 111
REMARK H PARENT 16 6 92 30 23 45 82 64 50 75
REMARK Flexibility Score: inf
ROOT
ATOM      1  C   UNL A   1      38.536  24.485  26.879  1.00  0.00     0.021 C 
ENDROOT
BRANCH   1   2
ATOM      2  C   UNL A   1      37.925  23.320  26.091  1.00  0.00     0.116 C 
BRANCH   2   3
ATOM      3  N   UNL A   1      37.330  23.659  24.805  1.00  0.00    -0.352 N 
ATOM      4  C   UNL A   1      36.070  23.540  24.247  1.00  0.00     0.252 C 
ATOM      5  O   UNL A   1      35.961  23.997  23.104  1.00  0.00    -0.269 OA
ATOM      6  H   UNL A   1      37.978  24.071  24.188  1.00  0.00     0.163 HD
BRANCH   4   7
ATOM      7  C   UNL A   1      34.843  22.897  24.844  1.00  0.00     0.052 A 
ATOM      8  C   UNL A   1      33.498  20.865  24.867  1.00  0.00     0.130 A 
ATOM      9  C   UNL A   1      34.664  21.542  24.516  1.00  0.00     0.061 A 
ATOM     10  N   UNL A   1      32.576  21.445  25.656  1.00  0.00    -0.231 NA
ATOM     11  C   UNL A   1      32.708  22.736  25.977  1.00  0.00     0.074 A 
ATOM     12  C   UNL A   1      33.774  23.527  25.509  1.00  0.00     0.015 A 
ATOM     13  C   UNL A   1      31.701  23.337  26.729  1.00  0.00     0.031 A 
ATOM     14  C   UNL A   1      33.632  24.911  25.621  1.00  0.00     0.037 A 
ATOM     15  C   UNL A   1      31.628  24.725  26.896  1.00  0.00     0.028 A 
ATOM     16  C   UNL A   1      32.549  25.525  26.240  1.00  0.00     0.042 A 
BRANCH   8  17
ATOM     17  N   UNL A   1      33.215  19.640  24.296  1.00  0.00    -0.356 N 
ATOM     18  C   UNL A   1      34.085  17.399  23.934  1.00  0.00     0.118 C 
ATOM     19  C   UNL A   1      33.023  17.193  22.843  1.00  0.00     0.019 C 
ATOM     20  C   UNL A   1      33.613  18.416  24.976  1.00  0.00     0.133 C 
ATOM     21  C   UNL A   1      32.529  18.521  22.260  1.00  0.00     0.022 C 
ATOM     22  C   UNL A   1      32.113  19.519  23.347  1.00  0.00     0.118 C 
BRANCH  18  23
ATOM     23  C   UNL A   1      34.412  16.106  24.647  1.00  0.00     0.310 C 
ATOM     24  O   UNL A   1      35.496  15.848  25.157  1.00  0.00    -0.252 OA
BRANCH  23  25
ATOM     25  O   UNL A   1      33.353  15.253  24.606  1.00  0.00    -0.466 OA
BRANCH  25  26
ATOM     26  C   UNL A   1      32.908  14.770  25.882  1.00  0.00     0.229 C 
ATOM     27  C   UNL A   1      31.460  15.162  26.115  1.00  0.00     0.049 C 
ENDBRANCH  25  26
ENDBRANCH  23  25
ENDBRANCH  18  23
ENDBRANCH   8  17
BRANCH  16  28
ATOM     28  N   UNL A   1      32.366  26.920  26.198  1.00  0.00    -0.322 N 
ATOM     29  C   UNL A   1      32.496  27.788  25.124  1.00  0.00     0.255 C 
ATOM     30  H   UNL A   1      32.111  27.338  27.052  1.00  0.00     0.170 HD
ATOM     31  O   UNL A   1      32.643  28.994  25.314  1.00  0.00    -0.269 OA
BRANCH  29  32
ATOM     32  C   UNL A   1      32.434  27.280  23.722  1.00  0.00     0.040 A 
ATOM     33  C   UNL A   1      33.586  27.359  22.934  1.00  0.00     0.015 A 
ATOM     34  C   UNL A   1      31.297  26.630  23.222  1.00  0.00     0.015 A 
ATOM     35  C   UNL A   1      33.649  26.687  21.710  1.00  0.00     0.021 A 
ATOM     36  C   UNL A   1      31.358  25.965  21.992  1.00  0.00     0.021 A 
ATOM     37  C   UNL A   1      32.541  25.976  21.254  1.00  0.00     0.041 A 
ATOM     38  Cl  UNL A   1      32.638  25.103  19.776  1.00  0.00    -0.084 Cl
ENDBRANCH  29  32
ENDBRANCH  16  28
ENDBRANCH   4   7
ENDBRANCH   2   3
ENDBRANCH   1   2
BRANCH   1  39
ATOM     39  C   UNL A   1      39.862  24.271  27.631  1.00  0.00     0.002 C 
BRANCH  39  40
ATOM     40  C   UNL A   1      41.207  24.296  26.890  1.00  0.00     0.002 C 
BRANCH  40  41
ATOM     41  C   UNL A   1      41.924  22.981  26.589  1.00  0.00     0.021 C 
BRANCH  41  42
ATOM     42  C   UNL A   1      42.937  22.482  27.610  1.00  0.00     0.116 C 
BRANCH  42  43
ATOM     43  N   UNL A   1      44.256  22.246  27.049  1.00  0.00    -0.352 N 
ATOM     44  C   UNL A   1      45.247  23.132  26.693  1.00  0.00     0.251 C 
ATOM     45  H   UNL A   1      44.478  21.298  26.899  1.00  0.00     0.163 HD
ATOM     46  O   UNL A   1      46.243  22.713  26.105  1.00  0.00    -0.269 OA
BRANCH  44  47
ATOM     47  C   UNL A   1      45.152  24.584  26.998  1.00  0.00     0.039 A 
ATOM     48  C   UNL A   1      45.527  25.032  28.273  1.00  0.00     0.014 A 
ATOM     49  C   UNL A   1      44.620  25.499  26.086  1.00  0.00     0.014 A 
ATOM     50  C   UNL A   1      45.398  26.384  28.616  1.00  0.00     0.010 A 
ATOM     51  C   UNL A   1      44.564  26.857  26.399  1.00  0.00     0.010 A 
ATOM     52  C   UNL A   1      44.923  27.310  27.677  1.00  0.00    -0.014 A 
BRANCH  52  53
ATOM     53  C   UNL A   1      44.707  28.740  28.029  1.00  0.00     0.031 A 
ATOM     54  C   UNL A   1      45.817  29.733  27.805  1.00  0.00     0.074 A 
ATOM     55  C   UNL A   1      43.554  29.136  28.601  1.00  0.00     0.049 A 
ATOM     56  N   UNL A   1      45.882  30.999  28.135  1.00  0.00    -0.248 NA
ATOM     57  C   UNL A   1      47.032  29.225  27.148  1.00  0.00     0.031 C 
ATOM     58  C   UNL A   1      42.419  28.266  28.905  1.00  0.00     0.029 A 
ATOM     59  N   UNL A   1      43.156  30.374  29.044  1.00  0.00    -0.354 N 
ATOM     60  C   UNL A   1      47.149  31.425  27.755  1.00  0.00     0.074 A 
ATOM     61  C   UNL A   1      47.837  30.275  27.210  1.00  0.00     0.031 C 
ATOM     62  C   UNL A   1      41.447  28.998  29.475  1.00  0.00     0.029 A 
ATOM     63  C   UNL A   1      41.901  30.380  29.603  1.00  0.00     0.049 A 
ATOM     64  H   UNL A   1      43.716  31.179  28.968  1.00  0.00     0.167 HD
ATOM     65  C   UNL A   1      47.684  32.667  27.831  1.00  0.00     0.037 A 
ATOM     66  C   UNL A   1      41.202  31.388  30.160  1.00  0.00     0.037 A 
ATOM     67  C   UNL A   1      46.982  33.820  28.330  1.00  0.00     0.049 A 
ATOM     68  C   UNL A   1      41.806  32.766  30.209  1.00  0.00     0.074 A 
ATOM     69  C   UNL A   1      47.410  35.134  28.391  1.00  0.00     0.029 A 
ATOM     70  N   UNL A   1      45.695  33.793  28.846  1.00  0.00    -0.354 N 
ATOM     71  N   UNL A   1      42.986  33.167  29.799  1.00  0.00    -0.248 NA
ATOM     72  C   UNL A   1      40.979  33.833  30.788  1.00  0.00     0.031 C 
ATOM     73  C   UNL A   1      46.395  35.897  28.976  1.00  0.00     0.029 A 
ATOM     74  C   UNL A   1      45.318  35.065  29.241  1.00  0.00     0.049 A 
ATOM     75  H   UNL A   1      45.132  32.988  28.922  1.00  0.00     0.167 HD
ATOM     76  C   UNL A   1      43.032  34.532  30.044  1.00  0.00     0.074 A 
ATOM     77  C   UNL A   1      41.757  34.895  30.630  1.00  0.00     0.031 C 
ATOM     78  C   UNL A   1      44.040  35.408  29.808  1.00  0.00     0.037 A 
BRANCH  65  79
ATOM     79  C   UNL A   1      49.098  32.846  27.357  1.00  0.00     0.064 A 
ATOM     80  C   UNL A   1      50.189  32.369  28.098  1.00  0.00     0.173 A 
ATOM     81  C   UNL A   1      49.362  33.473  26.130  1.00  0.00     0.173 A 
ATOM     82  F   UNL A   1      49.992  31.773  29.283  1.00  0.00    -0.203 F 
ATOM     83  C   UNL A   1      51.495  32.542  27.644  1.00  0.00     0.198 A 
ATOM     84  C   UNL A   1      50.667  33.617  25.665  1.00  0.00     0.198 A 
ATOM     85  F   UNL A   1      48.355  33.941  25.378  1.00  0.00    -0.203 F 
ATOM     86  F   UNL A   1      52.524  32.124  28.394  1.00  0.00    -0.200 F 
ATOM     87  C   UNL A   1      51.732  33.160  26.426  1.00  0.00     0.200 A 
ATOM     88  F   UNL A   1      50.895  34.204  24.481  1.00  0.00    -0.200 F 
ATOM     89  F   UNL A   1      52.988  33.321  25.988  1.00  0.00    -0.200 F 
ENDBRANCH  65  79
BRANCH  66  90
ATOM     90  C   UNL A   1      39.836  31.136  30.688  1.00  0.00     0.064 A 
ATOM     91  C   UNL A   1      39.636  30.826  32.041  1.00  0.00     0.173 A 
ATOM     92  C   UNL A   1      38.706  31.204  29.860  1.00  0.00     0.173 A 
ATOM     93  F   UNL A   1      40.687  30.725  32.867  1.00  0.00    -0.203 F 
ATOM     94  C   UNL A   1      38.359  30.578  32.542  1.00  0.00     0.198 A 
ATOM     95  C   UNL A   1      37.428  30.982  30.368  1.00  0.00     0.198 A 
ATOM     96  F   UNL A   1      38.845  31.497  28.559  1.00  0.00    -0.203 F 
ATOM     97  F   UNL A   1      38.201  30.242  33.829  1.00  0.00    -0.200 F 
ATOM     98  C   UNL A   1      37.255  30.662  31.706  1.00  0.00     0.200 A 
ATOM     99  F   UNL A   1      36.363  31.073  29.560  1.00  0.00    -0.200 F 
ATOM    100  F   UNL A   1      36.028  30.428  32.190  1.00  0.00    -0.200 F 
ENDBRANCH  66  90
BRANCH  78 101
ATOM    101  C   UNL A   1      43.793  36.848  30.148  1.00  0.00     0.064 A 
ATOM    102  C   UNL A   1      44.095  37.365  31.415  1.00  0.00     0.173 A 
ATOM    103  C   UNL A   1      43.293  37.729  29.178  1.00  0.00     0.173 A 
ATOM    104  F   UNL A   1      44.563  36.558  32.380  1.00  0.00    -0.203 F 
ATOM    105  C   UNL A   1      43.885  38.710  31.705  1.00  0.00     0.198 A 
ATOM    106  C   UNL A   1      43.108  39.078  29.463  1.00  0.00     0.198 A 
ATOM    107  F   UNL A   1      42.996  37.282  27.948  1.00  0.00    -0.203 F 
ATOM    108  F   UNL A   1      44.142  39.176  32.935  1.00  0.00    -0.200 F 
ATOM    109  C   UNL A   1      43.398  39.566  30.728  1.00  0.00     0.200 A 
ATOM    110  F   UNL A   1      42.649  39.906  28.514  1.00  0.00    -0.200 F 
ATOM    111  F   UNL A   1      43.203  40.862  31.008  1.00  0.00    -0.200 F 
ENDBRANCH  78 101
ENDBRANCH  52  53
ENDBRANCH  44  47
ENDBRANCH  42  43
ENDBRANCH  41  42
ENDBRANCH  40  41
ENDBRANCH  39  40
ENDBRANCH   1  39
TORSDOF 19
ENDMDL
