MODEL 1
REMARK VINA RESULT:     -12.4      0.000      0.000
REMARK SMILES CN1C=C/C(=C\C=C/C=N\c2ccc(C(=O)NCCCCCCNC(=O)c3ccc(-c4c5nc(c(-c6c(F)c(F)c(F)c(F)c6F)c6ccc([nH]6)c(-c6c(F)c(F)c(F)c(F)c6F)c6nc(c(-c7c(F)c(F)c(F)c(F)c7F)c7ccc4[nH]7)C=C6)C=C5)cc3)cc2)c2ccccc21
REMARK SMILES IDX 20 1 19 2 18 3 17 4 15 5 16 6 14 8 11 9 12 10 91 11 13 12
REMARK SMILES IDX 90 13 10 14 9 15 8 16 7 17 6 18 1 19 2 20 3 21 97 22 4 23
REMARK SMILES IDX 92 24 96 25 5 26 93 27 95 28 94 29 21 30 22 31 23 32 24 33
REMARK SMILES IDX 25 34 26 36 27 37 28 38 89 39 29 40 88 41 30 42 31 43 32 44
REMARK SMILES IDX 82 45 33 46 87 47 81 48 83 49 34 50 86 51 80 52 79 53 35 55
REMARK SMILES IDX 67 56 47 57 66 58 48 59 51 60 65 61 84 62 49 63 50 64 64 66
REMARK SMILES IDX 85 67 52 68 36 69 37 70 45 71 38 72 39 73 43 74 46 75 40 76
REMARK SMILES IDX 41 77 44 78 42 79 68 80 69 81 77 82 70 83 71 84 75 85 78 86
REMARK SMILES IDX 72 87 73 88 76 89 74 90 53 91 54 92 62 93 55 94 56 95 60 96
REMARK SMILES IDX 63 97 57 98 58 99 61 100 59 101
REMARK H PARENT 17 7 24 35 83 54 51 65
REMARK Flexibility Score: inf
ROOT
ATOM      1  C   UNL A   1      34.794  32.129  28.962  1.00  0.00     0.002 C 
ENDROOT
BRANCH   1   2
ATOM      2  C   UNL A   1      35.806  31.363  28.107  1.00  0.00     0.021 C 
BRANCH   2   3
ATOM      3  C   UNL A   1      35.377  30.006  27.556  1.00  0.00     0.116 C 
BRANCH   3   4
ATOM      4  N   UNL A   1      34.010  29.641  27.864  1.00  0.00    -0.352 N 
ATOM      5  C   UNL A   1      33.095  28.893  27.161  1.00  0.00     0.251 C 
ATOM      6  O   UNL A   1      31.985  28.719  27.661  1.00  0.00    -0.269 OA
ATOM      7  H   UNL A   1      33.679  29.987  28.724  1.00  0.00     0.163 HD
BRANCH   5   8
ATOM      8  C   UNL A   1      33.369  28.363  25.797  1.00  0.00     0.039 A 
ATOM      9  C   UNL A   1      33.619  27.106  23.291  1.00  0.00     0.063 A 
ATOM     10  C   UNL A   1      33.976  26.428  24.460  1.00  0.00     0.029 A 
ATOM     11  C   UNL A   1      33.302  28.462  23.376  1.00  0.00     0.029 A 
ATOM     12  C   UNL A   1      33.818  27.038  25.706  1.00  0.00     0.016 A 
ATOM     13  C   UNL A   1      33.211  29.098  24.620  1.00  0.00     0.016 A 
BRANCH   9  14
ATOM     14  N   UNL A   1      33.595  26.479  22.039  1.00  0.00    -0.257 NA
ATOM     15  C   UNL A   1      32.506  25.934  21.588  1.00  0.00     0.111 C 
BRANCH  15  16
ATOM     16  C   UNL A   1      31.159  25.848  22.222  1.00  0.00     0.020 C 
ATOM     17  C   UNL A   1      30.668  24.798  22.898  1.00  0.00     0.002 C 
BRANCH  17  18
ATOM     18  C   UNL A   1      31.270  23.488  23.052  1.00  0.00     0.009 C 
ATOM     19  C   UNL A   1      33.840  21.443  27.680  1.00  0.00     0.149 C 
ATOM     20  N   UNL A   1      33.173  21.950  26.481  1.00  0.00    -0.351 N 
ATOM     21  C   UNL A   1      32.775  23.270  26.378  1.00  0.00     0.086 C 
ATOM     22  C   UNL A   1      32.956  21.061  25.390  1.00  0.00     0.048 A 
ATOM     23  C   UNL A   1      32.172  23.813  25.315  1.00  0.00     0.026 C 
ATOM     24  C   UNL A   1      32.339  21.537  24.190  1.00  0.00     0.005 A 
ATOM     25  C   UNL A   1      33.327  19.701  25.453  1.00  0.00     0.027 A 
ATOM     26  C   UNL A   1      31.895  22.986  24.141  1.00  0.00    -0.015 C 
ATOM     27  C   UNL A   1      32.142  20.636  23.124  1.00  0.00     0.011 A 
ATOM     28  C   UNL A   1      33.109  18.830  24.385  1.00  0.00     0.002 A 
ATOM     29  C   UNL A   1      32.521  19.298  23.220  1.00  0.00     0.001 A 
ENDBRANCH  17  18
ENDBRANCH  15  16
ENDBRANCH   9  14
ENDBRANCH   5   8
ENDBRANCH   3   4
ENDBRANCH   2   3
ENDBRANCH   1   2
BRANCH   1  30
ATOM     30  C   UNL A   1      34.957  33.646  29.051  1.00  0.00     0.002 C 
BRANCH  30  31
ATOM     31  C   UNL A   1      33.683  34.482  28.948  1.00  0.00     0.021 C 
BRANCH  31  32
ATOM     32  C   UNL A   1      33.741  35.875  29.559  1.00  0.00     0.116 C 
BRANCH  32  33
ATOM     33  N   UNL A   1      32.669  36.154  30.500  1.00  0.00    -0.352 N 
ATOM     34  C   UNL A   1      32.588  35.844  31.842  1.00  0.00     0.251 C 
ATOM     35  H   UNL A   1      31.892  36.629  30.128  1.00  0.00     0.163 HD
ATOM     36  O   UNL A   1      31.569  36.084  32.474  1.00  0.00    -0.269 OA
BRANCH  34  37
ATOM     37  C   UNL A   1      33.728  35.169  32.509  1.00  0.00     0.039 A 
ATOM     38  C   UNL A   1      34.979  35.781  32.582  1.00  0.00     0.014 A 
ATOM     39  C   UNL A   1      33.546  33.885  33.031  1.00  0.00     0.014 A 
ATOM     40  C   UNL A   1      36.082  35.043  32.999  1.00  0.00     0.010 A 
ATOM     41  C   UNL A   1      34.642  33.177  33.537  1.00  0.00     0.010 A 
ATOM     42  C   UNL A   1      35.930  33.728  33.472  1.00  0.00    -0.014 A 
BRANCH  42  43
ATOM     43  C   UNL A   1      37.139  32.961  33.876  1.00  0.00     0.031 A 
ATOM     44  C   UNL A   1      37.774  31.964  32.942  1.00  0.00     0.074 A 
ATOM     45  C   UNL A   1      37.717  33.227  35.064  1.00  0.00     0.049 A 
ATOM     46  N   UNL A   1      38.878  31.276  33.098  1.00  0.00    -0.248 NA
ATOM     47  C   UNL A   1      37.084  31.701  31.670  1.00  0.00     0.031 C 
ATOM     48  C   UNL A   1      37.196  34.171  36.054  1.00  0.00     0.029 A 
ATOM     49  N   UNL A   1      38.881  32.765  35.624  1.00  0.00    -0.354 N 
ATOM     50  C   UNL A   1      39.005  30.494  31.957  1.00  0.00     0.074 A 
ATOM     51  C   UNL A   1      37.851  30.764  31.129  1.00  0.00     0.031 C 
ATOM     52  C   UNL A   1      38.071  34.273  37.065  1.00  0.00     0.029 A 
ATOM     53  C   UNL A   1      39.184  33.359  36.825  1.00  0.00     0.049 A 
ATOM     54  H   UNL A   1      39.444  32.075  35.206  1.00  0.00     0.167 HD
ATOM     55  C   UNL A   1      40.004  29.641  31.624  1.00  0.00     0.037 A 
ATOM     56  C   UNL A   1      40.239  33.191  37.644  1.00  0.00     0.037 A 
ATOM     57  C   UNL A   1      41.167  29.393  32.435  1.00  0.00     0.049 A 
ATOM     58  C   UNL A   1      41.317  32.216  37.265  1.00  0.00     0.074 A 
ATOM     59  C   UNL A   1      42.246  28.570  32.164  1.00  0.00     0.029 A 
ATOM     60  N   UNL A   1      41.402  29.965  33.676  1.00  0.00    -0.354 N 
ATOM     61  N   UNL A   1      41.434  31.502  36.172  1.00  0.00    -0.248 NA
ATOM     62  C   UNL A   1      42.401  32.014  38.235  1.00  0.00     0.031 C 
ATOM     63  C   UNL A   1      43.115  28.611  33.258  1.00  0.00     0.029 A 
ATOM     64  C   UNL A   1      42.600  29.496  34.192  1.00  0.00     0.049 A 
ATOM     65  H   UNL A   1      40.809  30.611  34.123  1.00  0.00     0.167 HD
ATOM     66  C   UNL A   1      42.606  30.774  36.317  1.00  0.00     0.074 A 
ATOM     67  C   UNL A   1      43.176  31.147  37.596  1.00  0.00     0.031 C 
ATOM     68  C   UNL A   1      43.156  29.875  35.466  1.00  0.00     0.037 A 
BRANCH  55  69
ATOM     69  C   UNL A   1      39.895  28.905  30.320  1.00  0.00     0.064 A 
ATOM     70  C   UNL A   1      40.406  29.442  29.129  1.00  0.00     0.173 A 
ATOM     71  C   UNL A   1      39.345  27.614  30.275  1.00  0.00     0.173 A 
ATOM     72  F   UNL A   1      40.933  30.675  29.117  1.00  0.00    -0.203 F 
ATOM     73  C   UNL A   1      40.356  28.720  27.939  1.00  0.00     0.198 A 
ATOM     74  C   UNL A   1      39.321  26.885  29.088  1.00  0.00     0.198 A 
ATOM     75  F   UNL A   1      38.852  27.050  31.388  1.00  0.00    -0.203 F 
ATOM     76  F   UNL A   1      40.823  29.266  26.807  1.00  0.00    -0.200 F 
ATOM     77  C   UNL A   1      39.823  27.440  27.922  1.00  0.00     0.200 A 
ATOM     78  F   UNL A   1      38.819  25.643  29.077  1.00  0.00    -0.200 F 
ATOM     79  F   UNL A   1      39.792  26.741  26.779  1.00  0.00    -0.200 F 
ENDBRANCH  55  69
BRANCH  56  80
ATOM     80  C   UNL A   1      40.326  33.989  38.894  1.00  0.00     0.064 A 
ATOM     81  C   UNL A   1      39.734  33.534  40.079  1.00  0.00     0.173 A 
ATOM     82  C   UNL A   1      41.045  35.193  38.941  1.00  0.00     0.173 A 
ATOM     83  F   UNL A   1      39.021  32.398  40.078  1.00  0.00    -0.203 F 
ATOM     84  C   UNL A   1      39.858  34.254  41.265  1.00  0.00     0.198 A 
ATOM     85  C   UNL A   1      41.192  35.897  40.134  1.00  0.00     0.198 A 
ATOM     86  F   UNL A   1      41.634  35.668  37.834  1.00  0.00    -0.203 F 
ATOM     87  F   UNL A   1      39.264  33.808  42.381  1.00  0.00    -0.200 F 
ATOM     88  C   UNL A   1      40.596  35.428  41.295  1.00  0.00     0.200 A 
ATOM     89  F   UNL A   1      41.920  37.020  40.161  1.00  0.00    -0.200 F 
ATOM     90  F   UNL A   1      40.732  36.107  42.441  1.00  0.00    -0.200 F 
ENDBRANCH  56  80
BRANCH  68  91
ATOM     91  C   UNL A   1      44.443  29.225  35.874  1.00  0.00     0.064 A 
ATOM     92  C   UNL A   1      44.458  27.986  36.528  1.00  0.00     0.173 A 
ATOM     93  C   UNL A   1      45.673  29.802  35.525  1.00  0.00     0.173 A 
ATOM     94  F   UNL A   1      43.307  27.402  36.894  1.00  0.00    -0.203 F 
ATOM     95  C   UNL A   1      45.659  27.346  36.820  1.00  0.00     0.198 A 
ATOM     96  C   UNL A   1      46.872  29.149  35.797  1.00  0.00     0.198 A 
ATOM     97  F   UNL A   1      45.711  30.984  34.892  1.00  0.00    -0.203 F 
ATOM     98  F   UNL A   1      45.652  26.171  37.464  1.00  0.00    -0.200 F 
ATOM     99  C   UNL A   1      46.864  27.923  36.445  1.00  0.00     0.200 A 
ATOM    100  F   UNL A   1      48.035  29.700  35.421  1.00  0.00    -0.200 F 
ATOM    101  F   UNL A   1      48.019  27.296  36.707  1.00  0.00    -0.200 F 
ENDBRANCH  68  91
ENDBRANCH  42  43
ENDBRANCH  34  37
ENDBRANCH  32  33
ENDBRANCH  31  32
ENDBRANCH  30  31
ENDBRANCH   1  30
TORSDOF 16
ENDMDL
MODEL 2
REMARK VINA RESULT:     -12.4      0.391      7.090
REMARK SMILES CN1C=C/C(=C\C=C/C=N\c2ccc(C(=O)NCCCCCCNC(=O)c3ccc(-c4c5nc(c(-c6c(F)c(F)c(F)c(F)c6F)c6ccc([nH]6)c(-c6c(F)c(F)c(F)c(F)c6F)c6nc(c(-c7c(F)c(F)c(F)c(F)c7F)c7ccc4[nH]7)C=C6)C=C5)cc3)cc2)c2ccccc21
REMARK SMILES IDX 20 1 19 2 18 3 17 4 15 5 16 6 14 8 11 9 12 10 91 11 13 12
REMARK SMILES IDX 90 13 10 14 9 15 8 16 7 17 6 18 1 19 2 20 3 21 97 22 4 23
REMARK SMILES IDX 92 24 96 25 5 26 93 27 95 28 94 29 21 30 22 31 23 32 24 33
REMARK SMILES IDX 25 34 26 36 27 37 28 38 89 39 29 40 88 41 30 42 31 43 32 44
REMARK SMILES IDX 82 45 33 46 87 47 81 48 83 49 34 50 86 51 80 52 79 53 35 55
REMARK SMILES IDX 67 56 47 57 66 58 48 59 51 60 65 61 84 62 49 63 50 64 64 66
REMARK SMILES IDX 85 67 52 68 36 69 37 70 45 71 38 72 39 73 43 74 46 75 40 76
REMARK SMILES IDX 41 77 44 78 42 79 68 80 69 81 77 82 70 83 71 84 75 85 78 86
REMARK SMILES IDX 72 87 73 88 76 89 74 90 53 91 54 92 62 93 55 94 56 95 60 96
REMARK SMILES IDX 63 97 57 98 58 99 61 100 59 101
REMARK H PARENT 17 7 24 35 83 54 51 65
REMARK Flexibility Score: inf
ROOT
ATOM      1  C   UNL A   1      34.742  32.104  29.012  1.00  0.00     0.002 C 
ENDROOT
BRANCH   1   2
ATOM      2  C   UNL A   1      35.719  31.460  28.026  1.00  0.00     0.021 C 
BRANCH   2   3
ATOM      3  C   UNL A   1      35.342  30.098  27.451  1.00  0.00     0.116 C 
BRANCH   3   4
ATOM      4  N   UNL A   1      34.013  29.646  27.806  1.00  0.00    -0.352 N 
ATOM      5  C   UNL A   1      33.129  28.829  27.141  1.00  0.00     0.251 C 
ATOM      6  O   UNL A   1      32.049  28.587  27.678  1.00  0.00    -0.269 OA
ATOM      7  H   UNL A   1      33.686  29.980  28.672  1.00  0.00     0.163 HD
BRANCH   5   8
ATOM      8  C   UNL A   1      33.396  28.300  25.776  1.00  0.00     0.039 A 
ATOM      9  C   UNL A   1      33.641  27.038  23.272  1.00  0.00     0.063 A 
ATOM     10  C   UNL A   1      34.038  26.376  24.437  1.00  0.00     0.029 A 
ATOM     11  C   UNL A   1      33.284  28.384  23.355  1.00  0.00     0.029 A 
ATOM     12  C   UNL A   1      33.883  26.988  25.683  1.00  0.00     0.016 A 
ATOM     13  C   UNL A   1      33.195  29.023  24.598  1.00  0.00     0.016 A 
BRANCH   9  14
ATOM     14  N   UNL A   1      33.615  26.403  22.023  1.00  0.00    -0.257 NA
ATOM     15  C   UNL A   1      32.525  25.856  21.578  1.00  0.00     0.111 C 
BRANCH  15  16
ATOM     16  C   UNL A   1      31.179  25.773  22.215  1.00  0.00     0.020 C 
ATOM     17  C   UNL A   1      30.689  24.727  22.896  1.00  0.00     0.002 C 
BRANCH  17  18
ATOM     18  C   UNL A   1      31.290  23.417  23.054  1.00  0.00     0.009 C 
ATOM     19  C   UNL A   1      34.023  21.455  27.625  1.00  0.00     0.149 C 
ATOM     20  N   UNL A   1      33.314  21.940  26.441  1.00  0.00    -0.351 N 
ATOM     21  C   UNL A   1      32.919  23.260  26.326  1.00  0.00     0.086 C 
ATOM     22  C   UNL A   1      33.052  21.030  25.378  1.00  0.00     0.048 A 
ATOM     23  C   UNL A   1      32.278  23.783  25.275  1.00  0.00     0.026 C 
ATOM     24  C   UNL A   1      32.393  21.484  24.193  1.00  0.00     0.005 A 
ATOM     25  C   UNL A   1      33.419  19.669  25.456  1.00  0.00     0.027 A 
ATOM     26  C   UNL A   1      31.954  22.934  24.130  1.00  0.00    -0.015 C 
ATOM     27  C   UNL A   1      32.152  20.562  23.153  1.00  0.00     0.011 A 
ATOM     28  C   UNL A   1      33.157  18.777  24.414  1.00  0.00     0.002 A 
ATOM     29  C   UNL A   1      32.529  19.224  23.264  1.00  0.00     0.001 A 
ENDBRANCH  17  18
ENDBRANCH  15  16
ENDBRANCH   9  14
ENDBRANCH   5   8
ENDBRANCH   3   4
ENDBRANCH   2   3
ENDBRANCH   1   2
BRANCH   1  30
ATOM     30  C   UNL A   1      34.876  33.608  29.251  1.00  0.00     0.002 C 
BRANCH  30  31
ATOM     31  C   UNL A   1      33.662  34.470  28.913  1.00  0.00     0.021 C 
BRANCH  31  32
ATOM     32  C   UNL A   1      33.571  35.813  29.622  1.00  0.00     0.116 C 
BRANCH  32  33
ATOM     33  N   UNL A   1      32.528  35.882  30.631  1.00  0.00    -0.352 N 
ATOM     34  C   UNL A   1      32.561  35.462  31.945  1.00  0.00     0.251 C 
ATOM     35  H   UNL A   1      31.679  36.283  30.336  1.00  0.00     0.163 HD
ATOM     36  O   UNL A   1      31.557  35.522  32.641  1.00  0.00    -0.269 OA
BRANCH  34  37
ATOM     37  C   UNL A   1      33.810  34.887  32.500  1.00  0.00     0.039 A 
ATOM     38  C   UNL A   1      34.986  35.637  32.543  1.00  0.00     0.014 A 
ATOM     39  C   UNL A   1      33.809  33.562  32.946  1.00  0.00     0.014 A 
ATOM     40  C   UNL A   1      36.189  35.009  32.847  1.00  0.00     0.010 A 
ATOM     41  C   UNL A   1      35.008  32.959  33.342  1.00  0.00     0.010 A 
ATOM     42  C   UNL A   1      36.218  33.660  33.240  1.00  0.00    -0.014 A 
BRANCH  42  43
ATOM     43  C   UNL A   1      37.529  33.017  33.523  1.00  0.00     0.031 A 
ATOM     44  C   UNL A   1      38.244  33.253  34.828  1.00  0.00     0.074 A 
ATOM     45  C   UNL A   1      38.038  32.146  32.629  1.00  0.00     0.049 A 
ATOM     46  N   UNL A   1      39.348  32.705  35.274  1.00  0.00    -0.248 NA
ATOM     47  C   UNL A   1      37.650  34.231  35.753  1.00  0.00     0.031 C 
ATOM     48  C   UNL A   1      37.439  31.834  31.331  1.00  0.00     0.029 A 
ATOM     49  N   UNL A   1      39.146  31.338  32.688  1.00  0.00    -0.354 N 
ATOM     50  C   UNL A   1      39.584  33.279  36.517  1.00  0.00     0.074 A 
ATOM     51  C   UNL A   1      38.530  34.243  36.744  1.00  0.00     0.031 C 
ATOM     52  C   UNL A   1      38.142  30.853  30.748  1.00  0.00     0.029 A 
ATOM     53  C   UNL A   1      39.274  30.507  31.602  1.00  0.00     0.049 A 
ATOM     54  H   UNL A   1      39.786  31.353  33.435  1.00  0.00     0.167 HD
ATOM     55  C   UNL A   1      40.581  33.012  37.395  1.00  0.00     0.037 A 
ATOM     56  C   UNL A   1      40.199  29.569  31.321  1.00  0.00     0.037 A 
ATOM     57  C   UNL A   1      41.614  32.033  37.181  1.00  0.00     0.049 A 
ATOM     58  C   UNL A   1      41.310  29.316  32.298  1.00  0.00     0.074 A 
ATOM     59  C   UNL A   1      42.647  31.672  38.029  1.00  0.00     0.029 A 
ATOM     60  N   UNL A   1      41.746  31.260  36.038  1.00  0.00    -0.354 N 
ATOM     61  N   UNL A   1      41.507  29.850  33.479  1.00  0.00    -0.248 NA
ATOM     62  C   UNL A   1      42.335  28.340  31.901  1.00  0.00     0.031 C 
ATOM     63  C   UNL A   1      43.428  30.710  37.383  1.00  0.00     0.029 A 
ATOM     64  C   UNL A   1      42.856  30.438  36.150  1.00  0.00     0.049 A 
ATOM     65  H   UNL A   1      41.140  31.288  35.263  1.00  0.00     0.167 HD
ATOM     66  C   UNL A   1      42.667  29.271  33.971  1.00  0.00     0.074 A 
ATOM     67  C   UNL A   1      43.123  28.329  32.969  1.00  0.00     0.031 C 
ATOM     68  C   UNL A   1      43.299  29.504  35.146  1.00  0.00     0.037 A 
BRANCH  55  69
ATOM     69  C   UNL A   1      40.612  33.787  38.681  1.00  0.00     0.064 A 
ATOM     70  C   UNL A   1      41.397  34.940  38.824  1.00  0.00     0.173 A 
ATOM     71  C   UNL A   1      39.788  33.416  39.756  1.00  0.00     0.173 A 
ATOM     72  F   UNL A   1      42.209  35.331  37.831  1.00  0.00    -0.203 F 
ATOM     73  C   UNL A   1      41.367  35.685  40.000  1.00  0.00     0.198 A 
ATOM     74  C   UNL A   1      39.740  34.179  40.920  1.00  0.00     0.198 A 
ATOM     75  F   UNL A   1      39.009  32.327  39.666  1.00  0.00    -0.203 F 
ATOM     76  F   UNL A   1      42.148  36.767  40.126  1.00  0.00    -0.200 F 
ATOM     77  C   UNL A   1      40.532  35.310  41.042  1.00  0.00     0.200 A 
ATOM     78  F   UNL A   1      38.922  33.823  41.919  1.00  0.00    -0.200 F 
ATOM     79  F   UNL A   1      40.493  36.038  42.166  1.00  0.00    -0.200 F 
ENDBRANCH  55  69
BRANCH  56  80
ATOM     80  C   UNL A   1      40.087  28.790  30.061  1.00  0.00     0.064 A 
ATOM     81  C   UNL A   1      40.640  29.272  28.867  1.00  0.00     0.173 A 
ATOM     82  C   UNL A   1      39.473  27.529  30.036  1.00  0.00     0.173 A 
ATOM     83  F   UNL A   1      41.220  30.480  28.839  1.00  0.00    -0.203 F 
ATOM     84  C   UNL A   1      40.584  28.520  27.696  1.00  0.00     0.198 A 
ATOM     85  C   UNL A   1      39.442  26.767  28.871  1.00  0.00     0.198 A 
ATOM     86  F   UNL A   1      38.933  27.023  31.154  1.00  0.00    -0.203 F 
ATOM     87  F   UNL A   1      41.101  29.013  26.562  1.00  0.00    -0.200 F 
ATOM     88  C   UNL A   1      39.995  27.265  27.701  1.00  0.00     0.200 A 
ATOM     89  F   UNL A   1      38.889  25.547  28.885  1.00  0.00    -0.200 F 
ATOM     90  F   UNL A   1      39.961  26.534  26.578  1.00  0.00    -0.200 F 
ENDBRANCH  56  80
BRANCH  68  91
ATOM     91  C   UNL A   1      44.552  28.733  35.430  1.00  0.00     0.064 A 
ATOM     92  C   UNL A   1      45.813  29.246  35.102  1.00  0.00     0.173 A 
ATOM     93  C   UNL A   1      44.494  27.513  36.121  1.00  0.00     0.173 A 
ATOM     94  F   UNL A   1      45.917  30.403  34.430  1.00  0.00    -0.203 F 
ATOM     95  C   UNL A   1      46.976  28.565  35.453  1.00  0.00     0.198 A 
ATOM     96  C   UNL A   1      45.658  26.845  36.491  1.00  0.00     0.198 A 
ATOM     97  F   UNL A   1      43.310  26.983  36.462  1.00  0.00    -0.203 F 
ATOM     98  F   UNL A   1      48.172  29.064  35.112  1.00  0.00    -0.200 F 
ATOM     99  C   UNL A   1      46.897  27.372  36.157  1.00  0.00     0.200 A 
ATOM    100  F   UNL A   1      45.582  25.700  37.183  1.00  0.00    -0.200 F 
ATOM    101  F   UNL A   1      48.018  26.728  36.513  1.00  0.00    -0.200 F 
ENDBRANCH  68  91
ENDBRANCH  42  43
ENDBRANCH  34  37
ENDBRANCH  32  33
ENDBRANCH  31  32
ENDBRANCH  30  31
ENDBRANCH   1  30
TORSDOF 16
ENDMDL
MODEL 3
REMARK VINA RESULT:     -12.2      2.916      8.461
REMARK SMILES CN1C=C/C(=C\C=C/C=N\c2ccc(C(=O)NCCCCCCNC(=O)c3ccc(-c4c5nc(c(-c6c(F)c(F)c(F)c(F)c6F)c6ccc([nH]6)c(-c6c(F)c(F)c(F)c(F)c6F)c6nc(c(-c7c(F)c(F)c(F)c(F)c7F)c7ccc4[nH]7)C=C6)C=C5)cc3)cc2)c2ccccc21
REMARK SMILES IDX 20 1 19 2 18 3 17 4 15 5 16 6 14 8 11 9 12 10 91 11 13 12
REMARK SMILES IDX 90 13 10 14 9 15 8 16 7 17 6 18 1 19 2 20 3 21 97 22 4 23
REMARK SMILES IDX 92 24 96 25 5 26 93 27 95 28 94 29 21 30 22 31 23 32 24 33
REMARK SMILES IDX 25 34 26 36 27 37 28 38 89 39 29 40 88 41 30 42 31 43 32 44
REMARK SMILES IDX 82 45 33 46 87 47 81 48 83 49 34 50 86 51 80 52 79 53 35 55
REMARK SMILES IDX 67 56 47 57 66 58 48 59 51 60 65 61 84 62 49 63 50 64 64 66
REMARK SMILES IDX 85 67 52 68 36 69 37 70 45 71 38 72 39 73 43 74 46 75 40 76
REMARK SMILES IDX 41 77 44 78 42 79 68 80 69 81 77 82 70 83 71 84 75 85 78 86
REMARK SMILES IDX 72 87 73 88 76 89 74 90 53 91 54 92 62 93 55 94 56 95 60 96
REMARK SMILES IDX 63 97 57 98 58 99 61 100 59 101
REMARK H PARENT 17 7 24 35 83 54 51 65
REMARK Flexibility Score: inf
ROOT
ATOM      1  C   UNL A   1      33.654  26.312  23.637  1.00  0.00     0.002 C 
ENDROOT
BRANCH   1   2
ATOM      2  C   UNL A   1      32.942  27.424  22.862  1.00  0.00     0.021 C 
BRANCH   2   3
ATOM      3  C   UNL A   1      31.774  27.019  21.967  1.00  0.00     0.116 C 
BRANCH   3   4
ATOM      4  N   UNL A   1      30.470  27.373  22.489  1.00  0.00    -0.352 N 
ATOM      5  C   UNL A   1      29.726  26.824  23.507  1.00  0.00     0.251 C 
ATOM      6  O   UNL A   1      28.635  27.331  23.763  1.00  0.00    -0.269 OA
ATOM      7  H   UNL A   1      30.045  28.138  22.040  1.00  0.00     0.163 HD
BRANCH   5   8
ATOM      8  C   UNL A   1      30.151  25.604  24.245  1.00  0.00     0.039 A 
ATOM      9  C   UNL A   1      31.277  23.321  25.447  1.00  0.00     0.063 A 
ATOM     10  C   UNL A   1      30.958  23.318  24.086  1.00  0.00     0.029 A 
ATOM     11  C   UNL A   1      30.873  24.406  26.226  1.00  0.00     0.029 A 
ATOM     12  C   UNL A   1      30.434  24.462  23.482  1.00  0.00     0.016 A 
ATOM     13  C   UNL A   1      30.281  25.528  25.634  1.00  0.00     0.016 A 
BRANCH   9  14
ATOM     14  N   UNL A   1      31.963  22.263  26.058  1.00  0.00    -0.257 NA
ATOM     15  C   UNL A   1      32.894  21.619  25.424  1.00  0.00     0.111 C 
BRANCH  15  16
ATOM     16  C   UNL A   1      33.409  21.821  24.038  1.00  0.00     0.020 C 
ATOM     17  C   UNL A   1      34.638  22.240  23.704  1.00  0.00     0.002 C 
BRANCH  17  18
ATOM     18  C   UNL A   1      35.684  22.706  24.594  1.00  0.00     0.009 C 
ATOM     19  C   UNL A   1      40.361  19.880  26.126  1.00  0.00     0.149 C 
ATOM     20  N   UNL A   1      39.166  20.626  25.735  1.00  0.00    -0.351 N 
ATOM     21  C   UNL A   1      38.148  20.034  25.012  1.00  0.00     0.086 C 
ATOM     22  C   UNL A   1      39.047  21.988  26.136  1.00  0.00     0.048 A 
ATOM     23  C   UNL A   1      37.021  20.643  24.626  1.00  0.00     0.026 C 
ATOM     24  C   UNL A   1      37.873  22.733  25.800  1.00  0.00     0.005 A 
ATOM     25  C   UNL A   1      40.067  22.642  26.859  1.00  0.00     0.027 A 
ATOM     26  C   UNL A   1      36.800  22.045  24.980  1.00  0.00    -0.015 C 
ATOM     27  C   UNL A   1      37.780  24.078  26.215  1.00  0.00     0.011 A 
ATOM     28  C   UNL A   1      39.951  23.978  27.247  1.00  0.00     0.002 A 
ATOM     29  C   UNL A   1      38.807  24.693  26.929  1.00  0.00     0.001 A 
ENDBRANCH  17  18
ENDBRANCH  15  16
ENDBRANCH   9  14
ENDBRANCH   5   8
ENDBRANCH   3   4
ENDBRANCH   2   3
ENDBRANCH   1   2
BRANCH   1  30
ATOM     30  C   UNL A   1      33.764  26.474  25.153  1.00  0.00     0.002 C 
BRANCH  30  31
ATOM     31  C   UNL A   1      33.185  27.754  25.752  1.00  0.00     0.021 C 
BRANCH  31  32
ATOM     32  C   UNL A   1      34.028  29.011  25.597  1.00  0.00     0.116 C 
BRANCH  32  33
ATOM     33  N   UNL A   1      33.464  30.186  26.240  1.00  0.00    -0.352 N 
ATOM     34  C   UNL A   1      33.980  30.946  27.268  1.00  0.00     0.251 C 
ATOM     35  H   UNL A   1      32.590  30.479  25.894  1.00  0.00     0.163 HD
ATOM     36  O   UNL A   1      33.330  31.864  27.748  1.00  0.00    -0.269 OA
BRANCH  34  37
ATOM     37  C   UNL A   1      35.313  30.615  27.827  1.00  0.00     0.039 A 
ATOM     38  C   UNL A   1      35.597  29.329  28.287  1.00  0.00     0.014 A 
ATOM     39  C   UNL A   1      36.277  31.622  27.928  1.00  0.00     0.014 A 
ATOM     40  C   UNL A   1      36.760  29.101  29.014  1.00  0.00     0.010 A 
ATOM     41  C   UNL A   1      37.489  31.364  28.579  1.00  0.00     0.010 A 
ATOM     42  C   UNL A   1      37.716  30.117  29.179  1.00  0.00    -0.014 A 
BRANCH  42  43
ATOM     43  C   UNL A   1      38.931  29.843  29.993  1.00  0.00     0.031 A 
ATOM     44  C   UNL A   1      39.058  30.367  31.400  1.00  0.00     0.074 A 
ATOM     45  C   UNL A   1      39.891  29.043  29.488  1.00  0.00     0.049 A 
ATOM     46  N   UNL A   1      40.005  30.149  32.279  1.00  0.00    -0.248 NA
ATOM     47  C   UNL A   1      37.988  31.252  31.886  1.00  0.00     0.031 C 
ATOM     48  C   UNL A   1      39.881  28.475  28.139  1.00  0.00     0.029 A 
ATOM     49  N   UNL A   1      41.035  28.539  30.055  1.00  0.00    -0.354 N 
ATOM     50  C   UNL A   1      39.653  30.876  33.409  1.00  0.00     0.074 A 
ATOM     51  C   UNL A   1      38.424  31.571  33.098  1.00  0.00     0.031 C 
ATOM     52  C   UNL A   1      40.925  27.645  28.006  1.00  0.00     0.029 A 
ATOM     53  C   UNL A   1      41.711  27.667  29.237  1.00  0.00     0.049 A 
ATOM     54  H   UNL A   1      41.340  28.779  30.959  1.00  0.00     0.167 HD
ATOM     55  C   UNL A   1      40.290  30.944  34.602  1.00  0.00     0.037 A 
ATOM     56  C   UNL A   1      42.837  26.961  29.450  1.00  0.00     0.037 A 
ATOM     57  C   UNL A   1      41.500  30.231  34.921  1.00  0.00     0.049 A 
ATOM     58  C   UNL A   1      43.540  27.078  30.772  1.00  0.00     0.074 A 
ATOM     59  C   UNL A   1      42.199  30.213  36.115  1.00  0.00     0.029 A 
ATOM     60  N   UNL A   1      42.189  29.410  34.042  1.00  0.00    -0.354 N 
ATOM     61  N   UNL A   1      43.183  27.752  31.838  1.00  0.00    -0.248 NA
ATOM     62  C   UNL A   1      44.808  26.350  30.918  1.00  0.00     0.031 C 
ATOM     63  C   UNL A   1      43.334  29.415  35.947  1.00  0.00     0.029 A 
ATOM     64  C   UNL A   1      43.318  28.898  34.661  1.00  0.00     0.049 A 
ATOM     65  H   UNL A   1      41.916  29.217  33.116  1.00  0.00     0.167 HD
ATOM     66  C   UNL A   1      44.171  27.522  32.783  1.00  0.00     0.074 A 
ATOM     67  C   UNL A   1      45.136  26.631  32.172  1.00  0.00     0.031 C 
ATOM     68  C   UNL A   1      44.270  28.011  34.042  1.00  0.00     0.037 A 
BRANCH  55  69
ATOM     69  C   UNL A   1      39.697  31.819  35.668  1.00  0.00     0.064 A 
ATOM     70  C   UNL A   1      40.101  33.152  35.832  1.00  0.00     0.173 A 
ATOM     71  C   UNL A   1      38.658  31.343  36.484  1.00  0.00     0.173 A 
ATOM     72  F   UNL A   1      41.096  33.652  35.085  1.00  0.00    -0.203 F 
ATOM     73  C   UNL A   1      39.497  33.971  36.782  1.00  0.00     0.198 A 
ATOM     74  C   UNL A   1      38.038  32.173  37.414  1.00  0.00     0.198 A 
ATOM     75  F   UNL A   1      38.227  30.078  36.360  1.00  0.00    -0.203 F 
ATOM     76  F   UNL A   1      39.919  35.234  36.941  1.00  0.00    -0.200 F 
ATOM     77  C   UNL A   1      38.461  33.485  37.565  1.00  0.00     0.200 A 
ATOM     78  F   UNL A   1      37.028  31.705  38.159  1.00  0.00    -0.200 F 
ATOM     79  F   UNL A   1      37.869  34.281  38.467  1.00  0.00    -0.200 F 
ENDBRANCH  55  69
BRANCH  56  80
ATOM     80  C   UNL A   1      43.349  26.064  28.382  1.00  0.00     0.064 A 
ATOM     81  C   UNL A   1      43.128  24.682  28.438  1.00  0.00     0.173 A 
ATOM     82  C   UNL A   1      44.021  26.574  27.262  1.00  0.00     0.173 A 
ATOM     83  F   UNL A   1      42.505  24.146  29.498  1.00  0.00    -0.203 F 
ATOM     84  C   UNL A   1      43.559  23.844  27.412  1.00  0.00     0.198 A 
ATOM     85  C   UNL A   1      44.427  25.740  26.224  1.00  0.00     0.198 A 
ATOM     86  F   UNL A   1      44.253  27.892  27.160  1.00  0.00    -0.203 F 
ATOM     87  F   UNL A   1      43.354  22.522  27.499  1.00  0.00    -0.200 F 
ATOM     88  C   UNL A   1      44.198  24.374  26.301  1.00  0.00     0.200 A 
ATOM     89  F   UNL A   1      45.027  26.259  25.145  1.00  0.00    -0.200 F 
ATOM     90  F   UNL A   1      44.593  23.570  25.305  1.00  0.00    -0.200 F 
ENDBRANCH  56  80
BRANCH  68  91
ATOM     91  C   UNL A   1      45.456  27.598  34.860  1.00  0.00     0.064 A 
ATOM     92  C   UNL A   1      46.622  28.375  34.895  1.00  0.00     0.173 A 
ATOM     93  C   UNL A   1      45.391  26.467  35.687  1.00  0.00     0.173 A 
ATOM     94  F   UNL A   1      46.735  29.459  34.113  1.00  0.00    -0.203 F 
ATOM     95  C   UNL A   1      47.683  28.033  35.729  1.00  0.00     0.198 A 
ATOM     96  C   UNL A   1      46.444  26.141  36.537  1.00  0.00     0.198 A 
ATOM     97  F   UNL A   1      44.294  25.695  35.693  1.00  0.00    -0.203 F 
ATOM     98  F   UNL A   1      48.797  28.778  35.733  1.00  0.00    -0.200 F 
ATOM     99  C   UNL A   1      47.589  26.924  36.557  1.00  0.00     0.200 A 
ATOM    100  F   UNL A   1      46.346  25.077  37.346  1.00  0.00    -0.200 F 
ATOM    101  F   UNL A   1      48.603  26.608  37.375  1.00  0.00    -0.200 F 
ENDBRANCH  68  91
ENDBRANCH  42  43
ENDBRANCH  34  37
ENDBRANCH  32  33
ENDBRANCH  31  32
ENDBRANCH  30  31
ENDBRANCH   1  30
TORSDOF 16
ENDMDL
