MODEL 1
REMARK VINA RESULT:     -11.4      0.000      0.000
REMARK SMILES O=C(Cc1c(F)cccc1F)NC[C@H]1CC[C@H](C(=O)NCCCCCCNC(=O)c2ccc(-c3c4nc(c(-c5c(F)c(F)c(F)c(F)c5F)c5ccc([nH]5)c(-c5c(F)c(F)c(F)c(F)c5F)c5nc(c(-c6c(F)c(F)c(F)c(F)c6F)c6ccc3[nH]6)C=C5)C=C4)cc2)O1
REMARK SMILES IDX 22 1 21 2 20 3 18 4 19 5 17 7 14 8 15 9 93 10 16 11 13 12
REMARK SMILES IDX 12 13 1 14 2 15 3 17 4 18 5 19 10 20 6 21 7 22 9 23 11 24
REMARK SMILES IDX 8 25 23 26 24 27 25 28 26 29 27 30 28 31 29 33 30 34 31 35
REMARK SMILES IDX 92 36 32 37 91 38 33 39 34 40 35 41 85 42 36 43 90 44 84 45
REMARK SMILES IDX 86 46 37 47 89 48 83 49 82 50 38 52 70 53 50 54 69 55 51 56
REMARK SMILES IDX 54 57 68 58 87 59 52 60 53 61 67 63 88 64 55 65 39 66 40 67
REMARK SMILES IDX 48 68 41 69 42 70 46 71 49 72 43 73 44 74 47 75 45 76 71 77
REMARK SMILES IDX 72 78 80 79 73 80 74 81 78 82 81 83 75 84 76 85 79 86 77 87
REMARK SMILES IDX 56 88 57 89 65 90 58 91 59 92 63 93 66 94 60 95 61 96 64 97
REMARK SMILES IDX 62 98
REMARK H PARENT 20 6 12 16 27 32 86 51 54 62
REMARK Flexibility Score: inf
ROOT
ATOM      1  C   UNL A   1      35.774  32.138  28.094  1.00  0.00     0.021 C 
ENDROOT
BRANCH   1   2
ATOM      2  C   UNL A   1      35.135  30.767  27.865  1.00  0.00     0.116 C 
BRANCH   2   3
ATOM      3  N   UNL A   1      33.695  30.858  27.772  1.00  0.00    -0.354 N 
ATOM      4  C   UNL A   1      32.823  30.230  26.934  1.00  0.00     0.249 C 
ATOM      5  O   UNL A   1      31.623  30.496  27.065  1.00  0.00    -0.272 OA
ATOM      6  H   UNL A   1      33.277  31.474  28.416  1.00  0.00     0.163 HD
BRANCH   4   7
ATOM      7  C   UNL A   1      33.293  29.291  25.797  1.00  0.00     0.207 C 
ATOM      8  C   UNL A   1      32.185  28.238  24.012  1.00  0.00     0.138 C 
ATOM      9  C   UNL A   1      32.041  27.346  25.240  1.00  0.00     0.037 C 
ATOM     10  O   UNL A   1      32.726  29.484  24.499  1.00  0.00    -0.363 OA
ATOM     11  C   UNL A   1      33.115  27.830  26.175  1.00  0.00     0.045 C 
BRANCH   8  12
ATOM     12  C   UNL A   1      33.079  27.689  22.880  1.00  0.00     0.147 C 
BRANCH  12  13
ATOM     13  N   UNL A   1      33.596  26.366  23.161  1.00  0.00    -0.353 N 
ATOM     14  O   UNL A   1      33.222  25.549  21.068  1.00  0.00    -0.275 OA
ATOM     15  C   UNL A   1      33.506  25.340  22.248  1.00  0.00     0.224 C 
ATOM     16  H   UNL A   1      34.023  26.195  24.032  1.00  0.00     0.163 HD
BRANCH  15  17
ATOM     17  C   UNL A   1      33.534  23.923  22.805  1.00  0.00     0.141 C 
BRANCH  17  18
ATOM     18  C   UNL A   1      32.898  23.687  24.147  1.00  0.00     0.033 A 
ATOM     19  C   UNL A   1      31.515  23.539  24.288  1.00  0.00     0.129 A 
ATOM     20  C   UNL A   1      33.676  23.580  25.298  1.00  0.00     0.129 A 
ATOM     21  F   UNL A   1      30.724  23.645  23.211  1.00  0.00    -0.207 F 
ATOM     22  C   UNL A   1      30.919  23.337  25.529  1.00  0.00     0.040 A 
ATOM     23  C   UNL A   1      33.100  23.355  26.547  1.00  0.00     0.040 A 
ATOM     24  F   UNL A   1      35.010  23.680  25.214  1.00  0.00    -0.207 F 
ATOM     25  C   UNL A   1      31.715  23.243  26.667  1.00  0.00     0.006 A 
ENDBRANCH  17  18
ENDBRANCH  15  17
ENDBRANCH  12  13
ENDBRANCH   8  12
ENDBRANCH   4   7
ENDBRANCH   2   3
ENDBRANCH   1   2
BRANCH   1  26
ATOM     26  C   UNL A   1      34.810  33.311  27.913  1.00  0.00     0.002 C 
BRANCH  26  27
ATOM     27  C   UNL A   1      34.364  33.988  29.215  1.00  0.00     0.002 C 
BRANCH  27  28
ATOM     28  C   UNL A   1      33.109  34.862  29.107  1.00  0.00     0.021 C 
BRANCH  28  29
ATOM     29  C   UNL A   1      33.239  36.249  29.729  1.00  0.00     0.116 C 
BRANCH  29  30
ATOM     30  N   UNL A   1      32.445  36.372  30.941  1.00  0.00    -0.352 N 
ATOM     31  C   UNL A   1      32.596  35.754  32.153  1.00  0.00     0.251 C 
ATOM     32  H   UNL A   1      31.683  36.992  30.881  1.00  0.00     0.163 HD
ATOM     33  O   UNL A   1      31.687  35.805  32.984  1.00  0.00    -0.269 OA
BRANCH  31  34
ATOM     34  C   UNL A   1      33.839  35.026  32.479  1.00  0.00     0.039 A 
ATOM     35  C   UNL A   1      33.750  33.701  32.914  1.00  0.00     0.014 A 
ATOM     36  C   UNL A   1      35.083  35.661  32.420  1.00  0.00     0.014 A 
ATOM     37  C   UNL A   1      34.909  33.002  33.256  1.00  0.00     0.010 A 
ATOM     38  C   UNL A   1      36.244  34.945  32.701  1.00  0.00     0.010 A 
ATOM     39  C   UNL A   1      36.167  33.614  33.135  1.00  0.00    -0.014 A 
BRANCH  39  40
ATOM     40  C   UNL A   1      37.408  32.880  33.485  1.00  0.00     0.031 A 
ATOM     41  C   UNL A   1      38.123  33.178  34.774  1.00  0.00     0.074 A 
ATOM     42  C   UNL A   1      37.914  31.978  32.624  1.00  0.00     0.049 A 
ATOM     43  N   UNL A   1      39.244  32.682  35.233  1.00  0.00    -0.248 NA
ATOM     44  C   UNL A   1      37.510  34.185  35.654  1.00  0.00     0.031 C 
ATOM     45  C   UNL A   1      37.333  31.632  31.327  1.00  0.00     0.029 A 
ATOM     46  N   UNL A   1      39.036  31.190  32.707  1.00  0.00    -0.354 N 
ATOM     47  C   UNL A   1      39.474  33.323  36.442  1.00  0.00     0.074 A 
ATOM     48  C   UNL A   1      38.406  34.279  36.626  1.00  0.00     0.031 C 
ATOM     49  C   UNL A   1      38.086  30.684  30.747  1.00  0.00     0.029 A 
ATOM     50  C   UNL A   1      39.221  30.380  31.614  1.00  0.00     0.049 A 
ATOM     51  H   UNL A   1      39.650  31.206  33.476  1.00  0.00     0.167 HD
ATOM     52  C   UNL A   1      40.476  33.113  37.329  1.00  0.00     0.037 A 
ATOM     53  C   UNL A   1      40.197  29.493  31.341  1.00  0.00     0.037 A 
ATOM     54  C   UNL A   1      41.515  32.133  37.160  1.00  0.00     0.049 A 
ATOM     55  C   UNL A   1      41.297  29.279  32.343  1.00  0.00     0.074 A 
ATOM     56  C   UNL A   1      42.534  31.799  38.034  1.00  0.00     0.029 A 
ATOM     57  N   UNL A   1      41.666  31.328  36.040  1.00  0.00    -0.354 N 
ATOM     58  N   UNL A   1      41.473  29.849  33.511  1.00  0.00    -0.248 NA
ATOM     59  C   UNL A   1      42.335  28.298  31.994  1.00  0.00     0.031 C 
ATOM     60  C   UNL A   1      43.326  30.821  37.427  1.00  0.00     0.029 A 
ATOM     61  C   UNL A   1      42.775  30.513  36.193  1.00  0.00     0.049 A 
ATOM     62  H   UNL A   1      41.073  31.336  35.255  1.00  0.00     0.167 HD
ATOM     63  C   UNL A   1      42.624  29.286  34.042  1.00  0.00     0.074 A 
ATOM     64  C   UNL A   1      43.101  28.318  33.076  1.00  0.00     0.031 C 
ATOM     65  C   UNL A   1      43.232  29.550  35.224  1.00  0.00     0.037 A 
BRANCH  52  66
ATOM     66  C   UNL A   1      40.490  33.945  38.578  1.00  0.00     0.064 A 
ATOM     67  C   UNL A   1      39.719  33.573  39.690  1.00  0.00     0.173 A 
ATOM     68  C   UNL A   1      41.214  35.144  38.653  1.00  0.00     0.173 A 
ATOM     69  F   UNL A   1      39.003  32.438  39.669  1.00  0.00    -0.203 F 
ATOM     70  C   UNL A   1      39.666  34.377  40.826  1.00  0.00     0.198 A 
ATOM     71  C   UNL A   1      41.180  35.931  39.800  1.00  0.00     0.198 A 
ATOM     72  F   UNL A   1      41.973  35.538  37.620  1.00  0.00    -0.203 F 
ATOM     73  F   UNL A   1      38.901  34.015  41.865  1.00  0.00    -0.200 F 
ATOM     74  C   UNL A   1      40.399  35.552  40.882  1.00  0.00     0.200 A 
ATOM     75  F   UNL A   1      41.907  37.055  39.861  1.00  0.00    -0.200 F 
ATOM     76  F   UNL A   1      40.355  36.319  41.980  1.00  0.00    -0.200 F 
ENDBRANCH  52  66
BRANCH  53  77
ATOM     77  C   UNL A   1      40.148  28.716  30.076  1.00  0.00     0.064 A 
ATOM     78  C   UNL A   1      39.503  27.473  30.005  1.00  0.00     0.173 A 
ATOM     79  C   UNL A   1      40.778  29.194  28.920  1.00  0.00     0.173 A 
ATOM     80  F   UNL A   1      38.889  26.971  31.085  1.00  0.00    -0.203 F 
ATOM     81  C   UNL A   1      39.508  26.728  28.827  1.00  0.00     0.198 A 
ATOM     82  C   UNL A   1      40.762  28.459  27.736  1.00  0.00     0.198 A 
ATOM     83  F   UNL A   1      41.390  30.387  28.935  1.00  0.00    -0.203 F 
ATOM     84  F   UNL A   1      38.913  25.528  28.792  1.00  0.00    -0.200 F 
ATOM     85  C   UNL A   1      40.134  27.224  27.693  1.00  0.00     0.200 A 
ATOM     86  F   UNL A   1      41.349  28.951  26.636  1.00  0.00    -0.200 F 
ATOM     87  F   UNL A   1      40.130  26.511  26.558  1.00  0.00    -0.200 F 
ENDBRANCH  53  77
BRANCH  65  88
ATOM     88  C   UNL A   1      44.473  28.778  35.557  1.00  0.00     0.064 A 
ATOM     89  C   UNL A   1      45.728  29.224  35.118  1.00  0.00     0.173 A 
ATOM     90  C   UNL A   1      44.408  27.549  36.230  1.00  0.00     0.173 A 
ATOM     91  F   UNL A   1      45.840  30.390  34.461  1.00  0.00    -0.203 F 
ATOM     92  C   UNL A   1      46.872  28.458  35.322  1.00  0.00     0.198 A 
ATOM     93  C   UNL A   1      45.558  26.798  36.456  1.00  0.00     0.198 A 
ATOM     94  F   UNL A   1      43.232  27.088  36.680  1.00  0.00    -0.203 F 
ATOM     95  F   UNL A   1      48.055  28.886  34.860  1.00  0.00    -0.200 F 
ATOM     96  C   UNL A   1      46.787  27.247  35.992  1.00  0.00     0.200 A 
ATOM     97  F   UNL A   1      45.478  25.638  37.120  1.00  0.00    -0.200 F 
ATOM     98  F   UNL A   1      47.888  26.511  36.191  1.00  0.00    -0.200 F 
ENDBRANCH  65  88
ENDBRANCH  39  40
ENDBRANCH  31  34
ENDBRANCH  29  30
ENDBRANCH  28  29
ENDBRANCH  27  28
ENDBRANCH  26  27
ENDBRANCH   1  26
TORSDOF 17
ENDMDL
MODEL 2
REMARK VINA RESULT:     -11.3      1.899      7.724
REMARK SMILES O=C(Cc1c(F)cccc1F)NC[C@H]1CC[C@H](C(=O)NCCCCCCNC(=O)c2ccc(-c3c4nc(c(-c5c(F)c(F)c(F)c(F)c5F)c5ccc([nH]5)c(-c5c(F)c(F)c(F)c(F)c5F)c5nc(c(-c6c(F)c(F)c(F)c(F)c6F)c6ccc3[nH]6)C=C5)C=C4)cc2)O1
REMARK SMILES IDX 22 1 21 2 20 3 18 4 19 5 17 7 14 8 15 9 93 10 16 11 13 12
REMARK SMILES IDX 12 13 1 14 2 15 3 17 4 18 5 19 10 20 6 21 7 22 9 23 11 24
REMARK SMILES IDX 8 25 23 26 24 27 25 28 26 29 27 30 28 31 29 33 30 34 31 35
REMARK SMILES IDX 92 36 32 37 91 38 33 39 34 40 35 41 85 42 36 43 90 44 84 45
REMARK SMILES IDX 86 46 37 47 89 48 83 49 82 50 38 52 70 53 50 54 69 55 51 56
REMARK SMILES IDX 54 57 68 58 87 59 52 60 53 61 67 63 88 64 55 65 39 66 40 67
REMARK SMILES IDX 48 68 41 69 42 70 46 71 49 72 43 73 44 74 47 75 45 76 71 77
REMARK SMILES IDX 72 78 80 79 73 80 74 81 78 82 81 83 75 84 76 85 79 86 77 87
REMARK SMILES IDX 56 88 57 89 65 90 58 91 59 92 63 93 66 94 60 95 61 96 64 97
REMARK SMILES IDX 62 98
REMARK H PARENT 20 6 12 16 27 32 86 51 54 62
REMARK Flexibility Score: inf
ROOT
ATOM      1  C   UNL A   1      33.017  29.734  25.183  1.00  0.00     0.021 C 
ENDROOT
BRANCH   1   2
ATOM      2  C   UNL A   1      33.009  28.890  23.908  1.00  0.00     0.116 C 
BRANCH   2   3
ATOM      3  N   UNL A   1      32.004  29.346  22.973  1.00  0.00    -0.354 N 
ATOM      4  C   UNL A   1      30.825  28.775  22.596  1.00  0.00     0.249 C 
ATOM      5  O   UNL A   1      30.145  29.382  21.762  1.00  0.00    -0.272 OA
ATOM      6  H   UNL A   1      32.204  30.206  22.538  1.00  0.00     0.163 HD
BRANCH   4   7
ATOM      7  C   UNL A   1      30.376  27.384  23.104  1.00  0.00     0.207 C 
ATOM      8  C   UNL A   1      31.032  26.037  24.914  1.00  0.00     0.138 C 
ATOM      9  C   UNL A   1      31.984  25.757  23.758  1.00  0.00     0.037 C 
ATOM     10  O   UNL A   1      30.268  27.195  24.517  1.00  0.00    -0.363 OA
ATOM     11  C   UNL A   1      31.258  26.278  22.549  1.00  0.00     0.045 C 
BRANCH   8  12
ATOM     12  C   UNL A   1      30.075  24.887  25.295  1.00  0.00     0.147 C 
BRANCH  12  13
ATOM     13  N   UNL A   1      30.718  23.590  25.277  1.00  0.00    -0.353 N 
ATOM     14  O   UNL A   1      31.458  23.698  27.429  1.00  0.00    -0.275 OA
ATOM     15  C   UNL A   1      31.485  23.144  26.330  1.00  0.00     0.224 C 
ATOM     16  H   UNL A   1      30.603  23.010  24.490  1.00  0.00     0.163 HD
BRANCH  15  17
ATOM     17  C   UNL A   1      32.542  22.094  26.010  1.00  0.00     0.141 C 
BRANCH  17  18
ATOM     18  C   UNL A   1      33.868  22.575  25.490  1.00  0.00     0.033 A 
ATOM     19  C   UNL A   1      34.872  23.031  26.349  1.00  0.00     0.129 A 
ATOM     20  C   UNL A   1      34.152  22.553  24.126  1.00  0.00     0.129 A 
ATOM     21  F   UNL A   1      34.642  23.081  27.669  1.00  0.00    -0.207 F 
ATOM     22  C   UNL A   1      36.096  23.493  25.873  1.00  0.00     0.040 A 
ATOM     23  C   UNL A   1      35.379  22.989  23.630  1.00  0.00     0.040 A 
ATOM     24  F   UNL A   1      33.237  22.093  23.260  1.00  0.00    -0.207 F 
ATOM     25  C   UNL A   1      36.353  23.471  24.506  1.00  0.00     0.006 A 
ENDBRANCH  17  18
ENDBRANCH  15  17
ENDBRANCH  12  13
ENDBRANCH   8  12
ENDBRANCH   4   7
ENDBRANCH   2   3
ENDBRANCH   1   2
BRANCH   1  26
ATOM     26  C   UNL A   1      31.637  29.919  25.816  1.00  0.00     0.002 C 
BRANCH  26  27
ATOM     27  C   UNL A   1      31.077  31.345  25.739  1.00  0.00     0.002 C 
BRANCH  27  28
ATOM     28  C   UNL A   1      31.283  32.201  26.994  1.00  0.00     0.021 C 
BRANCH  28  29
ATOM     29  C   UNL A   1      32.607  32.958  27.043  1.00  0.00     0.116 C 
BRANCH  29  30
ATOM     30  N   UNL A   1      32.440  34.299  27.580  1.00  0.00    -0.352 N 
ATOM     31  C   UNL A   1      33.020  34.883  28.673  1.00  0.00     0.251 C 
ATOM     32  H   UNL A   1      31.815  34.874  27.082  1.00  0.00     0.163 HD
ATOM     33  O   UNL A   1      32.577  35.948  29.106  1.00  0.00    -0.269 OA
BRANCH  31  34
ATOM     34  C   UNL A   1      34.176  34.251  29.342  1.00  0.00     0.039 A 
ATOM     35  C   UNL A   1      35.462  34.528  28.871  1.00  0.00     0.014 A 
ATOM     36  C   UNL A   1      33.994  33.340  30.388  1.00  0.00     0.014 A 
ATOM     37  C   UNL A   1      36.567  33.919  29.468  1.00  0.00     0.010 A 
ATOM     38  C   UNL A   1      35.101  32.782  31.024  1.00  0.00     0.010 A 
ATOM     39  C   UNL A   1      36.396  33.055  30.561  1.00  0.00    -0.014 A 
BRANCH  39  40
ATOM     40  C   UNL A   1      37.562  32.409  31.213  1.00  0.00     0.031 A 
ATOM     41  C   UNL A   1      38.292  31.294  30.519  1.00  0.00     0.074 A 
ATOM     42  C   UNL A   1      37.935  32.798  32.447  1.00  0.00     0.049 A 
ATOM     43  N   UNL A   1      39.299  30.573  30.944  1.00  0.00    -0.248 NA
ATOM     44  C   UNL A   1      37.814  30.922  29.178  1.00  0.00     0.031 C 
ATOM     45  C   UNL A   1      37.281  33.841  33.236  1.00  0.00     0.029 A 
ATOM     46  N   UNL A   1      38.954  32.357  33.255  1.00  0.00    -0.354 N 
ATOM     47  C   UNL A   1      39.563  29.659  29.932  1.00  0.00     0.074 A 
ATOM     48  C   UNL A   1      38.583  29.881  28.893  1.00  0.00     0.031 C 
ATOM     49  C   UNL A   1      37.928  33.979  34.404  1.00  0.00     0.029 A 
ATOM     50  C   UNL A   1      39.021  33.012  34.460  1.00  0.00     0.049 A 
ATOM     51  H   UNL A   1      39.576  31.639  32.997  1.00  0.00     0.167 HD
ATOM     52  C   UNL A   1      40.550  28.735  29.869  1.00  0.00     0.037 A 
ATOM     53  C   UNL A   1      39.868  32.849  35.495  1.00  0.00     0.037 A 
ATOM     54  C   UNL A   1      41.547  28.544  30.889  1.00  0.00     0.049 A 
ATOM     55  C   UNL A   1      40.956  31.816  35.399  1.00  0.00     0.074 A 
ATOM     56  C   UNL A   1      42.628  27.681  30.886  1.00  0.00     0.029 A 
ATOM     57  N   UNL A   1      41.584  29.230  32.094  1.00  0.00    -0.354 N 
ATOM     58  N   UNL A   1      41.232  30.998  34.413  1.00  0.00    -0.248 NA
ATOM     59  C   UNL A   1      41.852  31.683  36.557  1.00  0.00     0.031 C 
ATOM     60  C   UNL A   1      43.297  27.814  32.106  1.00  0.00     0.029 A 
ATOM     61  C   UNL A   1      42.658  28.793  32.851  1.00  0.00     0.049 A 
ATOM     62  H   UNL A   1      40.943  29.924  32.370  1.00  0.00     0.167 HD
ATOM     63  C   UNL A   1      42.341  30.268  34.821  1.00  0.00     0.074 A 
ATOM     64  C   UNL A   1      42.696  30.749  36.140  1.00  0.00     0.031 C 
ATOM     65  C   UNL A   1      43.002  29.286  34.160  1.00  0.00     0.037 A 
BRANCH  52  66
ATOM     66  C   UNL A   1      40.621  27.868  28.647  1.00  0.00     0.064 A 
ATOM     67  C   UNL A   1      39.959  26.631  28.612  1.00  0.00     0.173 A 
ATOM     68  C   UNL A   1      41.396  28.228  27.535  1.00  0.00     0.173 A 
ATOM     69  F   UNL A   1      39.208  26.235  29.653  1.00  0.00    -0.203 F 
ATOM     70  C   UNL A   1      40.079  25.785  27.513  1.00  0.00     0.198 A 
ATOM     71  C   UNL A   1      41.492  27.392  26.427  1.00  0.00     0.198 A 
ATOM     72  F   UNL A   1      42.040  29.405  27.516  1.00  0.00    -0.203 F 
ATOM     73  F   UNL A   1      39.460  24.596  27.514  1.00  0.00    -0.200 F 
ATOM     74  C   UNL A   1      40.842  26.167  26.421  1.00  0.00     0.200 A 
ATOM     75  F   UNL A   1      42.211  27.774  25.362  1.00  0.00    -0.200 F 
ATOM     76  F   UNL A   1      40.948  25.357  25.359  1.00  0.00    -0.200 F 
ENDBRANCH  52  66
BRANCH  53  77
ATOM     77  C   UNL A   1      39.736  33.717  36.693  1.00  0.00     0.064 A 
ATOM     78  C   UNL A   1      38.910  33.360  37.768  1.00  0.00     0.173 A 
ATOM     79  C   UNL A   1      40.413  34.942  36.766  1.00  0.00     0.173 A 
ATOM     80  F   UNL A   1      38.239  32.200  37.743  1.00  0.00    -0.203 F 
ATOM     81  C   UNL A   1      38.752  34.206  38.864  1.00  0.00     0.198 A 
ATOM     82  C   UNL A   1      40.273  35.776  37.873  1.00  0.00     0.198 A 
ATOM     83  F   UNL A   1      41.229  35.317  35.771  1.00  0.00    -0.203 F 
ATOM     84  F   UNL A   1      37.932  33.858  39.865  1.00  0.00    -0.200 F 
ATOM     85  C   UNL A   1      39.436  35.411  38.917  1.00  0.00     0.200 A 
ATOM     86  F   UNL A   1      40.952  36.930  37.932  1.00  0.00    -0.200 F 
ATOM     87  F   UNL A   1      39.292  36.220  39.977  1.00  0.00    -0.200 F 
ENDBRANCH  53  77
BRANCH  65  88
ATOM     88  C   UNL A   1      44.187  28.668  34.837  1.00  0.00     0.064 A 
ATOM     89  C   UNL A   1      44.027  27.554  35.675  1.00  0.00     0.173 A 
ATOM     90  C   UNL A   1      45.465  29.235  34.731  1.00  0.00     0.173 A 
ATOM     91  F   UNL A   1      42.822  26.982  35.817  1.00  0.00    -0.203 F 
ATOM     92  C   UNL A   1      45.101  27.043  36.398  1.00  0.00     0.198 A 
ATOM     93  C   UNL A   1      46.543  28.705  35.435  1.00  0.00     0.198 A 
ATOM     94  F   UNL A   1      45.669  30.293  33.932  1.00  0.00    -0.203 F 
ATOM     95  F   UNL A   1      44.917  26.001  37.221  1.00  0.00    -0.200 F 
ATOM     96  C   UNL A   1      46.358  27.617  36.276  1.00  0.00     0.200 A 
ATOM     97  F   UNL A   1      47.760  29.247  35.301  1.00  0.00    -0.200 F 
ATOM     98  F   UNL A   1      47.392  27.122  36.969  1.00  0.00    -0.200 F 
ENDBRANCH  65  88
ENDBRANCH  39  40
ENDBRANCH  31  34
ENDBRANCH  29  30
ENDBRANCH  28  29
ENDBRANCH  27  28
ENDBRANCH  26  27
ENDBRANCH   1  26
TORSDOF 17
ENDMDL
MODEL 3
REMARK VINA RESULT:     -11.3      6.800     12.344
REMARK SMILES O=C(Cc1c(F)cccc1F)NC[C@H]1CC[C@H](C(=O)NCCCCCCNC(=O)c2ccc(-c3c4nc(c(-c5c(F)c(F)c(F)c(F)c5F)c5ccc([nH]5)c(-c5c(F)c(F)c(F)c(F)c5F)c5nc(c(-c6c(F)c(F)c(F)c(F)c6F)c6ccc3[nH]6)C=C5)C=C4)cc2)O1
REMARK SMILES IDX 22 1 21 2 20 3 18 4 19 5 17 7 14 8 15 9 93 10 16 11 13 12
REMARK SMILES IDX 12 13 1 14 2 15 3 17 4 18 5 19 10 20 6 21 7 22 9 23 11 24
REMARK SMILES IDX 8 25 23 26 24 27 25 28 26 29 27 30 28 31 29 33 30 34 31 35
REMARK SMILES IDX 92 36 32 37 91 38 33 39 34 40 35 41 85 42 36 43 90 44 84 45
REMARK SMILES IDX 86 46 37 47 89 48 83 49 82 50 38 52 70 53 50 54 69 55 51 56
REMARK SMILES IDX 54 57 68 58 87 59 52 60 53 61 67 63 88 64 55 65 39 66 40 67
REMARK SMILES IDX 48 68 41 69 42 70 46 71 49 72 43 73 44 74 47 75 45 76 71 77
REMARK SMILES IDX 72 78 80 79 73 80 74 81 78 82 81 83 75 84 76 85 79 86 77 87
REMARK SMILES IDX 56 88 57 89 65 90 58 91 59 92 63 93 66 94 60 95 61 96 64 97
REMARK SMILES IDX 62 98
REMARK H PARENT 20 6 12 16 27 32 86 51 54 62
REMARK Flexibility Score: inf
ROOT
ATOM      1  C   UNL A   1      40.614  22.647  27.443  1.00  0.00     0.021 C 
ENDROOT
BRANCH   1   2
ATOM      2  C   UNL A   1      39.357  23.083  26.689  1.00  0.00     0.116 C 
BRANCH   2   3
ATOM      3  N   UNL A   1      38.926  22.076  25.744  1.00  0.00    -0.354 N 
ATOM      4  C   UNL A   1      37.673  21.732  25.331  1.00  0.00     0.249 C 
ATOM      5  O   UNL A   1      37.582  20.817  24.504  1.00  0.00    -0.272 OA
ATOM      6  H   UNL A   1      39.653  21.556  25.333  1.00  0.00     0.163 HD
BRANCH   4   7
ATOM      7  C   UNL A   1      36.397  22.376  25.923  1.00  0.00     0.207 C 
ATOM      8  C   UNL A   1      34.105  21.899  25.719  1.00  0.00     0.138 C 
ATOM      9  C   UNL A   1      34.501  22.789  24.547  1.00  0.00     0.037 C 
ATOM     10  O   UNL A   1      35.345  21.503  26.342  1.00  0.00    -0.363 OA
ATOM     11  C   UNL A   1      35.803  23.406  24.975  1.00  0.00     0.045 C 
BRANCH   8  12
ATOM     12  C   UNL A   1      33.175  22.542  26.771  1.00  0.00     0.147 C 
BRANCH  12  13
ATOM     13  N   UNL A   1      32.699  23.851  26.377  1.00  0.00    -0.353 N 
ATOM     14  O   UNL A   1      30.622  23.594  27.277  1.00  0.00    -0.275 OA
ATOM     15  C   UNL A   1      31.388  24.233  26.554  1.00  0.00     0.224 C 
ATOM     16  H   UNL A   1      33.332  24.487  25.970  1.00  0.00     0.163 HD
BRANCH  15  17
ATOM     17  C   UNL A   1      30.864  25.328  25.635  1.00  0.00     0.141 C 
BRANCH  17  18
ATOM     18  C   UNL A   1      31.678  25.666  24.416  1.00  0.00     0.033 A 
ATOM     19  C   UNL A   1      31.406  25.093  23.171  1.00  0.00     0.129 A 
ATOM     20  C   UNL A   1      32.717  26.591  24.484  1.00  0.00     0.129 A 
ATOM     21  F   UNL A   1      30.423  24.189  23.057  1.00  0.00    -0.207 F 
ATOM     22  C   UNL A   1      32.166  25.388  22.043  1.00  0.00     0.040 A 
ATOM     23  C   UNL A   1      33.475  26.919  23.362  1.00  0.00     0.040 A 
ATOM     24  F   UNL A   1      32.997  27.197  25.647  1.00  0.00    -0.207 F 
ATOM     25  C   UNL A   1      33.206  26.308  22.137  1.00  0.00     0.006 A 
ENDBRANCH  17  18
ENDBRANCH  15  17
ENDBRANCH  12  13
ENDBRANCH   8  12
ENDBRANCH   4   7
ENDBRANCH   2   3
ENDBRANCH   1   2
BRANCH   1  26
ATOM     26  C   UNL A   1      41.444  21.591  26.711  1.00  0.00     0.002 C 
BRANCH  26  27
ATOM     27  C   UNL A   1      41.986  20.465  27.600  1.00  0.00     0.002 C 
BRANCH  27  28
ATOM     28  C   UNL A   1      42.476  19.217  26.857  1.00  0.00     0.021 C 
BRANCH  28  29
ATOM     29  C   UNL A   1      42.443  19.324  25.334  1.00  0.00     0.116 C 
BRANCH  29  30
ATOM     30  N   UNL A   1      43.689  18.872  24.737  1.00  0.00    -0.352 N 
ATOM     31  C   UNL A   1      44.791  19.591  24.360  1.00  0.00     0.251 C 
ATOM     32  H   UNL A   1      43.750  17.902  24.579  1.00  0.00     0.163 HD
ATOM     33  O   UNL A   1      45.655  19.066  23.656  1.00  0.00    -0.269 OA
BRANCH  31  34
ATOM     34  C   UNL A   1      44.959  20.994  24.791  1.00  0.00     0.039 A 
ATOM     35  C   UNL A   1      45.398  21.253  26.092  1.00  0.00     0.014 A 
ATOM     36  C   UNL A   1      44.625  22.054  23.941  1.00  0.00     0.014 A 
ATOM     37  C   UNL A   1      45.536  22.571  26.530  1.00  0.00     0.010 A 
ATOM     38  C   UNL A   1      44.822  23.368  24.358  1.00  0.00     0.010 A 
ATOM     39  C   UNL A   1      45.266  23.640  25.660  1.00  0.00    -0.014 A 
BRANCH  39  40
ATOM     40  C   UNL A   1      45.418  25.045  26.108  1.00  0.00     0.031 A 
ATOM     41  C   UNL A   1      46.760  25.719  26.037  1.00  0.00     0.074 A 
ATOM     42  C   UNL A   1      44.359  25.700  26.620  1.00  0.00     0.049 A 
ATOM     43  N   UNL A   1      47.105  26.920  26.426  1.00  0.00    -0.248 NA
ATOM     44  C   UNL A   1      47.868  24.931  25.476  1.00  0.00     0.031 C 
ATOM     45  C   UNL A   1      43.016  25.140  26.776  1.00  0.00     0.029 A 
ATOM     46  N   UNL A   1      44.245  26.979  27.107  1.00  0.00    -0.354 N 
ATOM     47  C   UNL A   1      48.465  27.025  26.170  1.00  0.00     0.074 A 
ATOM     48  C   UNL A   1      48.896  25.752  25.637  1.00  0.00     0.031 C 
ATOM     49  C   UNL A   1      42.208  26.076  27.297  1.00  0.00     0.029 A 
ATOM     50  C   UNL A   1      42.981  27.290  27.543  1.00  0.00     0.049 A 
ATOM     51  H   UNL A   1      44.998  27.612  27.142  1.00  0.00     0.167 HD
ATOM     52  C   UNL A   1      49.274  28.097  26.341  1.00  0.00     0.037 A 
ATOM     53  C   UNL A   1      42.499  28.427  28.082  1.00  0.00     0.037 A 
ATOM     54  C   UNL A   1      48.833  29.374  26.835  1.00  0.00     0.049 A 
ATOM     55  C   UNL A   1      43.420  29.602  28.262  1.00  0.00     0.074 A 
ATOM     56  C   UNL A   1      49.563  30.540  26.979  1.00  0.00     0.029 A 
ATOM     57  N   UNL A   1      47.543  29.651  27.262  1.00  0.00    -0.354 N 
ATOM     58  N   UNL A   1      44.691  29.709  27.961  1.00  0.00    -0.248 NA
ATOM     59  C   UNL A   1      42.840  30.817  28.854  1.00  0.00     0.031 C 
ATOM     60  C   UNL A   1      48.726  31.513  27.533  1.00  0.00     0.029 A 
ATOM     61  C   UNL A   1      47.462  30.966  27.692  1.00  0.00     0.049 A 
ATOM     62  H   UNL A   1      46.796  29.010  27.261  1.00  0.00     0.167 HD
ATOM     63  C   UNL A   1      45.059  31.002  28.308  1.00  0.00     0.074 A 
ATOM     64  C   UNL A   1      43.874  31.648  28.830  1.00  0.00     0.031 C 
ATOM     65  C   UNL A   1      46.272  31.596  28.203  1.00  0.00     0.037 A 
BRANCH  52  66
ATOM     66  C   UNL A   1      50.722  27.947  25.974  1.00  0.00     0.064 A 
ATOM     67  C   UNL A   1      51.685  27.699  26.964  1.00  0.00     0.173 A 
ATOM     68  C   UNL A   1      51.164  28.115  24.654  1.00  0.00     0.173 A 
ATOM     69  F   UNL A   1      51.316  27.537  28.244  1.00  0.00    -0.203 F 
ATOM     70  C   UNL A   1      53.039  27.634  26.644  1.00  0.00     0.198 A 
ATOM     71  C   UNL A   1      52.516  28.022  24.335  1.00  0.00     0.198 A 
ATOM     72  F   UNL A   1      50.281  28.344  23.671  1.00  0.00    -0.203 F 
ATOM     73  F   UNL A   1      53.944  27.423  27.611  1.00  0.00    -0.200 F 
ATOM     74  C   UNL A   1      53.453  27.791  25.331  1.00  0.00     0.200 A 
ATOM     75  F   UNL A   1      52.912  28.151  23.061  1.00  0.00    -0.200 F 
ATOM     76  F   UNL A   1      54.755  27.717  25.023  1.00  0.00    -0.200 F 
ENDBRANCH  52  66
BRANCH  53  77
ATOM     77  C   UNL A   1      41.064  28.511  28.453  1.00  0.00     0.064 A 
ATOM     78  C   UNL A   1      40.101  28.985  27.551  1.00  0.00     0.173 A 
ATOM     79  C   UNL A   1      40.635  28.147  29.737  1.00  0.00     0.173 A 
ATOM     80  F   UNL A   1      40.462  29.348  26.312  1.00  0.00    -0.203 F 
ATOM     81  C   UNL A   1      38.764  29.109  27.926  1.00  0.00     0.198 A 
ATOM     82  C   UNL A   1      39.295  28.250  30.103  1.00  0.00     0.198 A 
ATOM     83  F   UNL A   1      41.516  27.671  30.627  1.00  0.00    -0.203 F 
ATOM     84  F   UNL A   1      37.868  29.595  27.056  1.00  0.00    -0.200 F 
ATOM     85  C   UNL A   1      38.362  28.739  29.200  1.00  0.00     0.200 A 
ATOM     86  F   UNL A   1      38.905  27.871  31.328  1.00  0.00    -0.200 F 
ATOM     87  F   UNL A   1      37.075  28.849  29.557  1.00  0.00    -0.200 F 
ENDBRANCH  53  77
BRANCH  65  88
ATOM     88  C   UNL A   1      46.389  33.023  28.647  1.00  0.00     0.064 A 
ATOM     89  C   UNL A   1      46.662  33.332  29.988  1.00  0.00     0.173 A 
ATOM     90  C   UNL A   1      46.137  34.083  27.764  1.00  0.00     0.173 A 
ATOM     91  F   UNL A   1      46.900  32.351  30.873  1.00  0.00    -0.203 F 
ATOM     92  C   UNL A   1      46.659  34.650  30.433  1.00  0.00     0.198 A 
ATOM     93  C   UNL A   1      46.161  35.403  28.208  1.00  0.00     0.198 A 
ATOM     94  F   UNL A   1      45.885  33.838  26.470  1.00  0.00    -0.203 F 
ATOM     95  F   UNL A   1      46.884  34.919  31.727  1.00  0.00    -0.200 F 
ATOM     96  C   UNL A   1      46.410  35.684  29.544  1.00  0.00     0.200 A 
ATOM     97  F   UNL A   1      45.941  36.402  27.344  1.00  0.00    -0.200 F 
ATOM     98  F   UNL A   1      46.411  36.953  29.972  1.00  0.00    -0.200 F 
ENDBRANCH  65  88
ENDBRANCH  39  40
ENDBRANCH  31  34
ENDBRANCH  29  30
ENDBRANCH  28  29
ENDBRANCH  27  28
ENDBRANCH  26  27
ENDBRANCH   1  26
TORSDOF 17
ENDMDL
