MODEL 1
REMARK VINA RESULT:     -10.0      0.000      0.000
REMARK SMILES COCC[C@H]1CCC[C@@]1([NH3+])C(=O)NCCCCCCNC(=O)c1ccc(-c2c3nc(c(-c4c(F)c(F)c(F)c(F)c4F)c4ccc([nH]4)c(-c4c(F)c(F)c(F)c(F)c4F)c4nc(c(-c5c(F)c(F)c(F)c(F)c5F)c5ccc2[nH]5)C=C4)C=C3)cc1
REMARK SMILES IDX 16 1 15 2 14 3 13 4 11 5 12 6 9 8 5 9 6 10 7 11 8 12 4 13
REMARK SMILES IDX 3 14 2 15 1 16 10 17 17 21 18 22 19 23 20 24 21 25 22 27
REMARK SMILES IDX 23 28 24 29 85 30 25 31 84 32 26 33 27 34 28 35 78 36 29 37
REMARK SMILES IDX 83 38 77 39 79 40 30 41 82 42 76 43 75 44 31 46 63 47 43 48
REMARK SMILES IDX 62 49 44 50 47 51 61 52 80 53 45 54 46 55 60 57 81 58 48 59
REMARK SMILES IDX 32 60 33 61 41 62 34 63 35 64 39 65 42 66 36 67 37 68 40 69
REMARK SMILES IDX 38 70 64 71 65 72 73 73 66 74 67 75 71 76 74 77 68 78 69 79
REMARK SMILES IDX 72 80 70 81 49 82 50 83 58 84 51 85 52 86 56 87 59 88 53 89
REMARK SMILES IDX 54 90 57 91 55 92
REMARK H PARENT 13 7 10 18 10 19 10 20 20 26 79 45 47 56
REMARK Flexibility Score: inf
ROOT
ATOM      1  C   UNL A   1      34.468  32.300  28.952  1.00  0.00     0.002 C 
ENDROOT
BRANCH   1   2
ATOM      2  C   UNL A   1      35.256  31.604  27.842  1.00  0.00     0.021 C 
BRANCH   2   3
ATOM      3  C   UNL A   1      35.021  30.089  27.691  1.00  0.00     0.116 C 
BRANCH   3   4
ATOM      4  N   UNL A   1      33.600  29.785  27.661  1.00  0.00    -0.351 N 
ATOM      5  C   UNL A   1      32.665  29.304  26.825  1.00  0.00     0.281 C 
ATOM      6  O   UNL A   1      31.536  29.338  27.366  1.00  0.00    -0.268 OA
ATOM      7  H   UNL A   1      33.194  30.000  28.531  1.00  0.00     0.163 HD
BRANCH   5   8
ATOM      8  C   UNL A   1      32.756  28.554  25.423  1.00  0.00     0.176 C 
ATOM      9  C   UNL A   1      33.614  27.349  24.936  1.00  0.00     0.063 C 
ATOM     10  C   UNL A   1      32.823  26.761  23.725  1.00  0.00     0.011 C 
ATOM     11  C   UNL A   1      31.453  27.423  23.696  1.00  0.00     0.008 C 
ATOM     12  C   UNL A   1      31.326  28.128  25.038  1.00  0.00     0.079 C 
BRANCH   9  13
ATOM     13  C   UNL A   1      33.990  26.208  25.880  1.00  0.00     0.039 C 
BRANCH  13  14
ATOM     14  C   UNL A   1      33.450  24.856  25.415  1.00  0.00     0.160 C 
BRANCH  14  15
ATOM     15  O   UNL A   1      33.584  23.884  26.432  1.00  0.00    -0.385 OA
ATOM     16  C   UNL A   1      32.520  22.948  26.504  1.00  0.00     0.194 C 
ENDBRANCH  14  15
ENDBRANCH  13  14
ENDBRANCH   9  13
BRANCH   8  17
ATOM     17  N   UNL A   1      33.200  29.653  24.476  1.00  0.00    -0.345 N 
ATOM     18  H   UNL A   1      32.927  30.560  24.855  1.00  0.00     0.345 HD
ATOM     19  H   UNL A   1      32.757  29.518  23.567  1.00  0.00     0.345 HD
ATOM     20  H   UNL A   1      34.214  29.621  24.369  1.00  0.00     0.345 HD
ENDBRANCH   8  17
ENDBRANCH   5   8
ENDBRANCH   3   4
ENDBRANCH   2   3
ENDBRANCH   1   2
BRANCH   1  21
ATOM     21  C   UNL A   1      34.563  33.826  28.975  1.00  0.00     0.002 C 
BRANCH  21  22
ATOM     22  C   UNL A   1      33.234  34.584  28.924  1.00  0.00     0.021 C 
BRANCH  22  23
ATOM     23  C   UNL A   1      33.281  36.041  29.387  1.00  0.00     0.116 C 
BRANCH  23  24
ATOM     24  N   UNL A   1      32.510  36.266  30.598  1.00  0.00    -0.352 N 
ATOM     25  C   UNL A   1      32.659  35.763  31.865  1.00  0.00     0.251 C 
ATOM     26  H   UNL A   1      31.751  36.884  30.490  1.00  0.00     0.163 HD
ATOM     27  O   UNL A   1      31.767  35.923  32.692  1.00  0.00    -0.269 OA
BRANCH  25  28
ATOM     28  C   UNL A   1      33.880  35.023  32.251  1.00  0.00     0.039 A 
ATOM     29  C   UNL A   1      33.748  33.710  32.713  1.00  0.00     0.014 A 
ATOM     30  C   UNL A   1      35.137  35.630  32.230  1.00  0.00     0.014 A 
ATOM     31  C   UNL A   1      34.880  32.988  33.101  1.00  0.00     0.010 A 
ATOM     32  C   UNL A   1      36.274  34.890  32.556  1.00  0.00     0.010 A 
ATOM     33  C   UNL A   1      36.157  33.564  33.001  1.00  0.00    -0.014 A 
BRANCH  33  34
ATOM     34  C   UNL A   1      37.377  32.797  33.360  1.00  0.00     0.031 A 
ATOM     35  C   UNL A   1      38.106  33.091  34.642  1.00  0.00     0.074 A 
ATOM     36  C   UNL A   1      37.864  31.879  32.502  1.00  0.00     0.049 A 
ATOM     37  N   UNL A   1      39.228  32.587  35.092  1.00  0.00    -0.248 NA
ATOM     38  C   UNL A   1      37.507  34.103  35.527  1.00  0.00     0.031 C 
ATOM     39  C   UNL A   1      37.266  31.527  31.214  1.00  0.00     0.029 A 
ATOM     40  N   UNL A   1      38.980  31.083  32.580  1.00  0.00    -0.354 N 
ATOM     41  C   UNL A   1      39.480  33.235  36.295  1.00  0.00     0.074 A 
ATOM     42  C   UNL A   1      38.414  34.195  36.489  1.00  0.00     0.031 C 
ATOM     43  C   UNL A   1      38.010  30.573  30.630  1.00  0.00     0.029 A 
ATOM     44  C   UNL A   1      39.157  30.275  31.482  1.00  0.00     0.049 A 
ATOM     45  H   UNL A   1      39.596  31.091  33.348  1.00  0.00     0.167 HD
ATOM     46  C   UNL A   1      40.499  33.035  37.165  1.00  0.00     0.037 A 
ATOM     47  C   UNL A   1      40.140  29.401  31.193  1.00  0.00     0.037 A 
ATOM     48  C   UNL A   1      41.534  32.051  36.987  1.00  0.00     0.049 A 
ATOM     49  C   UNL A   1      41.263  29.207  32.176  1.00  0.00     0.074 A 
ATOM     50  C   UNL A   1      42.564  31.717  37.850  1.00  0.00     0.029 A 
ATOM     51  N   UNL A   1      41.673  31.243  35.869  1.00  0.00    -0.354 N 
ATOM     52  N   UNL A   1      41.450  29.773  33.343  1.00  0.00    -0.248 NA
ATOM     53  C   UNL A   1      42.311  28.246  31.802  1.00  0.00     0.031 C 
ATOM     54  C   UNL A   1      43.355  30.744  37.233  1.00  0.00     0.029 A 
ATOM     55  C   UNL A   1      42.788  30.432  36.008  1.00  0.00     0.049 A 
ATOM     56  H   UNL A   1      41.069  31.245  35.092  1.00  0.00     0.167 HD
ATOM     57  C   UNL A   1      42.612  29.213  33.857  1.00  0.00     0.074 A 
ATOM     58  C   UNL A   1      43.083  28.255  32.878  1.00  0.00     0.031 C 
ATOM     59  C   UNL A   1      43.234  29.470  35.034  1.00  0.00     0.037 A 
BRANCH  46  60
ATOM     60  C   UNL A   1      40.551  33.896  38.393  1.00  0.00     0.064 A 
ATOM     61  C   UNL A   1      41.275  35.096  38.424  1.00  0.00     0.173 A 
ATOM     62  C   UNL A   1      39.817  33.544  39.537  1.00  0.00     0.173 A 
ATOM     63  F   UNL A   1      42.000  35.475  37.361  1.00  0.00    -0.203 F 
ATOM     64  C   UNL A   1      41.280  35.902  39.561  1.00  0.00     0.198 A 
ATOM     65  C   UNL A   1      39.801  34.365  40.661  1.00  0.00     0.198 A 
ATOM     66  F   UNL A   1      39.101  32.408  39.558  1.00  0.00    -0.203 F 
ATOM     67  F   UNL A   1      42.011  37.025  39.581  1.00  0.00    -0.200 F 
ATOM     68  C   UNL A   1      40.537  35.540  40.674  1.00  0.00     0.200 A 
ATOM     69  F   UNL A   1      39.071  34.021  41.730  1.00  0.00    -0.200 F 
ATOM     70  F   UNL A   1      40.533  36.322  41.762  1.00  0.00    -0.200 F 
ENDBRANCH  46  60
BRANCH  47  71
ATOM     71  C   UNL A   1      40.101  28.625  29.926  1.00  0.00     0.064 A 
ATOM     72  C   UNL A   1      39.490  27.363  29.877  1.00  0.00     0.173 A 
ATOM     73  C   UNL A   1      40.689  29.110  28.749  1.00  0.00     0.173 A 
ATOM     74  F   UNL A   1      38.933  26.847  30.983  1.00  0.00    -0.203 F 
ATOM     75  C   UNL A   1      39.492  26.606  28.708  1.00  0.00     0.198 A 
ATOM     76  C   UNL A   1      40.665  28.364  27.572  1.00  0.00     0.198 A 
ATOM     77  F   UNL A   1      41.284  30.312  28.741  1.00  0.00    -0.203 F 
ATOM     78  F   UNL A   1      38.948  25.382  28.705  1.00  0.00    -0.200 F 
ATOM     79  C   UNL A   1      40.075  27.109  27.555  1.00  0.00     0.200 A 
ATOM     80  F   UNL A   1      41.219  28.859  26.457  1.00  0.00    -0.200 F 
ATOM     81  F   UNL A   1      40.079  26.380  26.431  1.00  0.00    -0.200 F 
ENDBRANCH  47  71
BRANCH  59  82
ATOM     82  C   UNL A   1      44.462  28.669  35.354  1.00  0.00     0.064 A 
ATOM     83  C   UNL A   1      45.745  29.118  35.008  1.00  0.00     0.173 A 
ATOM     84  C   UNL A   1      44.356  27.459  36.056  1.00  0.00     0.173 A 
ATOM     85  F   UNL A   1      45.899  30.261  34.322  1.00  0.00    -0.203 F 
ATOM     86  C   UNL A   1      46.875  28.372  35.333  1.00  0.00     0.198 A 
ATOM     87  C   UNL A   1      45.489  26.731  36.406  1.00  0.00     0.198 A 
ATOM     88  F   UNL A   1      43.151  26.990  36.416  1.00  0.00    -0.203 F 
ATOM     89  F   UNL A   1      48.088  28.796  34.952  1.00  0.00    -0.200 F 
ATOM     90  C   UNL A   1      46.747  27.184  36.038  1.00  0.00     0.200 A 
ATOM     91  F   UNL A   1      45.364  25.591  37.099  1.00  0.00    -0.200 F 
ATOM     92  F   UNL A   1      47.836  26.473  36.357  1.00  0.00    -0.200 F 
ENDBRANCH  59  82
ENDBRANCH  33  34
ENDBRANCH  25  28
ENDBRANCH  23  24
ENDBRANCH  22  23
ENDBRANCH  21  22
ENDBRANCH   1  21
TORSDOF 17
ENDMDL
MODEL 2
REMARK VINA RESULT:      -9.9      1.791      2.526
REMARK SMILES COCC[C@H]1CCC[C@@]1([NH3+])C(=O)NCCCCCCNC(=O)c1ccc(-c2c3nc(c(-c4c(F)c(F)c(F)c(F)c4F)c4ccc([nH]4)c(-c4c(F)c(F)c(F)c(F)c4F)c4nc(c(-c5c(F)c(F)c(F)c(F)c5F)c5ccc2[nH]5)C=C4)C=C3)cc1
REMARK SMILES IDX 16 1 15 2 14 3 13 4 11 5 12 6 9 8 5 9 6 10 7 11 8 12 4 13
REMARK SMILES IDX 3 14 2 15 1 16 10 17 17 21 18 22 19 23 20 24 21 25 22 27
REMARK SMILES IDX 23 28 24 29 85 30 25 31 84 32 26 33 27 34 28 35 78 36 29 37
REMARK SMILES IDX 83 38 77 39 79 40 30 41 82 42 76 43 75 44 31 46 63 47 43 48
REMARK SMILES IDX 62 49 44 50 47 51 61 52 80 53 45 54 46 55 60 57 81 58 48 59
REMARK SMILES IDX 32 60 33 61 41 62 34 63 35 64 39 65 42 66 36 67 37 68 40 69
REMARK SMILES IDX 38 70 64 71 65 72 73 73 66 74 67 75 71 76 74 77 68 78 69 79
REMARK SMILES IDX 72 80 70 81 49 82 50 83 58 84 51 85 52 86 56 87 59 88 53 89
REMARK SMILES IDX 54 90 57 91 55 92
REMARK H PARENT 13 7 10 18 10 19 10 20 20 26 79 45 47 56
REMARK Flexibility Score: inf
ROOT
ATOM      1  C   UNL A   1      32.882  30.174  26.882  1.00  0.00     0.002 C 
ENDROOT
BRANCH   1   2
ATOM      2  C   UNL A   1      32.869  28.664  27.131  1.00  0.00     0.021 C 
BRANCH   2   3
ATOM      3  C   UNL A   1      33.701  27.810  26.158  1.00  0.00     0.116 C 
BRANCH   3   4
ATOM      4  N   UNL A   1      33.676  28.375  24.819  1.00  0.00    -0.351 N 
ATOM      5  C   UNL A   1      32.936  28.341  23.699  1.00  0.00     0.281 C 
ATOM      6  O   UNL A   1      33.478  29.020  22.795  1.00  0.00    -0.268 OA
ATOM      7  H   UNL A   1      34.447  28.974  24.694  1.00  0.00     0.163 HD
BRANCH   5   8
ATOM      8  C   UNL A   1      31.475  27.790  23.388  1.00  0.00     0.176 C 
ATOM      9  C   UNL A   1      30.611  26.682  24.060  1.00  0.00     0.063 C 
ATOM     10  C   UNL A   1      29.139  27.045  23.689  1.00  0.00     0.011 C 
ATOM     11  C   UNL A   1      29.141  28.437  23.073  1.00  0.00     0.008 C 
ATOM     12  C   UNL A   1      30.521  29.001  23.378  1.00  0.00     0.079 C 
BRANCH   9  13
ATOM     13  C   UNL A   1      30.689  26.414  25.562  1.00  0.00     0.039 C 
BRANCH  13  14
ATOM     14  C   UNL A   1      31.143  24.992  25.885  1.00  0.00     0.160 C 
BRANCH  14  15
ATOM     15  O   UNL A   1      30.245  24.368  26.781  1.00  0.00    -0.385 OA
ATOM     16  C   UNL A   1      30.297  22.950  26.783  1.00  0.00     0.194 C 
ENDBRANCH  14  15
ENDBRANCH  13  14
ENDBRANCH   9  13
BRANCH   8  17
ATOM     17  N   UNL A   1      31.601  27.267  21.970  1.00  0.00    -0.345 N 
ATOM     18  H   UNL A   1      31.072  26.400  21.879  1.00  0.00     0.345 HD
ATOM     19  H   UNL A   1      32.582  27.090  21.759  1.00  0.00     0.345 HD
ATOM     20  H   UNL A   1      31.232  27.961  21.318  1.00  0.00     0.345 HD
ENDBRANCH   8  17
ENDBRANCH   5   8
ENDBRANCH   3   4
ENDBRANCH   2   3
ENDBRANCH   1   2
BRANCH   1  21
ATOM     21  C   UNL A   1      31.530  30.800  26.539  1.00  0.00     0.002 C 
BRANCH  21  22
ATOM     22  C   UNL A   1      31.388  32.297  26.830  1.00  0.00     0.021 C 
BRANCH  22  23
ATOM     23  C   UNL A   1      32.695  33.088  26.894  1.00  0.00     0.116 C 
BRANCH  23  24
ATOM     24  N   UNL A   1      32.559  34.330  27.638  1.00  0.00    -0.352 N 
ATOM     25  C   UNL A   1      33.150  34.748  28.803  1.00  0.00     0.251 C 
ATOM     26  H   UNL A   1      31.936  34.980  27.239  1.00  0.00     0.163 HD
ATOM     27  O   UNL A   1      32.732  35.753  29.369  1.00  0.00    -0.269 OA
BRANCH  25  28
ATOM     28  C   UNL A   1      34.282  34.002  29.393  1.00  0.00     0.039 A 
ATOM     29  C   UNL A   1      35.578  34.303  28.965  1.00  0.00     0.014 A 
ATOM     30  C   UNL A   1      34.074  32.966  30.307  1.00  0.00     0.014 A 
ATOM     31  C   UNL A   1      36.668  33.605  29.491  1.00  0.00     0.010 A 
ATOM     32  C   UNL A   1      35.165  32.313  30.880  1.00  0.00     0.010 A 
ATOM     33  C   UNL A   1      36.473  32.622  30.474  1.00  0.00    -0.014 A 
BRANCH  33  34
ATOM     34  C   UNL A   1      37.622  31.904  31.083  1.00  0.00     0.031 A 
ATOM     35  C   UNL A   1      38.080  32.249  32.473  1.00  0.00     0.074 A 
ATOM     36  C   UNL A   1      38.293  30.986  30.360  1.00  0.00     0.049 A 
ATOM     37  N   UNL A   1      39.108  31.793  33.144  1.00  0.00    -0.248 NA
ATOM     38  C   UNL A   1      37.292  33.257  33.198  1.00  0.00     0.031 C 
ATOM     39  C   UNL A   1      37.967  30.587  28.990  1.00  0.00     0.029 A 
ATOM     40  N   UNL A   1      39.396  30.230  30.672  1.00  0.00    -0.354 N 
ATOM     41  C   UNL A   1      39.103  32.474  34.356  1.00  0.00     0.074 A 
ATOM     42  C   UNL A   1      37.992  33.400  34.314  1.00  0.00     0.031 C 
ATOM     43  C   UNL A   1      38.838  29.648  28.586  1.00  0.00     0.029 A 
ATOM     44  C   UNL A   1      39.806  29.407  29.651  1.00  0.00     0.049 A 
ATOM     45  H   UNL A   1      39.851  30.274  31.544  1.00  0.00     0.167 HD
ATOM     46  C   UNL A   1      39.940  32.326  35.410  1.00  0.00     0.037 A 
ATOM     47  C   UNL A   1      40.852  28.561  29.581  1.00  0.00     0.037 A 
ATOM     48  C   UNL A   1      41.018  31.374  35.462  1.00  0.00     0.049 A 
ATOM     49  C   UNL A   1      41.769  28.425  30.767  1.00  0.00     0.074 A 
ATOM     50  C   UNL A   1      41.871  31.094  36.517  1.00  0.00     0.029 A 
ATOM     51  N   UNL A   1      41.395  30.549  34.414  1.00  0.00    -0.354 N 
ATOM     52  N   UNL A   1      41.709  29.021  31.933  1.00  0.00    -0.248 NA
ATOM     53  C   UNL A   1      42.897  27.493  30.628  1.00  0.00     0.031 C 
ATOM     54  C   UNL A   1      42.795  30.135  36.090  1.00  0.00     0.029 A 
ATOM     55  C   UNL A   1      42.486  29.779  34.787  1.00  0.00     0.049 A 
ATOM     56  H   UNL A   1      40.953  30.515  33.535  1.00  0.00     0.167 HD
ATOM     57  C   UNL A   1      42.765  28.511  32.676  1.00  0.00     0.074 A 
ATOM     58  C   UNL A   1      43.445  27.550  31.832  1.00  0.00     0.031 C 
ATOM     59  C   UNL A   1      43.139  28.813  33.943  1.00  0.00     0.037 A 
BRANCH  46  60
ATOM     60  C   UNL A   1      39.728  33.213  36.603  1.00  0.00     0.064 A 
ATOM     61  C   UNL A   1      40.393  34.440  36.739  1.00  0.00     0.173 A 
ATOM     62  C   UNL A   1      38.799  32.858  37.594  1.00  0.00     0.173 A 
ATOM     63  F   UNL A   1      41.297  34.823  35.824  1.00  0.00    -0.203 F 
ATOM     64  C   UNL A   1      40.155  35.268  37.833  1.00  0.00     0.198 A 
ATOM     65  C   UNL A   1      38.541  33.700  38.671  1.00  0.00     0.198 A 
ATOM     66  F   UNL A   1      38.129  31.698  37.508  1.00  0.00    -0.203 F 
ATOM     67  F   UNL A   1      40.831  36.417  37.963  1.00  0.00    -0.200 F 
ATOM     68  C   UNL A   1      39.223  34.902  38.794  1.00  0.00     0.200 A 
ATOM     69  F   UNL A   1      37.630  33.352  39.590  1.00  0.00    -0.200 F 
ATOM     70  F   UNL A   1      38.985  35.705  39.839  1.00  0.00    -0.200 F 
ENDBRANCH  46  60
BRANCH  47  71
ATOM     71  C   UNL A   1      41.083  27.758  28.351  1.00  0.00     0.064 A 
ATOM     72  C   UNL A   1      40.488  26.496  28.197  1.00  0.00     0.173 A 
ATOM     73  C   UNL A   1      41.913  28.217  27.320  1.00  0.00     0.173 A 
ATOM     74  F   UNL A   1      39.703  26.005  29.167  1.00  0.00    -0.203 F 
ATOM     75  C   UNL A   1      40.737  25.714  27.071  1.00  0.00     0.198 A 
ATOM     76  C   UNL A   1      42.139  27.446  26.180  1.00  0.00     0.198 A 
ATOM     77  F   UNL A   1      42.504  29.417  27.415  1.00  0.00    -0.203 F 
ATOM     78  F   UNL A   1      40.199  24.492  26.976  1.00  0.00    -0.200 F 
ATOM     79  C   UNL A   1      41.558  26.192  26.062  1.00  0.00     0.200 A 
ATOM     80  F   UNL A   1      42.923  27.917  25.201  1.00  0.00    -0.200 F 
ATOM     81  F   UNL A   1      41.800  25.440  24.980  1.00  0.00    -0.200 F 
ENDBRANCH  47  71
BRANCH  59  82
ATOM     82  C   UNL A   1      44.306  28.062  34.516  1.00  0.00     0.064 A 
ATOM     83  C   UNL A   1      45.613  28.565  34.446  1.00  0.00     0.173 A 
ATOM     84  C   UNL A   1      44.105  26.843  35.182  1.00  0.00     0.173 A 
ATOM     85  F   UNL A   1      45.859  29.719  33.806  1.00  0.00    -0.203 F 
ATOM     86  C   UNL A   1      46.679  27.864  35.002  1.00  0.00     0.198 A 
ATOM     87  C   UNL A   1      45.169  26.160  35.764  1.00  0.00     0.198 A 
ATOM     88  F   UNL A   1      42.872  26.322  35.282  1.00  0.00    -0.203 F 
ATOM     89  F   UNL A   1      47.926  28.341  34.884  1.00  0.00    -0.200 F 
ATOM     90  C   UNL A   1      46.456  26.667  35.667  1.00  0.00     0.200 A 
ATOM     91  F   UNL A   1      44.949  25.011  36.417  1.00  0.00    -0.200 F 
ATOM     92  F   UNL A   1      47.482  25.999  36.209  1.00  0.00    -0.200 F 
ENDBRANCH  59  82
ENDBRANCH  33  34
ENDBRANCH  25  28
ENDBRANCH  23  24
ENDBRANCH  22  23
ENDBRANCH  21  22
ENDBRANCH   1  21
TORSDOF 17
ENDMDL
MODEL 3
REMARK VINA RESULT:      -9.9      6.639     11.261
REMARK SMILES COCC[C@H]1CCC[C@@]1([NH3+])C(=O)NCCCCCCNC(=O)c1ccc(-c2c3nc(c(-c4c(F)c(F)c(F)c(F)c4F)c4ccc([nH]4)c(-c4c(F)c(F)c(F)c(F)c4F)c4nc(c(-c5c(F)c(F)c(F)c(F)c5F)c5ccc2[nH]5)C=C4)C=C3)cc1
REMARK SMILES IDX 16 1 15 2 14 3 13 4 11 5 12 6 9 8 5 9 6 10 7 11 8 12 4 13
REMARK SMILES IDX 3 14 2 15 1 16 10 17 17 21 18 22 19 23 20 24 21 25 22 27
REMARK SMILES IDX 23 28 24 29 85 30 25 31 84 32 26 33 27 34 28 35 78 36 29 37
REMARK SMILES IDX 83 38 77 39 79 40 30 41 82 42 76 43 75 44 31 46 63 47 43 48
REMARK SMILES IDX 62 49 44 50 47 51 61 52 80 53 45 54 46 55 60 57 81 58 48 59
REMARK SMILES IDX 32 60 33 61 41 62 34 63 35 64 39 65 42 66 36 67 37 68 40 69
REMARK SMILES IDX 38 70 64 71 65 72 73 73 66 74 67 75 71 76 74 77 68 78 69 79
REMARK SMILES IDX 72 80 70 81 49 82 50 83 58 84 51 85 52 86 56 87 59 88 53 89
REMARK SMILES IDX 54 90 57 91 55 92
REMARK H PARENT 13 7 10 18 10 19 10 20 20 26 79 45 47 56
REMARK Flexibility Score: inf
ROOT
ATOM      1  C   UNL A   1      37.585  21.713  24.733  1.00  0.00     0.002 C 
ENDROOT
BRANCH   1   2
ATOM      2  C   UNL A   1      36.582  22.671  24.088  1.00  0.00     0.021 C 
BRANCH   2   3
ATOM      3  C   UNL A   1      36.048  23.799  24.990  1.00  0.00     0.116 C 
BRANCH   3   4
ATOM      4  N   UNL A   1      35.137  23.274  25.993  1.00  0.00    -0.351 N 
ATOM      5  C   UNL A   1      33.943  22.667  26.086  1.00  0.00     0.281 C 
ATOM      6  O   UNL A   1      33.623  22.509  27.287  1.00  0.00    -0.268 OA
ATOM      7  H   UNL A   1      35.518  23.403  26.891  1.00  0.00     0.163 HD
BRANCH   5   8
ATOM      8  C   UNL A   1      33.002  21.969  25.007  1.00  0.00     0.176 C 
ATOM      9  C   UNL A   1      32.496  22.430  23.608  1.00  0.00     0.063 C 
ATOM     10  C   UNL A   1      32.138  21.107  22.859  1.00  0.00     0.011 C 
ATOM     11  C   UNL A   1      32.671  19.944  23.683  1.00  0.00     0.008 C 
ATOM     12  C   UNL A   1      33.598  20.579  24.709  1.00  0.00     0.079 C 
BRANCH   9  13
ATOM     13  C   UNL A   1      33.362  23.295  22.694  1.00  0.00     0.039 C 
BRANCH  13  14
ATOM     14  C   UNL A   1      32.802  24.704  22.511  1.00  0.00     0.160 C 
BRANCH  14  15
ATOM     15  O   UNL A   1      33.717  25.522  21.811  1.00  0.00    -0.385 OA
ATOM     16  C   UNL A   1      33.602  26.910  22.083  1.00  0.00     0.194 C 
ENDBRANCH  14  15
ENDBRANCH  13  14
ENDBRANCH   9  13
BRANCH   8  17
ATOM     17  N   UNL A   1      31.699  21.781  25.760  1.00  0.00    -0.345 N 
ATOM     18  H   UNL A   1      31.413  22.668  26.174  1.00  0.00     0.345 HD
ATOM     19  H   UNL A   1      31.830  21.089  26.498  1.00  0.00     0.345 HD
ATOM     20  H   UNL A   1      30.976  21.458  25.116  1.00  0.00     0.345 HD
ENDBRANCH   8  17
ENDBRANCH   5   8
ENDBRANCH   3   4
ENDBRANCH   2   3
ENDBRANCH   1   2
BRANCH   1  21
ATOM     21  C   UNL A   1      37.166  20.243  24.770  1.00  0.00     0.002 C 
BRANCH  21  22
ATOM     22  C   UNL A   1      38.269  19.237  25.111  1.00  0.00     0.021 C 
BRANCH  22  23
ATOM     23  C   UNL A   1      39.422  19.775  25.959  1.00  0.00     0.116 C 
BRANCH  23  24
ATOM     24  N   UNL A   1      40.587  18.907  25.932  1.00  0.00    -0.352 N 
ATOM     25  C   UNL A   1      41.926  19.200  25.982  1.00  0.00     0.251 C 
ATOM     26  H   UNL A   1      40.381  17.947  25.865  1.00  0.00     0.163 HD
ATOM     27  O   UNL A   1      42.750  18.325  25.733  1.00  0.00    -0.269 OA
BRANCH  25  28
ATOM     28  C   UNL A   1      42.397  20.559  26.327  1.00  0.00     0.039 A 
ATOM     29  C   UNL A   1      42.963  21.347  25.320  1.00  0.00     0.014 A 
ATOM     30  C   UNL A   1      42.350  21.035  27.639  1.00  0.00     0.014 A 
ATOM     31  C   UNL A   1      43.432  22.629  25.617  1.00  0.00     0.010 A 
ATOM     32  C   UNL A   1      42.759  22.338  27.922  1.00  0.00     0.010 A 
ATOM     33  C   UNL A   1      43.309  23.147  26.916  1.00  0.00    -0.014 A 
BRANCH  33  34
ATOM     34  C   UNL A   1      43.755  24.526  27.239  1.00  0.00     0.031 A 
ATOM     35  C   UNL A   1      42.770  25.539  27.753  1.00  0.00     0.074 A 
ATOM     36  C   UNL A   1      45.034  24.884  27.011  1.00  0.00     0.049 A 
ATOM     37  N   UNL A   1      42.948  26.810  28.015  1.00  0.00    -0.248 NA
ATOM     38  C   UNL A   1      41.394  25.069  27.981  1.00  0.00     0.031 C 
ATOM     39  C   UNL A   1      46.076  24.002  26.485  1.00  0.00     0.029 A 
ATOM     40  N   UNL A   1      45.672  26.087  27.181  1.00  0.00    -0.354 N 
ATOM     41  C   UNL A   1      41.708  27.293  28.414  1.00  0.00     0.074 A 
ATOM     42  C   UNL A   1      40.776  26.190  28.326  1.00  0.00     0.031 C 
ATOM     43  C   UNL A   1      47.227  24.688  26.392  1.00  0.00     0.029 A 
ATOM     44  C   UNL A   1      46.996  26.066  26.814  1.00  0.00     0.049 A 
ATOM     45  H   UNL A   1      45.223  26.891  27.532  1.00  0.00     0.167 HD
ATOM     46  C   UNL A   1      41.382  28.540  28.832  1.00  0.00     0.037 A 
ATOM     47  C   UNL A   1      47.916  27.050  26.809  1.00  0.00     0.037 A 
ATOM     48  C   UNL A   1      42.321  29.624  28.958  1.00  0.00     0.049 A 
ATOM     49  C   UNL A   1      47.520  28.427  27.271  1.00  0.00     0.074 A 
ATOM     50  C   UNL A   1      42.104  30.900  29.447  1.00  0.00     0.029 A 
ATOM     51  N   UNL A   1      43.656  29.560  28.588  1.00  0.00    -0.354 N 
ATOM     52  N   UNL A   1      46.363  28.851  27.715  1.00  0.00    -0.248 NA
ATOM     53  C   UNL A   1      48.564  29.462  27.235  1.00  0.00     0.031 C 
ATOM     54  C   UNL A   1      43.294  31.624  29.328  1.00  0.00     0.029 A 
ATOM     55  C   UNL A   1      44.267  30.783  28.812  1.00  0.00     0.049 A 
ATOM     56  H   UNL A   1      44.103  28.764  28.221  1.00  0.00     0.167 HD
ATOM     57  C   UNL A   1      46.548  30.187  28.045  1.00  0.00     0.074 A 
ATOM     58  C   UNL A   1      47.932  30.502  27.758  1.00  0.00     0.031 C 
ATOM     59  C   UNL A   1      45.651  31.075  28.540  1.00  0.00     0.037 A 
BRANCH  46  60
ATOM     60  C   UNL A   1      39.949  28.808  29.187  1.00  0.00     0.064 A 
ATOM     61  C   UNL A   1      39.012  29.210  28.224  1.00  0.00     0.173 A 
ATOM     62  C   UNL A   1      39.492  28.600  30.498  1.00  0.00     0.173 A 
ATOM     63  F   UNL A   1      39.397  29.431  26.958  1.00  0.00    -0.203 F 
ATOM     64  C   UNL A   1      37.677  29.417  28.564  1.00  0.00     0.198 A 
ATOM     65  C   UNL A   1      38.152  28.780  30.829  1.00  0.00     0.198 A 
ATOM     66  F   UNL A   1      40.346  28.208  31.457  1.00  0.00    -0.203 F 
ATOM     67  F   UNL A   1      36.807  29.839  27.636  1.00  0.00    -0.200 F 
ATOM     68  C   UNL A   1      37.247  29.193  29.864  1.00  0.00     0.200 A 
ATOM     69  F   UNL A   1      37.736  28.549  32.082  1.00  0.00    -0.200 F 
ATOM     70  F   UNL A   1      35.960  29.380  30.187  1.00  0.00    -0.200 F 
ENDBRANCH  46  60
BRANCH  47  71
ATOM     71  C   UNL A   1      49.308  26.770  26.371  1.00  0.00     0.064 A 
ATOM     72  C   UNL A   1      49.680  26.919  25.026  1.00  0.00     0.173 A 
ATOM     73  C   UNL A   1      50.286  26.328  27.272  1.00  0.00     0.173 A 
ATOM     74  F   UNL A   1      48.773  27.319  24.123  1.00  0.00    -0.203 F 
ATOM     75  C   UNL A   1      50.969  26.612  24.596  1.00  0.00     0.198 A 
ATOM     76  C   UNL A   1      51.584  26.048  26.846  1.00  0.00     0.198 A 
ATOM     77  F   UNL A   1      49.984  26.171  28.569  1.00  0.00    -0.203 F 
ATOM     78  F   UNL A   1      51.280  26.713  23.298  1.00  0.00    -0.200 F 
ATOM     79  C   UNL A   1      51.921  26.181  25.507  1.00  0.00     0.200 A 
ATOM     80  F   UNL A   1      52.505  25.644  27.732  1.00  0.00    -0.200 F 
ATOM     81  F   UNL A   1      53.160  25.883  25.094  1.00  0.00    -0.200 F 
ENDBRANCH  47  71
BRANCH  59  82
ATOM     82  C   UNL A   1      46.147  32.456  28.852  1.00  0.00     0.064 A 
ATOM     83  C   UNL A   1      46.716  32.771  30.095  1.00  0.00     0.173 A 
ATOM     84  C   UNL A   1      46.093  33.465  27.879  1.00  0.00     0.173 A 
ATOM     85  F   UNL A   1      46.777  31.846  31.065  1.00  0.00    -0.203 F 
ATOM     86  C   UNL A   1      47.191  34.053  30.359  1.00  0.00     0.198 A 
ATOM     87  C   UNL A   1      46.596  34.737  28.136  1.00  0.00     0.198 A 
ATOM     88  F   UNL A   1      45.564  33.213  26.672  1.00  0.00    -0.203 F 
ATOM     89  F   UNL A   1      47.688  34.345  31.569  1.00  0.00    -0.200 F 
ATOM     90  C   UNL A   1      47.139  35.033  29.377  1.00  0.00     0.200 A 
ATOM     91  F   UNL A   1      46.557  35.677  27.181  1.00  0.00    -0.200 F 
ATOM     92  F   UNL A   1      47.604  36.262  29.631  1.00  0.00    -0.200 F 
ENDBRANCH  59  82
ENDBRANCH  33  34
ENDBRANCH  25  28
ENDBRANCH  23  24
ENDBRANCH  22  23
ENDBRANCH  21  22
ENDBRANCH   1  21
TORSDOF 17
ENDMDL
