MODEL 1
REMARK VINA RESULT:     -11.7      0.000      0.000
REMARK SMILES O=C(Cc1ccccc1Nc1c(Cl)cccc1Cl)NCCCCCCNC(=O)c1ccc(-c2c3nc(c(-c4c(F)c(F)c(F)c(F)c4F)c4ccc([nH]4)c(-c4c(F)c(F)c(F)c(F)c4F)c4nc(c(-c5c(F)c(F)c(F)c(F)c5F)c5ccc2[nH]5)C=C4)C=C3)cc1
REMARK SMILES IDX 22 1 21 2 20 3 19 4 1 5 2 6 3 8 4 9 5 10 9 11 6 12 8 13 7 14
REMARK SMILES IDX 10 15 11 17 12 18 17 19 13 20 14 21 16 22 18 23 15 24 23 25
REMARK SMILES IDX 24 26 25 27 26 28 27 29 28 31 29 32 30 33 91 34 31 35 90 36
REMARK SMILES IDX 32 37 33 38 34 39 84 40 35 41 89 42 83 43 85 44 36 45 88 46
REMARK SMILES IDX 82 47 81 48 37 50 69 51 49 52 68 53 50 54 53 55 67 56 86 57
REMARK SMILES IDX 51 58 52 59 66 61 87 62 54 63 38 64 39 65 47 66 40 67 41 68
REMARK SMILES IDX 45 69 48 70 42 71 43 72 46 73 44 74 70 75 71 76 79 77 72 78
REMARK SMILES IDX 73 79 77 80 80 81 74 82 75 83 78 84 76 85 55 86 56 87 64 88
REMARK SMILES IDX 57 89 58 90 62 91 65 92 59 93 60 94 63 95 61 96
REMARK H PARENT 19 7 10 16 26 30 85 49 53 60
REMARK Flexibility Score: inf
ROOT
ATOM      1  C   UNL A   1      35.314  33.403  28.614  1.00  0.00     0.002 C 
ENDROOT
BRANCH   1   2
ATOM      2  C   UNL A   1      34.433  32.176  28.896  1.00  0.00     0.021 C 
BRANCH   2   3
ATOM      3  C   UNL A   1      34.718  30.959  28.013  1.00  0.00     0.116 C 
BRANCH   3   4
ATOM      4  N   UNL A   1      33.560  30.095  27.947  1.00  0.00    -0.356 N 
ATOM      5  O   UNL A   1      34.367  28.550  26.447  1.00  0.00    -0.275 OA
ATOM      6  C   UNL A   1      33.481  28.943  27.198  1.00  0.00     0.224 C 
ATOM      7  H   UNL A   1      32.770  30.350  28.477  1.00  0.00     0.163 HD
BRANCH   6   8
ATOM      8  C   UNL A   1      32.169  28.193  27.406  1.00  0.00     0.137 C 
BRANCH   8   9
ATOM      9  C   UNL A   1      31.501  27.835  26.093  1.00  0.00    -0.015 A 
ATOM     10  C   UNL A   1      31.186  28.876  25.192  1.00  0.00     0.006 A 
ATOM     11  C   UNL A   1      31.179  26.510  25.742  1.00  0.00     0.042 A 
ATOM     12  C   UNL A   1      30.516  28.628  23.996  1.00  0.00     0.000 A 
ATOM     13  C   UNL A   1      30.497  26.286  24.531  1.00  0.00     0.026 A 
ATOM     14  C   UNL A   1      30.160  27.330  23.671  1.00  0.00     0.002 A 
BRANCH  11  15
ATOM     15  N   UNL A   1      31.580  25.423  26.550  1.00  0.00    -0.353 N 
ATOM     16  H   UNL A   1      31.514  25.572  27.522  1.00  0.00     0.167 HD
BRANCH  15  17
ATOM     17  C   UNL A   1      32.065  24.148  26.162  1.00  0.00     0.076 A 
ATOM     18  C   UNL A   1      31.208  23.031  26.258  1.00  0.00     0.066 A 
ATOM     19  C   UNL A   1      33.332  23.939  25.576  1.00  0.00     0.066 A 
ATOM     20  Cl  UNL A   1      29.653  23.173  27.009  1.00  0.00    -0.082 Cl
ATOM     21  C   UNL A   1      31.570  21.782  25.743  1.00  0.00     0.023 A 
ATOM     22  C   UNL A   1      33.690  22.688  25.053  1.00  0.00     0.023 A 
ATOM     23  Cl  UNL A   1      34.557  25.165  25.544  1.00  0.00    -0.082 Cl
ATOM     24  C   UNL A   1      32.805  21.615  25.123  1.00  0.00     0.003 A 
ENDBRANCH  15  17
ENDBRANCH  11  15
ENDBRANCH   8   9
ENDBRANCH   6   8
ENDBRANCH   3   4
ENDBRANCH   2   3
ENDBRANCH   1   2
BRANCH   1  25
ATOM     25  C   UNL A   1      34.572  34.642  28.103  1.00  0.00     0.002 C 
BRANCH  25  26
ATOM     26  C   UNL A   1      33.294  34.987  28.869  1.00  0.00     0.021 C 
BRANCH  26  27
ATOM     27  C   UNL A   1      33.324  36.329  29.591  1.00  0.00     0.116 C 
BRANCH  27  28
ATOM     28  N   UNL A   1      32.451  36.363  30.753  1.00  0.00    -0.352 N 
ATOM     29  C   UNL A   1      32.577  35.694  31.945  1.00  0.00     0.251 C 
ATOM     30  H   UNL A   1      31.661  36.945  30.675  1.00  0.00     0.163 HD
ATOM     31  O   UNL A   1      31.666  35.717  32.769  1.00  0.00    -0.269 OA
BRANCH  29  32
ATOM     32  C   UNL A   1      33.805  34.920  32.227  1.00  0.00     0.039 A 
ATOM     33  C   UNL A   1      35.031  35.588  32.271  1.00  0.00     0.014 A 
ATOM     34  C   UNL A   1      33.749  33.540  32.446  1.00  0.00     0.014 A 
ATOM     35  C   UNL A   1      36.194  34.880  32.581  1.00  0.00     0.010 A 
ATOM     36  C   UNL A   1      34.896  32.852  32.832  1.00  0.00     0.010 A 
ATOM     37  C   UNL A   1      36.134  33.511  32.891  1.00  0.00    -0.014 A 
BRANCH  37  38
ATOM     38  C   UNL A   1      37.356  32.745  33.242  1.00  0.00     0.031 A 
ATOM     39  C   UNL A   1      38.084  33.043  34.525  1.00  0.00     0.074 A 
ATOM     40  C   UNL A   1      37.839  31.818  32.391  1.00  0.00     0.049 A 
ATOM     41  N   UNL A   1      39.210  32.548  34.976  1.00  0.00    -0.248 NA
ATOM     42  C   UNL A   1      37.478  34.051  35.410  1.00  0.00     0.031 C 
ATOM     43  C   UNL A   1      37.249  31.465  31.099  1.00  0.00     0.029 A 
ATOM     44  N   UNL A   1      38.947  31.012  32.481  1.00  0.00    -0.354 N 
ATOM     45  C   UNL A   1      39.446  33.186  36.187  1.00  0.00     0.074 A 
ATOM     46  C   UNL A   1      38.384  34.151  36.372  1.00  0.00     0.031 C 
ATOM     47  C   UNL A   1      37.992  30.504  30.524  1.00  0.00     0.029 A 
ATOM     48  C   UNL A   1      39.129  30.200  31.387  1.00  0.00     0.049 A 
ATOM     49  H   UNL A   1      39.554  31.014  33.256  1.00  0.00     0.167 HD
ATOM     50  C   UNL A   1      40.438  32.965  37.081  1.00  0.00     0.037 A 
ATOM     51  C   UNL A   1      40.110  29.321  31.107  1.00  0.00     0.037 A 
ATOM     52  C   UNL A   1      41.484  31.992  36.905  1.00  0.00     0.049 A 
ATOM     53  C   UNL A   1      41.213  29.108  32.114  1.00  0.00     0.074 A 
ATOM     54  C   UNL A   1      42.527  31.681  37.760  1.00  0.00     0.029 A 
ATOM     55  N   UNL A   1      41.614  31.165  35.799  1.00  0.00    -0.354 N 
ATOM     56  N   UNL A   1      41.397  29.684  33.277  1.00  0.00    -0.248 NA
ATOM     57  C   UNL A   1      42.237  28.110  31.774  1.00  0.00     0.031 C 
ATOM     58  C   UNL A   1      43.309  30.692  37.155  1.00  0.00     0.029 A 
ATOM     59  C   UNL A   1      42.721  30.347  35.949  1.00  0.00     0.049 A 
ATOM     60  H   UNL A   1      41.008  31.160  35.023  1.00  0.00     0.167 HD
ATOM     61  C   UNL A   1      42.528  29.091  33.823  1.00  0.00     0.074 A 
ATOM     62  C   UNL A   1      42.980  28.100  32.870  1.00  0.00     0.031 C 
ATOM     63  C   UNL A   1      43.139  29.343  35.006  1.00  0.00     0.037 A 
BRANCH  50  64
ATOM     64  C   UNL A   1      40.430  33.774  38.345  1.00  0.00     0.064 A 
ATOM     65  C   UNL A   1      39.663  33.386  39.455  1.00  0.00     0.173 A 
ATOM     66  C   UNL A   1      41.237  34.914  38.473  1.00  0.00     0.173 A 
ATOM     67  F   UNL A   1      38.864  32.311  39.381  1.00  0.00    -0.203 F 
ATOM     68  C   UNL A   1      39.689  34.121  40.637  1.00  0.00     0.198 A 
ATOM     69  C   UNL A   1      41.285  35.629  39.667  1.00  0.00     0.198 A 
ATOM     70  F   UNL A   1      41.994  35.326  37.445  1.00  0.00    -0.203 F 
ATOM     71  F   UNL A   1      38.915  33.755  41.669  1.00  0.00    -0.200 F 
ATOM     72  C   UNL A   1      40.506  35.235  40.745  1.00  0.00     0.200 A 
ATOM     73  F   UNL A   1      42.086  36.698  39.776  1.00  0.00    -0.200 F 
ATOM     74  F   UNL A   1      40.542  35.933  41.889  1.00  0.00    -0.200 F 
ENDBRANCH  50  64
BRANCH  51  75
ATOM     75  C   UNL A   1      40.102  28.562  29.827  1.00  0.00     0.064 A 
ATOM     76  C   UNL A   1      39.450  27.325  29.722  1.00  0.00     0.173 A 
ATOM     77  C   UNL A   1      40.786  29.034  28.697  1.00  0.00     0.173 A 
ATOM     78  F   UNL A   1      38.799  26.820  30.780  1.00  0.00    -0.203 F 
ATOM     79  C   UNL A   1      39.519  26.570  28.553  1.00  0.00     0.198 A 
ATOM     80  C   UNL A   1      40.823  28.295  27.517  1.00  0.00     0.198 A 
ATOM     81  F   UNL A   1      41.420  30.215  28.738  1.00  0.00    -0.203 F 
ATOM     82  F   UNL A   1      38.947  25.359  28.506  1.00  0.00    -0.200 F 
ATOM     83  C   UNL A   1      40.204  27.057  27.450  1.00  0.00     0.200 A 
ATOM     84  F   UNL A   1      41.473  28.776  26.448  1.00  0.00    -0.200 F 
ATOM     85  F   UNL A   1      40.277  26.327  26.329  1.00  0.00    -0.200 F 
ENDBRANCH  51  75
BRANCH  63  86
ATOM     86  C   UNL A   1      44.318  28.489  35.371  1.00  0.00     0.064 A 
ATOM     87  C   UNL A   1      45.630  28.848  35.028  1.00  0.00     0.173 A 
ATOM     88  C   UNL A   1      44.131  27.309  36.109  1.00  0.00     0.173 A 
ATOM     89  F   UNL A   1      45.862  29.959  34.314  1.00  0.00    -0.203 F 
ATOM     90  C   UNL A   1      46.708  28.039  35.381  1.00  0.00     0.198 A 
ATOM     91  C   UNL A   1      45.213  26.522  36.490  1.00  0.00     0.198 A 
ATOM     92  F   UNL A   1      42.898  26.925  36.471  1.00  0.00    -0.203 F 
ATOM     93  F   UNL A   1      47.947  28.372  34.995  1.00  0.00    -0.200 F 
ATOM     94  C   UNL A   1      46.500  26.881  36.117  1.00  0.00     0.200 A 
ATOM     95  F   UNL A   1      45.012  25.413  37.214  1.00  0.00    -0.200 F 
ATOM     96  F   UNL A   1      47.539  26.110  36.461  1.00  0.00    -0.200 F 
ENDBRANCH  63  86
ENDBRANCH  37  38
ENDBRANCH  29  32
ENDBRANCH  27  28
ENDBRANCH  26  27
ENDBRANCH  25  26
ENDBRANCH   1  25
TORSDOF 16
ENDMDL
MODEL 2
REMARK VINA RESULT:     -11.6      0.937      1.829
REMARK SMILES O=C(Cc1ccccc1Nc1c(Cl)cccc1Cl)NCCCCCCNC(=O)c1ccc(-c2c3nc(c(-c4c(F)c(F)c(F)c(F)c4F)c4ccc([nH]4)c(-c4c(F)c(F)c(F)c(F)c4F)c4nc(c(-c5c(F)c(F)c(F)c(F)c5F)c5ccc2[nH]5)C=C4)C=C3)cc1
REMARK SMILES IDX 22 1 21 2 20 3 19 4 1 5 2 6 3 8 4 9 5 10 9 11 6 12 8 13 7 14
REMARK SMILES IDX 10 15 11 17 12 18 17 19 13 20 14 21 16 22 18 23 15 24 23 25
REMARK SMILES IDX 24 26 25 27 26 28 27 29 28 31 29 32 30 33 91 34 31 35 90 36
REMARK SMILES IDX 32 37 33 38 34 39 84 40 35 41 89 42 83 43 85 44 36 45 88 46
REMARK SMILES IDX 82 47 81 48 37 50 69 51 49 52 68 53 50 54 53 55 67 56 86 57
REMARK SMILES IDX 51 58 52 59 66 61 87 62 54 63 38 64 39 65 47 66 40 67 41 68
REMARK SMILES IDX 45 69 48 70 42 71 43 72 46 73 44 74 70 75 71 76 79 77 72 78
REMARK SMILES IDX 73 79 77 80 80 81 74 82 75 83 78 84 76 85 55 86 56 87 64 88
REMARK SMILES IDX 57 89 58 90 62 91 65 92 59 93 60 94 63 95 61 96
REMARK H PARENT 19 7 10 16 26 30 85 49 53 60
REMARK Flexibility Score: inf
ROOT
ATOM      1  C   UNL A   1      35.161  33.282  28.088  1.00  0.00     0.002 C 
ENDROOT
BRANCH   1   2
ATOM      2  C   UNL A   1      35.191  31.781  27.756  1.00  0.00     0.021 C 
BRANCH   2   3
ATOM      3  C   UNL A   1      33.817  31.114  27.658  1.00  0.00     0.116 C 
BRANCH   3   4
ATOM      4  N   UNL A   1      33.693  30.386  26.414  1.00  0.00    -0.356 N 
ATOM      5  O   UNL A   1      31.723  29.283  26.856  1.00  0.00    -0.275 OA
ATOM      6  C   UNL A   1      32.644  29.553  26.093  1.00  0.00     0.224 C 
ATOM      7  H   UNL A   1      34.410  30.494  25.748  1.00  0.00     0.163 HD
BRANCH   6   8
ATOM      8  C   UNL A   1      32.742  29.002  24.674  1.00  0.00     0.137 C 
BRANCH   8   9
ATOM      9  C   UNL A   1      31.406  28.500  24.163  1.00  0.00    -0.015 A 
ATOM     10  C   UNL A   1      30.500  29.435  23.616  1.00  0.00     0.006 A 
ATOM     11  C   UNL A   1      31.033  27.143  24.218  1.00  0.00     0.042 A 
ATOM     12  C   UNL A   1      29.231  29.055  23.185  1.00  0.00     0.000 A 
ATOM     13  C   UNL A   1      29.744  26.785  23.782  1.00  0.00     0.026 A 
ATOM     14  C   UNL A   1      28.848  27.728  23.280  1.00  0.00     0.002 A 
BRANCH  11  15
ATOM     15  N   UNL A   1      31.946  26.153  24.644  1.00  0.00    -0.353 N 
ATOM     16  H   UNL A   1      32.487  26.388  25.433  1.00  0.00     0.167 HD
BRANCH  15  17
ATOM     17  C   UNL A   1      32.196  24.869  24.095  1.00  0.00     0.076 A 
ATOM     18  C   UNL A   1      33.013  24.761  22.949  1.00  0.00     0.066 A 
ATOM     19  C   UNL A   1      31.760  23.666  24.690  1.00  0.00     0.066 A 
ATOM     20  Cl  UNL A   1      33.554  26.180  22.114  1.00  0.00    -0.082 Cl
ATOM     21  C   UNL A   1      33.426  23.519  22.456  1.00  0.00     0.023 A 
ATOM     22  C   UNL A   1      32.182  22.422  24.200  1.00  0.00     0.023 A 
ATOM     23  Cl  UNL A   1      30.616  23.632  25.992  1.00  0.00    -0.082 Cl
ATOM     24  C   UNL A   1      33.025  22.349  23.094  1.00  0.00     0.003 A 
ENDBRANCH  15  17
ENDBRANCH  11  15
ENDBRANCH   8   9
ENDBRANCH   6   8
ENDBRANCH   3   4
ENDBRANCH   2   3
ENDBRANCH   1   2
BRANCH   1  25
ATOM     25  C   UNL A   1      34.295  33.673  29.289  1.00  0.00     0.002 C 
BRANCH  25  26
ATOM     26  C   UNL A   1      33.146  34.630  28.968  1.00  0.00     0.021 C 
BRANCH  26  27
ATOM     27  C   UNL A   1      33.328  36.048  29.497  1.00  0.00     0.116 C 
BRANCH  27  28
ATOM     28  N   UNL A   1      32.472  36.338  30.637  1.00  0.00    -0.352 N 
ATOM     29  C   UNL A   1      32.591  35.907  31.934  1.00  0.00     0.251 C 
ATOM     30  H   UNL A   1      31.703  36.924  30.452  1.00  0.00     0.163 HD
ATOM     31  O   UNL A   1      31.692  36.123  32.745  1.00  0.00    -0.269 OA
BRANCH  29  32
ATOM     32  C   UNL A   1      33.794  35.156  32.353  1.00  0.00     0.039 A 
ATOM     33  C   UNL A   1      33.648  33.843  32.806  1.00  0.00     0.014 A 
ATOM     34  C   UNL A   1      35.061  35.745  32.304  1.00  0.00     0.014 A 
ATOM     35  C   UNL A   1      34.778  33.104  33.163  1.00  0.00     0.010 A 
ATOM     36  C   UNL A   1      36.191  34.983  32.585  1.00  0.00     0.010 A 
ATOM     37  C   UNL A   1      36.062  33.658  33.030  1.00  0.00    -0.014 A 
BRANCH  37  38
ATOM     38  C   UNL A   1      37.277  32.883  33.387  1.00  0.00     0.031 A 
ATOM     39  C   UNL A   1      38.001  33.176  34.674  1.00  0.00     0.074 A 
ATOM     40  C   UNL A   1      37.757  31.951  32.540  1.00  0.00     0.049 A 
ATOM     41  N   UNL A   1      39.121  32.674  35.131  1.00  0.00    -0.248 NA
ATOM     42  C   UNL A   1      37.399  34.190  35.555  1.00  0.00     0.031 C 
ATOM     43  C   UNL A   1      37.170  31.601  31.246  1.00  0.00     0.029 A 
ATOM     44  N   UNL A   1      38.859  31.136  32.636  1.00  0.00    -0.354 N 
ATOM     45  C   UNL A   1      39.357  33.311  36.341  1.00  0.00     0.074 A 
ATOM     46  C   UNL A   1      38.302  34.284  36.520  1.00  0.00     0.031 C 
ATOM     47  C   UNL A   1      37.908  30.633  30.675  1.00  0.00     0.029 A 
ATOM     48  C   UNL A   1      39.039  30.322  31.544  1.00  0.00     0.049 A 
ATOM     49  H   UNL A   1      39.462  31.135  33.414  1.00  0.00     0.167 HD
ATOM     50  C   UNL A   1      40.343  33.083  37.241  1.00  0.00     0.037 A 
ATOM     51  C   UNL A   1      40.015  29.435  31.269  1.00  0.00     0.037 A 
ATOM     52  C   UNL A   1      41.382  32.102  37.070  1.00  0.00     0.049 A 
ATOM     53  C   UNL A   1      41.111  29.214  32.281  1.00  0.00     0.074 A 
ATOM     54  C   UNL A   1      42.419  31.784  37.931  1.00  0.00     0.029 A 
ATOM     55  N   UNL A   1      41.511  31.273  35.966  1.00  0.00    -0.354 N 
ATOM     56  N   UNL A   1      41.294  29.791  33.445  1.00  0.00    -0.248 NA
ATOM     57  C   UNL A   1      42.129  28.209  31.947  1.00  0.00     0.031 C 
ATOM     58  C   UNL A   1      43.196  30.788  37.331  1.00  0.00     0.029 A 
ATOM     59  C   UNL A   1      42.611  30.447  36.122  1.00  0.00     0.049 A 
ATOM     60  H   UNL A   1      40.908  31.272  35.187  1.00  0.00     0.167 HD
ATOM     61  C   UNL A   1      42.418  29.189  33.996  1.00  0.00     0.074 A 
ATOM     62  C   UNL A   1      42.867  28.194  33.046  1.00  0.00     0.031 C 
ATOM     63  C   UNL A   1      43.025  29.438  35.182  1.00  0.00     0.037 A 
BRANCH  50  64
ATOM     64  C   UNL A   1      40.335  33.894  38.504  1.00  0.00     0.064 A 
ATOM     65  C   UNL A   1      41.090  35.072  38.620  1.00  0.00     0.173 A 
ATOM     66  C   UNL A   1      39.525  33.525  39.588  1.00  0.00     0.173 A 
ATOM     67  F   UNL A   1      41.892  35.461  37.618  1.00  0.00    -0.203 F 
ATOM     68  C   UNL A   1      41.050  35.838  39.782  1.00  0.00     0.198 A 
ATOM     69  C   UNL A   1      39.462  34.311  40.736  1.00  0.00     0.198 A 
ATOM     70  F   UNL A   1      38.780  32.411  39.528  1.00  0.00    -0.203 F 
ATOM     71  F   UNL A   1      41.812  36.935  39.885  1.00  0.00    -0.200 F 
ATOM     72  C   UNL A   1      40.229  35.463  40.834  1.00  0.00     0.200 A 
ATOM     73  F   UNL A   1      38.658  33.955  41.747  1.00  0.00    -0.200 F 
ATOM     74  F   UNL A   1      40.178  36.210  41.945  1.00  0.00    -0.200 F 
ENDBRANCH  50  64
BRANCH  51  75
ATOM     75  C   UNL A   1      40.007  28.675  29.990  1.00  0.00     0.064 A 
ATOM     76  C   UNL A   1      39.382  27.423  29.895  1.00  0.00     0.173 A 
ATOM     77  C   UNL A   1      40.664  29.161  28.850  1.00  0.00     0.173 A 
ATOM     78  F   UNL A   1      38.757  26.905  30.962  1.00  0.00    -0.203 F 
ATOM     79  C   UNL A   1      39.452  26.668  28.725  1.00  0.00     0.198 A 
ATOM     80  C   UNL A   1      40.702  28.422  27.670  1.00  0.00     0.198 A 
ATOM     81  F   UNL A   1      41.271  30.356  28.882  1.00  0.00    -0.203 F 
ATOM     82  F   UNL A   1      38.908  25.444  28.687  1.00  0.00    -0.200 F 
ATOM     83  C   UNL A   1      40.111  27.169  27.613  1.00  0.00     0.200 A 
ATOM     84  F   UNL A   1      41.326  28.916  26.592  1.00  0.00    -0.200 F 
ATOM     85  F   UNL A   1      40.186  26.440  26.491  1.00  0.00    -0.200 F 
ENDBRANCH  51  75
BRANCH  63  86
ATOM     86  C   UNL A   1      44.197  28.576  35.554  1.00  0.00     0.064 A 
ATOM     87  C   UNL A   1      45.515  28.934  35.233  1.00  0.00     0.173 A 
ATOM     88  C   UNL A   1      43.995  27.388  36.274  1.00  0.00     0.173 A 
ATOM     89  F   UNL A   1      45.760  30.053  34.536  1.00  0.00    -0.203 F 
ATOM     90  C   UNL A   1      46.584  28.117  35.592  1.00  0.00     0.198 A 
ATOM     91  C   UNL A   1      45.069  26.592  36.661  1.00  0.00     0.198 A 
ATOM     92  F   UNL A   1      42.755  27.004  36.614  1.00  0.00    -0.203 F 
ATOM     93  F   UNL A   1      47.830  28.451  35.227  1.00  0.00    -0.200 F 
ATOM     94  C   UNL A   1      46.362  26.952  36.311  1.00  0.00     0.200 A 
ATOM     95  F   UNL A   1      44.853  25.475  37.369  1.00  0.00    -0.200 F 
ATOM     96  F   UNL A   1      47.394  26.172  36.660  1.00  0.00    -0.200 F 
ENDBRANCH  63  86
ENDBRANCH  37  38
ENDBRANCH  29  32
ENDBRANCH  27  28
ENDBRANCH  26  27
ENDBRANCH  25  26
ENDBRANCH   1  25
TORSDOF 16
ENDMDL
MODEL 3
REMARK VINA RESULT:     -11.5      6.824     12.512
REMARK SMILES O=C(Cc1ccccc1Nc1c(Cl)cccc1Cl)NCCCCCCNC(=O)c1ccc(-c2c3nc(c(-c4c(F)c(F)c(F)c(F)c4F)c4ccc([nH]4)c(-c4c(F)c(F)c(F)c(F)c4F)c4nc(c(-c5c(F)c(F)c(F)c(F)c5F)c5ccc2[nH]5)C=C4)C=C3)cc1
REMARK SMILES IDX 22 1 21 2 20 3 19 4 1 5 2 6 3 8 4 9 5 10 9 11 6 12 8 13 7 14
REMARK SMILES IDX 10 15 11 17 12 18 17 19 13 20 14 21 16 22 18 23 15 24 23 25
REMARK SMILES IDX 24 26 25 27 26 28 27 29 28 31 29 32 30 33 91 34 31 35 90 36
REMARK SMILES IDX 32 37 33 38 34 39 84 40 35 41 89 42 83 43 85 44 36 45 88 46
REMARK SMILES IDX 82 47 81 48 37 50 69 51 49 52 68 53 50 54 53 55 67 56 86 57
REMARK SMILES IDX 51 58 52 59 66 61 87 62 54 63 38 64 39 65 47 66 40 67 41 68
REMARK SMILES IDX 45 69 48 70 42 71 43 72 46 73 44 74 70 75 71 76 79 77 72 78
REMARK SMILES IDX 73 79 77 80 80 81 74 82 75 83 78 84 76 85 55 86 56 87 64 88
REMARK SMILES IDX 57 89 58 90 62 91 65 92 59 93 60 94 63 95 61 96
REMARK H PARENT 19 7 10 16 26 30 85 49 53 60
REMARK Flexibility Score: inf
ROOT
ATOM      1  C   UNL A   1      41.704  21.445  27.140  1.00  0.00     0.002 C 
ENDROOT
BRANCH   1   2
ATOM      2  C   UNL A   1      40.847  22.178  26.094  1.00  0.00     0.021 C 
BRANCH   2   3
ATOM      3  C   UNL A   1      39.400  22.442  26.517  1.00  0.00     0.116 C 
BRANCH   3   4
ATOM      4  N   UNL A   1      38.521  22.410  25.369  1.00  0.00    -0.356 N 
ATOM      5  O   UNL A   1      36.830  23.734  26.191  1.00  0.00    -0.275 OA
ATOM      6  C   UNL A   1      37.322  23.081  25.278  1.00  0.00     0.224 C 
ATOM      7  H   UNL A   1      38.801  21.869  24.595  1.00  0.00     0.163 HD
BRANCH   6   8
ATOM      8  C   UNL A   1      36.666  22.933  23.909  1.00  0.00     0.137 C 
BRANCH   8   9
ATOM      9  C   UNL A   1      35.275  22.338  24.004  1.00  0.00    -0.015 A 
ATOM     10  C   UNL A   1      35.119  21.087  24.640  1.00  0.00     0.006 A 
ATOM     11  C   UNL A   1      34.137  22.979  23.477  1.00  0.00     0.042 A 
ATOM     12  C   UNL A   1      33.882  20.451  24.708  1.00  0.00     0.000 A 
ATOM     13  C   UNL A   1      32.899  22.315  23.553  1.00  0.00     0.026 A 
ATOM     14  C   UNL A   1      32.771  21.062  24.151  1.00  0.00     0.002 A 
BRANCH  11  15
ATOM     15  N   UNL A   1      34.219  24.283  22.940  1.00  0.00    -0.353 N 
ATOM     16  H   UNL A   1      35.009  24.461  22.379  1.00  0.00     0.167 HD
BRANCH  15  17
ATOM     17  C   UNL A   1      33.324  25.373  23.093  1.00  0.00     0.076 A 
ATOM     18  C   UNL A   1      32.574  25.806  21.979  1.00  0.00     0.066 A 
ATOM     19  C   UNL A   1      33.054  25.995  24.332  1.00  0.00     0.066 A 
ATOM     20  Cl  UNL A   1      32.869  25.143  20.405  1.00  0.00    -0.082 Cl
ATOM     21  C   UNL A   1      31.563  26.764  22.102  1.00  0.00     0.023 A 
ATOM     22  C   UNL A   1      32.035  26.949  24.455  1.00  0.00     0.023 A 
ATOM     23  Cl  UNL A   1      34.007  25.699  25.749  1.00  0.00    -0.082 Cl
ATOM     24  C   UNL A   1      31.281  27.323  23.345  1.00  0.00     0.003 A 
ENDBRANCH  15  17
ENDBRANCH  11  15
ENDBRANCH   8   9
ENDBRANCH   6   8
ENDBRANCH   3   4
ENDBRANCH   2   3
ENDBRANCH   1   2
BRANCH   1  25
ATOM     25  C   UNL A   1      41.458  19.937  27.252  1.00  0.00     0.002 C 
BRANCH  25  26
ATOM     26  C   UNL A   1      41.987  19.111  26.080  1.00  0.00     0.021 C 
BRANCH  26  27
ATOM     27  C   UNL A   1      43.428  18.636  26.231  1.00  0.00     0.116 C 
BRANCH  27  28
ATOM     28  N   UNL A   1      44.104  18.473  24.954  1.00  0.00    -0.352 N 
ATOM     29  C   UNL A   1      44.659  19.433  24.145  1.00  0.00     0.251 C 
ATOM     30  H   UNL A   1      44.173  17.548  24.625  1.00  0.00     0.163 HD
ATOM     31  O   UNL A   1      45.060  19.140  23.020  1.00  0.00    -0.269 OA
BRANCH  29  32
ATOM     32  C   UNL A   1      44.751  20.830  24.617  1.00  0.00     0.039 A 
ATOM     33  C   UNL A   1      45.342  21.088  25.857  1.00  0.00     0.014 A 
ATOM     34  C   UNL A   1      44.255  21.884  23.844  1.00  0.00     0.014 A 
ATOM     35  C   UNL A   1      45.479  22.406  26.298  1.00  0.00     0.010 A 
ATOM     36  C   UNL A   1      44.462  23.199  24.249  1.00  0.00     0.010 A 
ATOM     37  C   UNL A   1      45.065  23.475  25.487  1.00  0.00    -0.014 A 
BRANCH  37  38
ATOM     38  C   UNL A   1      45.218  24.884  25.930  1.00  0.00     0.031 A 
ATOM     39  C   UNL A   1      46.567  25.549  25.859  1.00  0.00     0.074 A 
ATOM     40  C   UNL A   1      44.162  25.551  26.438  1.00  0.00     0.049 A 
ATOM     41  N   UNL A   1      46.930  26.738  26.270  1.00  0.00    -0.248 NA
ATOM     42  C   UNL A   1      47.662  24.761  25.269  1.00  0.00     0.031 C 
ATOM     43  C   UNL A   1      42.813  25.006  26.597  1.00  0.00     0.029 A 
ATOM     44  N   UNL A   1      44.063  26.830  26.927  1.00  0.00    -0.354 N 
ATOM     45  C   UNL A   1      48.287  26.837  25.994  1.00  0.00     0.074 A 
ATOM     46  C   UNL A   1      48.700  25.565  25.442  1.00  0.00     0.031 C 
ATOM     47  C   UNL A   1      42.018  25.948  27.131  1.00  0.00     0.029 A 
ATOM     48  C   UNL A   1      42.809  27.149  27.388  1.00  0.00     0.049 A 
ATOM     49  H   UNL A   1      44.820  27.460  26.946  1.00  0.00     0.167 HD
ATOM     50  C   UNL A   1      49.109  27.901  26.155  1.00  0.00     0.037 A 
ATOM     51  C   UNL A   1      42.352  28.277  27.964  1.00  0.00     0.037 A 
ATOM     52  C   UNL A   1      48.693  29.171  26.688  1.00  0.00     0.049 A 
ATOM     53  C   UNL A   1      43.294  29.440  28.147  1.00  0.00     0.074 A 
ATOM     54  C   UNL A   1      49.446  30.317  26.876  1.00  0.00     0.029 A 
ATOM     55  N   UNL A   1      47.405  29.465  27.110  1.00  0.00    -0.354 N 
ATOM     56  N   UNL A   1      44.564  29.535  27.837  1.00  0.00    -0.248 NA
ATOM     57  C   UNL A   1      42.734  30.659  28.747  1.00  0.00     0.031 C 
ATOM     58  C   UNL A   1      48.623  31.293  27.446  1.00  0.00     0.029 A 
ATOM     59  C   UNL A   1      47.344  30.773  27.562  1.00  0.00     0.049 A 
ATOM     60  H   UNL A   1      46.647  28.837  27.092  1.00  0.00     0.167 HD
ATOM     61  C   UNL A   1      44.941  30.831  28.163  1.00  0.00     0.074 A 
ATOM     62  C   UNL A   1      43.762  31.491  28.683  1.00  0.00     0.031 C 
ATOM     63  C   UNL A   1      46.155  31.424  28.045  1.00  0.00     0.037 A 
BRANCH  50  64
ATOM     64  C   UNL A   1      50.539  27.747  25.727  1.00  0.00     0.064 A 
ATOM     65  C   UNL A   1      50.925  27.931  24.390  1.00  0.00     0.173 A 
ATOM     66  C   UNL A   1      51.543  27.470  26.667  1.00  0.00     0.173 A 
ATOM     67  F   UNL A   1      50.002  28.184  23.450  1.00  0.00    -0.203 F 
ATOM     68  C   UNL A   1      52.259  27.823  24.007  1.00  0.00     0.198 A 
ATOM     69  C   UNL A   1      52.881  27.394  26.285  1.00  0.00     0.198 A 
ATOM     70  F   UNL A   1      51.230  27.290  27.959  1.00  0.00    -0.203 F 
ATOM     71  F   UNL A   1      52.598  27.961  22.718  1.00  0.00    -0.200 F 
ATOM     72  C   UNL A   1      53.236  27.565  24.956  1.00  0.00     0.200 A 
ATOM     73  F   UNL A   1      53.826  27.158  27.206  1.00  0.00    -0.200 F 
ATOM     74  F   UNL A   1      54.522  27.476  24.588  1.00  0.00    -0.200 F 
ENDBRANCH  50  64
BRANCH  51  75
ATOM     75  C   UNL A   1      40.935  28.379  28.407  1.00  0.00     0.064 A 
ATOM     76  C   UNL A   1      39.950  28.918  27.566  1.00  0.00     0.173 A 
ATOM     77  C   UNL A   1      40.544  27.985  29.694  1.00  0.00     0.173 A 
ATOM     78  F   UNL A   1      40.276  29.328  26.331  1.00  0.00    -0.203 F 
ATOM     79  C   UNL A   1      38.642  29.100  28.010  1.00  0.00     0.198 A 
ATOM     80  C   UNL A   1      39.228  28.134  30.126  1.00  0.00     0.198 A 
ATOM     81  F   UNL A   1      41.442  27.456  30.538  1.00  0.00    -0.203 F 
ATOM     82  F   UNL A   1      37.740  29.685  27.210  1.00  0.00    -0.200 F 
ATOM     83  C   UNL A   1      38.281  28.706  29.289  1.00  0.00     0.200 A 
ATOM     84  F   UNL A   1      38.879  27.737  31.357  1.00  0.00    -0.200 F 
ATOM     85  F   UNL A   1      37.025  28.888  29.720  1.00  0.00    -0.200 F 
ENDBRANCH  51  75
BRANCH  63  86
ATOM     86  C   UNL A   1      46.255  32.875  28.417  1.00  0.00     0.064 A 
ATOM     87  C   UNL A   1      46.590  33.289  29.715  1.00  0.00     0.173 A 
ATOM     88  C   UNL A   1      46.045  33.866  27.444  1.00  0.00     0.173 A 
ATOM     89  F   UNL A   1      46.788  32.382  30.683  1.00  0.00    -0.203 F 
ATOM     90  C   UNL A   1      46.679  34.642  30.033  1.00  0.00     0.198 A 
ATOM     91  C   UNL A   1      46.169  35.217  27.758  1.00  0.00     0.198 A 
ATOM     92  F   UNL A   1      45.732  33.525  26.186  1.00  0.00    -0.203 F 
ATOM     93  F   UNL A   1      46.945  35.015  31.292  1.00  0.00    -0.200 F 
ATOM     94  C   UNL A   1      46.475  35.604  29.054  1.00  0.00     0.200 A 
ATOM     95  F   UNL A   1      45.988  36.143  26.807  1.00  0.00    -0.200 F 
ATOM     96  F   UNL A   1      46.568  36.904  29.362  1.00  0.00    -0.200 F 
ENDBRANCH  63  86
ENDBRANCH  37  38
ENDBRANCH  29  32
ENDBRANCH  27  28
ENDBRANCH  26  27
ENDBRANCH  25  26
ENDBRANCH   1  25
TORSDOF 16
ENDMDL
