MODEL 1
REMARK VINA RESULT:     -11.8      0.000      0.000
REMARK SMILES O=C(NCCCCCCNC(=O)c1cc(Br)cc2c1OCC2)c1ccc(-c2c3nc(c(-c4c(F)c(F)c(F)c(F)c4F)c4ccc([nH]4)c(-c4c(F)c(F)c(F)c(F)c4F)c4nc(c(-c5c(F)c(F)c(F)c(F)c5F)c5ccc2[nH]5)C=C4)C=C3)cc1
REMARK SMILES IDX 5 1 4 2 3 3 1 4 2 5 23 7 24 8 85 9 25 10 84 11 26 12 27 13
REMARK SMILES IDX 28 14 78 15 29 16 83 17 77 18 79 19 30 20 82 21 76 22 75 23
REMARK SMILES IDX 31 25 63 26 43 27 62 28 44 29 47 30 61 31 80 32 45 33 46 34
REMARK SMILES IDX 60 36 81 37 48 38 32 39 33 40 41 41 34 42 35 43 39 44 42 45
REMARK SMILES IDX 36 46 37 47 40 48 38 49 64 50 65 51 73 52 66 53 67 54 71 55
REMARK SMILES IDX 74 56 68 57 69 58 72 59 70 60 49 61 50 62 58 63 51 64 52 65
REMARK SMILES IDX 56 66 59 67 53 68 54 69 57 70 55 71 6 72 7 73 8 74 9 75
REMARK SMILES IDX 10 76 11 77 12 79 13 80 14 81 19 82 15 83 18 84 20 85 16 86
REMARK SMILES IDX 17 87 22 88 21 89
REMARK H PARENT 3 6 79 24 47 35 10 78
REMARK Flexibility Score: inf
ROOT
ATOM      1  C   UNL A   1      31.403  32.185  26.608  1.00  0.00     0.021 C 
ENDROOT
BRANCH   1   2
ATOM      2  C   UNL A   1      32.675  32.880  27.078  1.00  0.00     0.116 C 
BRANCH   2   3
ATOM      3  N   UNL A   1      32.413  34.202  27.626  1.00  0.00    -0.352 N 
ATOM      4  O   UNL A   1      32.528  35.885  29.124  1.00  0.00    -0.269 OA
ATOM      5  C   UNL A   1      33.002  34.837  28.688  1.00  0.00     0.251 C 
ATOM      6  H   UNL A   1      31.710  34.715  27.165  1.00  0.00     0.163 HD
BRANCH   5   7
ATOM      7  C   UNL A   1      34.198  34.254  29.328  1.00  0.00     0.039 A 
ATOM      8  C   UNL A   1      35.483  34.582  28.885  1.00  0.00     0.014 A 
ATOM      9  C   UNL A   1      34.028  33.379  30.404  1.00  0.00     0.014 A 
ATOM     10  C   UNL A   1      36.590  33.941  29.432  1.00  0.00     0.010 A 
ATOM     11  C   UNL A   1      35.144  32.794  31.004  1.00  0.00     0.010 A 
ATOM     12  C   UNL A   1      36.433  33.049  30.505  1.00  0.00    -0.014 A 
BRANCH  12  13
ATOM     13  C   UNL A   1      37.619  32.419  31.134  1.00  0.00     0.031 A 
ATOM     14  C   UNL A   1      38.368  31.323  30.432  1.00  0.00     0.074 A 
ATOM     15  C   UNL A   1      37.999  32.820  32.362  1.00  0.00     0.049 A 
ATOM     16  N   UNL A   1      39.368  30.596  30.863  1.00  0.00    -0.248 NA
ATOM     17  C   UNL A   1      37.927  30.993  29.069  1.00  0.00     0.031 C 
ATOM     18  C   UNL A   1      37.350  33.874  33.140  1.00  0.00     0.029 A 
ATOM     19  N   UNL A   1      39.013  32.379  33.175  1.00  0.00    -0.354 N 
ATOM     20  C   UNL A   1      39.661  29.708  29.836  1.00  0.00     0.074 A 
ATOM     21  C   UNL A   1      38.714  29.969  28.772  1.00  0.00     0.031 C 
ATOM     22  C   UNL A   1      37.986  34.008  34.314  1.00  0.00     0.029 A 
ATOM     23  C   UNL A   1      39.043  33.006  34.396  1.00  0.00     0.049 A 
ATOM     24  H   UNL A   1      39.655  31.683  32.909  1.00  0.00     0.167 HD
ATOM     25  C   UNL A   1      40.635  28.766  29.788  1.00  0.00     0.037 A 
ATOM     26  C   UNL A   1      39.809  32.774  35.477  1.00  0.00     0.037 A 
ATOM     27  C   UNL A   1      41.571  28.517  30.856  1.00  0.00     0.049 A 
ATOM     28  C   UNL A   1      40.848  31.692  35.421  1.00  0.00     0.074 A 
ATOM     29  C   UNL A   1      42.614  27.609  30.894  1.00  0.00     0.029 A 
ATOM     30  N   UNL A   1      41.563  29.167  32.082  1.00  0.00    -0.354 N 
ATOM     31  N   UNL A   1      41.142  30.880  34.434  1.00  0.00    -0.248 NA
ATOM     32  C   UNL A   1      41.663  31.492  36.626  1.00  0.00     0.031 C 
ATOM     33  C   UNL A   1      43.199  27.666  32.163  1.00  0.00     0.029 A 
ATOM     34  C   UNL A   1      42.567  28.660  32.894  1.00  0.00     0.049 A 
ATOM     35  H   UNL A   1      40.939  29.883  32.339  1.00  0.00     0.167 HD
ATOM     36  C   UNL A   1      42.195  30.096  34.884  1.00  0.00     0.074 A 
ATOM     37  C   UNL A   1      42.491  30.532  36.233  1.00  0.00     0.031 C 
ATOM     38  C   UNL A   1      42.860  29.111  34.232  1.00  0.00     0.037 A 
BRANCH  25  39
ATOM     39  C   UNL A   1      40.712  27.909  28.555  1.00  0.00     0.064 A 
ATOM     40  C   UNL A   1      41.481  28.279  27.440  1.00  0.00     0.173 A 
ATOM     41  C   UNL A   1      40.018  26.691  28.493  1.00  0.00     0.173 A 
ATOM     42  F   UNL A   1      42.160  29.435  27.440  1.00  0.00    -0.203 F 
ATOM     43  C   UNL A   1      41.516  27.482  26.296  1.00  0.00     0.198 A 
ATOM     44  C   UNL A   1      40.084  25.880  27.363  1.00  0.00     0.198 A 
ATOM     45  F   UNL A   1      39.275  26.281  29.533  1.00  0.00    -0.203 F 
ATOM     46  F   UNL A   1      42.206  27.889  25.222  1.00  0.00    -0.200 F 
ATOM     47  C   UNL A   1      40.823  26.282  26.261  1.00  0.00     0.200 A 
ATOM     48  F   UNL A   1      39.426  24.713  27.337  1.00  0.00    -0.200 F 
ATOM     49  F   UNL A   1      40.858  25.518  25.160  1.00  0.00    -0.200 F 
ENDBRANCH  25  39
BRANCH  26  50
ATOM     50  C   UNL A   1      39.605  33.591  36.701  1.00  0.00     0.064 A 
ATOM     51  C   UNL A   1      40.210  34.848  36.838  1.00  0.00     0.173 A 
ATOM     52  C   UNL A   1      38.769  33.151  37.738  1.00  0.00     0.173 A 
ATOM     53  F   UNL A   1      41.030  35.303  35.880  1.00  0.00    -0.203 F 
ATOM     54  C   UNL A   1      39.993  35.630  37.970  1.00  0.00     0.198 A 
ATOM     55  C   UNL A   1      38.528  33.947  38.855  1.00  0.00     0.198 A 
ATOM     56  F   UNL A   1      38.159  31.960  37.650  1.00  0.00    -0.203 F 
ATOM     57  F   UNL A   1      40.608  36.814  38.091  1.00  0.00    -0.200 F 
ATOM     58  C   UNL A   1      39.144  35.183  38.973  1.00  0.00     0.200 A 
ATOM     59  F   UNL A   1      37.692  33.520  39.811  1.00  0.00    -0.200 F 
ATOM     60  F   UNL A   1      38.922  35.944  40.053  1.00  0.00    -0.200 F 
ENDBRANCH  26  50
BRANCH  38  61
ATOM     61  C   UNL A   1      44.017  28.469  34.943  1.00  0.00     0.064 A 
ATOM     62  C   UNL A   1      45.312  29.001  34.887  1.00  0.00     0.173 A 
ATOM     63  C   UNL A   1      43.806  27.333  35.742  1.00  0.00     0.173 A 
ATOM     64  F   UNL A   1      45.570  30.075  34.126  1.00  0.00    -0.203 F 
ATOM     65  C   UNL A   1      46.359  28.411  35.594  1.00  0.00     0.198 A 
ATOM     66  C   UNL A   1      44.847  26.766  36.471  1.00  0.00     0.198 A 
ATOM     67  F   UNL A   1      42.585  26.786  35.832  1.00  0.00    -0.203 F 
ATOM     68  F   UNL A   1      47.598  28.913  35.495  1.00  0.00    -0.200 F 
ATOM     69  C   UNL A   1      46.123  27.302  36.392  1.00  0.00     0.200 A 
ATOM     70  F   UNL A   1      44.613  25.703  37.254  1.00  0.00    -0.200 F 
ATOM     71  F   UNL A   1      47.127  26.746  37.084  1.00  0.00    -0.200 F 
ENDBRANCH  38  61
ENDBRANCH  12  13
ENDBRANCH   5   7
ENDBRANCH   2   3
ENDBRANCH   1   2
BRANCH   1  72
ATOM     72  C   UNL A   1      31.538  30.677  26.389  1.00  0.00     0.002 C 
BRANCH  72  73
ATOM     73  C   UNL A   1      32.596  29.981  27.251  1.00  0.00     0.002 C 
BRANCH  73  74
ATOM     74  C   UNL A   1      32.699  28.464  27.074  1.00  0.00     0.021 C 
BRANCH  74  75
ATOM     75  C   UNL A   1      31.597  27.835  26.226  1.00  0.00     0.116 C 
BRANCH  75  76
ATOM     76  N   UNL A   1      31.093  26.603  26.804  1.00  0.00    -0.352 N 
ATOM     77  C   UNL A   1      31.413  25.302  26.501  1.00  0.00     0.255 C 
ATOM     78  H   UNL A   1      30.423  26.716  27.517  1.00  0.00     0.163 HD
ATOM     79  O   UNL A   1      30.818  24.380  27.051  1.00  0.00    -0.269 OA
BRANCH  77  80
ATOM     80  C   UNL A   1      32.502  25.027  25.548  1.00  0.00     0.083 A 
ATOM     81  C   UNL A   1      33.730  24.529  26.007  1.00  0.00     0.033 A 
ATOM     82  C   UNL A   1      32.337  25.233  24.188  1.00  0.00     0.135 A 
ATOM     83  C   UNL A   1      34.776  24.306  25.103  1.00  0.00     0.019 A 
ATOM     84  C   UNL A   1      33.371  24.987  23.297  1.00  0.00    -0.001 A 
ATOM     85  O   UNL A   1      31.196  25.684  23.577  1.00  0.00    -0.492 OA
ATOM     86  Br  UNL A   1      36.447  23.703  25.751  1.00  0.00    -0.051 Br
ATOM     87  C   UNL A   1      34.606  24.531  23.735  1.00  0.00     0.023 A 
ATOM     88  C   UNL A   1      32.903  25.217  21.913  1.00  0.00     0.081 C 
ATOM     89  C   UNL A   1      31.581  25.925  22.205  1.00  0.00     0.234 C 
ENDBRANCH  77  80
ENDBRANCH  75  76
ENDBRANCH  74  75
ENDBRANCH  73  74
ENDBRANCH  72  73
ENDBRANCH   1  72
TORSDOF 13
ENDMDL
MODEL 2
REMARK VINA RESULT:     -11.8      0.247      1.648
REMARK SMILES O=C(NCCCCCCNC(=O)c1cc(Br)cc2c1OCC2)c1ccc(-c2c3nc(c(-c4c(F)c(F)c(F)c(F)c4F)c4ccc([nH]4)c(-c4c(F)c(F)c(F)c(F)c4F)c4nc(c(-c5c(F)c(F)c(F)c(F)c5F)c5ccc2[nH]5)C=C4)C=C3)cc1
REMARK SMILES IDX 5 1 4 2 3 3 1 4 2 5 23 7 24 8 85 9 25 10 84 11 26 12 27 13
REMARK SMILES IDX 28 14 78 15 29 16 83 17 77 18 79 19 30 20 82 21 76 22 75 23
REMARK SMILES IDX 31 25 63 26 43 27 62 28 44 29 47 30 61 31 80 32 45 33 46 34
REMARK SMILES IDX 60 36 81 37 48 38 32 39 33 40 41 41 34 42 35 43 39 44 42 45
REMARK SMILES IDX 36 46 37 47 40 48 38 49 64 50 65 51 73 52 66 53 67 54 71 55
REMARK SMILES IDX 74 56 68 57 69 58 72 59 70 60 49 61 50 62 58 63 51 64 52 65
REMARK SMILES IDX 56 66 59 67 53 68 54 69 57 70 55 71 6 72 7 73 8 74 9 75
REMARK SMILES IDX 10 76 11 77 12 79 13 80 14 81 19 82 15 83 18 84 20 85 16 86
REMARK SMILES IDX 17 87 22 88 21 89
REMARK H PARENT 3 6 79 24 47 35 10 78
REMARK Flexibility Score: inf
ROOT
ATOM      1  C   UNL A   1      31.399  32.199  26.856  1.00  0.00     0.021 C 
ENDROOT
BRANCH   1   2
ATOM      2  C   UNL A   1      32.681  32.979  27.124  1.00  0.00     0.116 C 
BRANCH   2   3
ATOM      3  N   UNL A   1      32.420  34.307  27.657  1.00  0.00    -0.352 N 
ATOM      4  O   UNL A   1      32.528  36.003  29.141  1.00  0.00    -0.269 OA
ATOM      5  C   UNL A   1      33.001  34.949  28.719  1.00  0.00     0.251 C 
ATOM      6  H   UNL A   1      31.724  34.818  27.185  1.00  0.00     0.163 HD
BRANCH   5   7
ATOM      7  C   UNL A   1      34.188  34.366  29.377  1.00  0.00     0.039 A 
ATOM      8  C   UNL A   1      35.467  34.549  28.844  1.00  0.00     0.014 A 
ATOM      9  C   UNL A   1      34.016  33.640  30.558  1.00  0.00     0.014 A 
ATOM     10  C   UNL A   1      36.557  33.903  29.420  1.00  0.00     0.010 A 
ATOM     11  C   UNL A   1      35.121  33.056  31.179  1.00  0.00     0.010 A 
ATOM     12  C   UNL A   1      36.397  33.160  30.601  1.00  0.00    -0.014 A 
BRANCH  12  13
ATOM     13  C   UNL A   1      37.570  32.530  31.254  1.00  0.00     0.031 A 
ATOM     14  C   UNL A   1      38.306  31.404  30.586  1.00  0.00     0.074 A 
ATOM     15  C   UNL A   1      37.949  32.958  32.472  1.00  0.00     0.049 A 
ATOM     16  N   UNL A   1      39.293  30.675  31.042  1.00  0.00    -0.248 NA
ATOM     17  C   UNL A   1      37.869  31.045  29.230  1.00  0.00     0.031 C 
ATOM     18  C   UNL A   1      37.311  34.042  33.218  1.00  0.00     0.029 A 
ATOM     19  N   UNL A   1      38.952  32.525  33.303  1.00  0.00    -0.354 N 
ATOM     20  C   UNL A   1      39.579  29.755  30.041  1.00  0.00     0.074 A 
ATOM     21  C   UNL A   1      38.642  30.002  28.965  1.00  0.00     0.031 C 
ATOM     22  C   UNL A   1      37.942  34.198  34.392  1.00  0.00     0.029 A 
ATOM     23  C   UNL A   1      38.984  33.183  34.507  1.00  0.00     0.049 A 
ATOM     24  H   UNL A   1      39.585  31.812  33.059  1.00  0.00     0.167 HD
ATOM     25  C   UNL A   1      40.539  28.798  30.024  1.00  0.00     0.037 A 
ATOM     26  C   UNL A   1      39.740  32.970  35.599  1.00  0.00     0.037 A 
ATOM     27  C   UNL A   1      41.465  28.564  31.104  1.00  0.00     0.049 A 
ATOM     28  C   UNL A   1      40.764  31.871  35.578  1.00  0.00     0.074 A 
ATOM     29  C   UNL A   1      42.496  27.643  31.172  1.00  0.00     0.029 A 
ATOM     30  N   UNL A   1      41.461  29.247  32.312  1.00  0.00    -0.354 N 
ATOM     31  N   UNL A   1      41.051  31.029  34.614  1.00  0.00    -0.248 NA
ATOM     32  C   UNL A   1      41.569  31.692  36.793  1.00  0.00     0.031 C 
ATOM     33  C   UNL A   1      43.073  27.725  32.443  1.00  0.00     0.029 A 
ATOM     34  C   UNL A   1      42.453  28.748  33.143  1.00  0.00     0.049 A 
ATOM     35  H   UNL A   1      40.845  29.979  32.546  1.00  0.00     0.167 HD
ATOM     36  C   UNL A   1      42.090  30.242  35.092  1.00  0.00     0.074 A 
ATOM     37  C   UNL A   1      42.385  30.710  36.431  1.00  0.00     0.031 C 
ATOM     38  C   UNL A   1      42.745  29.230  34.471  1.00  0.00     0.037 A 
BRANCH  25  39
ATOM     39  C   UNL A   1      40.610  27.908  28.815  1.00  0.00     0.064 A 
ATOM     40  C   UNL A   1      39.865  26.721  28.721  1.00  0.00     0.173 A 
ATOM     41  C   UNL A   1      41.424  28.254  27.725  1.00  0.00     0.173 A 
ATOM     42  F   UNL A   1      39.076  26.336  29.735  1.00  0.00    -0.203 F 
ATOM     43  C   UNL A   1      39.967  25.896  27.603  1.00  0.00     0.198 A 
ATOM     44  C   UNL A   1      41.496  27.445  26.594  1.00  0.00     0.198 A 
ATOM     45  F   UNL A   1      42.150  29.381  27.754  1.00  0.00    -0.203 F 
ATOM     46  F   UNL A   1      39.295  24.737  27.565  1.00  0.00    -0.200 F 
ATOM     47  C   UNL A   1      40.777  26.262  26.538  1.00  0.00     0.200 A 
ATOM     48  F   UNL A   1      42.266  27.809  25.559  1.00  0.00    -0.200 F 
ATOM     49  F   UNL A   1      40.874  25.466  25.463  1.00  0.00    -0.200 F 
ENDBRANCH  25  39
BRANCH  26  50
ATOM     50  C   UNL A   1      39.542  33.823  36.799  1.00  0.00     0.064 A 
ATOM     51  C   UNL A   1      38.734  33.397  37.861  1.00  0.00     0.173 A 
ATOM     52  C   UNL A   1      40.191  35.061  36.925  1.00  0.00     0.173 A 
ATOM     53  F   UNL A   1      38.081  32.229  37.779  1.00  0.00    -0.203 F 
ATOM     54  C   UNL A   1      38.575  34.182  39.001  1.00  0.00     0.198 A 
ATOM     55  C   UNL A   1      40.056  35.830  38.078  1.00  0.00     0.198 A 
ATOM     56  F   UNL A   1      40.983  35.508  35.940  1.00  0.00    -0.203 F 
ATOM     57  F   UNL A   1      37.771  33.767  39.990  1.00  0.00    -0.200 F 
ATOM     58  C   UNL A   1      39.244  35.392  39.112  1.00  0.00     0.200 A 
ATOM     59  F   UNL A   1      40.720  36.988  38.190  1.00  0.00    -0.200 F 
ATOM     60  F   UNL A   1      39.104  36.138  40.217  1.00  0.00    -0.200 F 
ENDBRANCH  26  50
BRANCH  38  61
ATOM     61  C   UNL A   1      43.887  28.591  35.205  1.00  0.00     0.064 A 
ATOM     62  C   UNL A   1      45.198  29.080  35.113  1.00  0.00     0.173 A 
ATOM     63  C   UNL A   1      43.650  27.504  36.063  1.00  0.00     0.173 A 
ATOM     64  F   UNL A   1      45.481  30.106  34.295  1.00  0.00    -0.203 F 
ATOM     65  C   UNL A   1      46.232  28.496  35.842  1.00  0.00     0.198 A 
ATOM     66  C   UNL A   1      44.680  26.944  36.813  1.00  0.00     0.198 A 
ATOM     67  F   UNL A   1      42.414  26.999  36.190  1.00  0.00    -0.203 F 
ATOM     68  F   UNL A   1      47.485  28.955  35.709  1.00  0.00    -0.200 F 
ATOM     69  C   UNL A   1      45.971  27.437  36.698  1.00  0.00     0.200 A 
ATOM     70  F   UNL A   1      44.421  25.931  37.651  1.00  0.00    -0.200 F 
ATOM     71  F   UNL A   1      46.964  26.887  37.410  1.00  0.00    -0.200 F 
ENDBRANCH  38  61
ENDBRANCH  12  13
ENDBRANCH   5   7
ENDBRANCH   2   3
ENDBRANCH   1   2
BRANCH   1  72
ATOM     72  C   UNL A   1      31.608  30.758  26.390  1.00  0.00     0.002 C 
BRANCH  72  73
ATOM     73  C   UNL A   1      32.781  30.021  27.044  1.00  0.00     0.002 C 
BRANCH  73  74
ATOM     74  C   UNL A   1      32.551  28.534  27.329  1.00  0.00     0.021 C 
BRANCH  74  75
ATOM     75  C   UNL A   1      31.687  27.805  26.304  1.00  0.00     0.116 C 
BRANCH  75  76
ATOM     76  N   UNL A   1      31.130  26.573  26.831  1.00  0.00    -0.352 N 
ATOM     77  C   UNL A   1      31.401  25.273  26.480  1.00  0.00     0.255 C 
ATOM     78  H   UNL A   1      30.460  26.684  27.544  1.00  0.00     0.163 HD
ATOM     79  O   UNL A   1      30.767  24.354  26.990  1.00  0.00    -0.269 OA
BRANCH  77  80
ATOM     80  C   UNL A   1      32.486  24.992  25.524  1.00  0.00     0.083 A 
ATOM     81  C   UNL A   1      33.718  24.499  25.981  1.00  0.00     0.033 A 
ATOM     82  C   UNL A   1      32.313  25.185  24.163  1.00  0.00     0.135 A 
ATOM     83  C   UNL A   1      34.759  24.271  25.073  1.00  0.00     0.019 A 
ATOM     84  C   UNL A   1      33.344  24.933  23.269  1.00  0.00    -0.001 A 
ATOM     85  O   UNL A   1      31.169  25.629  23.554  1.00  0.00    -0.492 OA
ATOM     86  Br  UNL A   1      36.435  23.677  25.717  1.00  0.00    -0.051 Br
ATOM     87  C   UNL A   1      34.582  24.484  23.704  1.00  0.00     0.023 A 
ATOM     88  C   UNL A   1      32.868  25.150  21.885  1.00  0.00     0.081 C 
ATOM     89  C   UNL A   1      31.546  25.859  22.178  1.00  0.00     0.234 C 
ENDBRANCH  77  80
ENDBRANCH  75  76
ENDBRANCH  74  75
ENDBRANCH  73  74
ENDBRANCH  72  73
ENDBRANCH   1  72
TORSDOF 13
ENDMDL
MODEL 3
REMARK VINA RESULT:     -11.8      1.944      7.885
REMARK SMILES O=C(NCCCCCCNC(=O)c1cc(Br)cc2c1OCC2)c1ccc(-c2c3nc(c(-c4c(F)c(F)c(F)c(F)c4F)c4ccc([nH]4)c(-c4c(F)c(F)c(F)c(F)c4F)c4nc(c(-c5c(F)c(F)c(F)c(F)c5F)c5ccc2[nH]5)C=C4)C=C3)cc1
REMARK SMILES IDX 5 1 4 2 3 3 1 4 2 5 23 7 24 8 85 9 25 10 84 11 26 12 27 13
REMARK SMILES IDX 28 14 78 15 29 16 83 17 77 18 79 19 30 20 82 21 76 22 75 23
REMARK SMILES IDX 31 25 63 26 43 27 62 28 44 29 47 30 61 31 80 32 45 33 46 34
REMARK SMILES IDX 60 36 81 37 48 38 32 39 33 40 41 41 34 42 35 43 39 44 42 45
REMARK SMILES IDX 36 46 37 47 40 48 38 49 64 50 65 51 73 52 66 53 67 54 71 55
REMARK SMILES IDX 74 56 68 57 69 58 72 59 70 60 49 61 50 62 58 63 51 64 52 65
REMARK SMILES IDX 56 66 59 67 53 68 54 69 57 70 55 71 6 72 7 73 8 74 9 75
REMARK SMILES IDX 10 76 11 77 12 79 13 80 14 81 19 82 15 83 18 84 20 85 16 86
REMARK SMILES IDX 17 87 22 88 21 89
REMARK H PARENT 3 6 79 24 47 35 10 78
REMARK Flexibility Score: inf
ROOT
ATOM      1  C   UNL A   1      33.252  34.376  28.771  1.00  0.00     0.021 C 
ENDROOT
BRANCH   1   2
ATOM      2  C   UNL A   1      33.408  35.839  29.167  1.00  0.00     0.116 C 
BRANCH   2   3
ATOM      3  N   UNL A   1      32.578  36.196  30.307  1.00  0.00    -0.352 N 
ATOM      4  O   UNL A   1      31.783  36.064  32.414  1.00  0.00    -0.269 OA
ATOM      5  C   UNL A   1      32.684  35.808  31.617  1.00  0.00     0.251 C 
ATOM      6  H   UNL A   1      31.831  36.805  30.107  1.00  0.00     0.163 HD
BRANCH   5   7
ATOM      7  C   UNL A   1      33.873  35.060  32.073  1.00  0.00     0.039 A 
ATOM      8  C   UNL A   1      35.134  35.663  32.100  1.00  0.00     0.014 A 
ATOM      9  C   UNL A   1      33.717  33.740  32.500  1.00  0.00     0.014 A 
ATOM     10  C   UNL A   1      36.256  34.910  32.431  1.00  0.00     0.010 A 
ATOM     11  C   UNL A   1      34.833  33.007  32.907  1.00  0.00     0.010 A 
ATOM     12  C   UNL A   1      36.115  33.577  32.850  1.00  0.00    -0.014 A 
BRANCH  12  13
ATOM     13  C   UNL A   1      37.303  32.795  33.271  1.00  0.00     0.031 A 
ATOM     14  C   UNL A   1      37.992  33.088  34.572  1.00  0.00     0.074 A 
ATOM     15  C   UNL A   1      37.779  31.837  32.454  1.00  0.00     0.049 A 
ATOM     16  N   UNL A   1      39.091  32.572  35.061  1.00  0.00    -0.248 NA
ATOM     17  C   UNL A   1      37.369  34.104  35.432  1.00  0.00     0.031 C 
ATOM     18  C   UNL A   1      37.193  31.462  31.167  1.00  0.00     0.029 A 
ATOM     19  N   UNL A   1      38.869  31.013  32.577  1.00  0.00    -0.354 N 
ATOM     20  C   UNL A   1      39.305  33.215  36.274  1.00  0.00     0.074 A 
ATOM     21  C   UNL A   1      38.236  34.179  36.432  1.00  0.00     0.031 C 
ATOM     22  C   UNL A   1      37.923  30.477  30.622  1.00  0.00     0.029 A 
ATOM     23  C   UNL A   1      39.062  30.197  31.490  1.00  0.00     0.049 A 
ATOM     24  H   UNL A   1      39.455  31.007  33.368  1.00  0.00     0.167 HD
ATOM     25  C   UNL A   1      40.301  33.013  37.171  1.00  0.00     0.037 A 
ATOM     26  C   UNL A   1      40.064  29.347  31.204  1.00  0.00     0.037 A 
ATOM     27  C   UNL A   1      41.359  32.050  37.000  1.00  0.00     0.049 A 
ATOM     28  C   UNL A   1      41.184  29.175  32.189  1.00  0.00     0.074 A 
ATOM     29  C   UNL A   1      42.396  31.744  37.864  1.00  0.00     0.029 A 
ATOM     30  N   UNL A   1      41.526  31.247  35.880  1.00  0.00    -0.354 N 
ATOM     31  N   UNL A   1      41.360  29.761  33.349  1.00  0.00    -0.248 NA
ATOM     32  C   UNL A   1      42.244  28.225  31.829  1.00  0.00     0.031 C 
ATOM     33  C   UNL A   1      43.223  30.804  37.242  1.00  0.00     0.029 A 
ATOM     34  C   UNL A   1      42.664  30.468  36.020  1.00  0.00     0.049 A 
ATOM     35  H   UNL A   1      40.924  31.232  35.101  1.00  0.00     0.167 HD
ATOM     36  C   UNL A   1      42.530  29.229  33.872  1.00  0.00     0.074 A 
ATOM     37  C   UNL A   1      43.020  28.270  32.904  1.00  0.00     0.031 C 
ATOM     38  C   UNL A   1      43.136  29.506  35.053  1.00  0.00     0.037 A 
BRANCH  25  39
ATOM     39  C   UNL A   1      40.313  33.878  38.401  1.00  0.00     0.064 A 
ATOM     40  C   UNL A   1      39.592  33.537  39.557  1.00  0.00     0.173 A 
ATOM     41  C   UNL A   1      41.070  35.060  38.430  1.00  0.00     0.173 A 
ATOM     42  F   UNL A   1      38.846  32.423  39.584  1.00  0.00    -0.203 F 
ATOM     43  C   UNL A   1      39.596  34.368  40.676  1.00  0.00     0.198 A 
ATOM     44  C   UNL A   1      41.100  35.869  39.563  1.00  0.00     0.198 A 
ATOM     45  F   UNL A   1      41.787  35.431  37.358  1.00  0.00    -0.203 F 
ATOM     46  F   UNL A   1      38.848  34.052  41.743  1.00  0.00    -0.200 F 
ATOM     47  C   UNL A   1      40.353  35.529  40.680  1.00  0.00     0.200 A 
ATOM     48  F   UNL A   1      41.846  36.983  39.571  1.00  0.00    -0.200 F 
ATOM     49  F   UNL A   1      40.355  36.327  41.758  1.00  0.00    -0.200 F 
ENDBRANCH  25  39
BRANCH  26  50
ATOM     50  C   UNL A   1      40.040  28.602  29.919  1.00  0.00     0.064 A 
ATOM     51  C   UNL A   1      40.655  29.121  28.772  1.00  0.00     0.173 A 
ATOM     52  C   UNL A   1      39.439  27.337  29.823  1.00  0.00     0.173 A 
ATOM     53  F   UNL A   1      41.229  30.332  28.811  1.00  0.00    -0.203 F 
ATOM     54  C   UNL A   1      40.662  28.407  27.576  1.00  0.00     0.198 A 
ATOM     55  C   UNL A   1      39.473  26.612  28.635  1.00  0.00     0.198 A 
ATOM     56  F   UNL A   1      38.845  26.793  30.895  1.00  0.00    -0.203 F 
ATOM     57  F   UNL A   1      41.230  28.939  26.485  1.00  0.00    -0.200 F 
ATOM     58  C   UNL A   1      40.081  27.149  27.511  1.00  0.00     0.200 A 
ATOM     59  F   UNL A   1      38.928  25.389  28.583  1.00  0.00    -0.200 F 
ATOM     60  F   UNL A   1      40.104  26.456  26.365  1.00  0.00    -0.200 F 
ENDBRANCH  26  50
BRANCH  38  61
ATOM     61  C   UNL A   1      44.369  28.723  35.400  1.00  0.00     0.064 A 
ATOM     62  C   UNL A   1      45.655  29.177  35.073  1.00  0.00     0.173 A 
ATOM     63  C   UNL A   1      44.259  27.526  36.126  1.00  0.00     0.173 A 
ATOM     64  F   UNL A   1      45.814  30.306  34.366  1.00  0.00    -0.203 F 
ATOM     65  C   UNL A   1      46.785  28.453  35.448  1.00  0.00     0.198 A 
ATOM     66  C   UNL A   1      45.392  26.823  36.525  1.00  0.00     0.198 A 
ATOM     67  F   UNL A   1      43.052  27.050  36.467  1.00  0.00    -0.203 F 
ATOM     68  F   UNL A   1      48.003  28.884  35.090  1.00  0.00    -0.200 F 
ATOM     69  C   UNL A   1      46.653  27.284  36.182  1.00  0.00     0.200 A 
ATOM     70  F   UNL A   1      45.261  25.702  37.249  1.00  0.00    -0.200 F 
ATOM     71  F   UNL A   1      47.742  26.598  36.555  1.00  0.00    -0.200 F 
ENDBRANCH  38  61
ENDBRANCH  12  13
ENDBRANCH   5   7
ENDBRANCH   2   3
ENDBRANCH   1   2
BRANCH   1  72
ATOM     72  C   UNL A   1      34.545  33.559  28.809  1.00  0.00     0.002 C 
BRANCH  72  73
ATOM     73  C   UNL A   1      34.359  32.045  28.948  1.00  0.00     0.002 C 
BRANCH  73  74
ATOM     74  C   UNL A   1      34.782  31.212  27.734  1.00  0.00     0.021 C 
BRANCH  74  75
ATOM     75  C   UNL A   1      33.633  30.622  26.922  1.00  0.00     0.116 C 
BRANCH  75  76
ATOM     76  N   UNL A   1      32.836  29.688  27.696  1.00  0.00    -0.352 N 
ATOM     77  C   UNL A   1      32.059  28.640  27.265  1.00  0.00     0.255 C 
ATOM     78  H   UNL A   1      32.854  29.825  28.670  1.00  0.00     0.163 HD
ATOM     79  O   UNL A   1      31.389  28.001  28.072  1.00  0.00    -0.269 OA
BRANCH  77  80
ATOM     80  C   UNL A   1      32.073  28.264  25.842  1.00  0.00     0.083 A 
ATOM     81  C   UNL A   1      31.269  28.956  24.923  1.00  0.00     0.033 A 
ATOM     82  C   UNL A   1      32.884  27.243  25.375  1.00  0.00     0.135 A 
ATOM     83  C   UNL A   1      31.255  28.570  23.577  1.00  0.00     0.019 A 
ATOM     84  C   UNL A   1      32.881  26.884  24.035  1.00  0.00    -0.001 A 
ATOM     85  O   UNL A   1      33.746  26.493  26.131  1.00  0.00    -0.492 OA
ATOM     86  Br  UNL A   1      30.111  29.467  22.368  1.00  0.00    -0.051 Br
ATOM     87  C   UNL A   1      32.065  27.529  23.117  1.00  0.00     0.023 A 
ATOM     88  C   UNL A   1      33.887  25.824  23.800  1.00  0.00     0.081 C 
ATOM     89  C   UNL A   1      34.199  25.444  25.247  1.00  0.00     0.234 C 
ENDBRANCH  77  80
ENDBRANCH  75  76
ENDBRANCH  74  75
ENDBRANCH  73  74
ENDBRANCH  72  73
ENDBRANCH   1  72
TORSDOF 13
ENDMDL
