MODEL 1
REMARK VINA RESULT:     -11.8      0.000      0.000
REMARK SMILES C#Cc1cc(Cl)c2c(c1)C=C(C(=O)NCCCCCCNC(=O)c1ccc(-c3c4nc(c(-c5c(F)c(F)c(F)c(F)c5F)c5ccc([nH]5)c(-c5c(F)c(F)c(F)c(F)c5F)c5nc(c(-c6c(F)c(F)c(F)c(F)c6F)c6ccc3[nH]6)C=C5)C=C4)cc1)[C@@H](C(F)(F)F)O2
REMARK SMILES IDX 18 1 17 2 16 3 15 4 14 5 12 6 13 7 11 9 3 10 4 11 9 12 5 13
REMARK SMILES IDX 8 14 6 15 7 16 10 17 92 18 87 19 2 20 1 21 88 22 89 23 90 24
REMARK SMILES IDX 91 25 19 26 20 27 21 28 22 29 23 31 24 32 25 33 86 34 26 35
REMARK SMILES IDX 85 36 27 37 28 38 29 39 79 40 30 41 84 42 78 43 80 44 31 45
REMARK SMILES IDX 83 46 77 47 76 48 32 50 64 51 44 52 63 53 45 54 48 55 62 56
REMARK SMILES IDX 81 57 46 58 47 59 61 61 82 62 49 63 33 64 34 65 42 66 35 67
REMARK SMILES IDX 36 68 40 69 43 70 37 71 38 72 41 73 39 74 65 75 66 76 74 77
REMARK SMILES IDX 67 78 68 79 72 80 75 81 69 82 70 83 73 84 71 85 50 86 51 87
REMARK SMILES IDX 59 88 52 89 53 90 57 91 60 92 54 93 55 94 58 95 56 96
REMARK H PARENT 14 8 21 30 80 49 48 60
REMARK Flexibility Score: inf
ROOT
ATOM      1  C   UNL A   1      34.899  22.156  26.169  1.00  0.00     0.002 C 
ENDROOT
BRANCH   1   2
ATOM      2  C   UNL A   1      34.600  20.981  25.228  1.00  0.00     0.002 C 
BRANCH   2   3
ATOM      3  C   UNL A   1      33.217  20.357  25.415  1.00  0.00     0.021 C 
BRANCH   3   4
ATOM      4  C   UNL A   1      32.100  21.220  24.844  1.00  0.00     0.116 C 
BRANCH   4   5
ATOM      5  N   UNL A   1      31.349  21.889  25.890  1.00  0.00    -0.352 N 
ATOM      6  C   UNL A   1      31.131  23.165  26.293  1.00  0.00     0.251 C 
ATOM      7  O   UNL A   1      30.369  23.298  27.254  1.00  0.00    -0.270 OA
ATOM      8  H   UNL A   1      30.869  21.245  26.459  1.00  0.00     0.163 HD
BRANCH   6   9
ATOM      9  C   UNL A   1      31.745  24.371  25.661  1.00  0.00     0.067 C 
ATOM     10  C   UNL A   1      33.727  28.753  26.195  1.00  0.00     0.027 A 
ATOM     11  C   UNL A   1      34.043  28.787  24.836  1.00  0.00     0.041 A 
ATOM     12  C   UNL A   1      33.091  27.634  26.746  1.00  0.00     0.029 A 
ATOM     13  C   UNL A   1      33.723  27.703  24.028  1.00  0.00     0.084 A 
ATOM     14  C   UNL A   1      32.769  26.541  25.934  1.00  0.00     0.020 A 
ATOM     15  Cl  UNL A   1      34.138  27.767  22.352  1.00  0.00    -0.080 Cl
ATOM     16  C   UNL A   1      33.081  26.585  24.572  1.00  0.00     0.146 A 
ATOM     17  C   UNL A   1      32.157  25.341  26.497  1.00  0.00     0.025 C 
ATOM     18  O   UNL A   1      32.826  25.541  23.735  1.00  0.00    -0.474 OA
ATOM     19  C   UNL A   1      31.883  24.541  24.178  1.00  0.00     0.314 C 
BRANCH  10  20
ATOM     20  C   UNL A   1      34.071  29.868  27.018  1.00  0.00    -0.070 C 
ATOM     21  C   UNL A   1      34.339  30.826  27.692  1.00  0.00     0.010 C 
ENDBRANCH  10  20
BRANCH  19  22
ATOM     22  C   UNL A   1      30.532  24.779  23.480  1.00  0.00     0.429 C 
ATOM     23  F   UNL A   1      29.997  23.602  23.067  1.00  0.00    -0.167 F 
ATOM     24  F   UNL A   1      29.610  25.348  24.291  1.00  0.00    -0.167 F 
ATOM     25  F   UNL A   1      30.645  25.579  22.396  1.00  0.00    -0.167 F 
ENDBRANCH  19  22
ENDBRANCH   6   9
ENDBRANCH   4   5
ENDBRANCH   3   4
ENDBRANCH   2   3
ENDBRANCH   1   2
BRANCH   1  26
ATOM     26  C   UNL A   1      35.231  23.473  25.463  1.00  0.00     0.021 C 
BRANCH  26  27
ATOM     27  C   UNL A   1      36.630  23.992  25.768  1.00  0.00     0.116 C 
BRANCH  27  28
ATOM     28  N   UNL A   1      37.576  22.901  25.939  1.00  0.00    -0.352 N 
ATOM     29  C   UNL A   1      38.887  22.948  26.329  1.00  0.00     0.251 C 
ATOM     30  H   UNL A   1      37.224  22.002  25.747  1.00  0.00     0.163 HD
ATOM     31  O   UNL A   1      39.618  21.975  26.183  1.00  0.00    -0.269 OA
BRANCH  29  32
ATOM     32  C   UNL A   1      39.414  24.193  26.917  1.00  0.00     0.039 A 
ATOM     33  C   UNL A   1      40.069  25.107  26.091  1.00  0.00     0.014 A 
ATOM     34  C   UNL A   1      39.251  24.454  28.280  1.00  0.00     0.014 A 
ATOM     35  C   UNL A   1      40.519  26.312  26.629  1.00  0.00     0.010 A 
ATOM     36  C   UNL A   1      39.619  25.689  28.794  1.00  0.00     0.010 A 
ATOM     37  C   UNL A   1      40.271  26.623  27.977  1.00  0.00    -0.014 A 
BRANCH  37  38
ATOM     38  C   UNL A   1      40.719  27.912  28.553  1.00  0.00     0.031 A 
ATOM     39  C   UNL A   1      42.175  28.134  28.846  1.00  0.00     0.074 A 
ATOM     40  C   UNL A   1      39.812  28.867  28.833  1.00  0.00     0.049 A 
ATOM     41  N   UNL A   1      42.762  29.181  29.368  1.00  0.00    -0.248 NA
ATOM     42  C   UNL A   1      43.094  27.028  28.528  1.00  0.00     0.031 C 
ATOM     43  C   UNL A   1      38.370  28.751  28.616  1.00  0.00     0.029 A 
ATOM     44  N   UNL A   1      39.970  30.127  29.356  1.00  0.00    -0.354 N 
ATOM     45  C   UNL A   1      44.111  28.860  29.435  1.00  0.00     0.074 A 
ATOM     46  C   UNL A   1      44.250  27.499  28.971  1.00  0.00     0.031 C 
ATOM     47  C   UNL A   1      37.780  29.905  28.964  1.00  0.00     0.029 A 
ATOM     48  C   UNL A   1      38.794  30.826  29.472  1.00  0.00     0.049 A 
ATOM     49  H   UNL A   1      40.843  30.494  29.622  1.00  0.00     0.167 HD
ATOM     50  C   UNL A   1      45.144  29.647  29.815  1.00  0.00     0.037 A 
ATOM     51  C   UNL A   1      38.560  32.066  29.939  1.00  0.00     0.037 A 
ATOM     52  C   UNL A   1      44.998  31.005  30.263  1.00  0.00     0.049 A 
ATOM     53  C   UNL A   1      39.721  32.899  30.412  1.00  0.00     0.074 A 
ATOM     54  C   UNL A   1      45.986  31.896  30.642  1.00  0.00     0.029 A 
ATOM     55  N   UNL A   1      43.785  31.670  30.396  1.00  0.00    -0.354 N 
ATOM     56  N   UNL A   1      41.000  32.609  30.414  1.00  0.00    -0.248 NA
ATOM     57  C   UNL A   1      39.410  34.233  30.942  1.00  0.00     0.031 C 
ATOM     58  C   UNL A   1      45.370  33.076  31.065  1.00  0.00     0.029 A 
ATOM     59  C   UNL A   1      44.001  32.948  30.883  1.00  0.00     0.049 A 
ATOM     60  H   UNL A   1      42.905  31.288  30.176  1.00  0.00     0.167 HD
ATOM     61  C   UNL A   1      41.647  33.729  30.920  1.00  0.00     0.074 A 
ATOM     62  C   UNL A   1      40.620  34.713  31.192  1.00  0.00     0.031 C 
ATOM     63  C   UNL A   1      42.970  33.921  31.142  1.00  0.00     0.037 A 
BRANCH  50  64
ATOM     64  C   UNL A   1      46.528  29.068  29.751  1.00  0.00     0.064 A 
ATOM     65  C   UNL A   1      47.091  28.390  30.843  1.00  0.00     0.173 A 
ATOM     66  C   UNL A   1      47.272  29.126  28.562  1.00  0.00     0.173 A 
ATOM     67  F   UNL A   1      46.428  28.317  32.007  1.00  0.00    -0.203 F 
ATOM     68  C   UNL A   1      48.351  27.806  30.752  1.00  0.00     0.198 A 
ATOM     69  C   UNL A   1      48.516  28.511  28.464  1.00  0.00     0.198 A 
ATOM     70  F   UNL A   1      46.780  29.761  27.487  1.00  0.00    -0.203 F 
ATOM     71  F   UNL A   1      48.883  27.197  31.820  1.00  0.00    -0.200 F 
ATOM     72  C   UNL A   1      49.057  27.855  29.559  1.00  0.00     0.200 A 
ATOM     73  F   UNL A   1      49.189  28.544  27.305  1.00  0.00    -0.200 F 
ATOM     74  F   UNL A   1      50.259  27.271  29.467  1.00  0.00    -0.200 F 
ENDBRANCH  50  64
BRANCH  51  75
ATOM     75  C   UNL A   1      37.173  32.604  29.950  1.00  0.00     0.064 A 
ATOM     76  C   UNL A   1      36.285  32.284  30.985  1.00  0.00     0.173 A 
ATOM     77  C   UNL A   1      36.711  33.463  28.939  1.00  0.00     0.173 A 
ATOM     78  F   UNL A   1      36.671  31.453  31.964  1.00  0.00    -0.203 F 
ATOM     79  C   UNL A   1      34.986  32.789  31.005  1.00  0.00     0.198 A 
ATOM     80  C   UNL A   1      35.423  33.994  28.978  1.00  0.00     0.198 A 
ATOM     81  F   UNL A   1      37.519  33.805  27.926  1.00  0.00    -0.203 F 
ATOM     82  F   UNL A   1      34.146  32.432  31.986  1.00  0.00    -0.200 F 
ATOM     83  C   UNL A   1      34.560  33.650  30.007  1.00  0.00     0.200 A 
ATOM     84  F   UNL A   1      35.022  34.841  28.020  1.00  0.00    -0.200 F 
ATOM     85  F   UNL A   1      33.315  34.148  30.034  1.00  0.00    -0.200 F 
ENDBRANCH  51  75
BRANCH  63  86
ATOM     86  C   UNL A   1      43.402  35.252  31.691  1.00  0.00     0.064 A 
ATOM     87  C   UNL A   1      43.759  36.313  30.846  1.00  0.00     0.173 A 
ATOM     88  C   UNL A   1      43.371  35.495  33.073  1.00  0.00     0.173 A 
ATOM     89  F   UNL A   1      43.814  36.131  29.519  1.00  0.00    -0.203 F 
ATOM     90  C   UNL A   1      44.086  37.563  31.367  1.00  0.00     0.198 A 
ATOM     91  C   UNL A   1      43.661  36.756  33.587  1.00  0.00     0.198 A 
ATOM     92  F   UNL A   1      43.025  34.518  33.926  1.00  0.00    -0.203 F 
ATOM     93  F   UNL A   1      44.463  38.550  30.543  1.00  0.00    -0.200 F 
ATOM     94  C   UNL A   1      44.024  37.787  32.734  1.00  0.00     0.200 A 
ATOM     95  F   UNL A   1      43.577  36.976  34.906  1.00  0.00    -0.200 F 
ATOM     96  F   UNL A   1      44.314  38.997  33.230  1.00  0.00    -0.200 F 
ENDBRANCH  63  86
ENDBRANCH  37  38
ENDBRANCH  29  32
ENDBRANCH  27  28
ENDBRANCH  26  27
ENDBRANCH   1  26
TORSDOF 15
ENDMDL
MODEL 2
REMARK VINA RESULT:     -11.8      4.436      7.883
REMARK SMILES C#Cc1cc(Cl)c2c(c1)C=C(C(=O)NCCCCCCNC(=O)c1ccc(-c3c4nc(c(-c5c(F)c(F)c(F)c(F)c5F)c5ccc([nH]5)c(-c5c(F)c(F)c(F)c(F)c5F)c5nc(c(-c6c(F)c(F)c(F)c(F)c6F)c6ccc3[nH]6)C=C5)C=C4)cc1)[C@@H](C(F)(F)F)O2
REMARK SMILES IDX 18 1 17 2 16 3 15 4 14 5 12 6 13 7 11 9 3 10 4 11 9 12 5 13
REMARK SMILES IDX 8 14 6 15 7 16 10 17 92 18 87 19 2 20 1 21 88 22 89 23 90 24
REMARK SMILES IDX 91 25 19 26 20 27 21 28 22 29 23 31 24 32 25 33 86 34 26 35
REMARK SMILES IDX 85 36 27 37 28 38 29 39 79 40 30 41 84 42 78 43 80 44 31 45
REMARK SMILES IDX 83 46 77 47 76 48 32 50 64 51 44 52 63 53 45 54 48 55 62 56
REMARK SMILES IDX 81 57 46 58 47 59 61 61 82 62 49 63 33 64 34 65 42 66 35 67
REMARK SMILES IDX 36 68 40 69 43 70 37 71 38 72 41 73 39 74 65 75 66 76 74 77
REMARK SMILES IDX 67 78 68 79 72 80 75 81 69 82 70 83 73 84 71 85 50 86 51 87
REMARK SMILES IDX 59 88 52 89 53 90 57 91 60 92 54 93 55 94 58 95 56 96
REMARK H PARENT 14 8 21 30 80 49 48 60
REMARK Flexibility Score: inf
ROOT
ATOM      1  C   UNL A   1      31.727  30.413  25.894  1.00  0.00     0.002 C 
ENDROOT
BRANCH   1   2
ATOM      2  C   UNL A   1      32.831  29.580  26.560  1.00  0.00     0.002 C 
BRANCH   2   3
ATOM      3  C   UNL A   1      33.751  28.852  25.581  1.00  0.00     0.021 C 
BRANCH   3   4
ATOM      4  C   UNL A   1      33.911  27.374  25.913  1.00  0.00     0.116 C 
BRANCH   4   5
ATOM      5  N   UNL A   1      33.832  26.544  24.724  1.00  0.00    -0.352 N 
ATOM      6  C   UNL A   1      32.906  26.255  23.778  1.00  0.00     0.251 C 
ATOM      7  O   UNL A   1      33.277  25.487  22.886  1.00  0.00    -0.270 OA
ATOM      8  H   UNL A   1      34.676  26.064  24.562  1.00  0.00     0.163 HD
BRANCH   6   9
ATOM      9  C   UNL A   1      31.513  26.793  23.760  1.00  0.00     0.067 C 
ATOM     10  C   UNL A   1      28.487  30.373  22.559  1.00  0.00     0.027 A 
ATOM     11  C   UNL A   1      27.396  29.592  22.940  1.00  0.00     0.041 A 
ATOM     12  C   UNL A   1      29.788  29.863  22.649  1.00  0.00     0.029 A 
ATOM     13  C   UNL A   1      27.604  28.302  23.413  1.00  0.00     0.084 A 
ATOM     14  C   UNL A   1      30.000  28.565  23.125  1.00  0.00     0.020 A 
ATOM     15  Cl  UNL A   1      26.233  27.353  23.866  1.00  0.00    -0.080 Cl
ATOM     16  C   UNL A   1      28.902  27.791  23.512  1.00  0.00     0.146 A 
ATOM     17  C   UNL A   1      31.342  27.992  23.175  1.00  0.00     0.025 C 
ATOM     18  O   UNL A   1      29.038  26.509  23.950  1.00  0.00    -0.474 OA
ATOM     19  C   UNL A   1      30.349  26.080  24.378  1.00  0.00     0.314 C 
BRANCH  10  20
ATOM     20  C   UNL A   1      28.260  31.693  22.063  1.00  0.00    -0.070 C 
ATOM     21  C   UNL A   1      28.103  32.804  21.633  1.00  0.00     0.010 C 
ENDBRANCH  10  20
BRANCH  19  22
ATOM     22  C   UNL A   1      30.401  26.080  25.917  1.00  0.00     0.429 C 
ATOM     23  F   UNL A   1      29.220  25.655  26.433  1.00  0.00    -0.167 F 
ATOM     24  F   UNL A   1      31.349  25.251  26.413  1.00  0.00    -0.167 F 
ATOM     25  F   UNL A   1      30.652  27.308  26.425  1.00  0.00    -0.167 F 
ENDBRANCH  19  22
ENDBRANCH   6   9
ENDBRANCH   4   5
ENDBRANCH   3   4
ENDBRANCH   2   3
ENDBRANCH   1   2
BRANCH   1  26
ATOM     26  C   UNL A   1      31.478  31.779  26.539  1.00  0.00     0.021 C 
BRANCH  26  27
ATOM     27  C   UNL A   1      32.727  32.400  27.150  1.00  0.00     0.116 C 
BRANCH  27  28
ATOM     28  N   UNL A   1      32.517  33.801  27.477  1.00  0.00    -0.352 N 
ATOM     29  C   UNL A   1      33.071  34.545  28.484  1.00  0.00     0.251 C 
ATOM     30  H   UNL A   1      31.889  34.283  26.892  1.00  0.00     0.163 HD
ATOM     31  O   UNL A   1      32.607  35.640  28.781  1.00  0.00    -0.269 OA
BRANCH  29  32
ATOM     32  C   UNL A   1      34.230  34.005  29.218  1.00  0.00     0.039 A 
ATOM     33  C   UNL A   1      34.009  33.204  30.338  1.00  0.00     0.014 A 
ATOM     34  C   UNL A   1      35.531  34.287  28.789  1.00  0.00     0.014 A 
ATOM     35  C   UNL A   1      35.098  32.643  31.003  1.00  0.00     0.010 A 
ATOM     36  C   UNL A   1      36.608  33.657  29.397  1.00  0.00     0.010 A 
ATOM     37  C   UNL A   1      36.403  32.842  30.519  1.00  0.00    -0.014 A 
BRANCH  37  38
ATOM     38  C   UNL A   1      37.567  32.228  31.199  1.00  0.00     0.031 A 
ATOM     39  C   UNL A   1      38.334  31.130  30.522  1.00  0.00     0.074 A 
ATOM     40  C   UNL A   1      37.912  32.644  32.433  1.00  0.00     0.049 A 
ATOM     41  N   UNL A   1      39.365  30.452  30.959  1.00  0.00    -0.248 NA
ATOM     42  C   UNL A   1      37.874  30.723  29.184  1.00  0.00     0.031 C 
ATOM     43  C   UNL A   1      37.222  33.684  33.197  1.00  0.00     0.029 A 
ATOM     44  N   UNL A   1      38.934  32.246  33.258  1.00  0.00    -0.354 N 
ATOM     45  C   UNL A   1      39.676  29.549  29.951  1.00  0.00     0.074 A 
ATOM     46  C   UNL A   1      38.684  29.711  28.913  1.00  0.00     0.031 C 
ATOM     47  C   UNL A   1      37.863  33.870  34.361  1.00  0.00     0.029 A 
ATOM     48  C   UNL A   1      38.980  32.933  34.447  1.00  0.00     0.049 A 
ATOM     49  H   UNL A   1      39.573  31.537  33.021  1.00  0.00     0.167 HD
ATOM     50  C   UNL A   1      40.718  28.689  29.885  1.00  0.00     0.037 A 
ATOM     51  C   UNL A   1      39.825  32.816  35.488  1.00  0.00     0.037 A 
ATOM     52  C   UNL A   1      41.707  28.545  30.918  1.00  0.00     0.049 A 
ATOM     53  C   UNL A   1      40.941  31.808  35.414  1.00  0.00     0.074 A 
ATOM     54  C   UNL A   1      42.819  27.721  30.933  1.00  0.00     0.029 A 
ATOM     55  N   UNL A   1      41.703  29.236  32.122  1.00  0.00    -0.354 N 
ATOM     56  N   UNL A   1      41.262  31.002  34.431  1.00  0.00    -0.248 NA
ATOM     57  C   UNL A   1      41.815  31.697  36.589  1.00  0.00     0.031 C 
ATOM     58  C   UNL A   1      43.452  27.867  32.169  1.00  0.00     0.029 A 
ATOM     59  C   UNL A   1      42.776  28.833  32.900  1.00  0.00     0.049 A 
ATOM     60  H   UNL A   1      41.038  29.913  32.383  1.00  0.00     0.167 HD
ATOM     61  C   UNL A   1      42.386  30.307  34.856  1.00  0.00     0.074 A 
ATOM     62  C   UNL A   1      42.705  30.804  36.179  1.00  0.00     0.031 C 
ATOM     63  C   UNL A   1      43.087  29.343  34.212  1.00  0.00     0.037 A 
BRANCH  50  64
ATOM     64  C   UNL A   1      40.855  27.846  28.651  1.00  0.00     0.064 A 
ATOM     65  C   UNL A   1      40.172  26.627  28.515  1.00  0.00     0.173 A 
ATOM     66  C   UNL A   1      41.617  28.294  27.561  1.00  0.00     0.173 A 
ATOM     67  F   UNL A   1      39.440  26.147  29.531  1.00  0.00    -0.203 F 
ATOM     68  C   UNL A   1      40.259  25.883  27.342  1.00  0.00     0.198 A 
ATOM     69  C   UNL A   1      41.674  27.565  26.377  1.00  0.00     0.198 A 
ATOM     70  F   UNL A   1      42.289  29.453  27.636  1.00  0.00    -0.203 F 
ATOM     71  F   UNL A   1      39.628  24.705  27.251  1.00  0.00    -0.200 F 
ATOM     72  C   UNL A   1      40.998  26.358  26.270  1.00  0.00     0.200 A 
ATOM     73  F   UNL A   1      42.375  28.033  25.335  1.00  0.00    -0.200 F 
ATOM     74  F   UNL A   1      41.062  25.651  25.133  1.00  0.00    -0.200 F 
ENDBRANCH  50  64
BRANCH  51  75
ATOM     75  C   UNL A   1      39.665  33.699  36.674  1.00  0.00     0.064 A 
ATOM     76  C   UNL A   1      40.276  34.959  36.720  1.00  0.00     0.173 A 
ATOM     77  C   UNL A   1      38.886  33.314  37.777  1.00  0.00     0.173 A 
ATOM     78  F   UNL A   1      41.047  35.367  35.701  1.00  0.00    -0.203 F 
ATOM     79  C   UNL A   1      40.126  35.795  37.826  1.00  0.00     0.198 A 
ATOM     80  C   UNL A   1      38.709  34.164  38.867  1.00  0.00     0.198 A 
ATOM     81  F   UNL A   1      38.276  32.120  37.785  1.00  0.00    -0.203 F 
ATOM     82  F   UNL A   1      40.757  36.977  37.859  1.00  0.00    -0.200 F 
ATOM     83  C   UNL A   1      39.335  35.401  38.893  1.00  0.00     0.200 A 
ATOM     84  F   UNL A   1      37.928  33.786  39.888  1.00  0.00    -0.200 F 
ATOM     85  F   UNL A   1      39.179  36.211  39.950  1.00  0.00    -0.200 F 
ENDBRANCH  51  75
BRANCH  63  86
ATOM     86  C   UNL A   1      44.286  28.764  34.908  1.00  0.00     0.064 A 
ATOM     87  C   UNL A   1      44.190  27.610  35.699  1.00  0.00     0.173 A 
ATOM     88  C   UNL A   1      45.561  29.318  34.709  1.00  0.00     0.173 A 
ATOM     89  F   UNL A   1      42.994  27.047  35.930  1.00  0.00    -0.203 F 
ATOM     90  C   UNL A   1      45.322  27.043  36.278  1.00  0.00     0.198 A 
ATOM     91  C   UNL A   1      46.695  28.726  35.258  1.00  0.00     0.198 A 
ATOM     92  F   UNL A   1      45.712  30.415  33.951  1.00  0.00    -0.203 F 
ATOM     93  F   UNL A   1      45.200  25.963  37.063  1.00  0.00    -0.200 F 
ATOM     94  C   UNL A   1      46.574  27.592  36.047  1.00  0.00     0.200 A 
ATOM     95  F   UNL A   1      47.906  29.245  35.013  1.00  0.00    -0.200 F 
ATOM     96  F   UNL A   1      47.665  27.029  36.584  1.00  0.00    -0.200 F 
ENDBRANCH  63  86
ENDBRANCH  37  38
ENDBRANCH  29  32
ENDBRANCH  27  28
ENDBRANCH  26  27
ENDBRANCH   1  26
TORSDOF 15
ENDMDL
MODEL 3
REMARK VINA RESULT:     -11.7      4.285      8.791
REMARK SMILES C#Cc1cc(Cl)c2c(c1)C=C(C(=O)NCCCCCCNC(=O)c1ccc(-c3c4nc(c(-c5c(F)c(F)c(F)c(F)c5F)c5ccc([nH]5)c(-c5c(F)c(F)c(F)c(F)c5F)c5nc(c(-c6c(F)c(F)c(F)c(F)c6F)c6ccc3[nH]6)C=C5)C=C4)cc1)[C@@H](C(F)(F)F)O2
REMARK SMILES IDX 18 1 17 2 16 3 15 4 14 5 12 6 13 7 11 9 3 10 4 11 9 12 5 13
REMARK SMILES IDX 8 14 6 15 7 16 10 17 92 18 87 19 2 20 1 21 88 22 89 23 90 24
REMARK SMILES IDX 91 25 19 26 20 27 21 28 22 29 23 31 24 32 25 33 86 34 26 35
REMARK SMILES IDX 85 36 27 37 28 38 29 39 79 40 30 41 84 42 78 43 80 44 31 45
REMARK SMILES IDX 83 46 77 47 76 48 32 50 64 51 44 52 63 53 45 54 48 55 62 56
REMARK SMILES IDX 81 57 46 58 47 59 61 61 82 62 49 63 33 64 34 65 42 66 35 67
REMARK SMILES IDX 36 68 40 69 43 70 37 71 38 72 41 73 39 74 65 75 66 76 74 77
REMARK SMILES IDX 67 78 68 79 72 80 75 81 69 82 70 83 73 84 71 85 50 86 51 87
REMARK SMILES IDX 59 88 52 89 53 90 57 91 60 92 54 93 55 94 58 95 56 96
REMARK H PARENT 14 8 21 30 80 49 48 60
REMARK Flexibility Score: inf
ROOT
ATOM      1  C   UNL A   1      31.751  30.126  25.944  1.00  0.00     0.002 C 
ENDROOT
BRANCH   1   2
ATOM      2  C   UNL A   1      33.068  29.459  26.368  1.00  0.00     0.002 C 
BRANCH   2   3
ATOM      3  C   UNL A   1      33.743  28.639  25.269  1.00  0.00     0.021 C 
BRANCH   3   4
ATOM      4  C   UNL A   1      33.889  27.169  25.637  1.00  0.00     0.116 C 
BRANCH   4   5
ATOM      5  N   UNL A   1      33.713  26.305  24.483  1.00  0.00    -0.352 N 
ATOM      6  C   UNL A   1      32.732  26.033  23.590  1.00  0.00     0.251 C 
ATOM      7  O   UNL A   1      33.022  25.218  22.710  1.00  0.00    -0.270 OA
ATOM      8  H   UNL A   1      34.524  25.777  24.301  1.00  0.00     0.163 HD
BRANCH   6   9
ATOM      9  C   UNL A   1      31.369  26.642  23.615  1.00  0.00     0.067 C 
ATOM     10  C   UNL A   1      28.489  30.362  22.481  1.00  0.00     0.027 A 
ATOM     11  C   UNL A   1      27.373  29.642  22.908  1.00  0.00     0.041 A 
ATOM     12  C   UNL A   1      29.764  29.787  22.531  1.00  0.00     0.029 A 
ATOM     13  C   UNL A   1      27.532  28.347  23.387  1.00  0.00     0.084 A 
ATOM     14  C   UNL A   1      29.926  28.484  23.013  1.00  0.00     0.020 A 
ATOM     15  Cl  UNL A   1      26.131  27.474  23.898  1.00  0.00    -0.080 Cl
ATOM     16  C   UNL A   1      28.805  27.771  23.447  1.00  0.00     0.146 A 
ATOM     17  C   UNL A   1      31.238  27.844  23.022  1.00  0.00     0.025 C 
ATOM     18  O   UNL A   1      28.890  26.487  23.894  1.00  0.00    -0.474 OA
ATOM     19  C   UNL A   1      30.192  25.996  24.280  1.00  0.00     0.314 C 
BRANCH  10  20
ATOM     20  C   UNL A   1      28.312  31.687  21.979  1.00  0.00    -0.070 C 
ATOM     21  C   UNL A   1      28.129  32.797  21.555  1.00  0.00     0.010 C 
ENDBRANCH  10  20
BRANCH  19  22
ATOM     22  C   UNL A   1      30.298  26.007  25.816  1.00  0.00     0.429 C 
ATOM     23  F   UNL A   1      30.611  27.250  26.262  1.00  0.00    -0.167 F 
ATOM     24  F   UNL A   1      29.141  25.666  26.429  1.00  0.00    -0.167 F 
ATOM     25  F   UNL A   1      31.246  25.158  26.273  1.00  0.00    -0.167 F 
ENDBRANCH  19  22
ENDBRANCH   6   9
ENDBRANCH   4   5
ENDBRANCH   3   4
ENDBRANCH   2   3
ENDBRANCH   1   2
BRANCH   1  26
ATOM     26  C   UNL A   1      31.540  31.535  26.501  1.00  0.00     0.021 C 
BRANCH  26  27
ATOM     27  C   UNL A   1      32.830  32.218  26.936  1.00  0.00     0.116 C 
BRANCH  27  28
ATOM     28  N   UNL A   1      32.590  33.590  27.353  1.00  0.00    -0.352 N 
ATOM     29  C   UNL A   1      33.152  34.288  28.388  1.00  0.00     0.251 C 
ATOM     30  H   UNL A   1      31.932  34.087  26.816  1.00  0.00     0.163 HD
ATOM     31  O   UNL A   1      32.665  35.349  28.763  1.00  0.00    -0.269 OA
BRANCH  29  32
ATOM     32  C   UNL A   1      34.347  33.741  29.055  1.00  0.00     0.039 A 
ATOM     33  C   UNL A   1      34.187  32.749  30.022  1.00  0.00     0.014 A 
ATOM     34  C   UNL A   1      35.621  34.206  28.715  1.00  0.00     0.014 A 
ATOM     35  C   UNL A   1      35.316  32.186  30.616  1.00  0.00     0.010 A 
ATOM     36  C   UNL A   1      36.744  33.583  29.240  1.00  0.00     0.010 A 
ATOM     37  C   UNL A   1      36.602  32.579  30.208  1.00  0.00    -0.014 A 
BRANCH  37  38
ATOM     38  C   UNL A   1      37.810  31.968  30.811  1.00  0.00     0.031 A 
ATOM     39  C   UNL A   1      38.263  32.399  32.176  1.00  0.00     0.074 A 
ATOM     40  C   UNL A   1      38.506  31.047  30.118  1.00  0.00     0.049 A 
ATOM     41  N   UNL A   1      39.302  32.001  32.864  1.00  0.00    -0.248 NA
ATOM     42  C   UNL A   1      37.454  33.426  32.852  1.00  0.00     0.031 C 
ATOM     43  C   UNL A   1      38.174  30.573  28.774  1.00  0.00     0.029 A 
ATOM     44  N   UNL A   1      39.636  30.341  30.451  1.00  0.00    -0.354 N 
ATOM     45  C   UNL A   1      39.267  32.723  34.049  1.00  0.00     0.074 A 
ATOM     46  C   UNL A   1      38.150  33.636  33.960  1.00  0.00     0.031 C 
ATOM     47  C   UNL A   1      39.054  29.626  28.414  1.00  0.00     0.029 A 
ATOM     48  C   UNL A   1      40.040  29.459  29.479  1.00  0.00     0.049 A 
ATOM     49  H   UNL A   1      40.110  30.455  31.305  1.00  0.00     0.167 HD
ATOM     50  C   UNL A   1      40.073  32.607  35.129  1.00  0.00     0.037 A 
ATOM     51  C   UNL A   1      41.088  28.615  29.449  1.00  0.00     0.037 A 
ATOM     52  C   UNL A   1      41.175  31.687  35.214  1.00  0.00     0.049 A 
ATOM     53  C   UNL A   1      42.006  28.549  30.641  1.00  0.00     0.074 A 
ATOM     54  C   UNL A   1      42.034  31.472  36.277  1.00  0.00     0.029 A 
ATOM     55  N   UNL A   1      41.573  30.830  34.196  1.00  0.00    -0.354 N 
ATOM     56  N   UNL A   1      41.928  29.192  31.781  1.00  0.00    -0.248 NA
ATOM     57  C   UNL A   1      43.153  27.637  30.546  1.00  0.00     0.031 C 
ATOM     58  C   UNL A   1      42.990  30.534  35.881  1.00  0.00     0.029 A 
ATOM     59  C   UNL A   1      42.686  30.110  34.596  1.00  0.00     0.049 A 
ATOM     60  H   UNL A   1      41.128  30.747  33.322  1.00  0.00     0.167 HD
ATOM     61  C   UNL A   1      42.996  28.746  32.547  1.00  0.00     0.074 A 
ATOM     62  C   UNL A   1      43.695  27.760  31.750  1.00  0.00     0.031 C 
ATOM     63  C   UNL A   1      43.367  29.123  33.795  1.00  0.00     0.037 A 
BRANCH  50  64
ATOM     64  C   UNL A   1      39.790  33.483  36.314  1.00  0.00     0.064 A 
ATOM     65  C   UNL A   1      40.362  34.759  36.437  1.00  0.00     0.173 A 
ATOM     66  C   UNL A   1      38.880  33.076  37.303  1.00  0.00     0.173 A 
ATOM     67  F   UNL A   1      41.248  35.192  35.528  1.00  0.00    -0.203 F 
ATOM     68  C   UNL A   1      40.046  35.587  37.511  1.00  0.00     0.198 A 
ATOM     69  C   UNL A   1      38.539  33.920  38.355  1.00  0.00     0.198 A 
ATOM     70  F   UNL A   1      38.303  31.867  37.233  1.00  0.00    -0.203 F 
ATOM     71  F   UNL A   1      40.634  36.785  37.625  1.00  0.00    -0.200 F 
ATOM     72  C   UNL A   1      39.125  35.173  38.461  1.00  0.00     0.200 A 
ATOM     73  F   UNL A   1      37.636  33.525  39.263  1.00  0.00    -0.200 F 
ATOM     74  F   UNL A   1      38.804  35.981  39.481  1.00  0.00    -0.200 F 
ENDBRANCH  50  64
BRANCH  51  75
ATOM     75  C   UNL A   1      41.305  27.744  28.263  1.00  0.00     0.064 A 
ATOM     76  C   UNL A   1      40.662  26.504  28.155  1.00  0.00     0.173 A 
ATOM     77  C   UNL A   1      42.141  28.137  27.207  1.00  0.00     0.173 A 
ATOM     78  F   UNL A   1      39.867  26.073  29.145  1.00  0.00    -0.203 F 
ATOM     79  C   UNL A   1      40.855  25.685  27.043  1.00  0.00     0.198 A 
ATOM     80  C   UNL A   1      42.308  27.333  26.081  1.00  0.00     0.198 A 
ATOM     81  F   UNL A   1      42.779  29.316  27.257  1.00  0.00    -0.203 F 
ATOM     82  F   UNL A   1      40.260  24.486  26.986  1.00  0.00    -0.200 F 
ATOM     83  C   UNL A   1      41.670  26.104  26.004  1.00  0.00     0.200 A 
ATOM     84  F   UNL A   1      43.082  27.752  25.070  1.00  0.00    -0.200 F 
ATOM     85  F   UNL A   1      41.845  25.323  24.929  1.00  0.00    -0.200 F 
ENDBRANCH  51  75
BRANCH  63  86
ATOM     86  C   UNL A   1      44.573  28.460  34.399  1.00  0.00     0.064 A 
ATOM     87  C   UNL A   1      45.848  29.038  34.315  1.00  0.00     0.173 A 
ATOM     88  C   UNL A   1      44.435  27.280  35.146  1.00  0.00     0.173 A 
ATOM     89  F   UNL A   1      46.035  30.160  33.604  1.00  0.00    -0.203 F 
ATOM     90  C   UNL A   1      46.942  28.450  34.942  1.00  0.00     0.198 A 
ATOM     91  C   UNL A   1      45.525  26.715  35.803  1.00  0.00     0.198 A 
ATOM     92  F   UNL A   1      43.236  26.690  35.268  1.00  0.00    -0.203 F 
ATOM     93  F   UNL A   1      48.159  28.999  34.814  1.00  0.00    -0.200 F 
ATOM     94  C   UNL A   1      46.779  27.298  35.696  1.00  0.00     0.200 A 
ATOM     95  F   UNL A   1      45.359  25.615  36.551  1.00  0.00    -0.200 F 
ATOM     96  F   UNL A   1      47.829  26.747  36.320  1.00  0.00    -0.200 F 
ENDBRANCH  63  86
ENDBRANCH  37  38
ENDBRANCH  29  32
ENDBRANCH  27  28
ENDBRANCH  26  27
ENDBRANCH   1  26
TORSDOF 15
ENDMDL
