MODEL 1
REMARK VINA RESULT:     -12.1      0.000      0.000
REMARK SMILES CC(C)[C@@H](NC(=O)c1ccc(NS(C)(=O)=O)cc1)C(=O)NCCCCCCNC(=O)c1ccc(-c2c3nc(c(-c4c(F)c(F)c(F)c(F)c4F)c4ccc([nH]4)c(-c4c(F)c(F)c(F)c(F)c4F)c4nc(c(-c5c(F)c(F)c(F)c(F)c5F)c5ccc2[nH]5)C=C4)C=C3)cc1
REMARK SMILES IDX 23 1 22 2 21 3 19 4 20 5 4 7 2 8 1 9 3 10 5 11 6 12 7 14
REMARK SMILES IDX 8 15 9 16 18 17 10 18 17 19 11 20 12 21 13 23 14 24 15 25
REMARK SMILES IDX 16 26 24 27 25 28 26 29 27 30 28 31 29 32 30 34 31 35 32 36
REMARK SMILES IDX 93 37 33 38 92 39 34 40 35 41 36 42 86 43 37 44 91 45 85 46
REMARK SMILES IDX 87 47 38 48 90 49 84 50 83 51 39 53 71 54 51 55 70 56 52 57
REMARK SMILES IDX 55 58 69 59 88 60 53 61 54 62 68 64 89 65 56 66 40 67 41 68
REMARK SMILES IDX 49 69 42 70 43 71 47 72 50 73 44 74 45 75 48 76 46 77 72 78
REMARK SMILES IDX 73 79 81 80 74 81 75 82 79 83 82 84 76 85 77 86 80 87 78 88
REMARK SMILES IDX 57 89 58 90 66 91 59 92 60 93 64 94 67 95 61 96 62 97 65 98
REMARK SMILES IDX 63 99
REMARK H PARENT 21 6 5 13 12 22 28 33 87 52 55 63
REMARK Flexibility Score: inf
ROOT
ATOM      1  C   UNL A   1      31.779  28.648  27.252  1.00  0.00     0.021 C 
ENDROOT
BRANCH   1   2
ATOM      2  C   UNL A   1      32.140  27.471  26.357  1.00  0.00     0.116 C 
BRANCH   2   3
ATOM      3  N   UNL A   1      31.607  26.252  26.927  1.00  0.00    -0.354 N 
ATOM      4  C   UNL A   1      31.891  24.957  26.639  1.00  0.00     0.242 C 
ATOM      5  O   UNL A   1      31.193  24.080  27.159  1.00  0.00    -0.273 OA
ATOM      6  H   UNL A   1      30.933  26.383  27.634  1.00  0.00     0.163 HD
BRANCH   4   7
ATOM      7  C   UNL A   1      32.980  24.593  25.620  1.00  0.00     0.174 C 
BRANCH   7   8
ATOM      8  C   UNL A   1      34.203  24.007  26.411  1.00  0.00     0.015 C 
ATOM      9  C   UNL A   1      34.009  22.558  26.861  1.00  0.00     0.010 C 
ATOM     10  C   UNL A   1      35.519  24.108  25.619  1.00  0.00     0.010 C 
ENDBRANCH   7   8
BRANCH   7  11
ATOM     11  N   UNL A   1      32.516  23.687  24.537  1.00  0.00    -0.340 N 
ATOM     12  C   UNL A   1      31.995  23.934  23.279  1.00  0.00     0.251 C 
ATOM     13  H   UNL A   1      32.593  22.730  24.755  1.00  0.00     0.164 HD
ATOM     14  O   UNL A   1      32.051  23.050  22.427  1.00  0.00    -0.269 OA
BRANCH  12  15
ATOM     15  C   UNL A   1      31.166  25.132  23.003  1.00  0.00     0.039 A 
ATOM     16  C   UNL A   1      29.961  25.245  23.706  1.00  0.00     0.016 A 
ATOM     17  C   UNL A   1      31.585  26.185  22.201  1.00  0.00     0.016 A 
ATOM     18  C   UNL A   1      29.292  26.477  23.776  1.00  0.00     0.027 A 
ATOM     19  C   UNL A   1      30.922  27.421  22.294  1.00  0.00     0.027 A 
ATOM     20  C   UNL A   1      29.804  27.598  23.127  1.00  0.00     0.048 A 
BRANCH  20  21
ATOM     21  N   UNL A   1      29.462  28.961  23.437  1.00  0.00    -0.284 N 
ATOM     22  H   UNL A   1      30.004  29.417  24.120  1.00  0.00     0.180 HD
BRANCH  21  23
ATOM     23  S   UNL A   1      28.213  29.843  22.730  1.00  0.00     0.229 S 
ATOM     24  C   UNL A   1      28.553  31.464  23.388  1.00  0.00     0.183 C 
ATOM     25  O   UNL A   1      28.497  29.878  21.313  1.00  0.00    -0.207 OA
ATOM     26  O   UNL A   1      26.917  29.456  23.240  1.00  0.00    -0.207 OA
ENDBRANCH  21  23
ENDBRANCH  20  21
ENDBRANCH  12  15
ENDBRANCH   7  11
ENDBRANCH   4   7
ENDBRANCH   2   3
ENDBRANCH   1   2
BRANCH   1  27
ATOM     27  C   UNL A   1      32.428  29.957  26.789  1.00  0.00     0.002 C 
BRANCH  27  28
ATOM     28  C   UNL A   1      31.512  30.847  25.945  1.00  0.00     0.002 C 
BRANCH  28  29
ATOM     29  C   UNL A   1      31.299  32.254  26.499  1.00  0.00     0.021 C 
BRANCH  29  30
ATOM     30  C   UNL A   1      32.509  32.796  27.241  1.00  0.00     0.116 C 
BRANCH  30  31
ATOM     31  N   UNL A   1      32.348  34.199  27.584  1.00  0.00    -0.352 N 
ATOM     32  C   UNL A   1      32.991  34.922  28.550  1.00  0.00     0.251 C 
ATOM     33  H   UNL A   1      31.687  34.695  27.049  1.00  0.00     0.163 HD
ATOM     34  O   UNL A   1      32.612  36.050  28.845  1.00  0.00    -0.269 OA
BRANCH  32  35
ATOM     35  C   UNL A   1      34.140  34.317  29.245  1.00  0.00     0.039 A 
ATOM     36  C   UNL A   1      33.905  33.486  30.339  1.00  0.00     0.014 A 
ATOM     37  C   UNL A   1      35.444  34.563  28.804  1.00  0.00     0.014 A 
ATOM     38  C   UNL A   1      34.982  32.875  30.978  1.00  0.00     0.010 A 
ATOM     39  C   UNL A   1      36.507  33.883  29.382  1.00  0.00     0.010 A 
ATOM     40  C   UNL A   1      36.289  33.054  30.491  1.00  0.00    -0.014 A 
BRANCH  40  41
ATOM     41  C   UNL A   1      37.446  32.419  31.164  1.00  0.00     0.031 A 
ATOM     42  C   UNL A   1      38.194  31.313  30.473  1.00  0.00     0.074 A 
ATOM     43  C   UNL A   1      37.793  32.811  32.404  1.00  0.00     0.049 A 
ATOM     44  N   UNL A   1      39.207  30.604  30.903  1.00  0.00    -0.248 NA
ATOM     45  C   UNL A   1      37.723  30.931  29.132  1.00  0.00     0.031 C 
ATOM     46  C   UNL A   1      37.110  33.839  33.191  1.00  0.00     0.029 A 
ATOM     47  N   UNL A   1      38.809  32.386  33.222  1.00  0.00    -0.354 N 
ATOM     48  C   UNL A   1      39.482  29.691  29.893  1.00  0.00     0.074 A 
ATOM     49  C   UNL A   1      38.490  29.885  28.861  1.00  0.00     0.031 C 
ATOM     50  C   UNL A   1      37.744  33.989  34.364  1.00  0.00     0.029 A 
ATOM     51  C   UNL A   1      38.853  33.042  34.427  1.00  0.00     0.049 A 
ATOM     52  H   UNL A   1      39.445  31.679  32.969  1.00  0.00     0.167 HD
ATOM     53  C   UNL A   1      40.492  28.792  29.822  1.00  0.00     0.037 A 
ATOM     54  C   UNL A   1      39.697  32.892  35.466  1.00  0.00     0.037 A 
ATOM     55  C   UNL A   1      41.490  28.622  30.843  1.00  0.00     0.049 A 
ATOM     56  C   UNL A   1      40.809  31.882  35.360  1.00  0.00     0.074 A 
ATOM     57  C   UNL A   1      42.582  27.774  30.850  1.00  0.00     0.029 A 
ATOM     58  N   UNL A   1      41.515  29.317  32.044  1.00  0.00    -0.354 N 
ATOM     59  N   UNL A   1      41.101  31.070  34.373  1.00  0.00    -0.248 NA
ATOM     60  C   UNL A   1      41.717  31.779  36.510  1.00  0.00     0.031 C 
ATOM     61  C   UNL A   1      43.239  27.918  32.076  1.00  0.00     0.029 A 
ATOM     62  C   UNL A   1      42.594  28.904  32.807  1.00  0.00     0.049 A 
ATOM     63  H   UNL A   1      40.862  30.004  32.313  1.00  0.00     0.167 HD
ATOM     64  C   UNL A   1      42.246  30.388  34.766  1.00  0.00     0.074 A 
ATOM     65  C   UNL A   1      42.601  30.893  36.075  1.00  0.00     0.031 C 
ATOM     66  C   UNL A   1      42.942  29.431  34.102  1.00  0.00     0.037 A 
BRANCH  53  67
ATOM     67  C   UNL A   1      40.567  27.928  28.595  1.00  0.00     0.064 A 
ATOM     68  C   UNL A   1      41.311  28.312  27.467  1.00  0.00     0.173 A 
ATOM     69  C   UNL A   1      39.913  26.689  28.554  1.00  0.00     0.173 A 
ATOM     70  F   UNL A   1      41.946  29.494  27.446  1.00  0.00    -0.203 F 
ATOM     71  C   UNL A   1      41.371  27.500  26.337  1.00  0.00     0.198 A 
ATOM     72  C   UNL A   1      40.003  25.864  27.436  1.00  0.00     0.198 A 
ATOM     73  F   UNL A   1      39.189  26.270  29.604  1.00  0.00    -0.203 F 
ATOM     74  F   UNL A   1      42.043  27.915  25.253  1.00  0.00    -0.200 F 
ATOM     75  C   UNL A   1      40.726  26.275  26.325  1.00  0.00     0.200 A 
ATOM     76  F   UNL A   1      39.390  24.673  27.432  1.00  0.00    -0.200 F 
ATOM     77  F   UNL A   1      40.791  25.491  25.240  1.00  0.00    -0.200 F 
ENDBRANCH  53  67
BRANCH  54  78
ATOM     78  C   UNL A   1      39.546  33.738  36.679  1.00  0.00     0.064 A 
ATOM     79  C   UNL A   1      38.800  33.293  37.780  1.00  0.00     0.173 A 
ATOM     80  C   UNL A   1      40.129  35.011  36.758  1.00  0.00     0.173 A 
ATOM     81  F   UNL A   1      38.209  32.090  37.746  1.00  0.00    -0.203 F 
ATOM     82  C   UNL A   1      38.616  34.102  38.899  1.00  0.00     0.198 A 
ATOM     83  C   UNL A   1      39.972  35.806  37.891  1.00  0.00     0.198 A 
ATOM     84  F   UNL A   1      40.860  35.481  35.736  1.00  0.00    -0.203 F 
ATOM     85  F   UNL A   1      37.849  33.675  39.912  1.00  0.00    -0.200 F 
ATOM     86  C   UNL A   1      39.205  35.356  38.956  1.00  0.00     0.200 A 
ATOM     87  F   UNL A   1      40.556  37.010  37.950  1.00  0.00    -0.200 F 
ATOM     88  F   UNL A   1      39.027  36.134  40.033  1.00  0.00    -0.200 F 
ENDBRANCH  54  78
BRANCH  66  89
ATOM     89  C   UNL A   1      44.189  28.910  34.756  1.00  0.00     0.064 A 
ATOM     90  C   UNL A   1      45.441  29.509  34.553  1.00  0.00     0.173 A 
ATOM     91  C   UNL A   1      44.122  27.808  35.624  1.00  0.00     0.173 A 
ATOM     92  F   UNL A   1      45.562  30.556  33.723  1.00  0.00    -0.203 F 
ATOM     93  C   UNL A   1      46.584  29.002  35.164  1.00  0.00     0.198 A 
ATOM     94  C   UNL A   1      45.260  27.327  36.262  1.00  0.00     0.198 A 
ATOM     95  F   UNL A   1      42.948  27.204  35.861  1.00  0.00    -0.203 F 
ATOM     96  F   UNL A   1      47.778  29.553  34.908  1.00  0.00    -0.200 F 
ATOM     97  C   UNL A   1      46.492  27.917  36.024  1.00  0.00     0.200 A 
ATOM     98  F   UNL A   1      45.167  26.291  37.107  1.00  0.00    -0.200 F 
ATOM     99  F   UNL A   1      47.593  27.434  36.616  1.00  0.00    -0.200 F 
ENDBRANCH  66  89
ENDBRANCH  40  41
ENDBRANCH  32  35
ENDBRANCH  30  31
ENDBRANCH  29  30
ENDBRANCH  28  29
ENDBRANCH  27  28
ENDBRANCH   1  27
TORSDOF 18
ENDMDL
MODEL 2
REMARK VINA RESULT:     -12.1      0.963      7.245
REMARK SMILES CC(C)[C@@H](NC(=O)c1ccc(NS(C)(=O)=O)cc1)C(=O)NCCCCCCNC(=O)c1ccc(-c2c3nc(c(-c4c(F)c(F)c(F)c(F)c4F)c4ccc([nH]4)c(-c4c(F)c(F)c(F)c(F)c4F)c4nc(c(-c5c(F)c(F)c(F)c(F)c5F)c5ccc2[nH]5)C=C4)C=C3)cc1
REMARK SMILES IDX 23 1 22 2 21 3 19 4 20 5 4 7 2 8 1 9 3 10 5 11 6 12 7 14
REMARK SMILES IDX 8 15 9 16 18 17 10 18 17 19 11 20 12 21 13 23 14 24 15 25
REMARK SMILES IDX 16 26 24 27 25 28 26 29 27 30 28 31 29 32 30 34 31 35 32 36
REMARK SMILES IDX 93 37 33 38 92 39 34 40 35 41 36 42 86 43 37 44 91 45 85 46
REMARK SMILES IDX 87 47 38 48 90 49 84 50 83 51 39 53 71 54 51 55 70 56 52 57
REMARK SMILES IDX 55 58 69 59 88 60 53 61 54 62 68 64 89 65 56 66 40 67 41 68
REMARK SMILES IDX 49 69 42 70 43 71 47 72 50 73 44 74 45 75 48 76 46 77 72 78
REMARK SMILES IDX 73 79 81 80 74 81 75 82 79 83 82 84 76 85 77 86 80 87 78 88
REMARK SMILES IDX 57 89 58 90 66 91 59 92 60 93 64 94 67 95 61 96 62 97 65 98
REMARK SMILES IDX 63 99
REMARK H PARENT 21 6 5 13 12 22 28 33 87 52 55 63
REMARK Flexibility Score: inf
ROOT
ATOM      1  C   UNL A   1      31.478  28.143  27.271  1.00  0.00     0.021 C 
ENDROOT
BRANCH   1   2
ATOM      2  C   UNL A   1      32.399  27.088  26.675  1.00  0.00     0.116 C 
BRANCH   2   3
ATOM      3  N   UNL A   1      31.678  25.841  26.539  1.00  0.00    -0.354 N 
ATOM      4  C   UNL A   1      32.032  24.693  25.909  1.00  0.00     0.242 C 
ATOM      5  O   UNL A   1      31.180  23.805  25.799  1.00  0.00    -0.273 OA
ATOM      6  H   UNL A   1      30.793  25.823  26.971  1.00  0.00     0.163 HD
BRANCH   4   7
ATOM      7  C   UNL A   1      33.415  24.538  25.261  1.00  0.00     0.174 C 
BRANCH   7   8
ATOM      8  C   UNL A   1      34.150  23.347  25.972  1.00  0.00     0.015 C 
ATOM      9  C   UNL A   1      33.918  21.993  25.302  1.00  0.00     0.010 C 
ATOM     10  C   UNL A   1      35.664  23.583  26.102  1.00  0.00     0.010 C 
ENDBRANCH   7   8
BRANCH   7  11
ATOM     11  N   UNL A   1      33.376  24.383  23.784  1.00  0.00    -0.340 N 
ATOM     12  C   UNL A   1      33.272  25.303  22.755  1.00  0.00     0.251 C 
ATOM     13  H   UNL A   1      33.437  23.448  23.478  1.00  0.00     0.164 HD
ATOM     14  O   UNL A   1      33.650  24.984  21.630  1.00  0.00    -0.269 OA
BRANCH  12  15
ATOM     15  C   UNL A   1      32.506  26.562  22.914  1.00  0.00     0.039 A 
ATOM     16  C   UNL A   1      33.239  27.754  22.942  1.00  0.00     0.016 A 
ATOM     17  C   UNL A   1      31.118  26.620  22.898  1.00  0.00     0.016 A 
ATOM     18  C   UNL A   1      32.600  28.986  22.740  1.00  0.00     0.027 A 
ATOM     19  C   UNL A   1      30.488  27.856  22.675  1.00  0.00     0.027 A 
ATOM     20  C   UNL A   1      31.224  29.046  22.534  1.00  0.00     0.048 A 
BRANCH  20  21
ATOM     21  N   UNL A   1      30.525  30.149  21.931  1.00  0.00    -0.284 N 
ATOM     22  H   UNL A   1      31.033  30.719  21.310  1.00  0.00     0.180 HD
BRANCH  21  23
ATOM     23  S   UNL A   1      28.909  30.547  22.197  1.00  0.00     0.229 S 
ATOM     24  C   UNL A   1      28.929  32.274  21.757  1.00  0.00     0.183 C 
ATOM     25  O   UNL A   1      28.151  29.848  21.185  1.00  0.00    -0.207 OA
ATOM     26  O   UNL A   1      28.557  30.484  23.597  1.00  0.00    -0.207 OA
ENDBRANCH  21  23
ENDBRANCH  20  21
ENDBRANCH  12  15
ENDBRANCH   7  11
ENDBRANCH   4   7
ENDBRANCH   2   3
ENDBRANCH   1   2
BRANCH   1  27
ATOM     27  C   UNL A   1      32.070  29.555  27.186  1.00  0.00     0.002 C 
BRANCH  27  28
ATOM     28  C   UNL A   1      31.424  30.443  26.120  1.00  0.00     0.002 C 
BRANCH  28  29
ATOM     29  C   UNL A   1      31.328  31.922  26.493  1.00  0.00     0.021 C 
BRANCH  29  30
ATOM     30  C   UNL A   1      32.613  32.474  27.087  1.00  0.00     0.116 C 
BRANCH  30  31
ATOM     31  N   UNL A   1      32.468  33.865  27.484  1.00  0.00    -0.352 N 
ATOM     32  C   UNL A   1      33.144  34.553  28.454  1.00  0.00     0.251 C 
ATOM     33  H   UNL A   1      31.794  34.382  26.986  1.00  0.00     0.163 HD
ATOM     34  O   UNL A   1      32.779  35.671  28.799  1.00  0.00    -0.269 OA
BRANCH  32  35
ATOM     35  C   UNL A   1      34.311  33.919  29.092  1.00  0.00     0.039 A 
ATOM     36  C   UNL A   1      34.100  32.914  30.035  1.00  0.00     0.014 A 
ATOM     37  C   UNL A   1      35.607  34.313  28.746  1.00  0.00     0.014 A 
ATOM     38  C   UNL A   1      35.197  32.280  30.615  1.00  0.00     0.010 A 
ATOM     39  C   UNL A   1      36.696  33.618  29.254  1.00  0.00     0.010 A 
ATOM     40  C   UNL A   1      36.502  32.614  30.213  1.00  0.00    -0.014 A 
BRANCH  40  41
ATOM     41  C   UNL A   1      37.680  31.956  30.826  1.00  0.00     0.031 A 
ATOM     42  C   UNL A   1      38.129  32.363  32.202  1.00  0.00     0.074 A 
ATOM     43  C   UNL A   1      38.361  31.028  30.130  1.00  0.00     0.049 A 
ATOM     44  N   UNL A   1      39.153  31.938  32.898  1.00  0.00    -0.248 NA
ATOM     45  C   UNL A   1      37.341  33.408  32.875  1.00  0.00     0.031 C 
ATOM     46  C   UNL A   1      38.047  30.589  28.769  1.00  0.00     0.029 A 
ATOM     47  N   UNL A   1      39.463  30.285  30.472  1.00  0.00    -0.354 N 
ATOM     48  C   UNL A   1      39.135  32.671  34.078  1.00  0.00     0.074 A 
ATOM     49  C   UNL A   1      38.046  33.615  33.977  1.00  0.00     0.031 C 
ATOM     50  C   UNL A   1      38.914  29.632  28.404  1.00  0.00     0.029 A 
ATOM     51  C   UNL A   1      39.867  29.418  29.489  1.00  0.00     0.049 A 
ATOM     52  H   UNL A   1      39.919  30.368  31.340  1.00  0.00     0.167 HD
ATOM     53  C   UNL A   1      39.938  32.545  35.160  1.00  0.00     0.037 A 
ATOM     54  C   UNL A   1      40.895  28.548  29.468  1.00  0.00     0.037 A 
ATOM     55  C   UNL A   1      41.005  31.586  35.263  1.00  0.00     0.049 A 
ATOM     56  C   UNL A   1      41.774  28.432  30.686  1.00  0.00     0.074 A 
ATOM     57  C   UNL A   1      41.848  31.343  36.331  1.00  0.00     0.029 A 
ATOM     58  N   UNL A   1      41.375  30.709  34.253  1.00  0.00    -0.354 N 
ATOM     59  N   UNL A   1      41.709  29.082  31.821  1.00  0.00    -0.248 NA
ATOM     60  C   UNL A   1      42.863  27.448  30.620  1.00  0.00     0.031 C 
ATOM     61  C   UNL A   1      42.762  30.355  35.951  1.00  0.00     0.029 A 
ATOM     62  C   UNL A   1      42.447  29.936  34.667  1.00  0.00     0.049 A 
ATOM     63  H   UNL A   1      40.940  30.645  33.372  1.00  0.00     0.167 HD
ATOM     64  C   UNL A   1      42.720  28.561  32.619  1.00  0.00     0.074 A 
ATOM     65  C   UNL A   1      43.374  27.532  31.839  1.00  0.00     0.031 C 
ATOM     66  C   UNL A   1      43.074  28.903  33.883  1.00  0.00     0.037 A 
BRANCH  53  67
ATOM     67  C   UNL A   1      39.688  33.465  36.322  1.00  0.00     0.064 A 
ATOM     68  C   UNL A   1      40.296  34.727  36.408  1.00  0.00     0.173 A 
ATOM     69  C   UNL A   1      38.807  33.093  37.348  1.00  0.00     0.173 A 
ATOM     70  F   UNL A   1      41.159  35.129  35.462  1.00  0.00    -0.203 F 
ATOM     71  C   UNL A   1      40.054  35.568  37.492  1.00  0.00     0.198 A 
ATOM     72  C   UNL A   1      38.540  33.950  38.413  1.00  0.00     0.198 A 
ATOM     73  F   UNL A   1      38.196  31.899  37.316  1.00  0.00    -0.203 F 
ATOM     74  F   UNL A   1      40.690  36.745  37.578  1.00  0.00    -0.200 F 
ATOM     75  C   UNL A   1      39.171  35.184  38.487  1.00  0.00     0.200 A 
ATOM     76  F   UNL A   1      37.675  33.582  39.367  1.00  0.00    -0.200 F 
ATOM     77  F   UNL A   1      38.933  35.997  39.526  1.00  0.00    -0.200 F 
ENDBRANCH  53  67
BRANCH  54  78
ATOM     78  C   UNL A   1      41.130  27.697  28.272  1.00  0.00     0.064 A 
ATOM     79  C   UNL A   1      41.927  28.148  27.210  1.00  0.00     0.173 A 
ATOM     80  C   UNL A   1      40.552  26.425  28.157  1.00  0.00     0.173 A 
ATOM     81  F   UNL A   1      42.488  29.365  27.265  1.00  0.00    -0.203 F 
ATOM     82  C   UNL A   1      42.110  27.374  26.067  1.00  0.00     0.198 A 
ATOM     83  C   UNL A   1      40.762  25.637  27.028  1.00  0.00     0.198 A 
ATOM     84  F   UNL A   1      39.788  25.941  29.148  1.00  0.00    -0.203 F 
ATOM     85  F   UNL A   1      42.828  27.855  25.043  1.00  0.00    -0.200 F 
ATOM     86  C   UNL A   1      41.532  26.117  25.978  1.00  0.00     0.200 A 
ATOM     87  F   UNL A   1      40.215  24.417  26.952  1.00  0.00    -0.200 F 
ATOM     88  F   UNL A   1      41.707  25.373  24.877  1.00  0.00    -0.200 F 
ENDBRANCH  54  78
BRANCH  66  89
ATOM     89  C   UNL A   1      44.183  28.118  34.522  1.00  0.00     0.064 A 
ATOM     90  C   UNL A   1      45.516  28.554  34.492  1.00  0.00     0.173 A 
ATOM     91  C   UNL A   1      43.899  26.921  35.201  1.00  0.00     0.173 A 
ATOM     92  F   UNL A   1      45.842  29.683  33.845  1.00  0.00    -0.203 F 
ATOM     93  C   UNL A   1      46.528  27.804  35.084  1.00  0.00     0.198 A 
ATOM     94  C   UNL A   1      44.908  26.194  35.824  1.00  0.00     0.198 A 
ATOM     95  F   UNL A   1      42.640  26.464  35.268  1.00  0.00    -0.203 F 
ATOM     96  F   UNL A   1      47.801  28.209  34.991  1.00  0.00    -0.200 F 
ATOM     97  C   UNL A   1      46.222  26.629  35.756  1.00  0.00     0.200 A 
ATOM     98  F   UNL A   1      44.609  25.069  36.488  1.00  0.00    -0.200 F 
ATOM     99  F   UNL A   1      47.197  25.912  36.331  1.00  0.00    -0.200 F 
ENDBRANCH  66  89
ENDBRANCH  40  41
ENDBRANCH  32  35
ENDBRANCH  30  31
ENDBRANCH  29  30
ENDBRANCH  28  29
ENDBRANCH  27  28
ENDBRANCH   1  27
TORSDOF 18
ENDMDL
MODEL 3
REMARK VINA RESULT:     -12.0      2.136      8.102
REMARK SMILES CC(C)[C@@H](NC(=O)c1ccc(NS(C)(=O)=O)cc1)C(=O)NCCCCCCNC(=O)c1ccc(-c2c3nc(c(-c4c(F)c(F)c(F)c(F)c4F)c4ccc([nH]4)c(-c4c(F)c(F)c(F)c(F)c4F)c4nc(c(-c5c(F)c(F)c(F)c(F)c5F)c5ccc2[nH]5)C=C4)C=C3)cc1
REMARK SMILES IDX 23 1 22 2 21 3 19 4 20 5 4 7 2 8 1 9 3 10 5 11 6 12 7 14
REMARK SMILES IDX 8 15 9 16 18 17 10 18 17 19 11 20 12 21 13 23 14 24 15 25
REMARK SMILES IDX 16 26 24 27 25 28 26 29 27 30 28 31 29 32 30 34 31 35 32 36
REMARK SMILES IDX 93 37 33 38 92 39 34 40 35 41 36 42 86 43 37 44 91 45 85 46
REMARK SMILES IDX 87 47 38 48 90 49 84 50 83 51 39 53 71 54 51 55 70 56 52 57
REMARK SMILES IDX 55 58 69 59 88 60 53 61 54 62 68 64 89 65 56 66 40 67 41 68
REMARK SMILES IDX 49 69 42 70 43 71 47 72 50 73 44 74 45 75 48 76 46 77 72 78
REMARK SMILES IDX 73 79 81 80 74 81 75 82 79 83 82 84 76 85 77 86 80 87 78 88
REMARK SMILES IDX 57 89 58 90 66 91 59 92 60 93 64 94 67 95 61 96 62 97 65 98
REMARK SMILES IDX 63 99
REMARK H PARENT 21 6 5 13 12 22 28 33 87 52 55 63
REMARK Flexibility Score: inf
ROOT
ATOM      1  C   UNL A   1      32.683  28.731  27.204  1.00  0.00     0.021 C 
ENDROOT
BRANCH   1   2
ATOM      2  C   UNL A   1      33.833  27.976  26.552  1.00  0.00     0.116 C 
BRANCH   2   3
ATOM      3  N   UNL A   1      34.117  28.557  25.257  1.00  0.00    -0.354 N 
ATOM      4  C   UNL A   1      33.776  28.128  24.016  1.00  0.00     0.242 C 
ATOM      5  O   UNL A   1      34.264  28.716  23.045  1.00  0.00    -0.273 OA
ATOM      6  H   UNL A   1      34.637  29.393  25.280  1.00  0.00     0.163 HD
BRANCH   4   7
ATOM      7  C   UNL A   1      32.894  26.886  23.820  1.00  0.00     0.174 C 
BRANCH   7   8
ATOM      8  C   UNL A   1      31.398  27.359  23.785  1.00  0.00     0.015 C 
ATOM      9  C   UNL A   1      30.807  27.430  22.376  1.00  0.00     0.010 C 
ATOM     10  C   UNL A   1      30.484  26.486  24.663  1.00  0.00     0.010 C 
ENDBRANCH   7   8
BRANCH   7  11
ATOM     11  N   UNL A   1      33.260  26.066  22.636  1.00  0.00    -0.340 N 
ATOM     12  C   UNL A   1      33.236  24.701  22.409  1.00  0.00     0.251 C 
ATOM     13  H   UNL A   1      33.579  26.592  21.867  1.00  0.00     0.164 HD
ATOM     14  O   UNL A   1      33.207  24.291  21.250  1.00  0.00    -0.269 OA
BRANCH  12  15
ATOM     15  C   UNL A   1      33.486  23.727  23.499  1.00  0.00     0.039 A 
ATOM     16  C   UNL A   1      32.392  23.371  24.296  1.00  0.00     0.016 A 
ATOM     17  C   UNL A   1      34.695  23.066  23.672  1.00  0.00     0.016 A 
ATOM     18  C   UNL A   1      32.445  22.226  25.105  1.00  0.00     0.027 A 
ATOM     19  C   UNL A   1      34.733  21.908  24.467  1.00  0.00     0.027 A 
ATOM     20  C   UNL A   1      33.595  21.441  25.147  1.00  0.00     0.048 A 
BRANCH  20  21
ATOM     21  N   UNL A   1      33.647  20.074  25.592  1.00  0.00    -0.284 N 
ATOM     22  H   UNL A   1      33.745  19.919  26.558  1.00  0.00     0.180 HD
BRANCH  21  23
ATOM     23  S   UNL A   1      33.554  18.717  24.598  1.00  0.00     0.229 S 
ATOM     24  C   UNL A   1      32.701  17.585  25.680  1.00  0.00     0.183 C 
ATOM     25  O   UNL A   1      32.648  19.063  23.527  1.00  0.00    -0.207 OA
ATOM     26  O   UNL A   1      34.854  18.138  24.343  1.00  0.00    -0.207 OA
ENDBRANCH  21  23
ENDBRANCH  20  21
ENDBRANCH  12  15
ENDBRANCH   7  11
ENDBRANCH   4   7
ENDBRANCH   2   3
ENDBRANCH   1   2
BRANCH   1  27
ATOM     27  C   UNL A   1      32.777  30.245  26.986  1.00  0.00     0.002 C 
BRANCH  27  28
ATOM     28  C   UNL A   1      31.500  30.878  26.425  1.00  0.00     0.002 C 
BRANCH  28  29
ATOM     29  C   UNL A   1      31.399  32.390  26.617  1.00  0.00     0.021 C 
BRANCH  29  30
ATOM     30  C   UNL A   1      32.685  33.018  27.125  1.00  0.00     0.116 C 
BRANCH  30  31
ATOM     31  N   UNL A   1      32.458  34.343  27.676  1.00  0.00    -0.352 N 
ATOM     32  C   UNL A   1      33.054  34.936  28.755  1.00  0.00     0.251 C 
ATOM     33  H   UNL A   1      31.784  34.889  27.209  1.00  0.00     0.163 HD
ATOM     34  O   UNL A   1      32.621  35.988  29.211  1.00  0.00    -0.269 OA
BRANCH  32  35
ATOM     35  C   UNL A   1      34.218  34.278  29.373  1.00  0.00     0.039 A 
ATOM     36  C   UNL A   1      34.003  33.292  30.336  1.00  0.00     0.014 A 
ATOM     37  C   UNL A   1      35.516  34.629  28.989  1.00  0.00     0.014 A 
ATOM     38  C   UNL A   1      35.096  32.635  30.898  1.00  0.00     0.010 A 
ATOM     39  C   UNL A   1      36.597  33.910  29.481  1.00  0.00     0.010 A 
ATOM     40  C   UNL A   1      36.399  32.926  30.459  1.00  0.00    -0.014 A 
BRANCH  40  41
ATOM     41  C   UNL A   1      37.573  32.243  31.052  1.00  0.00     0.031 A 
ATOM     42  C   UNL A   1      38.047  32.632  32.425  1.00  0.00     0.074 A 
ATOM     43  C   UNL A   1      38.228  31.307  30.341  1.00  0.00     0.049 A 
ATOM     44  N   UNL A   1      39.072  32.184  33.105  1.00  0.00    -0.248 NA
ATOM     45  C   UNL A   1      37.287  33.687  33.114  1.00  0.00     0.031 C 
ATOM     46  C   UNL A   1      37.888  30.883  28.981  1.00  0.00     0.029 A 
ATOM     47  N   UNL A   1      39.321  30.543  30.664  1.00  0.00    -0.354 N 
ATOM     48  C   UNL A   1      39.083  32.910  34.289  1.00  0.00     0.074 A 
ATOM     49  C   UNL A   1      38.009  33.874  34.208  1.00  0.00     0.031 C 
ATOM     50  C   UNL A   1      38.734  29.914  28.599  1.00  0.00     0.029 A 
ATOM     51  C   UNL A   1      39.697  29.675  29.670  1.00  0.00     0.049 A 
ATOM     52  H   UNL A   1      39.789  30.612  31.527  1.00  0.00     0.167 HD
ATOM     53  C   UNL A   1      39.897  32.763  35.360  1.00  0.00     0.037 A 
ATOM     54  C   UNL A   1      40.709  28.787  29.630  1.00  0.00     0.037 A 
ATOM     55  C   UNL A   1      40.948  31.784  35.442  1.00  0.00     0.049 A 
ATOM     56  C   UNL A   1      41.601  28.647  30.835  1.00  0.00     0.074 A 
ATOM     57  C   UNL A   1      41.800  31.518  36.498  1.00  0.00     0.029 A 
ATOM     58  N   UNL A   1      41.289  30.907  34.422  1.00  0.00    -0.354 N 
ATOM     59  N   UNL A   1      41.562  29.291  31.976  1.00  0.00    -0.248 NA
ATOM     60  C   UNL A   1      42.672  27.645  30.749  1.00  0.00     0.031 C 
ATOM     61  C   UNL A   1      42.691  30.517  36.100  1.00  0.00     0.029 A 
ATOM     62  C   UNL A   1      42.352  30.112  34.818  1.00  0.00     0.049 A 
ATOM     63  H   UNL A   1      40.842  30.857  33.547  1.00  0.00     0.167 HD
ATOM     64  C   UNL A   1      42.574  28.747  32.757  1.00  0.00     0.074 A 
ATOM     65  C   UNL A   1      43.199  27.711  31.962  1.00  0.00     0.031 C 
ATOM     66  C   UNL A   1      42.950  29.074  34.019  1.00  0.00     0.037 A 
BRANCH  53  67
ATOM     67  C   UNL A   1      39.678  33.679  36.531  1.00  0.00     0.064 A 
ATOM     68  C   UNL A   1      38.861  33.312  37.612  1.00  0.00     0.173 A 
ATOM     69  C   UNL A   1      40.316  34.927  36.588  1.00  0.00     0.173 A 
ATOM     70  F   UNL A   1      38.215  32.136  37.604  1.00  0.00    -0.203 F 
ATOM     71  C   UNL A   1      38.668  34.173  38.690  1.00  0.00     0.198 A 
ATOM     72  C   UNL A   1      40.148  35.771  37.683  1.00  0.00     0.198 A 
ATOM     73  F   UNL A   1      41.110  35.328  35.583  1.00  0.00    -0.203 F 
ATOM     74  F   UNL A   1      37.838  33.823  39.683  1.00  0.00    -0.200 F 
ATOM     75  C   UNL A   1      39.317  35.396  38.729  1.00  0.00     0.200 A 
ATOM     76  F   UNL A   1      40.788  36.947  37.725  1.00  0.00    -0.200 F 
ATOM     77  F   UNL A   1      39.137  36.220  39.770  1.00  0.00    -0.200 F 
ENDBRANCH  53  67
BRANCH  54  78
ATOM     78  C   UNL A   1      40.913  27.940  28.426  1.00  0.00     0.064 A 
ATOM     79  C   UNL A   1      41.695  28.388  27.352  1.00  0.00     0.173 A 
ATOM     80  C   UNL A   1      40.319  26.675  28.315  1.00  0.00     0.173 A 
ATOM     81  F   UNL A   1      42.270  29.599  27.403  1.00  0.00    -0.203 F 
ATOM     82  C   UNL A   1      41.849  27.619  26.202  1.00  0.00     0.198 A 
ATOM     83  C   UNL A   1      40.500  25.891  27.177  1.00  0.00     0.198 A 
ATOM     84  F   UNL A   1      39.567  26.194  29.317  1.00  0.00    -0.203 F 
ATOM     85  F   UNL A   1      42.554  28.098  25.168  1.00  0.00    -0.200 F 
ATOM     86  C   UNL A   1      41.256  26.368  26.117  1.00  0.00     0.200 A 
ATOM     87  F   UNL A   1      39.939  24.677  27.105  1.00  0.00    -0.200 F 
ATOM     88  F   UNL A   1      41.403  25.628  25.009  1.00  0.00    -0.200 F 
ENDBRANCH  54  78
BRANCH  66  89
ATOM     89  C   UNL A   1      44.053  28.265  34.638  1.00  0.00     0.064 A 
ATOM     90  C   UNL A   1      45.398  28.659  34.563  1.00  0.00     0.173 A 
ATOM     91  C   UNL A   1      43.754  27.088  35.344  1.00  0.00     0.173 A 
ATOM     92  F   UNL A   1      45.739  29.768  33.889  1.00  0.00    -0.203 F 
ATOM     93  C   UNL A   1      46.403  27.888  35.138  1.00  0.00     0.198 A 
ATOM     94  C   UNL A   1      44.757  26.339  35.949  1.00  0.00     0.198 A 
ATOM     95  F   UNL A   1      42.484  26.670  35.454  1.00  0.00    -0.203 F 
ATOM     96  F   UNL A   1      47.685  28.252  35.001  1.00  0.00    -0.200 F 
ATOM     97  C   UNL A   1      46.082  26.733  35.837  1.00  0.00     0.200 A 
ATOM     98  F   UNL A   1      44.444  25.235  36.639  1.00  0.00    -0.200 F 
ATOM     99  F   UNL A   1      47.051  25.994  36.395  1.00  0.00    -0.200 F 
ENDBRANCH  66  89
ENDBRANCH  40  41
ENDBRANCH  32  35
ENDBRANCH  30  31
ENDBRANCH  29  30
ENDBRANCH  28  29
ENDBRANCH  27  28
ENDBRANCH   1  27
TORSDOF 18
ENDMDL
