MODEL 1
REMARK VINA RESULT:     -13.0      0.000      0.000
REMARK SMILES Cc1ccc(-c2cc(Cl)ccc2Cl)c(C(=O)NCCCCCCNC(=O)c2ccc(-c3c4nc(c(-c5c(F)c(F)c(F)c(F)c5F)c5ccc([nH]5)c(-c5c(F)c(F)c(F)c(F)c5F)c5nc(c(-c6c(F)c(F)c(F)c(F)c6F)c6ccc3[nH]6)C=C5)C=C4)cc2)c1
REMARK SMILES IDX 21 1 20 2 19 3 18 4 17 5 15 6 16 7 14 9 1 10 2 11 3 12 90 13
REMARK SMILES IDX 4 14 5 15 6 16 7 17 12 18 8 19 11 20 13 21 9 22 10 23 22 24
REMARK SMILES IDX 23 25 24 26 25 27 26 29 27 30 28 31 89 32 29 33 88 34 30 35
REMARK SMILES IDX 31 36 32 37 82 38 33 39 87 40 81 41 83 42 34 43 86 44 80 45
REMARK SMILES IDX 79 46 35 48 67 49 47 50 66 51 48 52 51 53 65 54 84 55 49 56
REMARK SMILES IDX 50 57 64 59 85 60 52 61 36 62 37 63 45 64 38 65 39 66 43 67
REMARK SMILES IDX 46 68 40 69 41 70 44 71 42 72 68 73 69 74 77 75 70 76 71 77
REMARK SMILES IDX 75 78 78 79 72 80 73 81 76 82 74 83 53 84 54 85 62 86 55 87
REMARK SMILES IDX 56 88 60 89 63 90 57 91 58 92 61 93 59 94
REMARK H PARENT 17 8 24 28 83 47 51 58
REMARK Flexibility Score: inf
ROOT
ATOM      1  C   UNL A   1      32.291  30.461  26.249  1.00  0.00     0.002 C 
ENDROOT
BRANCH   1   2
ATOM      2  C   UNL A   1      33.312  29.349  25.946  1.00  0.00     0.002 C 
BRANCH   2   3
ATOM      3  C   UNL A   1      33.200  28.067  26.792  1.00  0.00     0.021 C 
BRANCH   3   4
ATOM      4  C   UNL A   1      31.917  27.961  27.623  1.00  0.00     0.116 C 
BRANCH   4   5
ATOM      5  N   UNL A   1      31.160  26.786  27.248  1.00  0.00    -0.352 N 
ATOM      6  C   UNL A   1      30.745  26.212  26.074  1.00  0.00     0.251 C 
ATOM      7  O   UNL A   1      30.128  25.160  26.239  1.00  0.00    -0.269 OA
ATOM      8  H   UNL A   1      30.869  26.268  28.034  1.00  0.00     0.163 HD
BRANCH   6   9
ATOM      9  C   UNL A   1      31.019  26.750  24.690  1.00  0.00     0.047 A 
ATOM     10  C   UNL A   1      29.915  29.678  22.474  1.00  0.00     0.044 C 
ATOM     11  C   UNL A   1      30.637  28.452  22.952  1.00  0.00    -0.050 A 
ATOM     12  C   UNL A   1      31.665  27.912  22.186  1.00  0.00     0.004 A 
ATOM     13  C   UNL A   1      30.289  27.831  24.163  1.00  0.00     0.018 A 
ATOM     14  C   UNL A   1      32.327  26.769  22.625  1.00  0.00     0.010 A 
ATOM     15  C   UNL A   1      32.030  26.168  23.870  1.00  0.00    -0.004 A 
BRANCH  15  16
ATOM     16  C   UNL A   1      32.766  24.928  24.206  1.00  0.00     0.003 A 
ATOM     17  C   UNL A   1      34.058  25.033  24.764  1.00  0.00     0.030 A 
ATOM     18  C   UNL A   1      32.238  23.636  24.011  1.00  0.00     0.049 A 
ATOM     19  C   UNL A   1      34.815  23.896  25.047  1.00  0.00     0.041 A 
ATOM     20  C   UNL A   1      32.991  22.498  24.333  1.00  0.00     0.023 A 
ATOM     21  Cl  UNL A   1      30.654  23.379  23.362  1.00  0.00    -0.084 Cl
ATOM     22  Cl  UNL A   1      36.420  24.065  25.643  1.00  0.00    -0.084 Cl
ATOM     23  C   UNL A   1      34.286  22.629  24.838  1.00  0.00     0.022 A 
ENDBRANCH  15  16
ENDBRANCH   6   9
ENDBRANCH   4   5
ENDBRANCH   3   4
ENDBRANCH   2   3
ENDBRANCH   1   2
BRANCH   1  24
ATOM     24  C   UNL A   1      32.726  31.517  27.270  1.00  0.00     0.021 C 
BRANCH  24  25
ATOM     25  C   UNL A   1      34.227  31.538  27.533  1.00  0.00     0.116 C 
BRANCH  25  26
ATOM     26  N   UNL A   1      34.582  32.018  28.865  1.00  0.00    -0.352 N 
ATOM     27  C   UNL A   1      35.483  31.480  29.769  1.00  0.00     0.251 C 
ATOM     28  H   UNL A   1      34.119  32.835  29.160  1.00  0.00     0.163 HD
ATOM     29  O   UNL A   1      35.679  32.006  30.851  1.00  0.00    -0.269 OA
BRANCH  27  30
ATOM     30  C   UNL A   1      36.297  30.319  29.342  1.00  0.00     0.039 A 
ATOM     31  C   UNL A   1      36.654  29.379  30.314  1.00  0.00     0.014 A 
ATOM     32  C   UNL A   1      36.883  30.294  28.078  1.00  0.00     0.014 A 
ATOM     33  C   UNL A   1      37.773  28.579  30.101  1.00  0.00     0.010 A 
ATOM     34  C   UNL A   1      38.040  29.560  27.898  1.00  0.00     0.010 A 
ATOM     35  C   UNL A   1      38.527  28.761  28.939  1.00  0.00    -0.014 A 
BRANCH  35  36
ATOM     36  C   UNL A   1      39.901  28.286  28.812  1.00  0.00     0.031 A 
ATOM     37  C   UNL A   1      40.203  26.880  28.484  1.00  0.00     0.074 A 
ATOM     38  C   UNL A   1      40.925  29.156  28.965  1.00  0.00     0.049 A 
ATOM     39  N   UNL A   1      41.295  26.289  28.841  1.00  0.00    -0.248 NA
ATOM     40  C   UNL A   1      39.291  26.016  27.745  1.00  0.00     0.031 C 
ATOM     41  C   UNL A   1      42.338  28.917  28.677  1.00  0.00     0.029 A 
ATOM     42  N   UNL A   1      40.911  30.394  29.630  1.00  0.00    -0.354 N 
ATOM     43  C   UNL A   1      41.349  25.085  28.188  1.00  0.00     0.074 A 
ATOM     44  C   UNL A   1      40.054  24.933  27.559  1.00  0.00     0.031 C 
ATOM     45  C   UNL A   1      43.074  29.761  29.415  1.00  0.00     0.029 A 
ATOM     46  C   UNL A   1      42.165  30.487  30.281  1.00  0.00     0.049 A 
ATOM     47  H   UNL A   1      40.182  31.056  29.641  1.00  0.00     0.167 HD
ATOM     48  C   UNL A   1      42.517  24.385  28.146  1.00  0.00     0.037 A 
ATOM     49  C   UNL A   1      42.249  30.560  31.640  1.00  0.00     0.037 A 
ATOM     50  C   UNL A   1      43.594  25.044  28.873  1.00  0.00     0.049 A 
ATOM     51  C   UNL A   1      43.005  29.422  32.294  1.00  0.00     0.074 A 
ATOM     52  C   UNL A   1      44.678  25.827  28.506  1.00  0.00     0.029 A 
ATOM     53  N   UNL A   1      43.480  25.178  30.243  1.00  0.00    -0.354 N 
ATOM     54  N   UNL A   1      43.516  28.408  31.653  1.00  0.00    -0.248 NA
ATOM     55  C   UNL A   1      43.144  29.287  33.746  1.00  0.00     0.031 C 
ATOM     56  C   UNL A   1      45.224  26.416  29.682  1.00  0.00     0.029 A 
ATOM     57  C   UNL A   1      44.469  25.992  30.758  1.00  0.00     0.049 A 
ATOM     58  H   UNL A   1      42.780  24.748  30.785  1.00  0.00     0.167 HD
ATOM     59  C   UNL A   1      43.970  27.484  32.558  1.00  0.00     0.074 A 
ATOM     60  C   UNL A   1      43.720  28.080  33.855  1.00  0.00     0.031 C 
ATOM     61  C   UNL A   1      44.471  26.274  32.181  1.00  0.00     0.037 A 
BRANCH  48  62
ATOM     62  C   UNL A   1      42.704  23.193  27.253  1.00  0.00     0.064 A 
ATOM     63  C   UNL A   1      42.110  21.952  27.555  1.00  0.00     0.173 A 
ATOM     64  C   UNL A   1      43.501  23.219  26.093  1.00  0.00     0.173 A 
ATOM     65  F   UNL A   1      41.276  21.810  28.592  1.00  0.00    -0.203 F 
ATOM     66  C   UNL A   1      42.374  20.802  26.809  1.00  0.00     0.198 A 
ATOM     67  C   UNL A   1      43.810  22.058  25.381  1.00  0.00     0.198 A 
ATOM     68  F   UNL A   1      43.991  24.376  25.622  1.00  0.00    -0.203 F 
ATOM     69  F   UNL A   1      41.790  19.644  27.146  1.00  0.00    -0.200 F 
ATOM     70  C   UNL A   1      43.253  20.847  25.745  1.00  0.00     0.200 A 
ATOM     71  F   UNL A   1      44.662  22.117  24.348  1.00  0.00    -0.200 F 
ATOM     72  F   UNL A   1      43.556  19.730  25.069  1.00  0.00    -0.200 F 
ENDBRANCH  48  62
BRANCH  49  73
ATOM     73  C   UNL A   1      41.106  31.287  32.249  1.00  0.00     0.064 A 
ATOM     74  C   UNL A   1      41.093  32.694  32.179  1.00  0.00     0.173 A 
ATOM     75  C   UNL A   1      39.905  30.642  32.561  1.00  0.00     0.173 A 
ATOM     76  F   UNL A   1      42.218  33.362  31.878  1.00  0.00    -0.203 F 
ATOM     77  C   UNL A   1      39.906  33.413  32.300  1.00  0.00     0.198 A 
ATOM     78  C   UNL A   1      38.722  31.369  32.702  1.00  0.00     0.198 A 
ATOM     79  F   UNL A   1      39.847  29.305  32.620  1.00  0.00    -0.203 F 
ATOM     80  F   UNL A   1      39.907  34.741  32.113  1.00  0.00    -0.200 F 
ATOM     81  C   UNL A   1      38.717  32.746  32.537  1.00  0.00     0.200 A 
ATOM     82  F   UNL A   1      37.567  30.721  32.910  1.00  0.00    -0.200 F 
ATOM     83  F   UNL A   1      37.562  33.425  32.567  1.00  0.00    -0.200 F 
ENDBRANCH  49  73
BRANCH  61  84
ATOM     84  C   UNL A   1      44.997  25.245  33.141  1.00  0.00     0.064 A 
ATOM     85  C   UNL A   1      46.361  24.925  33.229  1.00  0.00     0.173 A 
ATOM     86  C   UNL A   1      44.123  24.454  33.920  1.00  0.00     0.173 A 
ATOM     87  F   UNL A   1      47.266  25.570  32.479  1.00  0.00    -0.203 F 
ATOM     88  C   UNL A   1      46.824  23.915  34.076  1.00  0.00     0.198 A 
ATOM     89  C   UNL A   1      44.583  23.412  34.723  1.00  0.00     0.198 A 
ATOM     90  F   UNL A   1      42.803  24.683  33.939  1.00  0.00    -0.203 F 
ATOM     91  F   UNL A   1      48.140  23.677  34.169  1.00  0.00    -0.200 F 
ATOM     92  C   UNL A   1      45.934  23.152  34.813  1.00  0.00     0.200 A 
ATOM     93  F   UNL A   1      43.705  22.668  35.411  1.00  0.00    -0.200 F 
ATOM     94  F   UNL A   1      46.378  22.168  35.606  1.00  0.00    -0.200 F 
ENDBRANCH  61  84
ENDBRANCH  35  36
ENDBRANCH  27  30
ENDBRANCH  25  26
ENDBRANCH  24  25
ENDBRANCH   1  24
TORSDOF 14
ENDMDL
MODEL 2
REMARK VINA RESULT:     -13.0      3.548      9.915
REMARK SMILES Cc1ccc(-c2cc(Cl)ccc2Cl)c(C(=O)NCCCCCCNC(=O)c2ccc(-c3c4nc(c(-c5c(F)c(F)c(F)c(F)c5F)c5ccc([nH]5)c(-c5c(F)c(F)c(F)c(F)c5F)c5nc(c(-c6c(F)c(F)c(F)c(F)c6F)c6ccc3[nH]6)C=C5)C=C4)cc2)c1
REMARK SMILES IDX 21 1 20 2 19 3 18 4 17 5 15 6 16 7 14 9 1 10 2 11 3 12 90 13
REMARK SMILES IDX 4 14 5 15 6 16 7 17 12 18 8 19 11 20 13 21 9 22 10 23 22 24
REMARK SMILES IDX 23 25 24 26 25 27 26 29 27 30 28 31 89 32 29 33 88 34 30 35
REMARK SMILES IDX 31 36 32 37 82 38 33 39 87 40 81 41 83 42 34 43 86 44 80 45
REMARK SMILES IDX 79 46 35 48 67 49 47 50 66 51 48 52 51 53 65 54 84 55 49 56
REMARK SMILES IDX 50 57 64 59 85 60 52 61 36 62 37 63 45 64 38 65 39 66 43 67
REMARK SMILES IDX 46 68 40 69 41 70 44 71 42 72 68 73 69 74 77 75 70 76 71 77
REMARK SMILES IDX 75 78 78 79 72 80 73 81 76 82 74 83 53 84 54 85 62 86 55 87
REMARK SMILES IDX 56 88 60 89 63 90 57 91 58 92 61 93 59 94
REMARK H PARENT 17 8 24 28 83 47 51 58
REMARK Flexibility Score: inf
ROOT
ATOM      1  C   UNL A   1      37.497  21.251  25.341  1.00  0.00     0.002 C 
ENDROOT
BRANCH   1   2
ATOM      2  C   UNL A   1      37.031  22.229  24.247  1.00  0.00     0.002 C 
BRANCH   2   3
ATOM      3  C   UNL A   1      36.706  23.663  24.704  1.00  0.00     0.021 C 
BRANCH   3   4
ATOM      4  C   UNL A   1      35.210  23.983  24.785  1.00  0.00     0.116 C 
BRANCH   4   5
ATOM      5  N   UNL A   1      34.611  23.343  25.936  1.00  0.00    -0.352 N 
ATOM      6  C   UNL A   1      33.901  22.193  26.168  1.00  0.00     0.251 C 
ATOM      7  O   UNL A   1      33.610  22.031  27.353  1.00  0.00    -0.269 OA
ATOM      8  H   UNL A   1      34.747  23.864  26.761  1.00  0.00     0.163 HD
BRANCH   6   9
ATOM      9  C   UNL A   1      33.519  21.172  25.123  1.00  0.00     0.047 A 
ATOM     10  C   UNL A   1      34.189  17.479  24.335  1.00  0.00     0.044 C 
ATOM     11  C   UNL A   1      33.637  18.872  24.250  1.00  0.00    -0.050 A 
ATOM     12  C   UNL A   1      32.657  19.171  23.308  1.00  0.00     0.004 A 
ATOM     13  C   UNL A   1      34.096  19.888  25.104  1.00  0.00     0.018 A 
ATOM     14  C   UNL A   1      32.153  20.466  23.223  1.00  0.00     0.010 A 
ATOM     15  C   UNL A   1      32.560  21.484  24.115  1.00  0.00    -0.004 A 
BRANCH  15  16
ATOM     16  C   UNL A   1      31.991  22.833  23.895  1.00  0.00     0.003 A 
ATOM     17  C   UNL A   1      32.421  23.578  22.775  1.00  0.00     0.030 A 
ATOM     18  C   UNL A   1      31.027  23.417  24.740  1.00  0.00     0.049 A 
ATOM     19  C   UNL A   1      31.958  24.875  22.552  1.00  0.00     0.041 A 
ATOM     20  C   UNL A   1      30.539  24.706  24.489  1.00  0.00     0.023 A 
ATOM     21  Cl  UNL A   1      30.402  22.591  26.127  1.00  0.00    -0.084 Cl
ATOM     22  Cl  UNL A   1      32.571  25.785  21.227  1.00  0.00    -0.084 Cl
ATOM     23  C   UNL A   1      31.015  25.441  23.402  1.00  0.00     0.022 A 
ENDBRANCH  15  16
ENDBRANCH   6   9
ENDBRANCH   4   5
ENDBRANCH   3   4
ENDBRANCH   2   3
ENDBRANCH   1   2
BRANCH   1  24
ATOM     24  C   UNL A   1      38.970  21.350  25.752  1.00  0.00     0.021 C 
BRANCH  24  25
ATOM     25  C   UNL A   1      39.333  22.665  26.430  1.00  0.00     0.116 C 
BRANCH  25  26
ATOM     26  N   UNL A   1      40.752  22.996  26.346  1.00  0.00    -0.352 N 
ATOM     27  C   UNL A   1      41.366  24.229  26.490  1.00  0.00     0.251 C 
ATOM     28  H   UNL A   1      41.355  22.240  26.162  1.00  0.00     0.163 HD
ATOM     29  O   UNL A   1      42.576  24.344  26.400  1.00  0.00    -0.269 OA
BRANCH  27  30
ATOM     30  C   UNL A   1      40.531  25.387  26.883  1.00  0.00     0.039 A 
ATOM     31  C   UNL A   1      40.786  26.615  26.264  1.00  0.00     0.014 A 
ATOM     32  C   UNL A   1      39.692  25.309  27.992  1.00  0.00     0.014 A 
ATOM     33  C   UNL A   1      40.403  27.788  26.908  1.00  0.00     0.010 A 
ATOM     34  C   UNL A   1      39.383  26.472  28.673  1.00  0.00     0.010 A 
ATOM     35  C   UNL A   1      39.806  27.706  28.169  1.00  0.00    -0.014 A 
BRANCH  35  36
ATOM     36  C   UNL A   1      39.745  28.842  29.083  1.00  0.00     0.031 A 
ATOM     37  C   UNL A   1      38.709  29.884  28.951  1.00  0.00     0.074 A 
ATOM     38  C   UNL A   1      40.636  28.932  30.097  1.00  0.00     0.049 A 
ATOM     39  N   UNL A   1      38.875  31.102  29.346  1.00  0.00    -0.248 NA
ATOM     40  C   UNL A   1      37.407  29.644  28.342  1.00  0.00     0.031 C 
ATOM     41  C   UNL A   1      40.608  29.869  31.218  1.00  0.00     0.029 A 
ATOM     42  N   UNL A   1      41.892  28.310  30.197  1.00  0.00    -0.354 N 
ATOM     43  C   UNL A   1      37.658  31.730  29.283  1.00  0.00     0.074 A 
ATOM     44  C   UNL A   1      36.784  30.800  28.601  1.00  0.00     0.031 C 
ATOM     45  C   UNL A   1      41.856  30.013  31.688  1.00  0.00     0.029 A 
ATOM     46  C   UNL A   1      42.737  29.263  30.815  1.00  0.00     0.049 A 
ATOM     47  H   UNL A   1      42.133  27.402  29.899  1.00  0.00     0.167 HD
ATOM     48  C   UNL A   1      37.476  32.925  29.911  1.00  0.00     0.037 A 
ATOM     49  C   UNL A   1      43.827  29.763  30.166  1.00  0.00     0.037 A 
ATOM     50  C   UNL A   1      38.682  33.404  30.573  1.00  0.00     0.049 A 
ATOM     51  C   UNL A   1      43.804  31.261  29.940  1.00  0.00     0.074 A 
ATOM     52  C   UNL A   1      39.142  33.400  31.880  1.00  0.00     0.029 A 
ATOM     53  N   UNL A   1      39.771  33.743  29.792  1.00  0.00    -0.354 N 
ATOM     54  N   UNL A   1      42.820  32.045  30.284  1.00  0.00    -0.248 NA
ATOM     55  C   UNL A   1      44.849  31.973  29.203  1.00  0.00     0.031 C 
ATOM     56  C   UNL A   1      40.519  33.763  31.873  1.00  0.00     0.029 A 
ATOM     57  C   UNL A   1      40.892  33.983  30.561  1.00  0.00     0.049 A 
ATOM     58  H   UNL A   1      39.751  33.805  28.810  1.00  0.00     0.167 HD
ATOM     59  C   UNL A   1      43.045  33.299  29.778  1.00  0.00     0.074 A 
ATOM     60  C   UNL A   1      44.329  33.207  29.113  1.00  0.00     0.031 C 
ATOM     61  C   UNL A   1      42.139  34.311  29.896  1.00  0.00     0.037 A 
BRANCH  48  62
ATOM     62  C   UNL A   1      36.116  33.540  30.083  1.00  0.00     0.064 A 
ATOM     63  C   UNL A   1      35.390  34.028  28.980  1.00  0.00     0.173 A 
ATOM     64  C   UNL A   1      35.499  33.701  31.337  1.00  0.00     0.173 A 
ATOM     65  F   UNL A   1      35.835  33.876  27.727  1.00  0.00    -0.203 F 
ATOM     66  C   UNL A   1      34.184  34.715  29.131  1.00  0.00     0.198 A 
ATOM     67  C   UNL A   1      34.322  34.438  31.493  1.00  0.00     0.198 A 
ATOM     68  F   UNL A   1      36.022  33.141  32.438  1.00  0.00    -0.203 F 
ATOM     69  F   UNL A   1      33.539  35.169  28.048  1.00  0.00    -0.200 F 
ATOM     70  C   UNL A   1      33.669  34.953  30.389  1.00  0.00     0.200 A 
ATOM     71  F   UNL A   1      33.832  34.657  32.721  1.00  0.00    -0.200 F 
ATOM     72  F   UNL A   1      32.546  35.668  30.538  1.00  0.00    -0.200 F 
ENDBRANCH  48  62
BRANCH  49  73
ATOM     73  C   UNL A   1      44.461  28.773  29.257  1.00  0.00     0.064 A 
ATOM     74  C   UNL A   1      45.271  27.768  29.822  1.00  0.00     0.173 A 
ATOM     75  C   UNL A   1      44.012  28.584  27.946  1.00  0.00     0.173 A 
ATOM     76  F   UNL A   1      45.723  27.898  31.079  1.00  0.00    -0.203 F 
ATOM     77  C   UNL A   1      45.523  26.577  29.146  1.00  0.00     0.198 A 
ATOM     78  C   UNL A   1      44.285  27.397  27.264  1.00  0.00     0.198 A 
ATOM     79  F   UNL A   1      43.220  29.492  27.362  1.00  0.00    -0.203 F 
ATOM     80  F   UNL A   1      46.200  25.592  29.755  1.00  0.00    -0.200 F 
ATOM     81  C   UNL A   1      45.007  26.383  27.876  1.00  0.00     0.200 A 
ATOM     82  F   UNL A   1      43.768  27.201  26.043  1.00  0.00    -0.200 F 
ATOM     83  F   UNL A   1      45.174  25.206  27.257  1.00  0.00    -0.200 F 
ENDBRANCH  49  73
BRANCH  61  84
ATOM     84  C   UNL A   1      42.358  35.702  29.373  1.00  0.00     0.064 A 
ATOM     85  C   UNL A   1      41.826  36.139  28.150  1.00  0.00     0.173 A 
ATOM     86  C   UNL A   1      43.221  36.606  30.032  1.00  0.00     0.173 A 
ATOM     87  F   UNL A   1      41.051  35.330  27.412  1.00  0.00    -0.203 F 
ATOM     88  C   UNL A   1      42.100  37.412  27.645  1.00  0.00     0.198 A 
ATOM     89  C   UNL A   1      43.533  37.854  29.500  1.00  0.00     0.198 A 
ATOM     90  F   UNL A   1      43.767  36.311  31.221  1.00  0.00    -0.203 F 
ATOM     91  F   UNL A   1      41.530  37.809  26.498  1.00  0.00    -0.200 F 
ATOM     92  C   UNL A   1      42.962  38.264  28.314  1.00  0.00     0.200 A 
ATOM     93  F   UNL A   1      44.389  38.657  30.149  1.00  0.00    -0.200 F 
ATOM     94  F   UNL A   1      43.241  39.476  27.815  1.00  0.00    -0.200 F 
ENDBRANCH  61  84
ENDBRANCH  35  36
ENDBRANCH  27  30
ENDBRANCH  25  26
ENDBRANCH  24  25
ENDBRANCH   1  24
TORSDOF 14
ENDMDL
MODEL 3
REMARK VINA RESULT:     -13.0      1.186      2.800
REMARK SMILES Cc1ccc(-c2cc(Cl)ccc2Cl)c(C(=O)NCCCCCCNC(=O)c2ccc(-c3c4nc(c(-c5c(F)c(F)c(F)c(F)c5F)c5ccc([nH]5)c(-c5c(F)c(F)c(F)c(F)c5F)c5nc(c(-c6c(F)c(F)c(F)c(F)c6F)c6ccc3[nH]6)C=C5)C=C4)cc2)c1
REMARK SMILES IDX 21 1 20 2 19 3 18 4 17 5 15 6 16 7 14 9 1 10 2 11 3 12 90 13
REMARK SMILES IDX 4 14 5 15 6 16 7 17 12 18 8 19 11 20 13 21 9 22 10 23 22 24
REMARK SMILES IDX 23 25 24 26 25 27 26 29 27 30 28 31 89 32 29 33 88 34 30 35
REMARK SMILES IDX 31 36 32 37 82 38 33 39 87 40 81 41 83 42 34 43 86 44 80 45
REMARK SMILES IDX 79 46 35 48 67 49 47 50 66 51 48 52 51 53 65 54 84 55 49 56
REMARK SMILES IDX 50 57 64 59 85 60 52 61 36 62 37 63 45 64 38 65 39 66 43 67
REMARK SMILES IDX 46 68 40 69 41 70 44 71 42 72 68 73 69 74 77 75 70 76 71 77
REMARK SMILES IDX 75 78 78 79 72 80 73 81 76 82 74 83 53 84 54 85 62 86 55 87
REMARK SMILES IDX 56 88 60 89 63 90 57 91 58 92 61 93 59 94
REMARK H PARENT 17 8 24 28 83 47 51 58
REMARK Flexibility Score: inf
ROOT
ATOM      1  C   UNL A   1      32.181  29.817  26.684  1.00  0.00     0.002 C 
ENDROOT
BRANCH   1   2
ATOM      2  C   UNL A   1      32.814  28.429  26.890  1.00  0.00     0.002 C 
BRANCH   2   3
ATOM      3  C   UNL A   1      33.531  27.816  25.673  1.00  0.00     0.021 C 
BRANCH   3   4
ATOM      4  C   UNL A   1      33.843  26.321  25.802  1.00  0.00     0.116 C 
BRANCH   4   5
ATOM      5  N   UNL A   1      32.784  25.636  26.510  1.00  0.00    -0.352 N 
ATOM      6  C   UNL A   1      32.059  24.487  26.330  1.00  0.00     0.251 C 
ATOM      7  O   UNL A   1      31.252  24.273  27.234  1.00  0.00    -0.269 OA
ATOM      8  H   UNL A   1      32.516  26.116  27.328  1.00  0.00     0.163 HD
BRANCH   6   9
ATOM      9  C   UNL A   1      32.216  23.522  25.179  1.00  0.00     0.047 A 
ATOM     10  C   UNL A   1      33.443  19.938  24.582  1.00  0.00     0.044 C 
ATOM     11  C   UNL A   1      32.861  21.300  24.336  1.00  0.00    -0.050 A 
ATOM     12  C   UNL A   1      32.326  21.608  23.090  1.00  0.00     0.004 A 
ATOM     13  C   UNL A   1      32.852  22.278  25.345  1.00  0.00     0.018 A 
ATOM     14  C   UNL A   1      31.796  22.875  22.860  1.00  0.00     0.010 A 
ATOM     15  C   UNL A   1      31.724  23.849  23.882  1.00  0.00    -0.004 A 
BRANCH  15  16
ATOM     16  C   UNL A   1      31.186  25.176  23.504  1.00  0.00     0.003 A 
ATOM     17  C   UNL A   1      29.868  25.509  23.884  1.00  0.00     0.030 A 
ATOM     18  C   UNL A   1      31.926  26.139  22.790  1.00  0.00     0.049 A 
ATOM     19  C   UNL A   1      29.294  26.723  23.506  1.00  0.00     0.041 A 
ATOM     20  C   UNL A   1      31.355  27.372  22.446  1.00  0.00     0.023 A 
ATOM     21  Cl  UNL A   1      33.561  25.858  22.294  1.00  0.00    -0.084 Cl
ATOM     22  Cl  UNL A   1      27.656  27.057  23.912  1.00  0.00    -0.084 Cl
ATOM     23  C   UNL A   1      30.034  27.658  22.792  1.00  0.00     0.022 A 
ENDBRANCH  15  16
ENDBRANCH   6   9
ENDBRANCH   4   5
ENDBRANCH   3   4
ENDBRANCH   2   3
ENDBRANCH   1   2
BRANCH   1  24
ATOM     24  C   UNL A   1      32.951  31.004  27.273  1.00  0.00     0.021 C 
BRANCH  24  25
ATOM     25  C   UNL A   1      34.406  30.693  27.601  1.00  0.00     0.116 C 
BRANCH  25  26
ATOM     26  N   UNL A   1      34.910  31.410  28.767  1.00  0.00    -0.352 N 
ATOM     27  C   UNL A   1      35.935  31.055  29.628  1.00  0.00     0.251 C 
ATOM     28  H   UNL A   1      34.462  32.263  28.968  1.00  0.00     0.163 HD
ATOM     29  O   UNL A   1      36.249  31.771  30.563  1.00  0.00    -0.269 OA
BRANCH  27  30
ATOM     30  C   UNL A   1      36.727  29.843  29.315  1.00  0.00     0.039 A 
ATOM     31  C   UNL A   1      37.153  29.047  30.383  1.00  0.00     0.014 A 
ATOM     32  C   UNL A   1      37.227  29.639  28.031  1.00  0.00     0.014 A 
ATOM     33  C   UNL A   1      38.260  28.221  30.210  1.00  0.00     0.010 A 
ATOM     34  C   UNL A   1      38.375  28.884  27.879  1.00  0.00     0.010 A 
ATOM     35  C   UNL A   1      38.934  28.237  28.986  1.00  0.00    -0.014 A 
BRANCH  35  36
ATOM     36  C   UNL A   1      40.300  27.744  28.836  1.00  0.00     0.031 A 
ATOM     37  C   UNL A   1      40.577  26.347  28.451  1.00  0.00     0.074 A 
ATOM     38  C   UNL A   1      41.338  28.590  29.020  1.00  0.00     0.049 A 
ATOM     39  N   UNL A   1      41.659  25.724  28.780  1.00  0.00    -0.248 NA
ATOM     40  C   UNL A   1      39.648  25.530  27.681  1.00  0.00     0.031 C 
ATOM     41  C   UNL A   1      42.746  28.339  28.719  1.00  0.00     0.029 A 
ATOM     42  N   UNL A   1      41.347  29.800  29.735  1.00  0.00    -0.354 N 
ATOM     43  C   UNL A   1      41.692  24.547  28.078  1.00  0.00     0.074 A 
ATOM     44  C   UNL A   1      40.393  24.442  27.448  1.00  0.00     0.031 C 
ATOM     45  C   UNL A   1      43.499  29.140  29.488  1.00  0.00     0.029 A 
ATOM     46  C   UNL A   1      42.604  29.846  30.385  1.00  0.00     0.049 A 
ATOM     47  H   UNL A   1      40.630  30.473  29.775  1.00  0.00     0.167 HD
ATOM     48  C   UNL A   1      42.847  23.830  28.005  1.00  0.00     0.037 A 
ATOM     49  C   UNL A   1      42.693  29.862  31.746  1.00  0.00     0.037 A 
ATOM     50  C   UNL A   1      43.938  24.440  28.754  1.00  0.00     0.049 A 
ATOM     51  C   UNL A   1      43.431  28.687  32.351  1.00  0.00     0.074 A 
ATOM     52  C   UNL A   1      45.034  25.219  28.416  1.00  0.00     0.029 A 
ATOM     53  N   UNL A   1      43.829  24.522  30.129  1.00  0.00    -0.354 N 
ATOM     54  N   UNL A   1      43.923  27.691  31.668  1.00  0.00    -0.248 NA
ATOM     55  C   UNL A   1      43.571  28.491  33.796  1.00  0.00     0.031 C 
ATOM     56  C   UNL A   1      45.592  25.751  29.613  1.00  0.00     0.029 A 
ATOM     57  C   UNL A   1      44.834  25.297  30.674  1.00  0.00     0.049 A 
ATOM     58  H   UNL A   1      43.123  24.081  30.656  1.00  0.00     0.167 HD
ATOM     59  C   UNL A   1      44.364  26.723  32.534  1.00  0.00     0.074 A 
ATOM     60  C   UNL A   1      44.127  27.270  33.854  1.00  0.00     0.031 C 
ATOM     61  C   UNL A   1      44.844  25.521  32.107  1.00  0.00     0.037 A 
BRANCH  48  62
ATOM     62  C   UNL A   1      43.013  22.671  27.064  1.00  0.00     0.064 A 
ATOM     63  C   UNL A   1      42.310  21.466  27.257  1.00  0.00     0.173 A 
ATOM     64  C   UNL A   1      43.891  22.694  25.965  1.00  0.00     0.173 A 
ATOM     65  F   UNL A   1      41.395  21.337  28.225  1.00  0.00    -0.203 F 
ATOM     66  C   UNL A   1      42.544  20.338  26.470  1.00  0.00     0.198 A 
ATOM     67  C   UNL A   1      44.166  21.548  25.214  1.00  0.00     0.198 A 
ATOM     68  F   UNL A   1      44.497  23.831  25.592  1.00  0.00    -0.203 F 
ATOM     69  F   UNL A   1      41.855  19.211  26.703  1.00  0.00    -0.200 F 
ATOM     70  C   UNL A   1      43.498  20.367  25.473  1.00  0.00     0.200 A 
ATOM     71  F   UNL A   1      45.093  21.593  24.246  1.00  0.00    -0.200 F 
ATOM     72  F   UNL A   1      43.768  19.265  24.761  1.00  0.00    -0.200 F 
ENDBRANCH  48  62
BRANCH  49  73
ATOM     73  C   UNL A   1      41.563  30.583  32.388  1.00  0.00     0.064 A 
ATOM     74  C   UNL A   1      41.535  31.990  32.308  1.00  0.00     0.173 A 
ATOM     75  C   UNL A   1      40.379  29.929  32.743  1.00  0.00     0.173 A 
ATOM     76  F   UNL A   1      42.644  32.665  31.967  1.00  0.00    -0.203 F 
ATOM     77  C   UNL A   1      40.347  32.699  32.463  1.00  0.00     0.198 A 
ATOM     78  C   UNL A   1      39.195  30.647  32.918  1.00  0.00     0.198 A 
ATOM     79  F   UNL A   1      40.336  28.592  32.812  1.00  0.00    -0.203 F 
ATOM     80  F   UNL A   1      40.329  34.026  32.268  1.00  0.00    -0.200 F 
ATOM     81  C   UNL A   1      39.172  32.023  32.744  1.00  0.00     0.200 A 
ATOM     82  F   UNL A   1      38.053  29.990  33.168  1.00  0.00    -0.200 F 
ATOM     83  F   UNL A   1      38.012  32.692  32.808  1.00  0.00    -0.200 F 
ENDBRANCH  49  73
BRANCH  61  84
ATOM     84  C   UNL A   1      45.354  24.445  33.023  1.00  0.00     0.064 A 
ATOM     85  C   UNL A   1      44.559  23.361  33.427  1.00  0.00     0.173 A 
ATOM     86  C   UNL A   1      46.627  24.540  33.627  1.00  0.00     0.173 A 
ATOM     87  F   UNL A   1      43.309  23.219  32.965  1.00  0.00    -0.203 F 
ATOM     88  C   UNL A   1      45.026  22.409  34.336  1.00  0.00     0.198 A 
ATOM     89  C   UNL A   1      47.069  23.618  34.574  1.00  0.00     0.198 A 
ATOM     90  F   UNL A   1      47.486  25.516  33.301  1.00  0.00    -0.203 F 
ATOM     91  F   UNL A   1      44.254  21.361  34.656  1.00  0.00    -0.200 F 
ATOM     92  C   UNL A   1      46.275  22.544  34.918  1.00  0.00     0.200 A 
ATOM     93  F   UNL A   1      48.272  23.777  35.144  1.00  0.00    -0.200 F 
ATOM     94  F   UNL A   1      46.711  21.642  35.808  1.00  0.00    -0.200 F 
ENDBRANCH  61  84
ENDBRANCH  35  36
ENDBRANCH  27  30
ENDBRANCH  25  26
ENDBRANCH  24  25
ENDBRANCH   1  24
TORSDOF 14
ENDMDL
