MODEL 1
REMARK VINA RESULT:     -11.6      0.000      0.000
REMARK SMILES CC[NH2+][C@H](CC(=O)Nc1cc(C)cc(C)c1)C(=O)NCCCCCCNC(=O)c1ccc(-c2c3nc(c(-c4c(F)c(F)c(F)c(F)c4F)c4ccc([nH]4)c(-c4c(F)c(F)c(F)c(F)c4F)c4nc(c(-c5c(F)c(F)c(F)c(F)c5F)c5ccc2[nH]5)C=C4)C=C3)cc1
REMARK SMILES IDX 22 1 21 2 20 3 19 4 17 5 18 6 4 8 3 9 2 12 1 13 5 14 6 15
REMARK SMILES IDX 7 16 8 17 9 19 10 20 16 21 11 22 14 23 12 24 13 25 15 26
REMARK SMILES IDX 23 27 24 28 25 29 26 30 27 31 28 33 29 34 30 35 91 36 31 37
REMARK SMILES IDX 90 38 32 39 33 40 34 41 84 42 35 43 89 44 83 45 85 46 36 47
REMARK SMILES IDX 88 48 82 49 81 50 37 52 69 53 49 54 68 55 50 56 53 57 67 58
REMARK SMILES IDX 86 59 51 60 52 61 66 63 87 64 54 65 38 66 39 67 47 68 40 69
REMARK SMILES IDX 41 70 45 71 48 72 42 73 43 74 46 75 44 76 70 77 71 78 79 79
REMARK SMILES IDX 72 80 73 81 77 82 80 83 74 84 75 85 78 86 76 87 55 88 56 89
REMARK SMILES IDX 64 90 57 91 58 92 62 93 65 94 59 95 60 96 63 97 61 98
REMARK H PARENT 19 7 3 10 3 11 8 18 26 32 85 51 53 62
REMARK Flexibility Score: inf
ROOT
ATOM      1  C   UNL A   1      32.149  29.751  27.069  1.00  0.00     0.002 C 
ENDROOT
BRANCH   1   2
ATOM      2  C   UNL A   1      31.647  28.327  26.833  1.00  0.00     0.021 C 
BRANCH   2   3
ATOM      3  C   UNL A   1      31.970  27.775  25.455  1.00  0.00     0.116 C 
BRANCH   3   4
ATOM      4  N   UNL A   1      30.794  27.269  24.784  1.00  0.00    -0.351 N 
ATOM      5  C   UNL A   1      30.569  25.994  24.352  1.00  0.00     0.278 C 
ATOM      6  O   UNL A   1      29.472  25.716  23.861  1.00  0.00    -0.268 OA
ATOM      7  H   UNL A   1      30.073  27.918  24.618  1.00  0.00     0.163 HD
BRANCH   5   8
ATOM      8  C   UNL A   1      31.685  24.939  24.462  1.00  0.00     0.281 C 
BRANCH   8   9
ATOM      9  N   UNL A   1      32.513  24.983  23.230  1.00  0.00    -0.336 N 
ATOM     10  H   UNL A   1      31.985  24.527  22.485  1.00  0.00     0.346 HD
ATOM     11  H   UNL A   1      32.706  25.971  23.071  1.00  0.00     0.346 HD
BRANCH   9  12
ATOM     12  C   UNL A   1      33.816  24.345  23.297  1.00  0.00     0.257 C 
ATOM     13  C   UNL A   1      33.738  23.024  22.543  1.00  0.00     0.071 C 
ENDBRANCH   9  12
ENDBRANCH   8   9
BRANCH   8  14
ATOM     14  C   UNL A   1      31.139  23.601  24.972  1.00  0.00     0.175 C 
BRANCH  14  15
ATOM     15  C   UNL A   1      31.156  23.370  26.488  1.00  0.00     0.230 C 
ATOM     16  O   UNL A   1      30.298  23.896  27.204  1.00  0.00    -0.274 OA
ATOM     17  N   UNL A   1      31.987  22.421  27.038  1.00  0.00    -0.326 N 
ATOM     18  H   UNL A   1      31.735  22.091  27.931  1.00  0.00     0.169 HD
BRANCH  17  19
ATOM     19  C   UNL A   1      33.144  21.866  26.481  1.00  0.00     0.041 A 
ATOM     20  C   UNL A   1      34.356  22.541  26.564  1.00  0.00     0.029 A 
ATOM     21  C   UNL A   1      33.095  20.626  25.852  1.00  0.00     0.029 A 
ATOM     22  C   UNL A   1      35.453  22.150  25.799  1.00  0.00    -0.049 A 
ATOM     23  C   UNL A   1      34.221  20.155  25.158  1.00  0.00    -0.049 A 
ATOM     24  C   UNL A   1      36.661  23.034  25.707  1.00  0.00     0.044 C 
ATOM     25  C   UNL A   1      35.380  20.948  25.097  1.00  0.00     0.007 A 
ATOM     26  C   UNL A   1      34.198  18.834  24.450  1.00  0.00     0.044 C 
ENDBRANCH  17  19
ENDBRANCH  14  15
ENDBRANCH   8  14
ENDBRANCH   5   8
ENDBRANCH   3   4
ENDBRANCH   2   3
ENDBRANCH   1   2
BRANCH   1  27
ATOM     27  C   UNL A   1      31.636  30.795  26.071  1.00  0.00     0.002 C 
BRANCH  27  28
ATOM     28  C   UNL A   1      31.415  32.198  26.644  1.00  0.00     0.021 C 
BRANCH  28  29
ATOM     29  C   UNL A   1      32.624  32.796  27.354  1.00  0.00     0.116 C 
BRANCH  29  30
ATOM     30  N   UNL A   1      32.427  34.198  27.678  1.00  0.00    -0.352 N 
ATOM     31  C   UNL A   1      33.034  34.960  28.642  1.00  0.00     0.251 C 
ATOM     32  H   UNL A   1      31.763  34.669  27.125  1.00  0.00     0.163 HD
ATOM     33  O   UNL A   1      32.603  36.075  28.912  1.00  0.00    -0.269 OA
BRANCH  31  34
ATOM     34  C   UNL A   1      34.202  34.424  29.372  1.00  0.00     0.039 A 
ATOM     35  C   UNL A   1      33.987  33.753  30.578  1.00  0.00     0.014 A 
ATOM     36  C   UNL A   1      35.498  34.591  28.877  1.00  0.00     0.014 A 
ATOM     37  C   UNL A   1      35.071  33.198  31.260  1.00  0.00     0.010 A 
ATOM     38  C   UNL A   1      36.569  33.977  29.520  1.00  0.00     0.010 A 
ATOM     39  C   UNL A   1      36.366  33.276  30.719  1.00  0.00    -0.014 A 
BRANCH  39  40
ATOM     40  C   UNL A   1      37.514  32.619  31.392  1.00  0.00     0.031 A 
ATOM     41  C   UNL A   1      38.214  31.460  30.739  1.00  0.00     0.074 A 
ATOM     42  C   UNL A   1      37.886  33.034  32.619  1.00  0.00     0.049 A 
ATOM     43  N   UNL A   1      39.195  30.724  31.196  1.00  0.00    -0.248 NA
ATOM     44  C   UNL A   1      37.734  31.058  29.408  1.00  0.00     0.031 C 
ATOM     45  C   UNL A   1      37.253  34.116  33.374  1.00  0.00     0.029 A 
ATOM     46  N   UNL A   1      38.882  32.588  33.453  1.00  0.00    -0.354 N 
ATOM     47  C   UNL A   1      39.440  29.769  30.217  1.00  0.00     0.074 A 
ATOM     48  C   UNL A   1      38.475  29.988  29.162  1.00  0.00     0.031 C 
ATOM     49  C   UNL A   1      37.886  34.264  34.549  1.00  0.00     0.029 A 
ATOM     50  C   UNL A   1      38.942  33.261  34.649  1.00  0.00     0.049 A 
ATOM     51  H   UNL A   1      39.495  31.854  33.216  1.00  0.00     0.167 HD
ATOM     52  C   UNL A   1      40.399  28.813  30.194  1.00  0.00     0.037 A 
ATOM     53  C   UNL A   1      39.750  33.082  35.711  1.00  0.00     0.037 A 
ATOM     54  C   UNL A   1      41.375  28.619  31.234  1.00  0.00     0.049 A 
ATOM     55  C   UNL A   1      40.799  32.004  35.657  1.00  0.00     0.074 A 
ATOM     56  C   UNL A   1      42.427  27.721  31.271  1.00  0.00     0.029 A 
ATOM     57  N   UNL A   1      41.414  29.331  32.423  1.00  0.00    -0.354 N 
ATOM     58  N   UNL A   1      41.072  31.160  34.692  1.00  0.00    -0.248 NA
ATOM     59  C   UNL A   1      41.659  31.857  36.840  1.00  0.00     0.031 C 
ATOM     60  C   UNL A   1      43.072  27.854  32.505  1.00  0.00     0.029 A 
ATOM     61  C   UNL A   1      42.458  28.873  33.213  1.00  0.00     0.049 A 
ATOM     62  H   UNL A   1      40.794  30.055  32.669  1.00  0.00     0.167 HD
ATOM     63  C   UNL A   1      42.149  30.405  35.137  1.00  0.00     0.074 A 
ATOM     64  C   UNL A   1      42.494  30.905  36.451  1.00  0.00     0.031 C 
ATOM     65  C   UNL A   1      42.795  29.389  34.514  1.00  0.00     0.037 A 
BRANCH  52  66
ATOM     66  C   UNL A   1      40.451  27.900  29.003  1.00  0.00     0.064 A 
ATOM     67  C   UNL A   1      39.704  26.714  28.951  1.00  0.00     0.173 A 
ATOM     68  C   UNL A   1      41.200  28.252  27.870  1.00  0.00     0.173 A 
ATOM     69  F   UNL A   1      38.978  26.327  30.012  1.00  0.00    -0.203 F 
ATOM     70  C   UNL A   1      39.717  25.907  27.817  1.00  0.00     0.198 A 
ATOM     71  C   UNL A   1      41.188  27.458  26.726  1.00  0.00     0.198 A 
ATOM     72  F   UNL A   1      41.929  29.379  27.864  1.00  0.00    -0.203 F 
ATOM     73  F   UNL A   1      39.022  24.761  27.803  1.00  0.00    -0.200 F 
ATOM     74  C   UNL A   1      40.449  26.285  26.701  1.00  0.00     0.200 A 
ATOM     75  F   UNL A   1      41.885  27.833  25.644  1.00  0.00    -0.200 F 
ATOM     76  F   UNL A   1      40.446  25.517  25.603  1.00  0.00    -0.200 F 
ENDBRANCH  52  66
BRANCH  53  77
ATOM     77  C   UNL A   1      39.607  33.942  36.916  1.00  0.00     0.064 A 
ATOM     78  C   UNL A   1      38.833  33.529  38.010  1.00  0.00     0.173 A 
ATOM     79  C   UNL A   1      40.212  35.205  36.988  1.00  0.00     0.173 A 
ATOM     80  F   UNL A   1      38.217  32.338  37.983  1.00  0.00    -0.203 F 
ATOM     81  C   UNL A   1      38.641  34.360  39.113  1.00  0.00     0.198 A 
ATOM     82  C   UNL A   1      40.047  36.021  38.105  1.00  0.00     0.198 A 
ATOM     83  F   UNL A   1      40.968  35.647  35.971  1.00  0.00    -0.203 F 
ATOM     84  F   UNL A   1      37.844  33.965  40.115  1.00  0.00    -0.200 F 
ATOM     85  C   UNL A   1      39.251  35.604  39.160  1.00  0.00     0.200 A 
ATOM     86  F   UNL A   1      40.652  37.217  38.153  1.00  0.00    -0.200 F 
ATOM     87  F   UNL A   1      39.063  36.405  40.217  1.00  0.00    -0.200 F 
ENDBRANCH  53  77
BRANCH  65  88
ATOM     88  C   UNL A   1      43.964  28.776  35.228  1.00  0.00     0.064 A 
ATOM     89  C   UNL A   1      45.268  29.264  35.062  1.00  0.00     0.173 A 
ATOM     90  C   UNL A   1      43.770  27.708  36.119  1.00  0.00     0.173 A 
ATOM     91  F   UNL A   1      45.509  30.272  34.210  1.00  0.00    -0.203 F 
ATOM     92  C   UNL A   1      46.340  28.687  35.739  1.00  0.00     0.198 A 
ATOM     93  C   UNL A   1      44.839  27.157  36.820  1.00  0.00     0.198 A 
ATOM     94  F   UNL A   1      42.542  27.210  36.321  1.00  0.00    -0.203 F 
ATOM     95  F   UNL A   1      47.584  29.134  35.522  1.00  0.00    -0.200 F 
ATOM     96  C   UNL A   1      46.123  27.639  36.621  1.00  0.00     0.200 A 
ATOM     97  F   UNL A   1      44.626  26.156  37.685  1.00  0.00    -0.200 F 
ATOM     98  F   UNL A   1      47.154  27.091  37.278  1.00  0.00    -0.200 F 
ENDBRANCH  65  88
ENDBRANCH  39  40
ENDBRANCH  31  34
ENDBRANCH  29  30
ENDBRANCH  28  29
ENDBRANCH  27  28
ENDBRANCH   1  27
TORSDOF 18
ENDMDL
MODEL 2
REMARK VINA RESULT:     -11.6      0.924      1.817
REMARK SMILES CC[NH2+][C@H](CC(=O)Nc1cc(C)cc(C)c1)C(=O)NCCCCCCNC(=O)c1ccc(-c2c3nc(c(-c4c(F)c(F)c(F)c(F)c4F)c4ccc([nH]4)c(-c4c(F)c(F)c(F)c(F)c4F)c4nc(c(-c5c(F)c(F)c(F)c(F)c5F)c5ccc2[nH]5)C=C4)C=C3)cc1
REMARK SMILES IDX 22 1 21 2 20 3 19 4 17 5 18 6 4 8 3 9 2 12 1 13 5 14 6 15
REMARK SMILES IDX 7 16 8 17 9 19 10 20 16 21 11 22 14 23 12 24 13 25 15 26
REMARK SMILES IDX 23 27 24 28 25 29 26 30 27 31 28 33 29 34 30 35 91 36 31 37
REMARK SMILES IDX 90 38 32 39 33 40 34 41 84 42 35 43 89 44 83 45 85 46 36 47
REMARK SMILES IDX 88 48 82 49 81 50 37 52 69 53 49 54 68 55 50 56 53 57 67 58
REMARK SMILES IDX 86 59 51 60 52 61 66 63 87 64 54 65 38 66 39 67 47 68 40 69
REMARK SMILES IDX 41 70 45 71 48 72 42 73 43 74 46 75 44 76 70 77 71 78 79 79
REMARK SMILES IDX 72 80 73 81 77 82 80 83 74 84 75 85 78 86 76 87 55 88 56 89
REMARK SMILES IDX 64 90 57 91 58 92 62 93 65 94 59 95 60 96 63 97 61 98
REMARK H PARENT 19 7 3 10 3 11 8 18 26 32 85 51 53 62
REMARK Flexibility Score: inf
ROOT
ATOM      1  C   UNL A   1      32.484  29.957  26.982  1.00  0.00     0.002 C 
ENDROOT
BRANCH   1   2
ATOM      2  C   UNL A   1      32.021  28.578  27.448  1.00  0.00     0.021 C 
BRANCH   2   3
ATOM      3  C   UNL A   1      31.915  27.549  26.335  1.00  0.00     0.116 C 
BRANCH   3   4
ATOM      4  N   UNL A   1      31.241  26.347  26.769  1.00  0.00    -0.351 N 
ATOM      5  C   UNL A   1      30.472  25.508  26.017  1.00  0.00     0.278 C 
ATOM      6  O   UNL A   1      30.029  24.480  26.534  1.00  0.00    -0.268 OA
ATOM      7  H   UNL A   1      31.347  26.106  27.718  1.00  0.00     0.163 HD
BRANCH   5   8
ATOM      8  C   UNL A   1      30.153  25.866  24.553  1.00  0.00     0.281 C 
BRANCH   8   9
ATOM      9  N   UNL A   1      28.742  26.323  24.465  1.00  0.00    -0.336 N 
ATOM     10  H   UNL A   1      28.170  25.516  24.219  1.00  0.00     0.346 HD
ATOM     11  H   UNL A   1      28.535  26.730  25.376  1.00  0.00     0.346 HD
BRANCH   9  12
ATOM     12  C   UNL A   1      28.457  27.373  23.504  1.00  0.00     0.257 C 
ATOM     13  C   UNL A   1      29.654  28.314  23.457  1.00  0.00     0.071 C 
ENDBRANCH   9  12
ENDBRANCH   8   9
BRANCH   8  14
ATOM     14  C   UNL A   1      30.673  24.793  23.590  1.00  0.00     0.175 C 
BRANCH  14  15
ATOM     15  C   UNL A   1      32.028  25.053  22.919  1.00  0.00     0.230 C 
ATOM     16  O   UNL A   1      32.142  25.957  22.087  1.00  0.00    -0.274 OA
ATOM     17  N   UNL A   1      33.164  24.431  23.383  1.00  0.00    -0.326 N 
ATOM     18  H   UNL A   1      34.018  24.861  23.150  1.00  0.00     0.169 HD
BRANCH  17  19
ATOM     19  C   UNL A   1      33.252  23.263  24.148  1.00  0.00     0.041 A 
ATOM     20  C   UNL A   1      33.114  22.018  23.546  1.00  0.00     0.029 A 
ATOM     21  C   UNL A   1      33.494  23.336  25.516  1.00  0.00     0.029 A 
ATOM     22  C   UNL A   1      32.931  20.865  24.307  1.00  0.00    -0.049 A 
ATOM     23  C   UNL A   1      33.419  22.173  26.297  1.00  0.00    -0.049 A 
ATOM     24  C   UNL A   1      32.530  19.581  23.645  1.00  0.00     0.044 C 
ATOM     25  C   UNL A   1      33.090  20.949  25.690  1.00  0.00     0.007 A 
ATOM     26  C   UNL A   1      33.653  22.216  27.778  1.00  0.00     0.044 C 
ENDBRANCH  17  19
ENDBRANCH  14  15
ENDBRANCH   8  14
ENDBRANCH   5   8
ENDBRANCH   3   4
ENDBRANCH   2   3
ENDBRANCH   1   2
BRANCH   1  27
ATOM     27  C   UNL A   1      31.459  30.742  26.155  1.00  0.00     0.002 C 
BRANCH  27  28
ATOM     28  C   UNL A   1      31.378  32.241  26.459  1.00  0.00     0.021 C 
BRANCH  28  29
ATOM     29  C   UNL A   1      32.503  32.775  27.337  1.00  0.00     0.116 C 
BRANCH  29  30
ATOM     30  N   UNL A   1      32.344  34.190  27.626  1.00  0.00    -0.352 N 
ATOM     31  C   UNL A   1      32.983  34.964  28.559  1.00  0.00     0.251 C 
ATOM     32  H   UNL A   1      31.683  34.661  27.070  1.00  0.00     0.163 HD
ATOM     33  O   UNL A   1      32.581  36.095  28.805  1.00  0.00    -0.269 OA
BRANCH  31  34
ATOM     34  C   UNL A   1      34.149  34.421  29.286  1.00  0.00     0.039 A 
ATOM     35  C   UNL A   1      33.939  33.801  30.521  1.00  0.00     0.014 A 
ATOM     36  C   UNL A   1      35.439  34.529  28.762  1.00  0.00     0.014 A 
ATOM     37  C   UNL A   1      35.020  33.239  31.203  1.00  0.00     0.010 A 
ATOM     38  C   UNL A   1      36.504  33.908  29.406  1.00  0.00     0.010 A 
ATOM     39  C   UNL A   1      36.305  33.259  30.635  1.00  0.00    -0.014 A 
BRANCH  39  40
ATOM     40  C   UNL A   1      37.448  32.593  31.310  1.00  0.00     0.031 A 
ATOM     41  C   UNL A   1      38.150  31.439  30.651  1.00  0.00     0.074 A 
ATOM     42  C   UNL A   1      37.811  32.995  32.544  1.00  0.00     0.049 A 
ATOM     43  N   UNL A   1      39.127  30.696  31.108  1.00  0.00    -0.248 NA
ATOM     44  C   UNL A   1      37.679  31.051  29.312  1.00  0.00     0.031 C 
ATOM     45  C   UNL A   1      37.174  34.071  33.304  1.00  0.00     0.029 A 
ATOM     46  N   UNL A   1      38.800  32.539  33.380  1.00  0.00    -0.354 N 
ATOM     47  C   UNL A   1      39.377  29.751  30.122  1.00  0.00     0.074 A 
ATOM     48  C   UNL A   1      38.420  29.982  29.062  1.00  0.00     0.031 C 
ATOM     49  C   UNL A   1      37.798  34.206  34.485  1.00  0.00     0.029 A 
ATOM     50  C   UNL A   1      38.851  33.201  34.583  1.00  0.00     0.049 A 
ATOM     51  H   UNL A   1      39.413  31.806  33.141  1.00  0.00     0.167 HD
ATOM     52  C   UNL A   1      40.334  28.794  30.096  1.00  0.00     0.037 A 
ATOM     53  C   UNL A   1      39.651  33.010  35.650  1.00  0.00     0.037 A 
ATOM     54  C   UNL A   1      41.302  28.587  31.141  1.00  0.00     0.049 A 
ATOM     55  C   UNL A   1      40.699  31.930  35.593  1.00  0.00     0.074 A 
ATOM     56  C   UNL A   1      42.352  27.688  31.177  1.00  0.00     0.029 A 
ATOM     57  N   UNL A   1      41.334  29.288  32.337  1.00  0.00    -0.354 N 
ATOM     58  N   UNL A   1      40.977  31.095  34.622  1.00  0.00    -0.248 NA
ATOM     59  C   UNL A   1      41.549  31.770  36.781  1.00  0.00     0.031 C 
ATOM     60  C   UNL A   1      42.988  27.806  32.417  1.00  0.00     0.029 A 
ATOM     61  C   UNL A   1      42.370  28.820  33.131  1.00  0.00     0.049 A 
ATOM     62  H   UNL A   1      40.713  30.011  32.586  1.00  0.00     0.167 HD
ATOM     63  C   UNL A   1      42.050  30.334  35.067  1.00  0.00     0.074 A 
ATOM     64  C   UNL A   1      42.386  30.820  36.389  1.00  0.00     0.031 C 
ATOM     65  C   UNL A   1      42.698  29.323  34.440  1.00  0.00     0.037 A 
BRANCH  52  66
ATOM     66  C   UNL A   1      40.394  27.892  28.897  1.00  0.00     0.064 A 
ATOM     67  C   UNL A   1      39.640  26.711  28.825  1.00  0.00     0.173 A 
ATOM     68  C   UNL A   1      41.158  28.250  27.775  1.00  0.00     0.173 A 
ATOM     69  F   UNL A   1      38.901  26.318  29.874  1.00  0.00    -0.203 F 
ATOM     70  C   UNL A   1      39.660  25.916  27.683  1.00  0.00     0.198 A 
ATOM     71  C   UNL A   1      41.153  27.468  26.623  1.00  0.00     0.198 A 
ATOM     72  F   UNL A   1      41.893  29.373  27.788  1.00  0.00    -0.203 F 
ATOM     73  F   UNL A   1      38.958  24.775  27.650  1.00  0.00    -0.200 F 
ATOM     74  C   UNL A   1      40.407  26.300  26.579  1.00  0.00     0.200 A 
ATOM     75  F   UNL A   1      41.864  27.850  25.553  1.00  0.00    -0.200 F 
ATOM     76  F   UNL A   1      40.411  25.544  25.474  1.00  0.00    -0.200 F 
ENDBRANCH  52  66
BRANCH  53  77
ATOM     77  C   UNL A   1      39.501  33.857  36.862  1.00  0.00     0.064 A 
ATOM     78  C   UNL A   1      38.742  33.422  37.959  1.00  0.00     0.173 A 
ATOM     79  C   UNL A   1      40.082  35.132  36.939  1.00  0.00     0.173 A 
ATOM     80  F   UNL A   1      38.149  32.220  37.926  1.00  0.00    -0.203 F 
ATOM     81  C   UNL A   1      38.543  34.242  39.068  1.00  0.00     0.198 A 
ATOM     82  C   UNL A   1      39.911  35.936  38.063  1.00  0.00     0.198 A 
ATOM     83  F   UNL A   1      40.823  35.595  35.921  1.00  0.00    -0.203 F 
ATOM     84  F   UNL A   1      37.761  33.825  40.073  1.00  0.00    -0.200 F 
ATOM     85  C   UNL A   1      39.130  35.496  39.120  1.00  0.00     0.200 A 
ATOM     86  F   UNL A   1      40.493  37.142  38.116  1.00  0.00    -0.200 F 
ATOM     87  F   UNL A   1      38.934  36.286  40.185  1.00  0.00    -0.200 F 
ENDBRANCH  53  77
BRANCH  65  88
ATOM     88  C   UNL A   1      43.861  28.701  35.156  1.00  0.00     0.064 A 
ATOM     89  C   UNL A   1      45.167  29.190  35.009  1.00  0.00     0.173 A 
ATOM     90  C   UNL A   1      43.659  27.622  36.032  1.00  0.00     0.173 A 
ATOM     91  F   UNL A   1      45.415  30.209  34.172  1.00  0.00    -0.203 F 
ATOM     92  C   UNL A   1      46.232  28.605  35.687  1.00  0.00     0.198 A 
ATOM     93  C   UNL A   1      44.721  27.061  36.735  1.00  0.00     0.198 A 
ATOM     94  F   UNL A   1      42.429  27.121  36.216  1.00  0.00    -0.203 F 
ATOM     95  F   UNL A   1      47.478  29.054  35.488  1.00  0.00    -0.200 F 
ATOM     96  C   UNL A   1      46.008  27.546  36.555  1.00  0.00     0.200 A 
ATOM     97  F   UNL A   1      44.500  26.050  37.586  1.00  0.00    -0.200 F 
ATOM     98  F   UNL A   1      47.033  26.990  37.213  1.00  0.00    -0.200 F 
ENDBRANCH  65  88
ENDBRANCH  39  40
ENDBRANCH  31  34
ENDBRANCH  29  30
ENDBRANCH  28  29
ENDBRANCH  27  28
ENDBRANCH   1  27
TORSDOF 18
ENDMDL
MODEL 3
REMARK VINA RESULT:     -11.4      0.613      7.311
REMARK SMILES CC[NH2+][C@H](CC(=O)Nc1cc(C)cc(C)c1)C(=O)NCCCCCCNC(=O)c1ccc(-c2c3nc(c(-c4c(F)c(F)c(F)c(F)c4F)c4ccc([nH]4)c(-c4c(F)c(F)c(F)c(F)c4F)c4nc(c(-c5c(F)c(F)c(F)c(F)c5F)c5ccc2[nH]5)C=C4)C=C3)cc1
REMARK SMILES IDX 22 1 21 2 20 3 19 4 17 5 18 6 4 8 3 9 2 12 1 13 5 14 6 15
REMARK SMILES IDX 7 16 8 17 9 19 10 20 16 21 11 22 14 23 12 24 13 25 15 26
REMARK SMILES IDX 23 27 24 28 25 29 26 30 27 31 28 33 29 34 30 35 91 36 31 37
REMARK SMILES IDX 90 38 32 39 33 40 34 41 84 42 35 43 89 44 83 45 85 46 36 47
REMARK SMILES IDX 88 48 82 49 81 50 37 52 69 53 49 54 68 55 50 56 53 57 67 58
REMARK SMILES IDX 86 59 51 60 52 61 66 63 87 64 54 65 38 66 39 67 47 68 40 69
REMARK SMILES IDX 41 70 45 71 48 72 42 73 43 74 46 75 44 76 70 77 71 78 79 79
REMARK SMILES IDX 72 80 73 81 77 82 80 83 74 84 75 85 78 86 76 87 55 88 56 89
REMARK SMILES IDX 64 90 57 91 58 92 62 93 65 94 59 95 60 96 63 97 61 98
REMARK H PARENT 19 7 3 10 3 11 8 18 26 32 85 51 53 62
REMARK Flexibility Score: inf
ROOT
ATOM      1  C   UNL A   1      32.380  29.907  27.107  1.00  0.00     0.002 C 
ENDROOT
BRANCH   1   2
ATOM      2  C   UNL A   1      31.778  28.559  27.499  1.00  0.00     0.021 C 
BRANCH   2   3
ATOM      3  C   UNL A   1      32.012  27.455  26.482  1.00  0.00     0.116 C 
BRANCH   3   4
ATOM      4  N   UNL A   1      30.937  27.367  25.519  1.00  0.00    -0.351 N 
ATOM      5  C   UNL A   1      30.695  26.357  24.634  1.00  0.00     0.278 C 
ATOM      6  O   UNL A   1      29.684  26.410  23.930  1.00  0.00    -0.268 OA
ATOM      7  H   UNL A   1      30.308  28.124  25.498  1.00  0.00     0.163 HD
BRANCH   5   8
ATOM      8  C   UNL A   1      31.692  25.189  24.514  1.00  0.00     0.281 C 
BRANCH   8   9
ATOM      9  N   UNL A   1      32.437  25.321  23.236  1.00  0.00    -0.336 N 
ATOM     10  H   UNL A   1      31.889  25.919  22.618  1.00  0.00     0.346 HD
ATOM     11  H   UNL A   1      33.348  25.698  23.495  1.00  0.00     0.346 HD
BRANCH   9  12
ATOM     12  C   UNL A   1      32.722  24.092  22.518  1.00  0.00     0.257 C 
ATOM     13  C   UNL A   1      34.134  23.647  22.877  1.00  0.00     0.071 C 
ENDBRANCH   9  12
ENDBRANCH   8   9
BRANCH   8  14
ATOM     14  C   UNL A   1      31.034  23.855  24.884  1.00  0.00     0.175 C 
BRANCH  14  15
ATOM     15  C   UNL A   1      31.137  23.406  26.347  1.00  0.00     0.230 C 
ATOM     16  O   UNL A   1      30.526  24.021  27.226  1.00  0.00    -0.274 OA
ATOM     17  N   UNL A   1      31.730  22.206  26.666  1.00  0.00    -0.326 N 
ATOM     18  H   UNL A   1      31.487  21.823  27.540  1.00  0.00     0.169 HD
BRANCH  17  19
ATOM     19  C   UNL A   1      32.634  21.464  25.899  1.00  0.00     0.041 A 
ATOM     20  C   UNL A   1      32.178  20.454  25.061  1.00  0.00     0.029 A 
ATOM     21  C   UNL A   1      33.996  21.741  25.958  1.00  0.00     0.029 A 
ATOM     22  C   UNL A   1      33.060  19.533  24.497  1.00  0.00    -0.049 A 
ATOM     23  C   UNL A   1      34.906  20.888  25.313  1.00  0.00    -0.049 A 
ATOM     24  C   UNL A   1      32.532  18.308  23.812  1.00  0.00     0.044 C 
ATOM     25  C   UNL A   1      34.430  19.759  24.625  1.00  0.00     0.007 A 
ATOM     26  C   UNL A   1      36.382  21.142  25.371  1.00  0.00     0.044 C 
ENDBRANCH  17  19
ENDBRANCH  14  15
ENDBRANCH   8  14
ENDBRANCH   5   8
ENDBRANCH   3   4
ENDBRANCH   2   3
ENDBRANCH   1   2
BRANCH   1  27
ATOM     27  C   UNL A   1      31.510  30.764  26.182  1.00  0.00     0.002 C 
BRANCH  27  28
ATOM     28  C   UNL A   1      31.402  32.243  26.565  1.00  0.00     0.021 C 
BRANCH  28  29
ATOM     29  C   UNL A   1      32.666  32.840  27.172  1.00  0.00     0.116 C 
BRANCH  29  30
ATOM     30  N   UNL A   1      32.461  34.204  27.626  1.00  0.00    -0.352 N 
ATOM     31  C   UNL A   1      33.044  34.867  28.675  1.00  0.00     0.251 C 
ATOM     32  H   UNL A   1      31.811  34.728  27.106  1.00  0.00     0.163 HD
ATOM     33  O   UNL A   1      32.606  35.952  29.042  1.00  0.00    -0.269 OA
BRANCH  31  34
ATOM     34  C   UNL A   1      34.193  34.260  29.378  1.00  0.00     0.039 A 
ATOM     35  C   UNL A   1      33.946  33.445  30.485  1.00  0.00     0.014 A 
ATOM     36  C   UNL A   1      35.503  34.499  28.956  1.00  0.00     0.014 A 
ATOM     37  C   UNL A   1      35.013  32.823  31.135  1.00  0.00     0.010 A 
ATOM     38  C   UNL A   1      36.560  33.824  29.560  1.00  0.00     0.010 A 
ATOM     39  C   UNL A   1      36.325  32.981  30.657  1.00  0.00    -0.014 A 
BRANCH  39  40
ATOM     40  C   UNL A   1      37.459  32.260  31.288  1.00  0.00     0.031 A 
ATOM     41  C   UNL A   1      37.937  32.651  32.659  1.00  0.00     0.074 A 
ATOM     42  C   UNL A   1      38.091  31.291  30.598  1.00  0.00     0.049 A 
ATOM     43  N   UNL A   1      38.945  32.178  33.347  1.00  0.00    -0.248 NA
ATOM     44  C   UNL A   1      37.203  33.731  33.336  1.00  0.00     0.031 C 
ATOM     45  C   UNL A   1      37.749  30.857  29.243  1.00  0.00     0.029 A 
ATOM     46  N   UNL A   1      39.162  30.502  30.938  1.00  0.00    -0.354 N 
ATOM     47  C   UNL A   1      38.972  32.908  34.528  1.00  0.00     0.074 A 
ATOM     48  C   UNL A   1      37.911  33.888  34.445  1.00  0.00     0.031 C 
ATOM     49  C   UNL A   1      38.578  29.868  28.873  1.00  0.00     0.029 A 
ATOM     50  C   UNL A   1      39.537  29.626  29.947  1.00  0.00     0.049 A 
ATOM     51  H   UNL A   1      39.619  30.558  31.808  1.00  0.00     0.167 HD
ATOM     52  C   UNL A   1      39.794  32.757  35.594  1.00  0.00     0.037 A 
ATOM     53  C   UNL A   1      40.548  28.737  29.905  1.00  0.00     0.037 A 
ATOM     54  C   UNL A   1      40.831  31.762  35.683  1.00  0.00     0.049 A 
ATOM     55  C   UNL A   1      41.450  28.601  31.103  1.00  0.00     0.074 A 
ATOM     56  C   UNL A   1      41.671  31.487  36.747  1.00  0.00     0.029 A 
ATOM     57  N   UNL A   1      41.169  30.882  34.666  1.00  0.00    -0.354 N 
ATOM     58  N   UNL A   1      41.415  29.243  32.245  1.00  0.00    -0.248 NA
ATOM     59  C   UNL A   1      42.532  27.610  31.007  1.00  0.00     0.031 C 
ATOM     60  C   UNL A   1      42.555  30.476  36.356  1.00  0.00     0.029 A 
ATOM     61  C   UNL A   1      42.227  30.081  35.069  1.00  0.00     0.049 A 
ATOM     62  H   UNL A   1      40.725  30.833  33.789  1.00  0.00     0.167 HD
ATOM     63  C   UNL A   1      42.445  28.715  33.013  1.00  0.00     0.074 A 
ATOM     64  C   UNL A   1      43.074  27.685  32.214  1.00  0.00     0.031 C 
ATOM     65  C   UNL A   1      42.835  29.052  34.265  1.00  0.00     0.037 A 
BRANCH  52  66
ATOM     66  C   UNL A   1      39.611  33.685  36.760  1.00  0.00     0.064 A 
ATOM     67  C   UNL A   1      38.784  33.352  37.843  1.00  0.00     0.173 A 
ATOM     68  C   UNL A   1      40.328  34.889  36.830  1.00  0.00     0.173 A 
ATOM     69  F   UNL A   1      38.069  32.217  37.822  1.00  0.00    -0.203 F 
ATOM     70  C   UNL A   1      38.671  34.196  38.945  1.00  0.00     0.198 A 
ATOM     71  C   UNL A   1      40.236  35.717  37.946  1.00  0.00     0.198 A 
ATOM     72  F   UNL A   1      41.138  35.254  35.824  1.00  0.00    -0.203 F 
ATOM     73  F   UNL A   1      37.849  33.873  39.953  1.00  0.00    -0.200 F 
ATOM     74  C   UNL A   1      39.405  35.371  39.000  1.00  0.00     0.200 A 
ATOM     75  F   UNL A   1      40.957  36.845  38.004  1.00  0.00    -0.200 F 
ATOM     76  F   UNL A   1      39.308  36.173  40.069  1.00  0.00    -0.200 F 
ENDBRANCH  52  66
BRANCH  53  77
ATOM     77  C   UNL A   1      40.762  27.901  28.695  1.00  0.00     0.064 A 
ATOM     78  C   UNL A   1      41.596  28.337  27.655  1.00  0.00     0.173 A 
ATOM     79  C   UNL A   1      40.115  26.667  28.535  1.00  0.00     0.173 A 
ATOM     80  F   UNL A   1      42.222  29.519  27.750  1.00  0.00    -0.203 F 
ATOM     81  C   UNL A   1      41.746  27.587  26.489  1.00  0.00     0.198 A 
ATOM     82  C   UNL A   1      40.294  25.903  27.384  1.00  0.00     0.198 A 
ATOM     83  F   UNL A   1      39.311  26.200  29.502  1.00  0.00    -0.203 F 
ATOM     84  F   UNL A   1      42.499  28.059  25.486  1.00  0.00    -0.200 F 
ATOM     85  C   UNL A   1      41.098  26.370  26.357  1.00  0.00     0.200 A 
ATOM     86  F   UNL A   1      39.677  24.718  27.267  1.00  0.00    -0.200 F 
ATOM     87  F   UNL A   1      41.238  25.652  25.234  1.00  0.00    -0.200 F 
ENDBRANCH  53  77
BRANCH  65  88
ATOM     88  C   UNL A   1      43.970  28.276  34.866  1.00  0.00     0.064 A 
ATOM     89  C   UNL A   1      45.298  28.716  34.768  1.00  0.00     0.173 A 
ATOM     90  C   UNL A   1      43.721  27.093  35.580  1.00  0.00     0.173 A 
ATOM     91  F   UNL A   1      45.591  29.831  34.083  1.00  0.00    -0.203 F 
ATOM     92  C   UNL A   1      46.338  27.986  35.338  1.00  0.00     0.198 A 
ATOM     93  C   UNL A   1      44.759  26.385  36.177  1.00  0.00     0.198 A 
ATOM     94  F   UNL A   1      42.469  26.633  35.711  1.00  0.00    -0.203 F 
ATOM     95  F   UNL A   1      47.604  28.397  35.184  1.00  0.00    -0.200 F 
ATOM     96  C   UNL A   1      46.067  26.825  36.048  1.00  0.00     0.200 A 
ATOM     97  F   UNL A   1      44.494  25.273  36.877  1.00  0.00    -0.200 F 
ATOM     98  F   UNL A   1      47.068  26.129  36.602  1.00  0.00    -0.200 F 
ENDBRANCH  65  88
ENDBRANCH  39  40
ENDBRANCH  31  34
ENDBRANCH  29  30
ENDBRANCH  28  29
ENDBRANCH  27  28
ENDBRANCH   1  27
TORSDOF 18
ENDMDL
