MODEL 1
REMARK VINA RESULT:     -12.3      0.000      0.000
REMARK SMILES O=C(NCCCCCCNC(=O)C1CCN(S(=O)(=O)c2ccc3nc(O)sc3c2)CC1)c1ccc(-c2c3nc(c(-c4c(F)c(F)c(F)c(F)c4F)c4ccc([nH]4)c(-c4c(F)c(F)c(F)c(F)c4F)c4nc(c(-c5c(F)c(F)c(F)c(F)c5F)c5ccc2[nH]5)C=C4)C=C3)cc1
REMARK SMILES IDX 7 1 6 2 5 3 4 4 3 5 1 6 2 7 32 9 33 10 94 11 34 12 93 13
REMARK SMILES IDX 35 14 36 15 37 16 87 17 38 18 92 19 86 20 88 21 39 22 91 23
REMARK SMILES IDX 85 24 84 25 40 27 72 28 52 29 71 30 53 31 56 32 70 33 89 34
REMARK SMILES IDX 54 35 55 36 69 38 90 39 57 40 41 41 42 42 50 43 43 44 44 45
REMARK SMILES IDX 48 46 51 47 45 48 46 49 49 50 47 51 73 52 74 53 82 54 75 55
REMARK SMILES IDX 76 56 80 57 83 58 77 59 78 60 81 61 79 62 58 63 59 64 67 65
REMARK SMILES IDX 60 66 61 67 65 68 68 69 62 70 63 71 66 72 64 73 8 74 9 75
REMARK SMILES IDX 10 76 11 77 12 79 13 80 14 81 31 82 15 83 30 84 16 85 17 86
REMARK SMILES IDX 18 87 19 88 20 89 21 90 29 91 22 92 28 93 23 94 27 95 24 96
REMARK SMILES IDX 25 97 26 98
REMARK H PARENT 3 8 88 26 56 37 10 78 26 99
REMARK Flexibility Score: inf
ROOT
ATOM      1  C   UNL A   1      35.074  19.846  24.938  1.00  0.00     0.002 C 
ENDROOT
BRANCH   1   2
ATOM      2  C   UNL A   1      35.981  20.954  25.481  1.00  0.00     0.002 C 
BRANCH   2   3
ATOM      3  C   UNL A   1      37.382  21.018  24.851  1.00  0.00     0.021 C 
BRANCH   3   4
ATOM      4  C   UNL A   1      38.310  22.076  25.462  1.00  0.00     0.116 C 
BRANCH   4   5
ATOM      5  N   UNL A   1      39.080  21.506  26.552  1.00  0.00    -0.352 N 
ATOM      6  O   UNL A   1      40.781  21.262  27.975  1.00  0.00    -0.269 OA
ATOM      7  C   UNL A   1      40.083  22.031  27.316  1.00  0.00     0.251 C 
ATOM      8  H   UNL A   1      38.838  20.579  26.781  1.00  0.00     0.163 HD
BRANCH   7   9
ATOM      9  C   UNL A   1      40.351  23.483  27.386  1.00  0.00     0.039 A 
ATOM     10  C   UNL A   1      41.476  23.960  26.700  1.00  0.00     0.014 A 
ATOM     11  C   UNL A   1      39.629  24.344  28.217  1.00  0.00     0.014 A 
ATOM     12  C   UNL A   1      41.870  25.289  26.833  1.00  0.00     0.010 A 
ATOM     13  C   UNL A   1      40.019  25.681  28.345  1.00  0.00     0.010 A 
ATOM     14  C   UNL A   1      41.141  26.159  27.654  1.00  0.00    -0.014 A 
BRANCH  14  15
ATOM     15  C   UNL A   1      41.568  27.568  27.709  1.00  0.00     0.031 A 
ATOM     16  C   UNL A   1      40.483  28.585  27.598  1.00  0.00     0.074 A 
ATOM     17  C   UNL A   1      42.704  27.943  28.334  1.00  0.00     0.049 A 
ATOM     18  N   UNL A   1      39.757  28.949  28.615  1.00  0.00    -0.248 NA
ATOM     19  C   UNL A   1      39.998  29.087  26.314  1.00  0.00     0.031 C 
ATOM     20  C   UNL A   1      43.278  27.230  29.480  1.00  0.00     0.029 A 
ATOM     21  N   UNL A   1      43.425  29.111  28.259  1.00  0.00    -0.354 N 
ATOM     22  C   UNL A   1      38.684  29.659  28.117  1.00  0.00     0.074 A 
ATOM     23  C   UNL A   1      38.888  29.743  26.687  1.00  0.00     0.031 C 
ATOM     24  C   UNL A   1      44.141  28.054  30.109  1.00  0.00     0.029 A 
ATOM     25  C   UNL A   1      44.306  29.274  29.324  1.00  0.00     0.049 A 
ATOM     26  H   UNL A   1      43.329  29.765  27.530  1.00  0.00     0.167 HD
ATOM     27  C   UNL A   1      37.680  30.117  28.907  1.00  0.00     0.037 A 
ATOM     28  C   UNL A   1      44.697  30.471  29.841  1.00  0.00     0.037 A 
ATOM     29  C   UNL A   1      37.810  29.837  30.306  1.00  0.00     0.049 A 
ATOM     30  C   UNL A   1      43.410  30.960  30.454  1.00  0.00     0.074 A 
ATOM     31  C   UNL A   1      37.409  28.845  31.174  1.00  0.00     0.029 A 
ATOM     32  N   UNL A   1      38.594  30.674  31.064  1.00  0.00    -0.354 N 
ATOM     33  N   UNL A   1      42.925  30.576  31.605  1.00  0.00    -0.248 NA
ATOM     34  C   UNL A   1      42.453  31.654  29.590  1.00  0.00     0.031 C 
ATOM     35  C   UNL A   1      38.334  28.894  32.263  1.00  0.00     0.029 A 
ATOM     36  C   UNL A   1      39.269  29.880  31.956  1.00  0.00     0.049 A 
ATOM     37  H   UNL A   1      38.658  31.654  30.983  1.00  0.00     0.167 HD
ATOM     38  C   UNL A   1      41.542  30.733  31.491  1.00  0.00     0.074 A 
ATOM     39  C   UNL A   1      41.322  31.443  30.249  1.00  0.00     0.031 C 
ATOM     40  C   UNL A   1      40.651  30.099  32.305  1.00  0.00     0.037 A 
BRANCH  27  41
ATOM     41  C   UNL A   1      36.559  30.954  28.449  1.00  0.00     0.064 A 
ATOM     42  C   UNL A   1      36.667  32.345  28.588  1.00  0.00     0.173 A 
ATOM     43  C   UNL A   1      35.320  30.414  28.094  1.00  0.00     0.173 A 
ATOM     44  F   UNL A   1      37.843  32.891  28.943  1.00  0.00    -0.203 F 
ATOM     45  C   UNL A   1      35.562  33.168  28.421  1.00  0.00     0.198 A 
ATOM     46  C   UNL A   1      34.213  31.244  27.919  1.00  0.00     0.198 A 
ATOM     47  F   UNL A   1      35.170  29.087  27.966  1.00  0.00    -0.203 F 
ATOM     48  F   UNL A   1      35.683  34.489  28.610  1.00  0.00    -0.200 F 
ATOM     49  C   UNL A   1      34.332  32.617  28.098  1.00  0.00     0.200 A 
ATOM     50  F   UNL A   1      33.021  30.714  27.613  1.00  0.00    -0.200 F 
ATOM     51  F   UNL A   1      33.258  33.407  27.974  1.00  0.00    -0.200 F 
ENDBRANCH  27  41
BRANCH  28  52
ATOM     52  C   UNL A   1      45.576  31.289  28.948  1.00  0.00     0.064 A 
ATOM     53  C   UNL A   1      46.931  31.455  29.317  1.00  0.00     0.173 A 
ATOM     54  C   UNL A   1      45.184  31.929  27.765  1.00  0.00     0.173 A 
ATOM     55  F   UNL A   1      47.372  30.982  30.493  1.00  0.00    -0.203 F 
ATOM     56  C   UNL A   1      47.852  32.101  28.492  1.00  0.00     0.198 A 
ATOM     57  C   UNL A   1      46.111  32.553  26.926  1.00  0.00     0.198 A 
ATOM     58  F   UNL A   1      43.900  31.959  27.386  1.00  0.00    -0.203 F 
ATOM     59  F   UNL A   1      49.134  32.199  28.869  1.00  0.00    -0.200 F 
ATOM     60  C   UNL A   1      47.447  32.623  27.279  1.00  0.00     0.200 A 
ATOM     61  F   UNL A   1      45.704  33.071  25.757  1.00  0.00    -0.200 F 
ATOM     62  F   UNL A   1      48.336  33.197  26.458  1.00  0.00    -0.200 F 
ENDBRANCH  28  52
BRANCH  40  63
ATOM     63  C   UNL A   1      41.250  29.371  33.456  1.00  0.00     0.064 A 
ATOM     64  C   UNL A   1      41.421  30.016  34.686  1.00  0.00     0.173 A 
ATOM     65  C   UNL A   1      41.632  28.025  33.353  1.00  0.00     0.173 A 
ATOM     66  F   UNL A   1      41.063  31.303  34.831  1.00  0.00    -0.203 F 
ATOM     67  C   UNL A   1      41.935  29.332  35.783  1.00  0.00     0.198 A 
ATOM     68  C   UNL A   1      42.124  27.338  34.459  1.00  0.00     0.198 A 
ATOM     69  F   UNL A   1      41.509  27.362  32.193  1.00  0.00    -0.203 F 
ATOM     70  F   UNL A   1      42.082  29.964  36.956  1.00  0.00    -0.200 F 
ATOM     71  C   UNL A   1      42.273  27.992  35.672  1.00  0.00     0.200 A 
ATOM     72  F   UNL A   1      42.434  26.038  34.355  1.00  0.00    -0.200 F 
ATOM     73  F   UNL A   1      42.732  27.324  36.740  1.00  0.00    -0.200 F 
ENDBRANCH  40  63
ENDBRANCH  14  15
ENDBRANCH   7   9
ENDBRANCH   4   5
ENDBRANCH   3   4
ENDBRANCH   2   3
ENDBRANCH   1   2
BRANCH   1  74
ATOM     74  C   UNL A   1      33.607  19.924  25.388  1.00  0.00     0.021 C 
BRANCH  74  75
ATOM     75  C   UNL A   1      32.591  19.884  24.243  1.00  0.00     0.116 C 
BRANCH  75  76
ATOM     76  N   UNL A   1      32.903  20.892  23.248  1.00  0.00    -0.356 N 
ATOM     77  C   UNL A   1      32.377  22.133  23.064  1.00  0.00     0.223 C 
ATOM     78  H   UNL A   1      33.604  20.639  22.606  1.00  0.00     0.163 HD
ATOM     79  O   UNL A   1      32.617  22.694  21.996  1.00  0.00    -0.275 OA
BRANCH  77  80
ATOM     80  C   UNL A   1      31.618  22.820  24.197  1.00  0.00     0.081 C 
ATOM     81  C   UNL A   1      30.615  23.857  23.692  1.00  0.00     0.030 C 
ATOM     82  C   UNL A   1      32.610  23.494  25.145  1.00  0.00     0.030 C 
ATOM     83  C   UNL A   1      31.263  25.108  23.111  1.00  0.00     0.103 C 
ATOM     84  C   UNL A   1      33.276  24.714  24.509  1.00  0.00     0.103 C 
ATOM     85  N   UNL A   1      32.263  25.714  24.051  1.00  0.00    -0.198 NA
BRANCH  85  86
ATOM     86  S   UNL A   1      32.958  27.125  23.313  1.00  0.00     0.243 S 
ATOM     87  O   UNL A   1      34.145  27.490  24.066  1.00  0.00    -0.207 OA
ATOM     88  O   UNL A   1      33.030  26.886  21.890  1.00  0.00    -0.207 OA
BRANCH  86  89
ATOM     89  C   UNL A   1      31.757  28.416  23.571  1.00  0.00     0.084 A 
ATOM     90  C   UNL A   1      31.818  29.188  24.732  1.00  0.00     0.024 A 
ATOM     91  C   UNL A   1      30.863  28.726  22.537  1.00  0.00     0.043 A 
ATOM     92  C   UNL A   1      30.932  30.254  24.915  1.00  0.00     0.031 A 
ATOM     93  C   UNL A   1      30.006  29.825  22.723  1.00  0.00     0.059 A 
ATOM     94  C   UNL A   1      30.016  30.586  23.896  1.00  0.00     0.085 A 
ATOM     95  S   UNL A   1      28.832  30.483  21.645  1.00  0.00    -0.077 S 
ATOM     96  N   UNL A   1      29.108  31.633  23.935  1.00  0.00    -0.203 NA
ATOM     97  C   UNL A   1      28.454  31.662  22.805  1.00  0.00     0.271 A 
BRANCH  97  98
ATOM     98  O   UNL A   1      27.540  32.593  22.619  1.00  0.00    -0.486 OA
ATOM     99  H   UNL A   1      27.497  33.329  23.196  1.00  0.00     0.296 HD
ENDBRANCH  97  98
ENDBRANCH  86  89
ENDBRANCH  85  86
ENDBRANCH  77  80
ENDBRANCH  75  76
ENDBRANCH  74  75
ENDBRANCH   1  74
TORSDOF 16
ENDMDL
MODEL 2
REMARK VINA RESULT:     -11.7      6.433     10.132
REMARK SMILES O=C(NCCCCCCNC(=O)C1CCN(S(=O)(=O)c2ccc3nc(O)sc3c2)CC1)c1ccc(-c2c3nc(c(-c4c(F)c(F)c(F)c(F)c4F)c4ccc([nH]4)c(-c4c(F)c(F)c(F)c(F)c4F)c4nc(c(-c5c(F)c(F)c(F)c(F)c5F)c5ccc2[nH]5)C=C4)C=C3)cc1
REMARK SMILES IDX 7 1 6 2 5 3 4 4 3 5 1 6 2 7 32 9 33 10 94 11 34 12 93 13
REMARK SMILES IDX 35 14 36 15 37 16 87 17 38 18 92 19 86 20 88 21 39 22 91 23
REMARK SMILES IDX 85 24 84 25 40 27 72 28 52 29 71 30 53 31 56 32 70 33 89 34
REMARK SMILES IDX 54 35 55 36 69 38 90 39 57 40 41 41 42 42 50 43 43 44 44 45
REMARK SMILES IDX 48 46 51 47 45 48 46 49 49 50 47 51 73 52 74 53 82 54 75 55
REMARK SMILES IDX 76 56 80 57 83 58 77 59 78 60 81 61 79 62 58 63 59 64 67 65
REMARK SMILES IDX 60 66 61 67 65 68 68 69 62 70 63 71 66 72 64 73 8 74 9 75
REMARK SMILES IDX 10 76 11 77 12 79 13 80 14 81 31 82 15 83 30 84 16 85 17 86
REMARK SMILES IDX 18 87 19 88 20 89 21 90 29 91 22 92 28 93 23 94 27 95 24 96
REMARK SMILES IDX 25 97 26 98
REMARK H PARENT 3 8 88 26 56 37 10 78 26 99
REMARK Flexibility Score: inf
ROOT
ATOM      1  C   UNL A   1      44.684  24.434  34.626  1.00  0.00     0.002 C 
ENDROOT
BRANCH   1   2
ATOM      2  C   UNL A   1      43.156  24.459  34.532  1.00  0.00     0.002 C 
BRANCH   2   3
ATOM      3  C   UNL A   1      42.420  23.715  35.659  1.00  0.00     0.021 C 
BRANCH   3   4
ATOM      4  C   UNL A   1      41.398  24.564  36.425  1.00  0.00     0.116 C 
BRANCH   4   5
ATOM      5  N   UNL A   1      42.042  25.268  37.519  1.00  0.00    -0.352 N 
ATOM      6  O   UNL A   1      43.472  26.649  38.531  1.00  0.00    -0.269 OA
ATOM      7  C   UNL A   1      42.786  26.413  37.537  1.00  0.00     0.251 C 
ATOM      8  H   UNL A   1      41.920  24.848  38.401  1.00  0.00     0.163 HD
BRANCH   7   9
ATOM      9  C   UNL A   1      42.790  27.377  36.417  1.00  0.00     0.039 A 
ATOM     10  C   UNL A   1      44.036  27.740  35.889  1.00  0.00     0.014 A 
ATOM     11  C   UNL A   1      41.635  28.036  35.985  1.00  0.00     0.014 A 
ATOM     12  C   UNL A   1      44.127  28.744  34.928  1.00  0.00     0.010 A 
ATOM     13  C   UNL A   1      41.725  29.038  35.014  1.00  0.00     0.010 A 
ATOM     14  C   UNL A   1      42.971  29.397  34.482  1.00  0.00    -0.014 A 
BRANCH  14  15
ATOM     15  C   UNL A   1      43.122  30.409  33.421  1.00  0.00     0.031 A 
ATOM     16  C   UNL A   1      42.828  29.949  32.033  1.00  0.00     0.074 A 
ATOM     17  C   UNL A   1      42.996  31.728  33.674  1.00  0.00     0.049 A 
ATOM     18  N   UNL A   1      41.619  29.885  31.557  1.00  0.00    -0.248 NA
ATOM     19  C   UNL A   1      43.836  29.326  31.178  1.00  0.00     0.031 C 
ATOM     20  C   UNL A   1      42.144  32.278  34.735  1.00  0.00     0.029 A 
ATOM     21  N   UNL A   1      43.373  32.823  32.933  1.00  0.00    -0.354 N 
ATOM     22  C   UNL A   1      41.680  29.157  30.386  1.00  0.00     0.074 A 
ATOM     23  C   UNL A   1      43.078  28.853  30.175  1.00  0.00     0.031 C 
ATOM     24  C   UNL A   1      41.921  33.582  34.471  1.00  0.00     0.029 A 
ATOM     25  C   UNL A   1      42.738  33.995  33.334  1.00  0.00     0.049 A 
ATOM     26  H   UNL A   1      44.025  32.784  32.196  1.00  0.00     0.167 HD
ATOM     27  C   UNL A   1      40.573  28.829  29.671  1.00  0.00     0.037 A 
ATOM     28  C   UNL A   1      42.443  35.044  32.519  1.00  0.00     0.037 A 
ATOM     29  C   UNL A   1      39.329  29.304  30.195  1.00  0.00     0.049 A 
ATOM     30  C   UNL A   1      41.392  34.437  31.627  1.00  0.00     0.074 A 
ATOM     31  C   UNL A   1      38.348  28.833  31.041  1.00  0.00     0.029 A 
ATOM     32  N   UNL A   1      38.955  30.596  29.906  1.00  0.00    -0.354 N 
ATOM     33  N   UNL A   1      40.134  34.275  31.940  1.00  0.00    -0.248 NA
ATOM     34  C   UNL A   1      41.835  33.665  30.463  1.00  0.00     0.031 C 
ATOM     35  C   UNL A   1      37.705  29.997  31.565  1.00  0.00     0.029 A 
ATOM     36  C   UNL A   1      38.375  31.100  31.042  1.00  0.00     0.049 A 
ATOM     37  H   UNL A   1      39.079  31.067  29.050  1.00  0.00     0.167 HD
ATOM     38  C   UNL A   1      39.706  33.178  31.188  1.00  0.00     0.074 A 
ATOM     39  C   UNL A   1      40.783  32.881  30.268  1.00  0.00     0.031 C 
ATOM     40  C   UNL A   1      38.595  32.451  31.497  1.00  0.00     0.037 A 
BRANCH  27  41
ATOM     41  C   UNL A   1      40.582  28.134  28.373  1.00  0.00     0.064 A 
ATOM     42  C   UNL A   1      40.116  26.813  28.322  1.00  0.00     0.173 A 
ATOM     43  C   UNL A   1      41.236  28.654  27.253  1.00  0.00     0.173 A 
ATOM     44  F   UNL A   1      39.496  26.282  29.390  1.00  0.00    -0.203 F 
ATOM     45  C   UNL A   1      40.334  26.021  27.203  1.00  0.00     0.198 A 
ATOM     46  C   UNL A   1      41.447  27.858  26.127  1.00  0.00     0.198 A 
ATOM     47  F   UNL A   1      41.712  29.908  27.266  1.00  0.00    -0.203 F 
ATOM     48  F   UNL A   1      39.921  24.746  27.201  1.00  0.00    -0.200 F 
ATOM     49  C   UNL A   1      41.009  26.540  26.110  1.00  0.00     0.200 A 
ATOM     50  F   UNL A   1      42.105  28.355  25.071  1.00  0.00    -0.200 F 
ATOM     51  F   UNL A   1      41.253  25.764  25.045  1.00  0.00    -0.200 F 
ENDBRANCH  27  41
BRANCH  28  52
ATOM     52  C   UNL A   1      43.628  35.817  32.029  1.00  0.00     0.064 A 
ATOM     53  C   UNL A   1      43.862  37.098  32.581  1.00  0.00     0.173 A 
ATOM     54  C   UNL A   1      44.541  35.397  31.054  1.00  0.00     0.173 A 
ATOM     55  F   UNL A   1      42.976  37.637  33.433  1.00  0.00    -0.203 F 
ATOM     56  C   UNL A   1      45.001  37.843  32.273  1.00  0.00     0.198 A 
ATOM     57  C   UNL A   1      45.696  36.130  30.765  1.00  0.00     0.198 A 
ATOM     58  F   UNL A   1      44.348  34.266  30.364  1.00  0.00    -0.203 F 
ATOM     59  F   UNL A   1      45.196  39.036  32.851  1.00  0.00    -0.200 F 
ATOM     60  C   UNL A   1      45.935  37.343  31.388  1.00  0.00     0.200 A 
ATOM     61  F   UNL A   1      46.590  35.643  29.891  1.00  0.00    -0.200 F 
ATOM     62  F   UNL A   1      47.058  38.027  31.129  1.00  0.00    -0.200 F 
ENDBRANCH  28  52
BRANCH  40  63
ATOM     63  C   UNL A   1      37.748  33.017  32.582  1.00  0.00     0.064 A 
ATOM     64  C   UNL A   1      36.702  33.895  32.275  1.00  0.00     0.173 A 
ATOM     65  C   UNL A   1      37.952  32.671  33.926  1.00  0.00     0.173 A 
ATOM     66  F   UNL A   1      36.468  34.249  31.000  1.00  0.00    -0.203 F 
ATOM     67  C   UNL A   1      35.874  34.392  33.275  1.00  0.00     0.198 A 
ATOM     68  C   UNL A   1      37.107  33.151  34.921  1.00  0.00     0.198 A 
ATOM     69  F   UNL A   1      38.951  31.848  34.280  1.00  0.00    -0.203 F 
ATOM     70  F   UNL A   1      34.871  35.225  32.961  1.00  0.00    -0.200 F 
ATOM     71  C   UNL A   1      36.069  34.010  34.594  1.00  0.00     0.200 A 
ATOM     72  F   UNL A   1      37.284  32.767  36.193  1.00  0.00    -0.200 F 
ATOM     73  F   UNL A   1      35.245  34.460  35.552  1.00  0.00    -0.200 F 
ENDBRANCH  40  63
ENDBRANCH  14  15
ENDBRANCH   7   9
ENDBRANCH   4   5
ENDBRANCH   3   4
ENDBRANCH   2   3
ENDBRANCH   1   2
BRANCH   1  74
ATOM     74  C   UNL A   1      45.422  24.542  33.282  1.00  0.00     0.021 C 
BRANCH  74  75
ATOM     75  C   UNL A   1      45.039  25.768  32.448  1.00  0.00     0.116 C 
BRANCH  75  76
ATOM     76  N   UNL A   1      44.238  25.376  31.303  1.00  0.00    -0.356 N 
ATOM     77  C   UNL A   1      44.402  25.654  29.982  1.00  0.00     0.223 C 
ATOM     78  H   UNL A   1      43.453  24.822  31.517  1.00  0.00     0.163 HD
ATOM     79  O   UNL A   1      43.449  25.433  29.237  1.00  0.00    -0.275 OA
BRANCH  77  80
ATOM     80  C   UNL A   1      45.760  26.118  29.459  1.00  0.00     0.081 C 
ATOM     81  C   UNL A   1      45.639  27.129  28.320  1.00  0.00     0.030 C 
ATOM     82  C   UNL A   1      46.566  24.909  28.983  1.00  0.00     0.030 C 
ATOM     83  C   UNL A   1      45.127  26.527  27.015  1.00  0.00     0.103 C 
ATOM     84  C   UNL A   1      45.992  24.305  27.701  1.00  0.00     0.103 C 
ATOM     85  N   UNL A   1      45.914  25.318  26.605  1.00  0.00    -0.198 NA
BRANCH  85  86
ATOM     86  S   UNL A   1      45.264  24.693  25.119  1.00  0.00     0.243 S 
ATOM     87  O   UNL A   1      44.303  25.655  24.608  1.00  0.00    -0.207 OA
ATOM     88  O   UNL A   1      46.373  24.252  24.306  1.00  0.00    -0.207 OA
BRANCH  86  89
ATOM     89  C   UNL A   1      44.348  23.241  25.595  1.00  0.00     0.084 A 
ATOM     90  C   UNL A   1      43.108  23.384  26.220  1.00  0.00     0.024 A 
ATOM     91  C   UNL A   1      44.822  21.981  25.202  1.00  0.00     0.043 A 
ATOM     92  C   UNL A   1      42.341  22.257  26.530  1.00  0.00     0.031 A 
ATOM     93  C   UNL A   1      44.020  20.863  25.488  1.00  0.00     0.059 A 
ATOM     94  C   UNL A   1      42.796  20.976  26.154  1.00  0.00     0.085 A 
ATOM     95  S   UNL A   1      44.294  19.202  25.111  1.00  0.00    -0.077 S 
ATOM     96  N   UNL A   1      42.122  19.784  26.371  1.00  0.00    -0.203 NA
ATOM     97  C   UNL A   1      42.822  18.809  25.856  1.00  0.00     0.271 A 
BRANCH  97  98
ATOM     98  O   UNL A   1      42.359  17.578  25.938  1.00  0.00    -0.486 OA
ATOM     99  H   UNL A   1      41.541  17.357  25.541  1.00  0.00     0.296 HD
ENDBRANCH  97  98
ENDBRANCH  86  89
ENDBRANCH  85  86
ENDBRANCH  77  80
ENDBRANCH  75  76
ENDBRANCH  74  75
ENDBRANCH   1  74
TORSDOF 16
ENDMDL
MODEL 3
REMARK VINA RESULT:     -11.6      5.783     10.955
REMARK SMILES O=C(NCCCCCCNC(=O)C1CCN(S(=O)(=O)c2ccc3nc(O)sc3c2)CC1)c1ccc(-c2c3nc(c(-c4c(F)c(F)c(F)c(F)c4F)c4ccc([nH]4)c(-c4c(F)c(F)c(F)c(F)c4F)c4nc(c(-c5c(F)c(F)c(F)c(F)c5F)c5ccc2[nH]5)C=C4)C=C3)cc1
REMARK SMILES IDX 7 1 6 2 5 3 4 4 3 5 1 6 2 7 32 9 33 10 94 11 34 12 93 13
REMARK SMILES IDX 35 14 36 15 37 16 87 17 38 18 92 19 86 20 88 21 39 22 91 23
REMARK SMILES IDX 85 24 84 25 40 27 72 28 52 29 71 30 53 31 56 32 70 33 89 34
REMARK SMILES IDX 54 35 55 36 69 38 90 39 57 40 41 41 42 42 50 43 43 44 44 45
REMARK SMILES IDX 48 46 51 47 45 48 46 49 49 50 47 51 73 52 74 53 82 54 75 55
REMARK SMILES IDX 76 56 80 57 83 58 77 59 78 60 81 61 79 62 58 63 59 64 67 65
REMARK SMILES IDX 60 66 61 67 65 68 68 69 62 70 63 71 66 72 64 73 8 74 9 75
REMARK SMILES IDX 10 76 11 77 12 79 13 80 14 81 31 82 15 83 30 84 16 85 17 86
REMARK SMILES IDX 18 87 19 88 20 89 21 90 29 91 22 92 28 93 23 94 27 95 24 96
REMARK SMILES IDX 25 97 26 98
REMARK H PARENT 3 8 88 26 56 37 10 78 26 99
REMARK Flexibility Score: inf
ROOT
ATOM      1  C   UNL A   1      48.605  34.648  27.923  1.00  0.00     0.002 C 
ENDROOT
BRANCH   1   2
ATOM      2  C   UNL A   1      47.277  35.366  28.184  1.00  0.00     0.002 C 
BRANCH   2   3
ATOM      3  C   UNL A   1      47.010  36.590  27.293  1.00  0.00     0.021 C 
BRANCH   3   4
ATOM      4  C   UNL A   1      45.610  37.198  27.445  1.00  0.00     0.116 C 
BRANCH   4   5
ATOM      5  N   UNL A   1      44.730  36.714  26.398  1.00  0.00    -0.352 N 
ATOM      6  O   UNL A   1      43.450  35.271  25.276  1.00  0.00    -0.269 OA
ATOM      7  C   UNL A   1      43.863  35.660  26.368  1.00  0.00     0.251 C 
ATOM      8  H   UNL A   1      44.763  37.237  25.564  1.00  0.00     0.163 HD
BRANCH   7   9
ATOM      9  C   UNL A   1      43.397  34.979  27.595  1.00  0.00     0.039 A 
ATOM     10  C   UNL A   1      43.947  33.722  27.877  1.00  0.00     0.014 A 
ATOM     11  C   UNL A   1      42.343  35.466  28.374  1.00  0.00     0.014 A 
ATOM     12  C   UNL A   1      43.457  32.962  28.936  1.00  0.00     0.010 A 
ATOM     13  C   UNL A   1      41.857  34.707  29.443  1.00  0.00     0.010 A 
ATOM     14  C   UNL A   1      42.411  33.451  29.728  1.00  0.00    -0.014 A 
BRANCH  14  15
ATOM     15  C   UNL A   1      41.975  32.631  30.872  1.00  0.00     0.031 A 
ATOM     16  C   UNL A   1      40.557  32.806  31.300  1.00  0.00     0.074 A 
ATOM     17  C   UNL A   1      42.569  31.458  31.173  1.00  0.00     0.049 A 
ATOM     18  N   UNL A   1      39.568  32.199  30.712  1.00  0.00    -0.248 NA
ATOM     19  C   UNL A   1      40.141  33.834  32.252  1.00  0.00     0.031 C 
ATOM     20  C   UNL A   1      43.201  30.584  30.178  1.00  0.00     0.029 A 
ATOM     21  N   UNL A   1      42.530  30.700  32.320  1.00  0.00    -0.354 N 
ATOM     22  C   UNL A   1      38.404  32.799  31.149  1.00  0.00     0.074 A 
ATOM     23  C   UNL A   1      38.805  33.790  32.124  1.00  0.00     0.031 C 
ATOM     24  C   UNL A   1      43.327  29.351  30.709  1.00  0.00     0.029 A 
ATOM     25  C   UNL A   1      42.947  29.388  32.119  1.00  0.00     0.049 A 
ATOM     26  H   UNL A   1      42.236  31.049  33.193  1.00  0.00     0.167 HD
ATOM     27  C   UNL A   1      37.181  32.460  30.666  1.00  0.00     0.037 A 
ATOM     28  C   UNL A   1      42.506  28.310  32.822  1.00  0.00     0.037 A 
ATOM     29  C   UNL A   1      37.165  31.418  29.684  1.00  0.00     0.049 A 
ATOM     30  C   UNL A   1      41.072  28.229  32.369  1.00  0.00     0.074 A 
ATOM     31  C   UNL A   1      37.212  31.332  28.310  1.00  0.00     0.029 A 
ATOM     32  N   UNL A   1      37.194  30.115  30.121  1.00  0.00    -0.354 N 
ATOM     33  N   UNL A   1      40.661  27.711  31.242  1.00  0.00    -0.248 NA
ATOM     34  C   UNL A   1      40.084  29.068  33.050  1.00  0.00     0.031 C 
ATOM     35  C   UNL A   1      37.722  30.027  28.027  1.00  0.00     0.029 A 
ATOM     36  C   UNL A   1      38.002  29.427  29.252  1.00  0.00     0.049 A 
ATOM     37  H   UNL A   1      36.725  29.747  30.906  1.00  0.00     0.167 HD
ATOM     38  C   UNL A   1      39.474  28.381  30.941  1.00  0.00     0.074 A 
ATOM     39  C   UNL A   1      39.150  29.166  32.113  1.00  0.00     0.031 C 
ATOM     40  C   UNL A   1      38.937  28.419  29.688  1.00  0.00     0.037 A 
BRANCH  27  41
ATOM     41  C   UNL A   1      35.901  32.999  31.156  1.00  0.00     0.064 A 
ATOM     42  C   UNL A   1      35.266  33.995  30.400  1.00  0.00     0.173 A 
ATOM     43  C   UNL A   1      35.416  32.722  32.437  1.00  0.00     0.173 A 
ATOM     44  F   UNL A   1      35.720  34.293  29.171  1.00  0.00    -0.203 F 
ATOM     45  C   UNL A   1      34.206  34.723  30.924  1.00  0.00     0.198 A 
ATOM     46  C   UNL A   1      34.346  33.450  32.957  1.00  0.00     0.198 A 
ATOM     47  F   UNL A   1      36.005  31.789  33.199  1.00  0.00    -0.203 F 
ATOM     48  F   UNL A   1      33.651  35.703  30.199  1.00  0.00    -0.200 F 
ATOM     49  C   UNL A   1      33.754  34.458  32.207  1.00  0.00     0.200 A 
ATOM     50  F   UNL A   1      33.910  33.201  34.200  1.00  0.00    -0.200 F 
ATOM     51  F   UNL A   1      32.756  35.186  32.726  1.00  0.00    -0.200 F 
ENDBRANCH  27  41
BRANCH  28  52
ATOM     52  C   UNL A   1      42.948  28.263  34.252  1.00  0.00     0.064 A 
ATOM     53  C   UNL A   1      43.612  27.101  34.707  1.00  0.00     0.173 A 
ATOM     54  C   UNL A   1      42.759  29.271  35.207  1.00  0.00     0.173 A 
ATOM     55  F   UNL A   1      43.733  26.035  33.900  1.00  0.00    -0.203 F 
ATOM     56  C   UNL A   1      44.162  27.012  35.986  1.00  0.00     0.198 A 
ATOM     57  C   UNL A   1      43.333  29.193  36.479  1.00  0.00     0.198 A 
ATOM     58  F   UNL A   1      42.026  30.357  34.933  1.00  0.00    -0.203 F 
ATOM     59  F   UNL A   1      44.815  25.902  36.358  1.00  0.00    -0.200 F 
ATOM     60  C   UNL A   1      44.049  28.073  36.862  1.00  0.00     0.200 A 
ATOM     61  F   UNL A   1      43.203  30.223  37.329  1.00  0.00    -0.200 F 
ATOM     62  F   UNL A   1      44.621  28.017  38.073  1.00  0.00    -0.200 F 
ENDBRANCH  28  52
BRANCH  40  63
ATOM     63  C   UNL A   1      39.596  27.535  28.689  1.00  0.00     0.064 A 
ATOM     64  C   UNL A   1      39.356  26.157  28.700  1.00  0.00     0.173 A 
ATOM     65  C   UNL A   1      40.446  28.054  27.700  1.00  0.00     0.173 A 
ATOM     66  F   UNL A   1      38.545  25.618  29.625  1.00  0.00    -0.203 F 
ATOM     67  C   UNL A   1      39.928  25.328  27.741  1.00  0.00     0.198 A 
ATOM     68  C   UNL A   1      40.997  27.225  26.729  1.00  0.00     0.198 A 
ATOM     69  F   UNL A   1      40.726  29.366  27.654  1.00  0.00    -0.203 F 
ATOM     70  F   UNL A   1      39.679  24.010  27.761  1.00  0.00    -0.200 F 
ATOM     71  C   UNL A   1      40.737  25.864  26.750  1.00  0.00     0.200 A 
ATOM     72  F   UNL A   1      41.764  27.747  25.760  1.00  0.00    -0.200 F 
ATOM     73  F   UNL A   1      41.256  25.068  25.803  1.00  0.00    -0.200 F 
ENDBRANCH  40  63
ENDBRANCH  14  15
ENDBRANCH   7   9
ENDBRANCH   4   5
ENDBRANCH   3   4
ENDBRANCH   2   3
ENDBRANCH   1   2
BRANCH   1  74
ATOM     74  C   UNL A   1      48.485  33.150  27.604  1.00  0.00     0.021 C 
BRANCH  74  75
ATOM     75  C   UNL A   1      47.056  32.602  27.669  1.00  0.00     0.116 C 
BRANCH  75  76
ATOM     76  N   UNL A   1      46.744  31.848  26.470  1.00  0.00    -0.356 N 
ATOM     77  C   UNL A   1      46.382  30.545  26.324  1.00  0.00     0.223 C 
ATOM     78  H   UNL A   1      46.804  32.359  25.632  1.00  0.00     0.163 HD
ATOM     79  O   UNL A   1      46.429  30.071  25.190  1.00  0.00    -0.275 OA
BRANCH  77  80
ATOM     80  C   UNL A   1      45.841  29.761  27.517  1.00  0.00     0.081 C 
ATOM     81  C   UNL A   1      46.875  28.810  28.117  1.00  0.00     0.030 C 
ATOM     82  C   UNL A   1      44.607  28.965  27.091  1.00  0.00     0.030 C 
ATOM     83  C   UNL A   1      47.197  27.612  27.232  1.00  0.00     0.103 C 
ATOM     84  C   UNL A   1      44.965  27.802  26.164  1.00  0.00     0.103 C 
ATOM     85  N   UNL A   1      45.959  26.884  26.796  1.00  0.00    -0.198 NA
BRANCH  85  86
ATOM     86  S   UNL A   1      46.412  25.542  25.789  1.00  0.00     0.243 S 
ATOM     87  O   UNL A   1      46.466  26.009  24.415  1.00  0.00    -0.207 OA
ATOM     88  O   UNL A   1      47.555  24.902  26.398  1.00  0.00    -0.207 OA
BRANCH  86  89
ATOM     89  C   UNL A   1      45.047  24.403  25.902  1.00  0.00     0.084 A 
ATOM     90  C   UNL A   1      44.648  23.694  24.768  1.00  0.00     0.024 A 
ATOM     91  C   UNL A   1      44.493  24.133  27.161  1.00  0.00     0.043 A 
ATOM     92  C   UNL A   1      43.630  22.740  24.856  1.00  0.00     0.031 A 
ATOM     93  C   UNL A   1      43.497  23.144  27.237  1.00  0.00     0.059 A 
ATOM     94  C   UNL A   1      43.048  22.451  26.108  1.00  0.00     0.085 A 
ATOM     95  S   UNL A   1      42.651  22.556  28.620  1.00  0.00    -0.077 S 
ATOM     96  N   UNL A   1      42.056  21.511  26.340  1.00  0.00    -0.203 NA
ATOM     97  C   UNL A   1      41.791  21.490  27.618  1.00  0.00     0.271 A 
BRANCH  97  98
ATOM     98  O   UNL A   1      40.878  20.652  28.069  1.00  0.00    -0.486 OA
ATOM     99  H   UNL A   1      40.757  20.543  28.990  1.00  0.00     0.296 HD
ENDBRANCH  97  98
ENDBRANCH  86  89
ENDBRANCH  85  86
ENDBRANCH  77  80
ENDBRANCH  75  76
ENDBRANCH  74  75
ENDBRANCH   1  74
TORSDOF 16
ENDMDL
