MODEL 1
REMARK VINA RESULT:     -11.6      0.000      0.000
REMARK SMILES CC(C)[NH2+]CCCC(=O)N1Cc2nc[nH]c2C[C@@H]1C(=O)NCCCCCCNC(=O)c1ccc(-c2c3nc(c(-c4c(F)c(F)c(F)c(F)c4F)c4ccc([nH]4)c(-c4c(F)c(F)c(F)c(F)c4F)c4nc(c(-c5c(F)c(F)c(F)c(F)c5F)c5ccc2[nH]5)C=C4)C=C3)cc1
REMARK SMILES IDX 22 1 21 2 19 3 20 4 18 6 10 7 11 8 12 9 17 10 13 11 16 12
REMARK SMILES IDX 14 13 15 14 8 16 9 17 7 18 6 19 5 20 4 21 2 24 1 25 3 26
REMARK SMILES IDX 23 27 24 28 25 29 26 30 27 31 28 32 29 33 30 35 31 36 32 37
REMARK SMILES IDX 93 38 33 39 92 40 34 41 35 42 36 43 86 44 37 45 91 46 85 47
REMARK SMILES IDX 87 48 38 49 90 50 84 51 83 52 39 54 71 55 51 56 70 57 52 58
REMARK SMILES IDX 55 59 69 60 88 61 53 62 54 63 68 65 89 66 56 67 40 68 41 69
REMARK SMILES IDX 49 70 42 71 43 72 47 73 50 74 44 75 45 76 48 77 46 78 72 79
REMARK SMILES IDX 73 80 81 81 74 82 75 83 79 84 82 85 76 86 77 87 80 88 78 89
REMARK SMILES IDX 57 90 58 91 66 92 59 93 60 94 64 95 67 96 61 97 62 98 65 99
REMARK SMILES IDX 63 100
REMARK H PARENT 21 5 15 15 4 22 4 23 28 34 87 53 55 64
REMARK Flexibility Score: inf
ROOT
ATOM      1  C   UNL A   1      37.845  23.521  26.062  1.00  0.00     0.116 C 
ENDROOT
BRANCH   1   2
ATOM      2  N   UNL A   1      37.581  23.109  24.687  1.00  0.00    -0.354 N 
ATOM      3  C   UNL A   1      36.466  23.247  23.899  1.00  0.00     0.243 C 
ATOM      4  O   UNL A   1      36.562  22.940  22.709  1.00  0.00    -0.273 OA
ATOM      5  H   UNL A   1      38.334  22.649  24.250  1.00  0.00     0.163 HD
BRANCH   3   6
ATOM      6  C   UNL A   1      35.172  23.829  24.489  1.00  0.00     0.180 C 
ATOM      7  N   UNL A   1      34.315  22.997  25.417  1.00  0.00    -0.324 N 
ATOM      8  C   UNL A   1      33.075  23.626  25.938  1.00  0.00     0.178 C 
ATOM      9  C   UNL A   1      32.541  24.644  24.989  1.00  0.00     0.081 A 
ATOM     10  C   UNL A   1      34.379  24.395  23.278  1.00  0.00     0.091 C 
ATOM     11  N   UNL A   1      31.434  25.422  25.208  1.00  0.00    -0.240 NA
ATOM     12  C   UNL A   1      33.133  24.990  23.798  1.00  0.00     0.042 A 
ATOM     13  C   UNL A   1      31.345  26.201  24.150  1.00  0.00     0.197 A 
ATOM     14  N   UNL A   1      32.363  25.974  23.260  1.00  0.00    -0.348 N 
ATOM     15  H   UNL A   1      32.507  26.433  22.401  1.00  0.00     0.167 HD
BRANCH   7  16
ATOM     16  C   UNL A   1      34.420  21.635  25.633  1.00  0.00     0.223 C 
ATOM     17  O   UNL A   1      35.185  21.196  26.500  1.00  0.00    -0.275 OA
BRANCH  16  18
ATOM     18  C   UNL A   1      33.984  20.671  24.515  1.00  0.00     0.106 C 
BRANCH  18  19
ATOM     19  C   UNL A   1      32.583  20.096  24.464  1.00  0.00     0.071 C 
BRANCH  19  20
ATOM     20  C   UNL A   1      32.512  18.581  24.578  1.00  0.00     0.261 C 
BRANCH  20  21
ATOM     21  N   UNL A   1      33.536  17.889  25.337  1.00  0.00    -0.344 N 
ATOM     22  H   UNL A   1      34.352  18.496  25.411  1.00  0.00     0.346 HD
ATOM     23  H   UNL A   1      33.141  17.670  26.252  1.00  0.00     0.346 HD
BRANCH  21  24
ATOM     24  C   UNL A   1      33.947  16.628  24.724  1.00  0.00     0.176 C 
ATOM     25  C   UNL A   1      34.024  16.837  23.216  1.00  0.00     0.075 C 
ATOM     26  C   UNL A   1      35.261  16.136  25.318  1.00  0.00     0.075 C 
ENDBRANCH  21  24
ENDBRANCH  20  21
ENDBRANCH  19  20
ENDBRANCH  18  19
ENDBRANCH  16  18
ENDBRANCH   7  16
ENDBRANCH   3   6
ENDBRANCH   1   2
BRANCH   1  27
ATOM     27  C   UNL A   1      39.297  23.334  26.522  1.00  0.00     0.021 C 
BRANCH  27  28
ATOM     28  C   UNL A   1      39.798  21.881  26.557  1.00  0.00     0.002 C 
BRANCH  28  29
ATOM     29  C   UNL A   1      40.830  21.565  27.645  1.00  0.00     0.002 C 
BRANCH  29  30
ATOM     30  C   UNL A   1      41.744  20.366  27.364  1.00  0.00     0.021 C 
BRANCH  30  31
ATOM     31  C   UNL A   1      41.854  20.013  25.888  1.00  0.00     0.116 C 
BRANCH  31  32
ATOM     32  N   UNL A   1      43.235  19.786  25.470  1.00  0.00    -0.352 N 
ATOM     33  C   UNL A   1      44.174  20.738  25.116  1.00  0.00     0.251 C 
ATOM     34  H   UNL A   1      43.532  18.848  25.438  1.00  0.00     0.163 HD
ATOM     35  O   UNL A   1      45.124  20.458  24.407  1.00  0.00    -0.269 OA
BRANCH  33  36
ATOM     36  C   UNL A   1      44.013  22.106  25.641  1.00  0.00     0.039 A 
ATOM     37  C   UNL A   1      43.128  23.015  25.051  1.00  0.00     0.014 A 
ATOM     38  C   UNL A   1      44.786  22.475  26.740  1.00  0.00     0.014 A 
ATOM     39  C   UNL A   1      42.999  24.283  25.612  1.00  0.00     0.010 A 
ATOM     40  C   UNL A   1      44.547  23.661  27.381  1.00  0.00     0.010 A 
ATOM     41  C   UNL A   1      43.711  24.595  26.782  1.00  0.00    -0.014 A 
BRANCH  41  42
ATOM     42  C   UNL A   1      43.498  25.856  27.480  1.00  0.00     0.031 A 
ATOM     43  C   UNL A   1      44.446  26.929  27.074  1.00  0.00     0.074 A 
ATOM     44  C   UNL A   1      42.398  26.095  28.229  1.00  0.00     0.049 A 
ATOM     45  N   UNL A   1      45.324  27.527  27.809  1.00  0.00    -0.248 NA
ATOM     46  C   UNL A   1      44.529  27.279  25.644  1.00  0.00     0.031 C 
ATOM     47  C   UNL A   1      41.231  25.231  28.440  1.00  0.00     0.029 A 
ATOM     48  N   UNL A   1      42.039  27.230  28.890  1.00  0.00    -0.354 N 
ATOM     49  C   UNL A   1      45.925  28.476  26.987  1.00  0.00     0.074 A 
ATOM     50  C   UNL A   1      45.541  28.148  25.640  1.00  0.00     0.031 C 
ATOM     51  C   UNL A   1      40.214  25.954  28.962  1.00  0.00     0.029 A 
ATOM     52  C   UNL A   1      40.702  27.281  29.279  1.00  0.00     0.049 A 
ATOM     53  H   UNL A   1      42.674  27.958  29.076  1.00  0.00     0.167 HD
ATOM     54  C   UNL A   1      46.460  29.611  27.516  1.00  0.00     0.037 A 
ATOM     55  C   UNL A   1      40.052  28.360  29.787  1.00  0.00     0.037 A 
ATOM     56  C   UNL A   1      46.730  29.445  28.924  1.00  0.00     0.049 A 
ATOM     57  C   UNL A   1      41.092  29.303  30.274  1.00  0.00     0.074 A 
ATOM     58  C   UNL A   1      47.490  28.555  29.662  1.00  0.00     0.029 A 
ATOM     59  N   UNL A   1      45.859  30.009  29.825  1.00  0.00    -0.354 N 
ATOM     60  N   UNL A   1      41.867  29.061  31.294  1.00  0.00    -0.248 NA
ATOM     61  C   UNL A   1      41.587  30.289  29.326  1.00  0.00     0.031 C 
ATOM     62  C   UNL A   1      46.695  28.257  30.810  1.00  0.00     0.029 A 
ATOM     63  C   UNL A   1      45.546  29.045  30.749  1.00  0.00     0.049 A 
ATOM     64  H   UNL A   1      45.522  30.934  29.809  1.00  0.00     0.167 HD
ATOM     65  C   UNL A   1      43.116  29.511  30.896  1.00  0.00     0.074 A 
ATOM     66  C   UNL A   1      42.870  30.312  29.697  1.00  0.00     0.031 C 
ATOM     67  C   UNL A   1      44.258  28.951  31.391  1.00  0.00     0.037 A 
BRANCH  54  68
ATOM     68  C   UNL A   1      46.353  30.972  26.864  1.00  0.00     0.064 A 
ATOM     69  C   UNL A   1      47.491  31.803  26.830  1.00  0.00     0.173 A 
ATOM     70  C   UNL A   1      45.130  31.610  26.553  1.00  0.00     0.173 A 
ATOM     71  F   UNL A   1      48.704  31.313  27.126  1.00  0.00    -0.203 F 
ATOM     72  C   UNL A   1      47.396  33.178  26.592  1.00  0.00     0.198 A 
ATOM     73  C   UNL A   1      45.049  32.970  26.262  1.00  0.00     0.198 A 
ATOM     74  F   UNL A   1      43.952  30.982  26.627  1.00  0.00    -0.203 F 
ATOM     75  F   UNL A   1      48.487  33.947  26.705  1.00  0.00    -0.200 F 
ATOM     76  C   UNL A   1      46.174  33.761  26.314  1.00  0.00     0.200 A 
ATOM     77  F   UNL A   1      43.850  33.518  26.015  1.00  0.00    -0.200 F 
ATOM     78  F   UNL A   1      46.072  35.086  26.150  1.00  0.00    -0.200 F 
ENDBRANCH  54  68
BRANCH  55  79
ATOM     79  C   UNL A   1      38.647  28.798  29.579  1.00  0.00     0.064 A 
ATOM     80  C   UNL A   1      37.820  29.095  30.678  1.00  0.00     0.173 A 
ATOM     81  C   UNL A   1      38.191  29.234  28.321  1.00  0.00     0.173 A 
ATOM     82  F   UNL A   1      38.196  28.749  31.917  1.00  0.00    -0.203 F 
ATOM     83  C   UNL A   1      36.637  29.829  30.533  1.00  0.00     0.198 A 
ATOM     84  C   UNL A   1      37.006  29.960  28.177  1.00  0.00     0.198 A 
ATOM     85  F   UNL A   1      38.933  29.054  27.219  1.00  0.00    -0.203 F 
ATOM     86  F   UNL A   1      35.917  30.158  31.615  1.00  0.00    -0.200 F 
ATOM     87  C   UNL A   1      36.239  30.274  29.284  1.00  0.00     0.200 A 
ATOM     88  F   UNL A   1      36.649  30.415  26.967  1.00  0.00    -0.200 F 
ATOM     89  F   UNL A   1      35.147  31.039  29.153  1.00  0.00    -0.200 F 
ENDBRANCH  55  79
BRANCH  67  90
ATOM     90  C   UNL A   1      44.134  28.006  32.556  1.00  0.00     0.064 A 
ATOM     91  C   UNL A   1      44.004  26.610  32.441  1.00  0.00     0.173 A 
ATOM     92  C   UNL A   1      44.279  28.529  33.848  1.00  0.00     0.173 A 
ATOM     93  F   UNL A   1      43.963  26.016  31.242  1.00  0.00    -0.203 F 
ATOM     94  C   UNL A   1      43.970  25.788  33.568  1.00  0.00     0.198 A 
ATOM     95  C   UNL A   1      44.285  27.704  34.968  1.00  0.00     0.198 A 
ATOM     96  F   UNL A   1      44.462  29.847  34.021  1.00  0.00    -0.203 F 
ATOM     97  F   UNL A   1      43.827  24.461  33.429  1.00  0.00    -0.200 F 
ATOM     98  C   UNL A   1      44.117  26.336  34.831  1.00  0.00     0.200 A 
ATOM     99  F   UNL A   1      44.477  28.234  36.184  1.00  0.00    -0.200 F 
ATOM    100  F   UNL A   1      44.121  25.544  35.912  1.00  0.00    -0.200 F 
ENDBRANCH  67  90
ENDBRANCH  41  42
ENDBRANCH  33  36
ENDBRANCH  31  32
ENDBRANCH  30  31
ENDBRANCH  29  30
ENDBRANCH  28  29
ENDBRANCH  27  28
ENDBRANCH   1  27
TORSDOF 19
ENDMDL
MODEL 2
REMARK VINA RESULT:     -11.3      2.847      4.872
REMARK SMILES CC(C)[NH2+]CCCC(=O)N1Cc2nc[nH]c2C[C@@H]1C(=O)NCCCCCCNC(=O)c1ccc(-c2c3nc(c(-c4c(F)c(F)c(F)c(F)c4F)c4ccc([nH]4)c(-c4c(F)c(F)c(F)c(F)c4F)c4nc(c(-c5c(F)c(F)c(F)c(F)c5F)c5ccc2[nH]5)C=C4)C=C3)cc1
REMARK SMILES IDX 22 1 21 2 19 3 20 4 18 6 10 7 11 8 12 9 17 10 13 11 16 12
REMARK SMILES IDX 14 13 15 14 8 16 9 17 7 18 6 19 5 20 4 21 2 24 1 25 3 26
REMARK SMILES IDX 23 27 24 28 25 29 26 30 27 31 28 32 29 33 30 35 31 36 32 37
REMARK SMILES IDX 93 38 33 39 92 40 34 41 35 42 36 43 86 44 37 45 91 46 85 47
REMARK SMILES IDX 87 48 38 49 90 50 84 51 83 52 39 54 71 55 51 56 70 57 52 58
REMARK SMILES IDX 55 59 69 60 88 61 53 62 54 63 68 65 89 66 56 67 40 68 41 69
REMARK SMILES IDX 49 70 42 71 43 72 47 73 50 74 44 75 45 76 48 77 46 78 72 79
REMARK SMILES IDX 73 80 81 81 74 82 75 83 79 84 82 85 76 86 77 87 80 88 78 89
REMARK SMILES IDX 57 90 58 91 66 92 59 93 60 94 64 95 67 96 61 97 62 98 65 99
REMARK SMILES IDX 63 100
REMARK H PARENT 21 5 15 15 4 22 4 23 28 34 87 53 55 64
REMARK Flexibility Score: inf
ROOT
ATOM      1  C   UNL A   1      33.903  23.198  23.417  1.00  0.00     0.116 C 
ENDROOT
BRANCH   1   2
ATOM      2  N   UNL A   1      33.738  24.281  22.453  1.00  0.00    -0.354 N 
ATOM      3  C   UNL A   1      33.529  25.626  22.630  1.00  0.00     0.243 C 
ATOM      4  O   UNL A   1      33.576  26.350  21.634  1.00  0.00    -0.273 OA
ATOM      5  H   UNL A   1      33.782  23.997  21.511  1.00  0.00     0.163 HD
BRANCH   3   6
ATOM      6  C   UNL A   1      33.310  26.193  24.042  1.00  0.00     0.180 C 
ATOM      7  N   UNL A   1      31.957  26.086  24.707  1.00  0.00    -0.324 N 
ATOM      8  C   UNL A   1      31.822  26.666  26.066  1.00  0.00     0.178 C 
ATOM      9  C   UNL A   1      32.769  27.799  26.270  1.00  0.00     0.081 A 
ATOM     10  C   UNL A   1      33.847  27.652  23.993  1.00  0.00     0.091 C 
ATOM     11  N   UNL A   1      32.912  28.507  27.435  1.00  0.00    -0.240 NA
ATOM     12  C   UNL A   1      33.681  28.234  25.338  1.00  0.00     0.042 A 
ATOM     13  C   UNL A   1      33.872  29.376  27.195  1.00  0.00     0.197 A 
ATOM     14  N   UNL A   1      34.374  29.247  25.925  1.00  0.00    -0.348 N 
ATOM     15  H   UNL A   1      35.094  29.782  25.520  1.00  0.00     0.167 HD
BRANCH   7  16
ATOM     16  C   UNL A   1      30.766  25.737  24.095  1.00  0.00     0.223 C 
ATOM     17  O   UNL A   1      30.678  24.685  23.450  1.00  0.00    -0.275 OA
BRANCH  16  18
ATOM     18  C   UNL A   1      29.732  26.839  23.802  1.00  0.00     0.106 C 
BRANCH  18  19
ATOM     19  C   UNL A   1      30.027  27.967  22.834  1.00  0.00     0.071 C 
BRANCH  19  20
ATOM     20  C   UNL A   1      30.572  29.232  23.476  1.00  0.00     0.261 C 
BRANCH  20  21
ATOM     21  N   UNL A   1      29.895  30.491  23.226  1.00  0.00    -0.344 N 
ATOM     22  H   UNL A   1      29.770  30.975  24.114  1.00  0.00     0.346 HD
ATOM     23  H   UNL A   1      30.476  31.025  22.579  1.00  0.00     0.346 HD
BRANCH  21  24
ATOM     24  C   UNL A   1      28.586  30.320  22.599  1.00  0.00     0.176 C 
ATOM     25  C   UNL A   1      27.534  30.915  23.528  1.00  0.00     0.075 C 
ATOM     26  C   UNL A   1      28.562  30.941  21.208  1.00  0.00     0.075 C 
ENDBRANCH  21  24
ENDBRANCH  20  21
ENDBRANCH  19  20
ENDBRANCH  18  19
ENDBRANCH  16  18
ENDBRANCH   7  16
ENDBRANCH   3   6
ENDBRANCH   1   2
BRANCH   1  27
ATOM     27  C   UNL A   1      35.353  22.935  23.846  1.00  0.00     0.021 C 
BRANCH  27  28
ATOM     28  C   UNL A   1      35.713  23.381  25.272  1.00  0.00     0.002 C 
BRANCH  28  29
ATOM     29  C   UNL A   1      37.187  23.731  25.503  1.00  0.00     0.002 C 
BRANCH  29  30
ATOM     30  C   UNL A   1      38.159  22.544  25.498  1.00  0.00     0.021 C 
BRANCH  30  31
ATOM     31  C   UNL A   1      39.146  22.558  26.656  1.00  0.00     0.116 C 
BRANCH  31  32
ATOM     32  N   UNL A   1      40.497  22.186  26.241  1.00  0.00    -0.352 N 
ATOM     33  C   UNL A   1      41.547  23.034  25.939  1.00  0.00     0.251 C 
ATOM     34  H   UNL A   1      40.681  21.222  26.171  1.00  0.00     0.163 HD
ATOM     35  O   UNL A   1      42.468  22.674  25.228  1.00  0.00    -0.269 OA
BRANCH  33  36
ATOM     36  C   UNL A   1      41.542  24.388  26.522  1.00  0.00     0.039 A 
ATOM     37  C   UNL A   1      40.857  25.443  25.911  1.00  0.00     0.014 A 
ATOM     38  C   UNL A   1      42.258  24.591  27.700  1.00  0.00     0.014 A 
ATOM     39  C   UNL A   1      40.864  26.692  26.528  1.00  0.00     0.010 A 
ATOM     40  C   UNL A   1      42.138  25.772  28.383  1.00  0.00     0.010 A 
ATOM     41  C   UNL A   1      41.506  26.844  27.768  1.00  0.00    -0.014 A 
BRANCH  41  42
ATOM     42  C   UNL A   1      41.417  28.094  28.513  1.00  0.00     0.031 A 
ATOM     43  C   UNL A   1      42.490  29.068  28.173  1.00  0.00     0.074 A 
ATOM     44  C   UNL A   1      40.332  28.426  29.248  1.00  0.00     0.049 A 
ATOM     45  N   UNL A   1      43.410  29.533  28.950  1.00  0.00    -0.248 NA
ATOM     46  C   UNL A   1      42.648  29.462  26.760  1.00  0.00     0.031 C 
ATOM     47  C   UNL A   1      39.070  27.691  29.398  1.00  0.00     0.029 A 
ATOM     48  N   UNL A   1      40.086  29.567  29.948  1.00  0.00    -0.354 N 
ATOM     49  C   UNL A   1      44.135  30.440  28.181  1.00  0.00     0.074 A 
ATOM     50  C   UNL A   1      43.751  30.210  26.814  1.00  0.00     0.031 C 
ATOM     51  C   UNL A   1      38.128  28.504  29.929  1.00  0.00     0.029 A 
ATOM     52  C   UNL A   1      38.753  29.754  30.311  1.00  0.00     0.049 A 
ATOM     53  H   UNL A   1      40.794  30.211  30.178  1.00  0.00     0.167 HD
ATOM     54  C   UNL A   1      44.780  31.485  28.768  1.00  0.00     0.037 A 
ATOM     55  C   UNL A   1      38.216  30.879  30.849  1.00  0.00     0.037 A 
ATOM     56  C   UNL A   1      44.993  31.235  30.173  1.00  0.00     0.049 A 
ATOM     57  C   UNL A   1      39.342  31.679  31.397  1.00  0.00     0.074 A 
ATOM     58  C   UNL A   1      45.629  30.237  30.890  1.00  0.00     0.029 A 
ATOM     59  N   UNL A   1      44.168  31.858  31.078  1.00  0.00    -0.354 N 
ATOM     60  N   UNL A   1      40.058  31.311  32.422  1.00  0.00    -0.248 NA
ATOM     61  C   UNL A   1      39.969  32.638  30.501  1.00  0.00     0.031 C 
ATOM     62  C   UNL A   1      44.777  29.986  32.007  1.00  0.00     0.029 A 
ATOM     63  C   UNL A   1      43.726  30.901  31.955  1.00  0.00     0.049 A 
ATOM     64  H   UNL A   1      43.937  32.816  31.094  1.00  0.00     0.167 HD
ATOM     65  C   UNL A   1      41.360  31.632  32.070  1.00  0.00     0.074 A 
ATOM     66  C   UNL A   1      41.236  32.502  30.901  1.00  0.00     0.031 C 
ATOM     67  C   UNL A   1      42.419  30.928  32.565  1.00  0.00     0.037 A 
BRANCH  54  68
ATOM     68  C   UNL A   1      44.842  32.874  28.172  1.00  0.00     0.064 A 
ATOM     69  C   UNL A   1      46.097  33.404  27.808  1.00  0.00     0.173 A 
ATOM     70  C   UNL A   1      43.785  33.811  28.225  1.00  0.00     0.173 A 
ATOM     71  F   UNL A   1      47.179  32.614  27.742  1.00  0.00    -0.203 F 
ATOM     72  C   UNL A   1      46.290  34.774  27.604  1.00  0.00     0.198 A 
ATOM     73  C   UNL A   1      43.972  35.167  27.966  1.00  0.00     0.198 A 
ATOM     74  F   UNL A   1      42.556  33.485  28.639  1.00  0.00    -0.203 F 
ATOM     75  F   UNL A   1      47.527  35.245  27.394  1.00  0.00    -0.200 F 
ATOM     76  C   UNL A   1      45.229  35.655  27.689  1.00  0.00     0.200 A 
ATOM     77  F   UNL A   1      42.931  36.006  28.075  1.00  0.00    -0.200 F 
ATOM     78  F   UNL A   1      45.423  36.973  27.558  1.00  0.00    -0.200 F 
ENDBRANCH  54  68
BRANCH  55  79
ATOM     79  C   UNL A   1      36.875  31.481  30.630  1.00  0.00     0.064 A 
ATOM     80  C   UNL A   1      36.004  31.701  31.714  1.00  0.00     0.173 A 
ATOM     81  C   UNL A   1      36.549  32.134  29.427  1.00  0.00     0.173 A 
ATOM     82  F   UNL A   1      36.258  31.146  32.906  1.00  0.00    -0.203 F 
ATOM     83  C   UNL A   1      34.905  32.562  31.612  1.00  0.00     0.198 A 
ATOM     84  C   UNL A   1      35.448  32.988  29.326  1.00  0.00     0.198 A 
ATOM     85  F   UNL A   1      37.346  32.038  28.353  1.00  0.00    -0.203 F 
ATOM     86  F   UNL A   1      34.145  32.806  32.689  1.00  0.00    -0.200 F 
ATOM     87  C   UNL A   1      34.638  33.217  30.423  1.00  0.00     0.200 A 
ATOM     88  F   UNL A   1      35.219  33.644  28.178  1.00  0.00    -0.200 F 
ATOM     89  F   UNL A   1      33.631  34.099  30.345  1.00  0.00    -0.200 F 
ENDBRANCH  55  79
BRANCH  67  90
ATOM     90  C   UNL A   1      42.160  29.958  33.686  1.00  0.00     0.064 A 
ATOM     91  C   UNL A   1      41.758  28.622  33.510  1.00  0.00     0.173 A 
ATOM     92  C   UNL A   1      42.454  30.368  34.994  1.00  0.00     0.173 A 
ATOM     93  F   UNL A   1      41.555  28.117  32.286  1.00  0.00    -0.203 F 
ATOM     94  C   UNL A   1      41.610  27.758  34.595  1.00  0.00     0.198 A 
ATOM     95  C   UNL A   1      42.344  29.493  36.071  1.00  0.00     0.198 A 
ATOM     96  F   UNL A   1      42.895  31.615  35.223  1.00  0.00    -0.203 F 
ATOM     97  F   UNL A   1      41.206  26.492  34.398  1.00  0.00    -0.200 F 
ATOM     98  C   UNL A   1      41.909  28.193  35.874  1.00  0.00     0.200 A 
ATOM     99  F   UNL A   1      42.683  29.906  37.300  1.00  0.00    -0.200 F 
ATOM    100  F   UNL A   1      41.802  27.354  36.914  1.00  0.00    -0.200 F 
ENDBRANCH  67  90
ENDBRANCH  41  42
ENDBRANCH  33  36
ENDBRANCH  31  32
ENDBRANCH  30  31
ENDBRANCH  29  30
ENDBRANCH  28  29
ENDBRANCH  27  28
ENDBRANCH   1  27
TORSDOF 19
ENDMDL
MODEL 3
REMARK VINA RESULT:     -11.1      1.939      6.449
REMARK SMILES CC(C)[NH2+]CCCC(=O)N1Cc2nc[nH]c2C[C@@H]1C(=O)NCCCCCCNC(=O)c1ccc(-c2c3nc(c(-c4c(F)c(F)c(F)c(F)c4F)c4ccc([nH]4)c(-c4c(F)c(F)c(F)c(F)c4F)c4nc(c(-c5c(F)c(F)c(F)c(F)c5F)c5ccc2[nH]5)C=C4)C=C3)cc1
REMARK SMILES IDX 22 1 21 2 19 3 20 4 18 6 10 7 11 8 12 9 17 10 13 11 16 12
REMARK SMILES IDX 14 13 15 14 8 16 9 17 7 18 6 19 5 20 4 21 2 24 1 25 3 26
REMARK SMILES IDX 23 27 24 28 25 29 26 30 27 31 28 32 29 33 30 35 31 36 32 37
REMARK SMILES IDX 93 38 33 39 92 40 34 41 35 42 36 43 86 44 37 45 91 46 85 47
REMARK SMILES IDX 87 48 38 49 90 50 84 51 83 52 39 54 71 55 51 56 70 57 52 58
REMARK SMILES IDX 55 59 69 60 88 61 53 62 54 63 68 65 89 66 56 67 40 68 41 69
REMARK SMILES IDX 49 70 42 71 43 72 47 73 50 74 44 75 45 76 48 77 46 78 72 79
REMARK SMILES IDX 73 80 81 81 74 82 75 83 79 84 82 85 76 86 77 87 80 88 78 89
REMARK SMILES IDX 57 90 58 91 66 92 59 93 60 94 64 95 67 96 61 97 62 98 65 99
REMARK SMILES IDX 63 100
REMARK H PARENT 21 5 15 15 4 22 4 23 28 34 87 53 55 64
REMARK Flexibility Score: inf
ROOT
ATOM      1  C   UNL A   1      35.881  22.995  25.338  1.00  0.00     0.116 C 
ENDROOT
BRANCH   1   2
ATOM      2  N   UNL A   1      35.397  23.539  24.073  1.00  0.00    -0.354 N 
ATOM      3  C   UNL A   1      34.447  24.492  23.802  1.00  0.00     0.243 C 
ATOM      4  O   UNL A   1      34.337  24.877  22.637  1.00  0.00    -0.273 OA
ATOM      5  H   UNL A   1      35.826  23.153  23.275  1.00  0.00     0.163 HD
BRANCH   3   6
ATOM      6  C   UNL A   1      33.605  25.087  24.941  1.00  0.00     0.180 C 
ATOM      7  N   UNL A   1      32.324  24.412  25.378  1.00  0.00    -0.324 N 
ATOM      8  C   UNL A   1      31.562  25.053  26.479  1.00  0.00     0.178 C 
ATOM      9  C   UNL A   1      31.786  26.527  26.509  1.00  0.00     0.081 A 
ATOM     10  C   UNL A   1      33.405  26.584  24.573  1.00  0.00     0.091 C 
ATOM     11  N   UNL A   1      31.255  27.387  27.434  1.00  0.00    -0.240 NA
ATOM     12  C   UNL A   1      32.619  27.209  25.654  1.00  0.00     0.042 A 
ATOM     13  C   UNL A   1      31.735  28.572  27.121  1.00  0.00     0.197 A 
ATOM     14  N   UNL A   1      32.576  28.514  26.039  1.00  0.00    -0.348 N 
ATOM     15  H   UNL A   1      33.054  29.268  25.623  1.00  0.00     0.167 HD
BRANCH   7  16
ATOM     16  C   UNL A   1      31.651  23.410  24.702  1.00  0.00     0.223 C 
ATOM     17  O   UNL A   1      30.598  23.658  24.102  1.00  0.00    -0.275 OA
BRANCH  16  18
ATOM     18  C   UNL A   1      31.924  21.945  25.085  1.00  0.00     0.106 C 
BRANCH  18  19
ATOM     19  C   UNL A   1      32.731  21.027  24.190  1.00  0.00     0.071 C 
BRANCH  19  20
ATOM     20  C   UNL A   1      32.636  19.550  24.541  1.00  0.00     0.261 C 
BRANCH  20  21
ATOM     21  N   UNL A   1      32.445  18.589  23.470  1.00  0.00    -0.344 N 
ATOM     22  H   UNL A   1      31.470  18.623  23.175  1.00  0.00     0.346 HD
ATOM     23  H   UNL A   1      33.081  18.844  22.715  1.00  0.00     0.346 HD
BRANCH  21  24
ATOM     24  C   UNL A   1      32.765  17.220  23.869  1.00  0.00     0.176 C 
ATOM     25  C   UNL A   1      34.107  16.847  23.249  1.00  0.00     0.075 C 
ATOM     26  C   UNL A   1      32.757  17.078  25.385  1.00  0.00     0.075 C 
ENDBRANCH  21  24
ENDBRANCH  20  21
ENDBRANCH  19  20
ENDBRANCH  18  19
ENDBRANCH  16  18
ENDBRANCH   7  16
ENDBRANCH   3   6
ENDBRANCH   1   2
BRANCH   1  27
ATOM     27  C   UNL A   1      37.333  23.355  25.678  1.00  0.00     0.021 C 
BRANCH  27  28
ATOM     28  C   UNL A   1      38.337  22.194  25.609  1.00  0.00     0.002 C 
BRANCH  28  29
ATOM     29  C   UNL A   1      37.764  20.852  25.139  1.00  0.00     0.002 C 
BRANCH  29  30
ATOM     30  C   UNL A   1      38.784  19.722  24.956  1.00  0.00     0.021 C 
BRANCH  30  31
ATOM     31  C   UNL A   1      39.669  19.494  26.173  1.00  0.00     0.116 C 
BRANCH  31  32
ATOM     32  N   UNL A   1      40.965  18.920  25.820  1.00  0.00    -0.352 N 
ATOM     33  C   UNL A   1      42.164  19.590  25.652  1.00  0.00     0.251 C 
ATOM     34  H   UNL A   1      40.989  17.945  25.688  1.00  0.00     0.163 HD
ATOM     35  O   UNL A   1      43.063  19.121  24.977  1.00  0.00    -0.269 OA
BRANCH  33  36
ATOM     36  C   UNL A   1      42.342  20.884  26.336  1.00  0.00     0.039 A 
ATOM     37  C   UNL A   1      42.631  22.052  25.623  1.00  0.00     0.014 A 
ATOM     38  C   UNL A   1      42.230  20.906  27.724  1.00  0.00     0.014 A 
ATOM     39  C   UNL A   1      42.758  23.249  26.323  1.00  0.00     0.010 A 
ATOM     40  C   UNL A   1      42.201  22.101  28.393  1.00  0.00     0.010 A 
ATOM     41  C   UNL A   1      42.536  23.263  27.710  1.00  0.00    -0.014 A 
BRANCH  41  42
ATOM     42  C   UNL A   1      42.520  24.514  28.458  1.00  0.00     0.031 A 
ATOM     43  C   UNL A   1      41.279  25.312  28.256  1.00  0.00     0.074 A 
ATOM     44  C   UNL A   1      43.422  24.796  29.424  1.00  0.00     0.049 A 
ATOM     45  N   UNL A   1      41.172  26.487  27.731  1.00  0.00    -0.248 NA
ATOM     46  C   UNL A   1      39.984  24.666  28.538  1.00  0.00     0.031 C 
ATOM     47  C   UNL A   1      44.501  23.945  29.943  1.00  0.00     0.029 A 
ATOM     48  N   UNL A   1      43.501  25.887  30.234  1.00  0.00    -0.354 N 
ATOM     49  C   UNL A   1      39.823  26.818  27.809  1.00  0.00     0.074 A 
ATOM     50  C   UNL A   1      39.125  25.601  28.128  1.00  0.00     0.031 C 
ATOM     51  C   UNL A   1      44.954  24.444  31.115  1.00  0.00     0.029 A 
ATOM     52  C   UNL A   1      44.324  25.729  31.347  1.00  0.00     0.049 A 
ATOM     53  H   UNL A   1      43.013  26.721  30.048  1.00  0.00     0.167 HD
ATOM     54  C   UNL A   1      39.432  28.120  27.877  1.00  0.00     0.037 A 
ATOM     55  C   UNL A   1      44.435  26.588  32.394  1.00  0.00     0.037 A 
ATOM     56  C   UNL A   1      40.472  28.995  27.394  1.00  0.00     0.049 A 
ATOM     57  C   UNL A   1      43.900  27.897  31.940  1.00  0.00     0.074 A 
ATOM     58  C   UNL A   1      41.165  29.103  26.201  1.00  0.00     0.029 A 
ATOM     59  N   UNL A   1      41.231  29.675  28.314  1.00  0.00    -0.354 N 
ATOM     60  N   UNL A   1      44.475  28.638  31.035  1.00  0.00    -0.248 NA
ATOM     61  C   UNL A   1      42.479  28.137  32.143  1.00  0.00     0.031 C 
ATOM     62  C   UNL A   1      42.515  29.368  26.583  1.00  0.00     0.029 A 
ATOM     63  C   UNL A   1      42.548  29.496  27.972  1.00  0.00     0.049 A 
ATOM     64  H   UNL A   1      40.894  30.195  29.080  1.00  0.00     0.167 HD
ATOM     65  C   UNL A   1      43.430  29.109  30.256  1.00  0.00     0.074 A 
ATOM     66  C   UNL A   1      42.219  28.816  31.022  1.00  0.00     0.031 C 
ATOM     67  C   UNL A   1      43.615  29.416  28.938  1.00  0.00     0.037 A 
BRANCH  54  68
ATOM     68  C   UNL A   1      38.297  28.611  28.749  1.00  0.00     0.064 A 
ATOM     69  C   UNL A   1      37.412  29.580  28.234  1.00  0.00     0.173 A 
ATOM     70  C   UNL A   1      38.222  28.407  30.146  1.00  0.00     0.173 A 
ATOM     71  F   UNL A   1      37.405  29.872  26.925  1.00  0.00    -0.203 F 
ATOM     72  C   UNL A   1      36.586  30.343  29.065  1.00  0.00     0.198 A 
ATOM     73  C   UNL A   1      37.357  29.132  30.962  1.00  0.00     0.198 A 
ATOM     74  F   UNL A   1      39.053  27.589  30.799  1.00  0.00    -0.203 F 
ATOM     75  F   UNL A   1      35.863  31.344  28.543  1.00  0.00    -0.200 F 
ATOM     76  C   UNL A   1      36.564  30.123  30.429  1.00  0.00     0.200 A 
ATOM     77  F   UNL A   1      37.367  28.915  32.286  1.00  0.00    -0.200 F 
ATOM     78  F   UNL A   1      35.822  30.896  31.234  1.00  0.00    -0.200 F 
ENDBRANCH  54  68
BRANCH  55  79
ATOM     79  C   UNL A   1      44.638  26.293  33.837  1.00  0.00     0.064 A 
ATOM     80  C   UNL A   1      45.473  27.109  34.623  1.00  0.00     0.173 A 
ATOM     81  C   UNL A   1      43.787  25.417  34.536  1.00  0.00     0.173 A 
ATOM     82  F   UNL A   1      46.289  27.998  34.040  1.00  0.00    -0.203 F 
ATOM     83  C   UNL A   1      45.421  27.085  36.021  1.00  0.00     0.198 A 
ATOM     84  C   UNL A   1      43.741  25.391  35.932  1.00  0.00     0.198 A 
ATOM     85  F   UNL A   1      42.910  24.641  33.883  1.00  0.00    -0.203 F 
ATOM     86  F   UNL A   1      46.177  27.934  36.733  1.00  0.00    -0.200 F 
ATOM     87  C   UNL A   1      44.544  26.237  36.674  1.00  0.00     0.200 A 
ATOM     88  F   UNL A   1      42.863  24.589  36.553  1.00  0.00    -0.200 F 
ATOM     89  F   UNL A   1      44.440  26.266  38.010  1.00  0.00    -0.200 F 
ENDBRANCH  55  79
BRANCH  67  90
ATOM     90  C   UNL A   1      45.025  29.465  28.416  1.00  0.00     0.064 A 
ATOM     91  C   UNL A   1      45.709  28.369  27.859  1.00  0.00     0.173 A 
ATOM     92  C   UNL A   1      45.666  30.710  28.364  1.00  0.00     0.173 A 
ATOM     93  F   UNL A   1      45.132  27.164  27.774  1.00  0.00    -0.203 F 
ATOM     94  C   UNL A   1      46.991  28.508  27.325  1.00  0.00     0.198 A 
ATOM     95  C   UNL A   1      46.928  30.854  27.795  1.00  0.00     0.198 A 
ATOM     96  F   UNL A   1      45.044  31.804  28.830  1.00  0.00    -0.203 F 
ATOM     97  F   UNL A   1      47.627  27.441  26.817  1.00  0.00    -0.200 F 
ATOM     98  C   UNL A   1      47.596  29.752  27.288  1.00  0.00     0.200 A 
ATOM     99  F   UNL A   1      47.488  32.069  27.717  1.00  0.00    -0.200 F 
ATOM    100  F   UNL A   1      48.812  29.894  26.742  1.00  0.00    -0.200 F 
ENDBRANCH  67  90
ENDBRANCH  41  42
ENDBRANCH  33  36
ENDBRANCH  31  32
ENDBRANCH  30  31
ENDBRANCH  29  30
ENDBRANCH  28  29
ENDBRANCH  27  28
ENDBRANCH   1  27
TORSDOF 19
ENDMDL
