MODEL 1
REMARK VINA RESULT:     -11.7      0.000      0.000
REMARK SMILES O=C(NCCCCCCNC(=O)c1ccc(C[NH2+]C[C@H]2C[C@H](O)C2)nc1)c1ccc(-c2c3nc(c(-c4c(F)c(F)c(F)c(F)c4F)c4ccc([nH]4)c(-c4c(F)c(F)c(F)c(F)c4F)c4nc(c(-c5c(F)c(F)c(F)c(F)c5F)c5ccc2[nH]5)C=C4)C=C3)cc1
REMARK SMILES IDX 8 1 7 2 6 3 5 4 4 5 3 6 1 7 2 8 27 10 28 11 89 12 29 13
REMARK SMILES IDX 88 14 30 15 31 16 32 17 82 18 33 19 87 20 81 21 83 22 34 23
REMARK SMILES IDX 86 24 80 25 79 26 35 28 67 29 47 30 66 31 48 32 51 33 65 34
REMARK SMILES IDX 84 35 49 36 50 37 64 39 85 40 52 41 36 42 37 43 45 44 38 45
REMARK SMILES IDX 39 46 43 47 46 48 40 49 41 50 44 51 42 52 68 53 69 54 77 55
REMARK SMILES IDX 70 56 71 57 75 58 78 59 72 60 73 61 76 62 74 63 53 64 54 65
REMARK SMILES IDX 62 66 55 67 56 68 60 69 63 70 57 71 58 72 61 73 59 74 9 75
REMARK SMILES IDX 10 76 11 77 12 79 13 80 14 81 26 82 15 83 25 84 16 85 17 86
REMARK SMILES IDX 18 87 19 90 20 91 24 92 21 93 22 94 23 95
REMARK H PARENT 3 9 83 27 51 38 10 78 18 88 18 89 23 96
REMARK Flexibility Score: inf
ROOT
ATOM      1  C   UNL A   1      32.955  29.178  25.029  1.00  0.00     0.021 C 
ENDROOT
BRANCH   1   2
ATOM      2  C   UNL A   1      31.665  29.810  25.564  1.00  0.00     0.002 C 
BRANCH   2   3
ATOM      3  C   UNL A   1      31.792  30.520  26.915  1.00  0.00     0.002 C 
BRANCH   3   4
ATOM      4  C   UNL A   1      31.569  32.030  26.880  1.00  0.00     0.021 C 
BRANCH   4   5
ATOM      5  C   UNL A   1      32.803  32.864  27.187  1.00  0.00     0.116 C 
BRANCH   5   6
ATOM      6  N   UNL A   1      32.481  34.214  27.625  1.00  0.00    -0.352 N 
ATOM      7  O   UNL A   1      32.526  36.022  28.980  1.00  0.00    -0.269 OA
ATOM      8  C   UNL A   1      33.022  34.948  28.653  1.00  0.00     0.251 C 
ATOM      9  H   UNL A   1      31.772  34.665  27.111  1.00  0.00     0.163 HD
BRANCH   8  10
ATOM     10  C   UNL A   1      34.189  34.419  29.391  1.00  0.00     0.039 A 
ATOM     11  C   UNL A   1      35.482  34.621  28.907  1.00  0.00     0.014 A 
ATOM     12  C   UNL A   1      33.984  33.687  30.563  1.00  0.00     0.014 A 
ATOM     13  C   UNL A   1      36.546  33.942  29.486  1.00  0.00     0.010 A 
ATOM     14  C   UNL A   1      35.073  33.093  31.209  1.00  0.00     0.010 A 
ATOM     15  C   UNL A   1      36.357  33.177  30.650  1.00  0.00    -0.014 A 
BRANCH  15  16
ATOM     16  C   UNL A   1      37.532  32.514  31.275  1.00  0.00     0.031 A 
ATOM     17  C   UNL A   1      37.977  32.862  32.669  1.00  0.00     0.074 A 
ATOM     18  C   UNL A   1      38.172  31.551  30.583  1.00  0.00     0.049 A 
ATOM     19  N   UNL A   1      38.948  32.342  33.379  1.00  0.00    -0.248 NA
ATOM     20  C   UNL A   1      37.248  33.938  33.356  1.00  0.00     0.031 C 
ATOM     21  C   UNL A   1      37.838  31.136  29.218  1.00  0.00     0.029 A 
ATOM     22  N   UNL A   1      39.213  30.732  30.934  1.00  0.00    -0.354 N 
ATOM     23  C   UNL A   1      38.964  33.041  34.579  1.00  0.00     0.074 A 
ATOM     24  C   UNL A   1      37.922  34.042  34.494  1.00  0.00     0.031 C 
ATOM     25  C   UNL A   1      38.615  30.100  28.872  1.00  0.00     0.029 A 
ATOM     26  C   UNL A   1      39.548  29.826  29.958  1.00  0.00     0.049 A 
ATOM     27  H   UNL A   1      39.677  30.788  31.800  1.00  0.00     0.167 HD
ATOM     28  C   UNL A   1      39.770  32.859  35.654  1.00  0.00     0.037 A 
ATOM     29  C   UNL A   1      40.509  28.884  29.932  1.00  0.00     0.037 A 
ATOM     30  C   UNL A   1      40.794  31.846  35.738  1.00  0.00     0.049 A 
ATOM     31  C   UNL A   1      41.400  28.722  31.129  1.00  0.00     0.074 A 
ATOM     32  C   UNL A   1      41.629  31.550  36.802  1.00  0.00     0.029 A 
ATOM     33  N   UNL A   1      41.130  30.972  34.714  1.00  0.00    -0.354 N 
ATOM     34  N   UNL A   1      41.372  29.356  32.276  1.00  0.00    -0.248 NA
ATOM     35  C   UNL A   1      42.460  27.711  31.027  1.00  0.00     0.031 C 
ATOM     36  C   UNL A   1      42.509  30.539  36.401  1.00  0.00     0.029 A 
ATOM     37  C   UNL A   1      42.179  30.158  35.111  1.00  0.00     0.049 A 
ATOM     38  H   UNL A   1      40.687  30.936  33.835  1.00  0.00     0.167 HD
ATOM     39  C   UNL A   1      42.387  28.804  33.042  1.00  0.00     0.074 A 
ATOM     40  C   UNL A   1      43.001  27.769  32.235  1.00  0.00     0.031 C 
ATOM     41  C   UNL A   1      42.777  29.126  34.301  1.00  0.00     0.037 A 
BRANCH  28  42
ATOM     42  C   UNL A   1      39.600  33.790  36.823  1.00  0.00     0.064 A 
ATOM     43  C   UNL A   1      38.803  33.460  37.928  1.00  0.00     0.173 A 
ATOM     44  C   UNL A   1      40.285  35.015  36.856  1.00  0.00     0.173 A 
ATOM     45  F   UNL A   1      38.119  32.306  37.948  1.00  0.00    -0.203 F 
ATOM     46  C   UNL A   1      38.673  34.333  39.006  1.00  0.00     0.198 A 
ATOM     47  C   UNL A   1      40.178  35.872  37.949  1.00  0.00     0.198 A 
ATOM     48  F   UNL A   1      41.070  35.379  35.830  1.00  0.00    -0.203 F 
ATOM     49  F   UNL A   1      37.865  34.017  40.028  1.00  0.00    -0.200 F 
ATOM     50  C   UNL A   1      39.366  35.534  39.020  1.00  0.00     0.200 A 
ATOM     51  F   UNL A   1      40.863  37.024  37.966  1.00  0.00    -0.200 F 
ATOM     52  F   UNL A   1      39.245  36.369  40.061  1.00  0.00    -0.200 F 
ENDBRANCH  28  42
BRANCH  29  53
ATOM     53  C   UNL A   1      40.667  28.020  28.733  1.00  0.00     0.064 A 
ATOM     54  C   UNL A   1      41.468  28.425  27.656  1.00  0.00     0.173 A 
ATOM     55  C   UNL A   1      40.027  26.776  28.640  1.00  0.00     0.173 A 
ATOM     56  F   UNL A   1      42.086  29.614  27.690  1.00  0.00    -0.203 F 
ATOM     57  C   UNL A   1      41.605  27.625  26.523  1.00  0.00     0.198 A 
ATOM     58  C   UNL A   1      40.193  25.963  27.523  1.00  0.00     0.198 A 
ATOM     59  F   UNL A   1      39.257  26.340  29.648  1.00  0.00    -0.203 F 
ATOM     60  F   UNL A   1      42.337  28.056  25.487  1.00  0.00    -0.200 F 
ATOM     61  C   UNL A   1      40.973  26.392  26.461  1.00  0.00     0.200 A 
ATOM     62  F   UNL A   1      39.597  24.763  27.476  1.00  0.00    -0.200 F 
ATOM     63  F   UNL A   1      41.111  25.621  25.374  1.00  0.00    -0.200 F 
ENDBRANCH  29  53
BRANCH  41  64
ATOM     64  C   UNL A   1      43.891  28.314  34.898  1.00  0.00     0.064 A 
ATOM     65  C   UNL A   1      45.229  28.727  34.831  1.00  0.00     0.173 A 
ATOM     66  C   UNL A   1      43.610  27.106  35.558  1.00  0.00     0.173 A 
ATOM     67  F   UNL A   1      45.554  29.864  34.197  1.00  0.00    -0.203 F 
ATOM     68  C   UNL A   1      46.248  27.944  35.369  1.00  0.00     0.198 A 
ATOM     69  C   UNL A   1      44.627  26.346  36.126  1.00  0.00     0.198 A 
ATOM     70  F   UNL A   1      42.346  26.667  35.656  1.00  0.00    -0.203 F 
ATOM     71  F   UNL A   1      47.526  28.327  35.236  1.00  0.00    -0.200 F 
ATOM     72  C   UNL A   1      45.946  26.758  36.021  1.00  0.00     0.200 A 
ATOM     73  F   UNL A   1      44.330  25.207  36.768  1.00  0.00    -0.200 F 
ATOM     74  F   UNL A   1      46.927  26.007  36.539  1.00  0.00    -0.200 F 
ENDBRANCH  41  64
ENDBRANCH  15  16
ENDBRANCH   8  10
ENDBRANCH   5   6
ENDBRANCH   4   5
ENDBRANCH   3   4
ENDBRANCH   2   3
ENDBRANCH   1   2
BRANCH   1  75
ATOM     75  C   UNL A   1      33.024  29.050  23.509  1.00  0.00     0.116 C 
BRANCH  75  76
ATOM     76  N   UNL A   1      31.765  29.409  22.879  1.00  0.00    -0.352 N 
ATOM     77  C   UNL A   1      30.793  28.588  22.373  1.00  0.00     0.252 C 
ATOM     78  H   UNL A   1      31.586  30.374  22.808  1.00  0.00     0.163 HD
ATOM     79  O   UNL A   1      29.881  29.042  21.688  1.00  0.00    -0.269 OA
BRANCH  77  80
ATOM     80  C   UNL A   1      30.854  27.149  22.646  1.00  0.00     0.058 A 
ATOM     81  C   UNL A   1      30.133  26.565  23.687  1.00  0.00     0.017 A 
ATOM     82  C   UNL A   1      31.653  26.345  21.852  1.00  0.00     0.125 A 
ATOM     83  C   UNL A   1      30.286  25.205  23.929  1.00  0.00     0.030 A 
ATOM     84  N   UNL A   1      31.830  25.023  22.080  1.00  0.00    -0.255 NA
ATOM     85  C   UNL A   1      31.153  24.469  23.118  1.00  0.00     0.094 A 
BRANCH  85  86
ATOM     86  C   UNL A   1      31.355  22.990  23.378  1.00  0.00     0.317 C 
BRANCH  86  87
ATOM     87  N   UNL A   1      32.225  22.358  22.380  1.00  0.00    -0.341 N 
ATOM     88  H   UNL A   1      33.187  22.647  22.555  1.00  0.00     0.346 HD
ATOM     89  H   UNL A   1      31.910  22.654  21.457  1.00  0.00     0.346 HD
BRANCH  87  90
ATOM     90  C   UNL A   1      32.154  20.902  22.435  1.00  0.00     0.264 C 
BRANCH  90  91
ATOM     91  C   UNL A   1      32.266  20.385  23.863  1.00  0.00     0.049 C 
ATOM     92  C   UNL A   1      33.652  20.565  24.529  1.00  0.00     0.041 C 
ATOM     93  C   UNL A   1      32.463  18.856  24.052  1.00  0.00     0.041 C 
ATOM     94  C   UNL A   1      33.448  19.188  25.198  1.00  0.00     0.115 C 
BRANCH  94  95
ATOM     95  O   UNL A   1      32.902  19.196  26.532  1.00  0.00    -0.393 OA
ATOM     96  H   UNL A   1      33.618  19.329  27.172  1.00  0.00     0.210 HD
ENDBRANCH  94  95
ENDBRANCH  90  91
ENDBRANCH  87  90
ENDBRANCH  86  87
ENDBRANCH  85  86
ENDBRANCH  77  80
ENDBRANCH  75  76
ENDBRANCH   1  75
TORSDOF 18
ENDMDL
MODEL 2
REMARK VINA RESULT:     -11.7      4.824      9.955
REMARK SMILES O=C(NCCCCCCNC(=O)c1ccc(C[NH2+]C[C@H]2C[C@H](O)C2)nc1)c1ccc(-c2c3nc(c(-c4c(F)c(F)c(F)c(F)c4F)c4ccc([nH]4)c(-c4c(F)c(F)c(F)c(F)c4F)c4nc(c(-c5c(F)c(F)c(F)c(F)c5F)c5ccc2[nH]5)C=C4)C=C3)cc1
REMARK SMILES IDX 8 1 7 2 6 3 5 4 4 5 3 6 1 7 2 8 27 10 28 11 89 12 29 13
REMARK SMILES IDX 88 14 30 15 31 16 32 17 82 18 33 19 87 20 81 21 83 22 34 23
REMARK SMILES IDX 86 24 80 25 79 26 35 28 67 29 47 30 66 31 48 32 51 33 65 34
REMARK SMILES IDX 84 35 49 36 50 37 64 39 85 40 52 41 36 42 37 43 45 44 38 45
REMARK SMILES IDX 39 46 43 47 46 48 40 49 41 50 44 51 42 52 68 53 69 54 77 55
REMARK SMILES IDX 70 56 71 57 75 58 78 59 72 60 73 61 76 62 74 63 53 64 54 65
REMARK SMILES IDX 62 66 55 67 56 68 60 69 63 70 57 71 58 72 61 73 59 74 9 75
REMARK SMILES IDX 10 76 11 77 12 79 13 80 14 81 26 82 15 83 25 84 16 85 17 86
REMARK SMILES IDX 18 87 19 90 20 91 24 92 21 93 22 94 23 95
REMARK H PARENT 3 9 83 27 51 38 10 78 18 88 18 89 23 96
REMARK Flexibility Score: inf
ROOT
ATOM      1  C   UNL A   1      34.122  26.030  25.708  1.00  0.00     0.021 C 
ENDROOT
BRANCH   1   2
ATOM      2  C   UNL A   1      34.639  24.588  25.755  1.00  0.00     0.002 C 
BRANCH   2   3
ATOM      3  C   UNL A   1      34.991  23.972  24.398  1.00  0.00     0.002 C 
BRANCH   3   4
ATOM      4  C   UNL A   1      35.920  22.762  24.454  1.00  0.00     0.021 C 
BRANCH   4   5
ATOM      5  C   UNL A   1      36.518  22.481  25.824  1.00  0.00     0.116 C 
BRANCH   5   6
ATOM      6  N   UNL A   1      37.514  21.419  25.800  1.00  0.00    -0.352 N 
ATOM      7  O   UNL A   1      39.584  20.515  25.860  1.00  0.00    -0.269 OA
ATOM      8  C   UNL A   1      38.860  21.481  26.074  1.00  0.00     0.251 C 
ATOM      9  H   UNL A   1      37.174  20.529  25.552  1.00  0.00     0.163 HD
BRANCH   8  10
ATOM     10  C   UNL A   1      39.439  22.737  26.596  1.00  0.00     0.039 A 
ATOM     11  C   UNL A   1      39.018  23.971  26.099  1.00  0.00     0.014 A 
ATOM     12  C   UNL A   1      40.435  22.678  27.574  1.00  0.00     0.014 A 
ATOM     13  C   UNL A   1      39.714  25.123  26.438  1.00  0.00     0.010 A 
ATOM     14  C   UNL A   1      41.063  23.854  27.997  1.00  0.00     0.010 A 
ATOM     15  C   UNL A   1      40.740  25.082  27.399  1.00  0.00    -0.014 A 
BRANCH  15  16
ATOM     16  C   UNL A   1      41.422  26.347  27.780  1.00  0.00     0.031 A 
ATOM     17  C   UNL A   1      42.825  26.645  27.328  1.00  0.00     0.074 A 
ATOM     18  C   UNL A   1      40.739  27.253  28.506  1.00  0.00     0.049 A 
ATOM     19  N   UNL A   1      43.544  27.722  27.530  1.00  0.00    -0.248 NA
ATOM     20  C   UNL A   1      43.518  25.601  26.559  1.00  0.00     0.031 C 
ATOM     21  C   UNL A   1      39.376  27.070  29.010  1.00  0.00     0.029 A 
ATOM     22  N   UNL A   1      41.080  28.513  28.923  1.00  0.00    -0.354 N 
ATOM     23  C   UNL A   1      44.777  27.476  26.938  1.00  0.00     0.074 A 
ATOM     24  C   UNL A   1      44.720  26.137  26.392  1.00  0.00     0.031 C 
ATOM     25  C   UNL A   1      38.975  28.198  29.613  1.00  0.00     0.029 A 
ATOM     26  C   UNL A   1      40.074  29.155  29.602  1.00  0.00     0.049 A 
ATOM     27  H   UNL A   1      41.961  28.919  28.753  1.00  0.00     0.167 HD
ATOM     28  C   UNL A   1      45.854  28.296  26.855  1.00  0.00     0.037 A 
ATOM     29  C   UNL A   1      40.041  30.376  30.166  1.00  0.00     0.037 A 
ATOM     30  C   UNL A   1      45.896  29.636  27.386  1.00  0.00     0.049 A 
ATOM     31  C   UNL A   1      41.257  31.251  30.077  1.00  0.00     0.074 A 
ATOM     32  C   UNL A   1      46.923  30.563  27.310  1.00  0.00     0.029 A 
ATOM     33  N   UNL A   1      44.871  30.238  28.102  1.00  0.00    -0.354 N 
ATOM     34  N   UNL A   1      42.399  31.026  29.473  1.00  0.00    -0.248 NA
ATOM     35  C   UNL A   1      41.181  32.554  30.750  1.00  0.00     0.031 C 
ATOM     36  C   UNL A   1      46.542  31.700  28.029  1.00  0.00     0.029 A 
ATOM     37  C   UNL A   1      45.253  31.511  28.498  1.00  0.00     0.049 A 
ATOM     38  H   UNL A   1      44.001  29.822  28.299  1.00  0.00     0.167 HD
ATOM     39  C   UNL A   1      43.164  32.165  29.667  1.00  0.00     0.074 A 
ATOM     40  C   UNL A   1      42.350  33.089  30.429  1.00  0.00     0.031 C 
ATOM     41  C   UNL A   1      44.430  32.424  29.252  1.00  0.00     0.037 A 
BRANCH  28  42
ATOM     42  C   UNL A   1      47.092  27.761  26.188  1.00  0.00     0.064 A 
ATOM     43  C   UNL A   1      48.155  27.213  26.920  1.00  0.00     0.173 A 
ATOM     44  C   UNL A   1      47.193  27.757  24.787  1.00  0.00     0.173 A 
ATOM     45  F   UNL A   1      48.115  27.198  28.261  1.00  0.00    -0.203 F 
ATOM     46  C   UNL A   1      49.285  26.710  26.278  1.00  0.00     0.198 A 
ATOM     47  C   UNL A   1      48.311  27.225  24.148  1.00  0.00     0.198 A 
ATOM     48  F   UNL A   1      46.203  28.261  24.036  1.00  0.00    -0.203 F 
ATOM     49  F   UNL A   1      50.310  26.238  27.001  1.00  0.00    -0.200 F 
ATOM     50  C   UNL A   1      49.359  26.709  24.893  1.00  0.00     0.200 A 
ATOM     51  F   UNL A   1      48.372  27.210  22.809  1.00  0.00    -0.200 F 
ATOM     52  F   UNL A   1      50.443  26.218  24.278  1.00  0.00    -0.200 F 
ENDBRANCH  28  42
BRANCH  29  53
ATOM     53  C   UNL A   1      38.810  30.840  30.857  1.00  0.00     0.064 A 
ATOM     54  C   UNL A   1      38.676  30.720  32.247  1.00  0.00     0.173 A 
ATOM     55  C   UNL A   1      37.746  31.413  30.145  1.00  0.00     0.173 A 
ATOM     56  F   UNL A   1      39.659  30.163  32.969  1.00  0.00    -0.203 F 
ATOM     57  C   UNL A   1      37.516  31.138  32.896  1.00  0.00     0.198 A 
ATOM     58  C   UNL A   1      36.602  31.863  30.799  1.00  0.00     0.198 A 
ATOM     59  F   UNL A   1      37.828  31.557  28.814  1.00  0.00    -0.203 F 
ATOM     60  F   UNL A   1      37.393  30.969  34.219  1.00  0.00    -0.200 F 
ATOM     61  C   UNL A   1      36.483  31.715  32.171  1.00  0.00     0.200 A 
ATOM     62  F   UNL A   1      35.615  32.437  30.097  1.00  0.00    -0.200 F 
ATOM     63  F   UNL A   1      35.370  32.123  32.797  1.00  0.00    -0.200 F 
ENDBRANCH  29  53
BRANCH  41  64
ATOM     64  C   UNL A   1      44.990  33.780  29.574  1.00  0.00     0.064 A 
ATOM     65  C   UNL A   1      44.811  34.878  28.720  1.00  0.00     0.173 A 
ATOM     66  C   UNL A   1      45.708  33.984  30.763  1.00  0.00     0.173 A 
ATOM     67  F   UNL A   1      44.148  34.733  27.562  1.00  0.00    -0.203 F 
ATOM     68  C   UNL A   1      45.362  36.120  29.026  1.00  0.00     0.198 A 
ATOM     69  C   UNL A   1      46.226  35.235  31.082  1.00  0.00     0.198 A 
ATOM     70  F   UNL A   1      45.903  32.969  31.618  1.00  0.00    -0.203 F 
ATOM     71  F   UNL A   1      45.234  37.138  28.164  1.00  0.00    -0.200 F 
ATOM     72  C   UNL A   1      46.063  36.299  30.209  1.00  0.00     0.200 A 
ATOM     73  F   UNL A   1      46.890  35.410  32.234  1.00  0.00    -0.200 F 
ATOM     74  F   UNL A   1      46.591  37.495  30.503  1.00  0.00    -0.200 F 
ENDBRANCH  41  64
ENDBRANCH  15  16
ENDBRANCH   8  10
ENDBRANCH   5   6
ENDBRANCH   4   5
ENDBRANCH   3   4
ENDBRANCH   2   3
ENDBRANCH   1   2
BRANCH   1  75
ATOM     75  C   UNL A   1      32.787  26.210  24.988  1.00  0.00     0.116 C 
BRANCH  75  76
ATOM     76  N   UNL A   1      31.660  25.979  25.876  1.00  0.00    -0.352 N 
ATOM     77  C   UNL A   1      30.842  24.884  25.957  1.00  0.00     0.252 C 
ATOM     78  H   UNL A   1      31.459  26.709  26.505  1.00  0.00     0.163 HD
ATOM     79  O   UNL A   1      29.806  24.922  26.615  1.00  0.00    -0.269 OA
BRANCH  77  80
ATOM     80  C   UNL A   1      31.205  23.660  25.237  1.00  0.00     0.058 A 
ATOM     81  C   UNL A   1      31.663  22.524  25.902  1.00  0.00     0.017 A 
ATOM     82  C   UNL A   1      31.095  23.631  23.858  1.00  0.00     0.125 A 
ATOM     83  C   UNL A   1      32.050  21.418  25.153  1.00  0.00     0.030 A 
ATOM     84  N   UNL A   1      31.482  22.573  23.109  1.00  0.00    -0.255 NA
ATOM     85  C   UNL A   1      31.962  21.483  23.761  1.00  0.00     0.094 A 
BRANCH  85  86
ATOM     86  C   UNL A   1      32.400  20.300  22.922  1.00  0.00     0.317 C 
BRANCH  86  87
ATOM     87  N   UNL A   1      32.623  19.093  23.725  1.00  0.00    -0.341 N 
ATOM     88  H   UNL A   1      31.849  18.988  24.382  1.00  0.00     0.346 HD
ATOM     89  H   UNL A   1      33.511  19.201  24.214  1.00  0.00     0.346 HD
BRANCH  87  90
ATOM     90  C   UNL A   1      32.706  17.893  22.900  1.00  0.00     0.264 C 
BRANCH  90  91
ATOM     91  C   UNL A   1      33.660  16.865  23.495  1.00  0.00     0.049 C 
ATOM     92  C   UNL A   1      33.154  16.149  24.772  1.00  0.00     0.041 C 
ATOM     93  C   UNL A   1      34.835  17.401  24.357  1.00  0.00     0.041 C 
ATOM     94  C   UNL A   1      34.602  16.203  25.307  1.00  0.00     0.115 C 
BRANCH  94  95
ATOM     95  O   UNL A   1      35.415  15.034  25.078  1.00  0.00    -0.393 OA
ATOM     96  H   UNL A   1      35.339  14.765  24.150  1.00  0.00     0.210 HD
ENDBRANCH  94  95
ENDBRANCH  90  91
ENDBRANCH  87  90
ENDBRANCH  86  87
ENDBRANCH  85  86
ENDBRANCH  77  80
ENDBRANCH  75  76
ENDBRANCH   1  75
TORSDOF 18
ENDMDL
MODEL 3
REMARK VINA RESULT:     -11.6      2.334      4.913
REMARK SMILES O=C(NCCCCCCNC(=O)c1ccc(C[NH2+]C[C@H]2C[C@H](O)C2)nc1)c1ccc(-c2c3nc(c(-c4c(F)c(F)c(F)c(F)c4F)c4ccc([nH]4)c(-c4c(F)c(F)c(F)c(F)c4F)c4nc(c(-c5c(F)c(F)c(F)c(F)c5F)c5ccc2[nH]5)C=C4)C=C3)cc1
REMARK SMILES IDX 8 1 7 2 6 3 5 4 4 5 3 6 1 7 2 8 27 10 28 11 89 12 29 13
REMARK SMILES IDX 88 14 30 15 31 16 32 17 82 18 33 19 87 20 81 21 83 22 34 23
REMARK SMILES IDX 86 24 80 25 79 26 35 28 67 29 47 30 66 31 48 32 51 33 65 34
REMARK SMILES IDX 84 35 49 36 50 37 64 39 85 40 52 41 36 42 37 43 45 44 38 45
REMARK SMILES IDX 39 46 43 47 46 48 40 49 41 50 44 51 42 52 68 53 69 54 77 55
REMARK SMILES IDX 70 56 71 57 75 58 78 59 72 60 73 61 76 62 74 63 53 64 54 65
REMARK SMILES IDX 62 66 55 67 56 68 60 69 63 70 57 71 58 72 61 73 59 74 9 75
REMARK SMILES IDX 10 76 11 77 12 79 13 80 14 81 26 82 15 83 25 84 16 85 17 86
REMARK SMILES IDX 18 87 19 90 20 91 24 92 21 93 22 94 23 95
REMARK H PARENT 3 9 83 27 51 38 10 78 18 88 18 89 23 96
REMARK Flexibility Score: inf
ROOT
ATOM      1  C   UNL A   1      34.142  23.928  25.700  1.00  0.00     0.021 C 
ENDROOT
BRANCH   1   2
ATOM      2  C   UNL A   1      33.342  25.181  26.074  1.00  0.00     0.002 C 
BRANCH   2   3
ATOM      3  C   UNL A   1      33.989  26.513  25.685  1.00  0.00     0.002 C 
BRANCH   3   4
ATOM      4  C   UNL A   1      33.082  27.736  25.801  1.00  0.00     0.021 C 
BRANCH   4   5
ATOM      5  C   UNL A   1      33.669  29.020  25.233  1.00  0.00     0.116 C 
BRANCH   5   6
ATOM      6  N   UNL A   1      33.087  30.217  25.822  1.00  0.00    -0.352 N 
ATOM      7  O   UNL A   1      32.817  31.853  27.358  1.00  0.00    -0.269 OA
ATOM      8  C   UNL A   1      33.514  30.951  26.903  1.00  0.00     0.251 C 
ATOM      9  H   UNL A   1      32.270  30.547  25.384  1.00  0.00     0.163 HD
BRANCH   8  10
ATOM     10  C   UNL A   1      34.808  30.625  27.539  1.00  0.00     0.039 A 
ATOM     11  C   UNL A   1      35.062  29.334  28.004  1.00  0.00     0.014 A 
ATOM     12  C   UNL A   1      35.767  31.629  27.697  1.00  0.00     0.014 A 
ATOM     13  C   UNL A   1      36.184  29.093  28.786  1.00  0.00     0.010 A 
ATOM     14  C   UNL A   1      36.950  31.355  28.392  1.00  0.00     0.010 A 
ATOM     15  C   UNL A   1      37.148  30.097  28.982  1.00  0.00    -0.014 A 
BRANCH  15  16
ATOM     16  C   UNL A   1      38.365  29.783  29.775  1.00  0.00     0.031 A 
ATOM     17  C   UNL A   1      38.547  30.312  31.171  1.00  0.00     0.074 A 
ATOM     18  C   UNL A   1      39.293  28.969  29.235  1.00  0.00     0.049 A 
ATOM     19  N   UNL A   1      39.525  30.090  32.016  1.00  0.00    -0.248 NA
ATOM     20  C   UNL A   1      37.507  31.213  31.687  1.00  0.00     0.031 C 
ATOM     21  C   UNL A   1      39.231  28.404  27.885  1.00  0.00     0.029 A 
ATOM     22  N   UNL A   1      40.452  28.455  29.756  1.00  0.00    -0.354 N 
ATOM     23  C   UNL A   1      39.232  30.841  33.147  1.00  0.00     0.074 A 
ATOM     24  C   UNL A   1      37.998  31.547  32.874  1.00  0.00     0.031 C 
ATOM     25  C   UNL A   1      40.267  27.573  27.707  1.00  0.00     0.029 A 
ATOM     26  C   UNL A   1      41.105  27.603  28.900  1.00  0.00     0.049 A 
ATOM     27  H   UNL A   1      40.783  28.674  30.657  1.00  0.00     0.167 HD
ATOM     28  C   UNL A   1      39.927  30.927  34.309  1.00  0.00     0.037 A 
ATOM     29  C   UNL A   1      42.259  26.928  29.050  1.00  0.00     0.037 A 
ATOM     30  C   UNL A   1      41.145  30.206  34.580  1.00  0.00     0.049 A 
ATOM     31  C   UNL A   1      43.017  27.062  30.339  1.00  0.00     0.074 A 
ATOM     32  C   UNL A   1      41.897  30.188  35.743  1.00  0.00     0.029 A 
ATOM     33  N   UNL A   1      41.798  29.383  33.673  1.00  0.00    -0.354 N 
ATOM     34  N   UNL A   1      42.703  27.736  31.419  1.00  0.00    -0.248 NA
ATOM     35  C   UNL A   1      44.292  26.340  30.430  1.00  0.00     0.031 C 
ATOM     36  C   UNL A   1      43.033  29.404  35.520  1.00  0.00     0.029 A 
ATOM     37  C   UNL A   1      42.958  28.878  34.241  1.00  0.00     0.049 A 
ATOM     38  H   UNL A   1      41.484  29.187  32.761  1.00  0.00     0.167 HD
ATOM     39  C   UNL A   1      43.725  27.498  32.327  1.00  0.00     0.074 A 
ATOM     40  C   UNL A   1      44.658  26.601  31.677  1.00  0.00     0.031 C 
ATOM     41  C   UNL A   1      43.876  27.980  33.586  1.00  0.00     0.037 A 
BRANCH  28  42
ATOM     42  C   UNL A   1      39.403  31.855  35.371  1.00  0.00     0.064 A 
ATOM     43  C   UNL A   1      39.737  33.217  35.400  1.00  0.00     0.173 A 
ATOM     44  C   UNL A   1      38.516  31.380  36.349  1.00  0.00     0.173 A 
ATOM     45  F   UNL A   1      40.588  33.724  34.495  1.00  0.00    -0.203 F 
ATOM     46  C   UNL A   1      39.228  34.060  36.386  1.00  0.00     0.198 A 
ATOM     47  C   UNL A   1      37.983  32.232  37.314  1.00  0.00     0.198 A 
ATOM     48  F   UNL A   1      38.154  30.088  36.364  1.00  0.00    -0.203 F 
ATOM     49  F   UNL A   1      39.602  35.347  36.423  1.00  0.00    -0.200 F 
ATOM     50  C   UNL A   1      38.346  33.570  37.337  1.00  0.00     0.200 A 
ATOM     51  F   UNL A   1      37.118  31.758  38.222  1.00  0.00    -0.200 F 
ATOM     52  F   UNL A   1      37.851  34.384  38.279  1.00  0.00    -0.200 F 
ENDBRANCH  28  42
BRANCH  29  53
ATOM     53  C   UNL A   1      42.759  26.061  27.952  1.00  0.00     0.064 A 
ATOM     54  C   UNL A   1      43.642  26.561  26.985  1.00  0.00     0.173 A 
ATOM     55  C   UNL A   1      42.368  24.718  27.847  1.00  0.00     0.173 A 
ATOM     56  F   UNL A   1      44.031  27.844  27.033  1.00  0.00    -0.203 F 
ATOM     57  C   UNL A   1      44.099  25.756  25.944  1.00  0.00     0.198 A 
ATOM     58  C   UNL A   1      42.853  23.905  26.826  1.00  0.00     0.198 A 
ATOM     59  F   UNL A   1      41.531  24.189  28.751  1.00  0.00    -0.203 F 
ATOM     60  F   UNL A   1      44.904  26.272  25.006  1.00  0.00    -0.200 F 
ATOM     61  C   UNL A   1      43.709  24.427  25.870  1.00  0.00     0.200 A 
ATOM     62  F   UNL A   1      42.489  22.616  26.770  1.00  0.00    -0.200 F 
ATOM     63  F   UNL A   1      44.155  23.652  24.872  1.00  0.00    -0.200 F 
ENDBRANCH  29  53
BRANCH  41  64
ATOM     64  C   UNL A   1      45.073  27.504  34.358  1.00  0.00     0.064 A 
ATOM     65  C   UNL A   1      45.048  26.322  35.113  1.00  0.00     0.173 A 
ATOM     66  C   UNL A   1      46.269  28.240  34.333  1.00  0.00     0.173 A 
ATOM     67  F   UNL A   1      43.925  25.591  35.185  1.00  0.00    -0.203 F 
ATOM     68  C   UNL A   1      46.162  25.914  35.843  1.00  0.00     0.198 A 
ATOM     69  C   UNL A   1      47.391  27.810  35.034  1.00  0.00     0.198 A 
ATOM     70  F   UNL A   1      46.350  29.375  33.622  1.00  0.00    -0.203 F 
ATOM     71  F   UNL A   1      46.094  24.817  36.609  1.00  0.00    -0.200 F 
ATOM     72  C   UNL A   1      47.334  26.655  35.798  1.00  0.00     0.200 A 
ATOM     73  F   UNL A   1      48.527  28.520  34.978  1.00  0.00    -0.200 F 
ATOM     74  F   UNL A   1      48.405  26.261  36.500  1.00  0.00    -0.200 F 
ENDBRANCH  41  64
ENDBRANCH  15  16
ENDBRANCH   8  10
ENDBRANCH   5   6
ENDBRANCH   4   5
ENDBRANCH   3   4
ENDBRANCH   2   3
ENDBRANCH   1   2
BRANCH   1  75
ATOM     75  C   UNL A   1      33.384  22.914  24.846  1.00  0.00     0.116 C 
BRANCH  75  76
ATOM     76  N   UNL A   1      33.796  22.965  23.454  1.00  0.00    -0.352 N 
ATOM     77  C   UNL A   1      33.225  23.651  22.415  1.00  0.00     0.252 C 
ATOM     78  H   UNL A   1      34.594  22.436  23.228  1.00  0.00     0.163 HD
ATOM     79  O   UNL A   1      33.566  23.432  21.256  1.00  0.00    -0.269 OA
BRANCH  77  80
ATOM     80  C   UNL A   1      32.188  24.648  22.695  1.00  0.00     0.058 A 
ATOM     81  C   UNL A   1      32.369  26.000  22.409  1.00  0.00     0.017 A 
ATOM     82  C   UNL A   1      30.994  24.238  23.264  1.00  0.00     0.125 A 
ATOM     83  C   UNL A   1      31.368  26.900  22.758  1.00  0.00     0.030 A 
ATOM     84  N   UNL A   1      30.015  25.097  23.627  1.00  0.00    -0.255 NA
ATOM     85  C   UNL A   1      30.214  26.418  23.379  1.00  0.00     0.094 A 
BRANCH  85  86
ATOM     86  C   UNL A   1      29.120  27.382  23.791  1.00  0.00     0.317 C 
BRANCH  86  87
ATOM     87  N   UNL A   1      29.077  28.577  22.942  1.00  0.00    -0.341 N 
ATOM     88  H   UNL A   1      29.501  28.356  22.042  1.00  0.00     0.346 HD
ATOM     89  H   UNL A   1      29.586  29.320  23.420  1.00  0.00     0.346 HD
BRANCH  87  90
ATOM     90  C   UNL A   1      27.712  29.040  22.718  1.00  0.00     0.264 C 
BRANCH  90  91
ATOM     91  C   UNL A   1      27.669  30.524  22.376  1.00  0.00     0.049 C 
ATOM     92  C   UNL A   1      28.928  31.080  21.667  1.00  0.00     0.041 C 
ATOM     93  C   UNL A   1      27.970  31.527  23.523  1.00  0.00     0.041 C 
ATOM     94  C   UNL A   1      28.754  32.374  22.493  1.00  0.00     0.115 C 
BRANCH  94  95
ATOM     95  O   UNL A   1      28.030  33.447  21.860  1.00  0.00    -0.393 OA
ATOM     96  H   UNL A   1      27.675  34.042  22.539  1.00  0.00     0.210 HD
ENDBRANCH  94  95
ENDBRANCH  90  91
ENDBRANCH  87  90
ENDBRANCH  86  87
ENDBRANCH  85  86
ENDBRANCH  77  80
ENDBRANCH  75  76
ENDBRANCH   1  75
TORSDOF 18
ENDMDL
