MODEL 1
REMARK VINA RESULT:     -11.8      0.000      0.000
REMARK SMILES CCC(CC)(NC(=O)c1cc([N+](=O)[O-])c[nH]1)C(=O)NCCCCCCNC(=O)c1ccc(-c2c3nc(c(-c4c(F)c(F)c(F)c(F)c4F)c4ccc([nH]4)c(-c4c(F)c(F)c(F)c(F)c4F)c4nc(c(-c5c(F)c(F)c(F)c(F)c5F)c5ccc2[nH]5)C=C4)C=C3)cc1
REMARK SMILES IDX 22 1 21 2 20 3 19 4 17 5 18 6 3 8 2 9 1 10 4 11 5 12 6 13
REMARK SMILES IDX 7 14 8 16 9 17 10 18 16 19 11 20 15 21 12 23 13 24 14 25
REMARK SMILES IDX 23 26 24 27 25 28 26 29 27 30 28 32 29 33 30 34 91 35 31 36
REMARK SMILES IDX 90 37 32 38 33 39 34 40 84 41 35 42 89 43 83 44 85 45 36 46
REMARK SMILES IDX 88 47 82 48 81 49 37 51 69 52 49 53 68 54 50 55 53 56 67 57
REMARK SMILES IDX 86 58 51 59 52 60 66 62 87 63 54 64 38 65 39 66 47 67 40 68
REMARK SMILES IDX 41 69 45 70 48 71 42 72 43 73 46 74 44 75 70 76 71 77 79 78
REMARK SMILES IDX 72 79 73 80 77 81 80 82 74 83 75 84 78 85 76 86 55 87 56 88
REMARK SMILES IDX 64 89 57 90 58 91 62 92 65 93 59 94 60 95 63 96 61 97
REMARK H PARENT 19 7 6 15 16 22 26 31 85 50 53 61
REMARK Flexibility Score: inf
ROOT
ATOM      1  C   UNL A   1      31.715  27.534  25.069  1.00  0.00     0.002 C 
ENDROOT
BRANCH   1   2
ATOM      2  C   UNL A   1      30.650  26.581  25.605  1.00  0.00     0.021 C 
BRANCH   2   3
ATOM      3  C   UNL A   1      31.100  25.457  26.545  1.00  0.00     0.116 C 
BRANCH   3   4
ATOM      4  N   UNL A   1      30.286  24.247  26.568  1.00  0.00    -0.354 N 
ATOM      5  C   UNL A   1      30.559  22.935  26.238  1.00  0.00     0.245 C 
ATOM      6  O   UNL A   1      29.674  22.108  26.472  1.00  0.00    -0.272 OA
ATOM      7  H   UNL A   1      29.364  24.394  26.881  1.00  0.00     0.163 HD
BRANCH   5   8
ATOM      8  C   UNL A   1      31.960  22.514  25.730  1.00  0.00     0.118 C 
BRANCH   8   9
ATOM      9  C   UNL A   1      33.152  22.778  26.696  1.00  0.00     0.035 C 
ATOM     10  C   UNL A   1      33.044  22.292  28.134  1.00  0.00     0.007 C 
ENDBRANCH   8   9
BRANCH   8  11
ATOM     11  C   UNL A   1      32.090  23.425  24.453  1.00  0.00     0.035 C 
ATOM     12  C   UNL A   1      31.092  23.261  23.325  1.00  0.00     0.007 C 
ENDBRANCH   8  11
BRANCH   8  13
ATOM     13  N   UNL A   1      31.986  21.053  25.433  1.00  0.00    -0.336 N 
ATOM     14  C   UNL A   1      32.898  20.295  24.706  1.00  0.00     0.268 C 
ATOM     15  H   UNL A   1      31.234  20.541  25.811  1.00  0.00     0.165 HD
ATOM     16  O   UNL A   1      32.411  19.346  24.084  1.00  0.00    -0.268 OA
BRANCH  14  17
ATOM     17  C   UNL A   1      34.350  20.487  24.702  1.00  0.00     0.111 A 
ATOM     18  C   UNL A   1      35.190  21.585  24.660  1.00  0.00     0.119 A 
ATOM     19  N   UNL A   1      35.219  19.417  24.922  1.00  0.00    -0.351 N 
ATOM     20  C   UNL A   1      36.526  21.214  24.942  1.00  0.00     0.287 A 
ATOM     21  C   UNL A   1      36.521  19.845  25.072  1.00  0.00     0.169 A 
ATOM     22  H   UNL A   1      34.938  18.474  24.965  1.00  0.00     0.166 HD
BRANCH  20  23
ATOM     23  N   UNL A   1      37.630  22.128  25.128  1.00  0.00     0.064 N 
ATOM     24  O   UNL A   1      37.427  23.323  24.887  1.00  0.00    -0.258 OA
ATOM     25  O   UNL A   1      38.708  21.630  25.483  1.00  0.00    -0.258 OA
ENDBRANCH  20  23
ENDBRANCH  14  17
ENDBRANCH   8  13
ENDBRANCH   5   8
ENDBRANCH   3   4
ENDBRANCH   2   3
ENDBRANCH   1   2
BRANCH   1  26
ATOM     26  C   UNL A   1      33.095  27.413  25.704  1.00  0.00     0.002 C 
BRANCH  26  27
ATOM     27  C   UNL A   1      33.489  28.582  26.611  1.00  0.00     0.021 C 
BRANCH  27  28
ATOM     28  C   UNL A   1      34.995  28.713  26.835  1.00  0.00     0.116 C 
BRANCH  28  29
ATOM     29  N   UNL A   1      35.349  30.082  27.176  1.00  0.00    -0.352 N 
ATOM     30  C   UNL A   1      36.346  30.534  27.986  1.00  0.00     0.251 C 
ATOM     31  H   UNL A   1      34.790  30.778  26.762  1.00  0.00     0.163 HD
ATOM     32  O   UNL A   1      36.220  31.642  28.534  1.00  0.00    -0.269 OA
BRANCH  30  33
ATOM     33  C   UNL A   1      37.578  29.764  28.213  1.00  0.00     0.039 A 
ATOM     34  C   UNL A   1      38.543  29.742  27.196  1.00  0.00     0.014 A 
ATOM     35  C   UNL A   1      37.731  28.961  29.351  1.00  0.00     0.014 A 
ATOM     36  C   UNL A   1      39.671  28.944  27.329  1.00  0.00     0.010 A 
ATOM     37  C   UNL A   1      38.867  28.174  29.497  1.00  0.00     0.010 A 
ATOM     38  C   UNL A   1      39.837  28.177  28.489  1.00  0.00    -0.014 A 
BRANCH  38  39
ATOM     39  C   UNL A   1      41.157  27.562  28.745  1.00  0.00     0.031 A 
ATOM     40  C   UNL A   1      41.146  26.081  28.216  1.00  0.00     0.074 A 
ATOM     41  C   UNL A   1      42.082  28.368  29.368  1.00  0.00     0.049 A 
ATOM     42  N   UNL A   1      41.805  25.028  28.601  1.00  0.00    -0.248 NA
ATOM     43  C   UNL A   1      40.194  25.710  27.121  1.00  0.00     0.031 C 
ATOM     44  C   UNL A   1      41.877  29.796  29.731  1.00  0.00     0.029 A 
ATOM     45  N   UNL A   1      43.372  28.184  29.827  1.00  0.00    -0.354 N 
ATOM     46  C   UNL A   1      41.512  23.964  27.702  1.00  0.00     0.074 A 
ATOM     47  C   UNL A   1      40.428  24.415  26.890  1.00  0.00     0.031 C 
ATOM     48  C   UNL A   1      42.931  30.293  30.421  1.00  0.00     0.029 A 
ATOM     49  C   UNL A   1      43.932  29.261  30.585  1.00  0.00     0.049 A 
ATOM     50  H   UNL A   1      43.877  27.359  29.644  1.00  0.00     0.167 HD
ATOM     51  C   UNL A   1      42.289  22.841  27.592  1.00  0.00     0.037 A 
ATOM     52  C   UNL A   1      45.079  29.269  31.347  1.00  0.00     0.037 A 
ATOM     53  C   UNL A   1      43.338  22.912  28.546  1.00  0.00     0.049 A 
ATOM     54  C   UNL A   1      45.652  27.940  31.105  1.00  0.00     0.074 A 
ATOM     55  C   UNL A   1      43.369  22.712  29.897  1.00  0.00     0.029 A 
ATOM     56  N   UNL A   1      44.463  23.589  28.155  1.00  0.00    -0.354 N 
ATOM     57  N   UNL A   1      46.207  27.560  29.996  1.00  0.00    -0.248 NA
ATOM     58  C   UNL A   1      45.420  26.911  32.122  1.00  0.00     0.031 C 
ATOM     59  C   UNL A   1      44.223  23.745  30.334  1.00  0.00     0.029 A 
ATOM     60  C   UNL A   1      44.886  24.312  29.239  1.00  0.00     0.049 A 
ATOM     61  H   UNL A   1      44.886  23.562  27.267  1.00  0.00     0.167 HD
ATOM     62  C   UNL A   1      46.087  26.194  30.068  1.00  0.00     0.074 A 
ATOM     63  C   UNL A   1      45.889  25.859  31.462  1.00  0.00     0.031 C 
ATOM     64  C   UNL A   1      45.677  25.488  28.987  1.00  0.00     0.037 A 
BRANCH  51  65
ATOM     65  C   UNL A   1      42.444  21.750  26.556  1.00  0.00     0.064 A 
ATOM     66  C   UNL A   1      42.011  20.441  26.912  1.00  0.00     0.173 A 
ATOM     67  C   UNL A   1      43.354  21.824  25.498  1.00  0.00     0.173 A 
ATOM     68  F   UNL A   1      41.075  20.259  27.859  1.00  0.00    -0.203 F 
ATOM     69  C   UNL A   1      42.610  19.294  26.395  1.00  0.00     0.198 A 
ATOM     70  C   UNL A   1      43.906  20.666  24.934  1.00  0.00     0.198 A 
ATOM     71  F   UNL A   1      43.810  23.005  25.061  1.00  0.00    -0.203 F 
ATOM     72  F   UNL A   1      42.307  18.092  26.906  1.00  0.00    -0.200 F 
ATOM     73  C   UNL A   1      43.578  19.409  25.422  1.00  0.00     0.200 A 
ATOM     74  F   UNL A   1      44.832  20.775  23.972  1.00  0.00    -0.200 F 
ATOM     75  F   UNL A   1      44.220  18.320  24.978  1.00  0.00    -0.200 F 
ENDBRANCH  51  65
BRANCH  52  76
ATOM     76  C   UNL A   1      45.760  30.102  32.427  1.00  0.00     0.064 A 
ATOM     77  C   UNL A   1      46.862  30.946  32.260  1.00  0.00     0.173 A 
ATOM     78  C   UNL A   1      45.202  30.148  33.744  1.00  0.00     0.173 A 
ATOM     79  F   UNL A   1      47.595  30.898  31.141  1.00  0.00    -0.203 F 
ATOM     80  C   UNL A   1      47.260  31.864  33.260  1.00  0.00     0.198 A 
ATOM     81  C   UNL A   1      45.543  31.102  34.704  1.00  0.00     0.198 A 
ATOM     82  F   UNL A   1      44.287  29.259  34.154  1.00  0.00    -0.203 F 
ATOM     83  F   UNL A   1      48.320  32.658  33.054  1.00  0.00    -0.200 F 
ATOM     84  C   UNL A   1      46.562  31.982  34.453  1.00  0.00     0.200 A 
ATOM     85  F   UNL A   1      44.854  31.168  35.854  1.00  0.00    -0.200 F 
ATOM     86  F   UNL A   1      46.882  32.920  35.357  1.00  0.00    -0.200 F 
ENDBRANCH  52  76
BRANCH  64  87
ATOM     87  C   UNL A   1      45.825  26.210  27.654  1.00  0.00     0.064 A 
ATOM     88  C   UNL A   1      47.101  26.531  27.175  1.00  0.00     0.173 A 
ATOM     89  C   UNL A   1      44.750  26.678  26.876  1.00  0.00     0.173 A 
ATOM     90  F   UNL A   1      48.187  26.109  27.840  1.00  0.00    -0.203 F 
ATOM     91  C   UNL A   1      47.286  27.275  26.004  1.00  0.00     0.198 A 
ATOM     92  C   UNL A   1      44.927  27.421  25.705  1.00  0.00     0.198 A 
ATOM     93  F   UNL A   1      43.494  26.415  27.225  1.00  0.00    -0.203 F 
ATOM     94  F   UNL A   1      48.527  27.549  25.579  1.00  0.00    -0.200 F 
ATOM     95  C   UNL A   1      46.199  27.721  25.269  1.00  0.00     0.200 A 
ATOM     96  F   UNL A   1      43.860  27.830  24.999  1.00  0.00    -0.200 F 
ATOM     97  F   UNL A   1      46.380  28.419  24.138  1.00  0.00    -0.200 F 
ENDBRANCH  64  87
ENDBRANCH  38  39
ENDBRANCH  30  33
ENDBRANCH  28  29
ENDBRANCH  27  28
ENDBRANCH  26  27
ENDBRANCH   1  26
TORSDOF 18
ENDMDL
MODEL 2
REMARK VINA RESULT:     -11.6      4.638      9.685
REMARK SMILES CCC(CC)(NC(=O)c1cc([N+](=O)[O-])c[nH]1)C(=O)NCCCCCCNC(=O)c1ccc(-c2c3nc(c(-c4c(F)c(F)c(F)c(F)c4F)c4ccc([nH]4)c(-c4c(F)c(F)c(F)c(F)c4F)c4nc(c(-c5c(F)c(F)c(F)c(F)c5F)c5ccc2[nH]5)C=C4)C=C3)cc1
REMARK SMILES IDX 22 1 21 2 20 3 19 4 17 5 18 6 3 8 2 9 1 10 4 11 5 12 6 13
REMARK SMILES IDX 7 14 8 16 9 17 10 18 16 19 11 20 15 21 12 23 13 24 14 25
REMARK SMILES IDX 23 26 24 27 25 28 26 29 27 30 28 32 29 33 30 34 91 35 31 36
REMARK SMILES IDX 90 37 32 38 33 39 34 40 84 41 35 42 89 43 83 44 85 45 36 46
REMARK SMILES IDX 88 47 82 48 81 49 37 51 69 52 49 53 68 54 50 55 53 56 67 57
REMARK SMILES IDX 86 58 51 59 52 60 66 62 87 63 54 64 38 65 39 66 47 67 40 68
REMARK SMILES IDX 41 69 45 70 48 71 42 72 43 73 46 74 44 75 70 76 71 77 79 78
REMARK SMILES IDX 72 79 73 80 77 81 80 82 74 83 75 84 78 85 76 86 55 87 56 88
REMARK SMILES IDX 64 89 57 90 58 91 62 92 65 93 59 94 60 95 63 96 61 97
REMARK H PARENT 19 7 6 15 16 22 26 31 85 50 53 61
REMARK Flexibility Score: inf
ROOT
ATOM      1  C   UNL A   1      34.525  22.746  23.491  1.00  0.00     0.002 C 
ENDROOT
BRANCH   1   2
ATOM      2  C   UNL A   1      33.125  23.198  23.084  1.00  0.00     0.021 C 
BRANCH   2   3
ATOM      3  C   UNL A   1      32.781  24.685  23.225  1.00  0.00     0.116 C 
BRANCH   3   4
ATOM      4  N   UNL A   1      31.434  25.015  23.676  1.00  0.00    -0.354 N 
ATOM      5  C   UNL A   1      30.955  25.941  24.580  1.00  0.00     0.245 C 
ATOM      6  O   UNL A   1      29.729  26.051  24.666  1.00  0.00    -0.272 OA
ATOM      7  H   UNL A   1      30.729  24.472  23.253  1.00  0.00     0.163 HD
BRANCH   5   8
ATOM      8  C   UNL A   1      31.917  26.886  25.339  1.00  0.00     0.118 C 
BRANCH   8   9
ATOM      9  C   UNL A   1      33.117  26.212  26.066  1.00  0.00     0.035 C 
ATOM     10  C   UNL A   1      34.500  26.830  25.913  1.00  0.00     0.007 C 
ENDBRANCH   8   9
BRANCH   8  11
ATOM     11  C   UNL A   1      30.933  27.514  26.395  1.00  0.00     0.035 C 
ATOM     12  C   UNL A   1      31.503  28.200  27.620  1.00  0.00     0.007 C 
ENDBRANCH   8  11
BRANCH   8  13
ATOM     13  N   UNL A   1      32.510  27.884  24.402  1.00  0.00    -0.336 N 
ATOM     14  C   UNL A   1      31.939  28.574  23.337  1.00  0.00     0.268 C 
ATOM     15  H   UNL A   1      33.461  28.086  24.561  1.00  0.00     0.165 HD
ATOM     16  O   UNL A   1      32.699  28.795  22.390  1.00  0.00    -0.268 OA
BRANCH  14  17
ATOM     17  C   UNL A   1      30.577  29.112  23.306  1.00  0.00     0.111 A 
ATOM     18  C   UNL A   1      29.979  30.282  23.736  1.00  0.00     0.119 A 
ATOM     19  N   UNL A   1      29.565  28.470  22.590  1.00  0.00    -0.351 N 
ATOM     20  C   UNL A   1      28.667  30.402  23.219  1.00  0.00     0.287 A 
ATOM     21  C   UNL A   1      28.422  29.239  22.529  1.00  0.00     0.169 A 
ATOM     22  H   UNL A   1      29.656  27.580  22.179  1.00  0.00     0.166 HD
BRANCH  20  23
ATOM     23  N   UNL A   1      27.818  31.565  23.346  1.00  0.00     0.064 N 
ATOM     24  O   UNL A   1      28.178  32.600  22.775  1.00  0.00    -0.258 OA
ATOM     25  O   UNL A   1      26.807  31.438  24.053  1.00  0.00    -0.258 OA
ENDBRANCH  20  23
ENDBRANCH  14  17
ENDBRANCH   8  13
ENDBRANCH   5   8
ENDBRANCH   3   4
ENDBRANCH   2   3
ENDBRANCH   1   2
BRANCH   1  26
ATOM     26  C   UNL A   1      35.319  23.731  24.342  1.00  0.00     0.002 C 
BRANCH  26  27
ATOM     27  C   UNL A   1      36.723  23.256  24.731  1.00  0.00     0.021 C 
BRANCH  27  28
ATOM     28  C   UNL A   1      37.339  24.032  25.894  1.00  0.00     0.116 C 
BRANCH  28  29
ATOM     29  N   UNL A   1      38.465  23.306  26.460  1.00  0.00    -0.352 N 
ATOM     30  C   UNL A   1      39.656  23.786  26.910  1.00  0.00     0.251 C 
ATOM     31  H   UNL A   1      38.348  22.330  26.527  1.00  0.00     0.163 HD
ATOM     32  O   UNL A   1      40.647  23.037  26.908  1.00  0.00    -0.269 OA
BRANCH  30  33
ATOM     33  C   UNL A   1      39.803  25.156  27.423  1.00  0.00     0.039 A 
ATOM     34  C   UNL A   1      39.372  25.425  28.730  1.00  0.00     0.014 A 
ATOM     35  C   UNL A   1      40.230  26.200  26.590  1.00  0.00     0.014 A 
ATOM     36  C   UNL A   1      39.398  26.725  29.214  1.00  0.00     0.010 A 
ATOM     37  C   UNL A   1      40.274  27.501  27.076  1.00  0.00     0.010 A 
ATOM     38  C   UNL A   1      39.866  27.757  28.391  1.00  0.00    -0.014 A 
BRANCH  38  39
ATOM     39  C   UNL A   1      40.154  29.072  29.001  1.00  0.00     0.031 A 
ATOM     40  C   UNL A   1      38.806  29.862  29.181  1.00  0.00     0.074 A 
ATOM     41  C   UNL A   1      41.478  29.329  29.272  1.00  0.00     0.049 A 
ATOM     42  N   UNL A   1      38.555  31.138  29.196  1.00  0.00    -0.248 NA
ATOM     43  C   UNL A   1      37.526  29.093  29.296  1.00  0.00     0.031 C 
ATOM     44  C   UNL A   1      42.602  28.377  29.062  1.00  0.00     0.029 A 
ATOM     45  N   UNL A   1      42.170  30.415  29.772  1.00  0.00    -0.354 N 
ATOM     46  C   UNL A   1      37.180  31.319  29.515  1.00  0.00     0.074 A 
ATOM     47  C   UNL A   1      36.580  30.025  29.446  1.00  0.00     0.031 C 
ATOM     48  C   UNL A   1      43.800  28.951  29.328  1.00  0.00     0.029 A 
ATOM     49  C   UNL A   1      43.598  30.325  29.737  1.00  0.00     0.049 A 
ATOM     50  H   UNL A   1      41.707  31.206  30.132  1.00  0.00     0.167 HD
ATOM     51  C   UNL A   1      36.665  32.508  29.962  1.00  0.00     0.037 A 
ATOM     52  C   UNL A   1      44.527  31.320  29.946  1.00  0.00     0.037 A 
ATOM     53  C   UNL A   1      37.698  33.481  29.974  1.00  0.00     0.049 A 
ATOM     54  C   UNL A   1      43.702  32.473  30.325  1.00  0.00     0.074 A 
ATOM     55  C   UNL A   1      38.297  34.200  28.978  1.00  0.00     0.029 A 
ATOM     56  N   UNL A   1      38.474  33.524  31.102  1.00  0.00    -0.354 N 
ATOM     57  N   UNL A   1      43.080  32.603  31.457  1.00  0.00    -0.248 NA
ATOM     58  C   UNL A   1      43.412  33.466  29.287  1.00  0.00     0.031 C 
ATOM     59  C   UNL A   1      39.652  34.181  29.368  1.00  0.00     0.029 A 
ATOM     60  C   UNL A   1      39.763  33.731  30.689  1.00  0.00     0.049 A 
ATOM     61  H   UNL A   1      38.164  33.425  32.032  1.00  0.00     0.167 HD
ATOM     62  C   UNL A   1      42.090  33.499  31.139  1.00  0.00     0.074 A 
ATOM     63  C   UNL A   1      42.514  34.192  29.941  1.00  0.00     0.031 C 
ATOM     64  C   UNL A   1      40.820  33.290  31.561  1.00  0.00     0.037 A 
BRANCH  51  65
ATOM     65  C   UNL A   1      35.397  32.918  30.676  1.00  0.00     0.064 A 
ATOM     66  C   UNL A   1      34.630  33.971  30.100  1.00  0.00     0.173 A 
ATOM     67  C   UNL A   1      35.169  32.669  32.033  1.00  0.00     0.173 A 
ATOM     68  F   UNL A   1      34.709  34.240  28.786  1.00  0.00    -0.203 F 
ATOM     69  C   UNL A   1      33.866  34.842  30.873  1.00  0.00     0.198 A 
ATOM     70  C   UNL A   1      34.345  33.509  32.794  1.00  0.00     0.198 A 
ATOM     71  F   UNL A   1      35.815  31.687  32.673  1.00  0.00    -0.203 F 
ATOM     72  F   UNL A   1      33.324  35.934  30.314  1.00  0.00    -0.200 F 
ATOM     73  C   UNL A   1      33.744  34.624  32.228  1.00  0.00     0.200 A 
ATOM     74  F   UNL A   1      34.208  33.287  34.109  1.00  0.00    -0.200 F 
ATOM     75  F   UNL A   1      33.082  35.502  32.994  1.00  0.00    -0.200 F 
ENDBRANCH  51  65
BRANCH  52  76
ATOM     76  C   UNL A   1      46.007  31.604  29.723  1.00  0.00     0.064 A 
ATOM     77  C   UNL A   1      46.959  31.898  30.704  1.00  0.00     0.173 A 
ATOM     78  C   UNL A   1      46.565  31.472  28.411  1.00  0.00     0.173 A 
ATOM     79  F   UNL A   1      46.580  32.212  31.949  1.00  0.00    -0.203 F 
ATOM     80  C   UNL A   1      48.346  31.895  30.427  1.00  0.00     0.198 A 
ATOM     81  C   UNL A   1      47.933  31.394  28.148  1.00  0.00     0.198 A 
ATOM     82  F   UNL A   1      45.790  31.407  27.319  1.00  0.00    -0.203 F 
ATOM     83  F   UNL A   1      49.222  32.176  31.401  1.00  0.00    -0.200 F 
ATOM     84  C   UNL A   1      48.831  31.583  29.166  1.00  0.00     0.200 A 
ATOM     85  F   UNL A   1      48.359  31.109  26.907  1.00  0.00    -0.200 F 
ATOM     86  F   UNL A   1      50.147  31.485  28.930  1.00  0.00    -0.200 F 
ENDBRANCH  52  76
BRANCH  64  87
ATOM     87  C   UNL A   1      40.683  32.327  32.733  1.00  0.00     0.064 A 
ATOM     88  C   UNL A   1      41.169  32.694  33.994  1.00  0.00     0.173 A 
ATOM     89  C   UNL A   1      40.172  31.020  32.637  1.00  0.00     0.173 A 
ATOM     90  F   UNL A   1      41.657  33.928  34.186  1.00  0.00    -0.203 F 
ATOM     91  C   UNL A   1      41.152  31.809  35.080  1.00  0.00     0.198 A 
ATOM     92  C   UNL A   1      40.151  30.132  33.716  1.00  0.00     0.198 A 
ATOM     93  F   UNL A   1      39.665  30.571  31.492  1.00  0.00    -0.203 F 
ATOM     94  F   UNL A   1      41.619  32.208  36.270  1.00  0.00    -0.200 F 
ATOM     95  C   UNL A   1      40.644  30.528  34.941  1.00  0.00     0.200 A 
ATOM     96  F   UNL A   1      39.639  28.899  33.565  1.00  0.00    -0.200 F 
ATOM     97  F   UNL A   1      40.613  29.688  35.986  1.00  0.00    -0.200 F 
ENDBRANCH  64  87
ENDBRANCH  38  39
ENDBRANCH  30  33
ENDBRANCH  28  29
ENDBRANCH  27  28
ENDBRANCH  26  27
ENDBRANCH   1  26
TORSDOF 18
ENDMDL
MODEL 3
REMARK VINA RESULT:     -11.6      6.750     12.640
REMARK SMILES CCC(CC)(NC(=O)c1cc([N+](=O)[O-])c[nH]1)C(=O)NCCCCCCNC(=O)c1ccc(-c2c3nc(c(-c4c(F)c(F)c(F)c(F)c4F)c4ccc([nH]4)c(-c4c(F)c(F)c(F)c(F)c4F)c4nc(c(-c5c(F)c(F)c(F)c(F)c5F)c5ccc2[nH]5)C=C4)C=C3)cc1
REMARK SMILES IDX 22 1 21 2 20 3 19 4 17 5 18 6 3 8 2 9 1 10 4 11 5 12 6 13
REMARK SMILES IDX 7 14 8 16 9 17 10 18 16 19 11 20 15 21 12 23 13 24 14 25
REMARK SMILES IDX 23 26 24 27 25 28 26 29 27 30 28 32 29 33 30 34 91 35 31 36
REMARK SMILES IDX 90 37 32 38 33 39 34 40 84 41 35 42 89 43 83 44 85 45 36 46
REMARK SMILES IDX 88 47 82 48 81 49 37 51 69 52 49 53 68 54 50 55 53 56 67 57
REMARK SMILES IDX 86 58 51 59 52 60 66 62 87 63 54 64 38 65 39 66 47 67 40 68
REMARK SMILES IDX 41 69 45 70 48 71 42 72 43 73 46 74 44 75 70 76 71 77 79 78
REMARK SMILES IDX 72 79 73 80 77 81 80 82 74 83 75 84 78 85 76 86 55 87 56 88
REMARK SMILES IDX 64 89 57 90 58 91 62 92 65 93 59 94 60 95 63 96 61 97
REMARK H PARENT 19 7 6 15 16 22 26 31 85 50 53 61
REMARK Flexibility Score: inf
ROOT
ATOM      1  C   UNL A   1      43.519  23.620  34.367  1.00  0.00     0.002 C 
ENDROOT
BRANCH   1   2
ATOM      2  C   UNL A   1      44.208  22.259  34.436  1.00  0.00     0.021 C 
BRANCH   2   3
ATOM      3  C   UNL A   1      45.699  22.190  34.090  1.00  0.00     0.116 C 
BRANCH   3   4
ATOM      4  N   UNL A   1      46.640  22.615  35.121  1.00  0.00    -0.354 N 
ATOM      5  C   UNL A   1      47.389  21.915  36.044  1.00  0.00     0.245 C 
ATOM      6  O   UNL A   1      48.186  22.568  36.722  1.00  0.00    -0.272 OA
ATOM      7  H   UNL A   1      46.765  23.591  35.166  1.00  0.00     0.163 HD
BRANCH   5   8
ATOM      8  C   UNL A   1      47.324  20.370  36.118  1.00  0.00     0.118 C 
BRANCH   8   9
ATOM      9  C   UNL A   1      45.928  19.751  36.420  1.00  0.00     0.035 C 
ATOM     10  C   UNL A   1      45.415  18.640  35.515  1.00  0.00     0.007 C 
ENDBRANCH   8   9
BRANCH   8  11
ATOM     11  C   UNL A   1      48.304  20.097  37.319  1.00  0.00     0.035 C 
ATOM     12  C   UNL A   1      47.811  19.295  38.507  1.00  0.00     0.007 C 
ENDBRANCH   8  11
BRANCH   8  13
ATOM     13  N   UNL A   1      47.771  19.770  34.827  1.00  0.00    -0.336 N 
ATOM     14  C   UNL A   1      48.918  19.999  34.074  1.00  0.00     0.268 C 
ATOM     15  H   UNL A   1      47.153  19.105  34.445  1.00  0.00     0.165 HD
ATOM     16  O   UNL A   1      48.767  19.916  32.852  1.00  0.00    -0.268 OA
BRANCH  14  17
ATOM     17  C   UNL A   1      50.259  20.233  34.617  1.00  0.00     0.111 A 
ATOM     18  C   UNL A   1      51.407  19.473  34.745  1.00  0.00     0.119 A 
ATOM     19  N   UNL A   1      50.665  21.509  35.010  1.00  0.00    -0.351 N 
ATOM     20  C   UNL A   1      52.511  20.277  35.113  1.00  0.00     0.287 A 
ATOM     21  C   UNL A   1      52.012  21.544  35.302  1.00  0.00     0.169 A 
ATOM     22  H   UNL A   1      50.064  22.287  35.070  1.00  0.00     0.166 HD
BRANCH  20  23
ATOM     23  N   UNL A   1      53.885  19.835  35.186  1.00  0.00     0.064 N 
ATOM     24  O   UNL A   1      54.751  20.694  35.380  1.00  0.00    -0.258 OA
ATOM     25  O   UNL A   1      54.087  18.624  35.013  1.00  0.00    -0.258 OA
ENDBRANCH  20  23
ENDBRANCH  14  17
ENDBRANCH   8  13
ENDBRANCH   5   8
ENDBRANCH   3   4
ENDBRANCH   2   3
ENDBRANCH   1   2
BRANCH   1  26
ATOM     26  C   UNL A   1      42.233  23.755  35.174  1.00  0.00     0.002 C 
BRANCH  26  27
ATOM     27  C   UNL A   1      42.320  24.718  36.362  1.00  0.00     0.021 C 
BRANCH  27  28
ATOM     28  C   UNL A   1      43.724  24.851  36.950  1.00  0.00     0.116 C 
BRANCH  28  29
ATOM     29  N   UNL A   1      44.039  26.245  37.221  1.00  0.00    -0.352 N 
ATOM     30  C   UNL A   1      44.691  27.145  36.435  1.00  0.00     0.251 C 
ATOM     31  H   UNL A   1      43.738  26.584  38.095  1.00  0.00     0.163 HD
ATOM     32  O   UNL A   1      45.281  28.098  36.973  1.00  0.00    -0.269 OA
BRANCH  30  33
ATOM     33  C   UNL A   1      44.700  27.041  34.968  1.00  0.00     0.039 A 
ATOM     34  C   UNL A   1      43.523  27.359  34.275  1.00  0.00     0.014 A 
ATOM     35  C   UNL A   1      45.801  26.507  34.286  1.00  0.00     0.014 A 
ATOM     36  C   UNL A   1      43.458  27.174  32.901  1.00  0.00     0.010 A 
ATOM     37  C   UNL A   1      45.748  26.337  32.908  1.00  0.00     0.010 A 
ATOM     38  C   UNL A   1      44.578  26.680  32.220  1.00  0.00    -0.014 A 
BRANCH  38  39
ATOM     39  C   UNL A   1      44.596  26.755  30.743  1.00  0.00     0.031 A 
ATOM     40  C   UNL A   1      44.704  28.261  30.306  1.00  0.00     0.074 A 
ATOM     41  C   UNL A   1      44.515  25.552  30.082  1.00  0.00     0.049 A 
ATOM     42  N   UNL A   1      44.289  28.877  29.238  1.00  0.00    -0.248 NA
ATOM     43  C   UNL A   1      45.319  29.248  31.250  1.00  0.00     0.031 C 
ATOM     44  C   UNL A   1      44.480  24.212  30.728  1.00  0.00     0.029 A 
ATOM     45  N   UNL A   1      44.447  25.181  28.753  1.00  0.00    -0.354 N 
ATOM     46  C   UNL A   1      44.753  30.222  29.287  1.00  0.00     0.074 A 
ATOM     47  C   UNL A   1      45.276  30.415  30.601  1.00  0.00     0.031 C 
ATOM     48  C   UNL A   1      44.299  23.223  29.820  1.00  0.00     0.029 A 
ATOM     49  C   UNL A   1      44.197  23.795  28.495  1.00  0.00     0.049 A 
ATOM     50  H   UNL A   1      44.563  25.833  28.024  1.00  0.00     0.167 HD
ATOM     51  C   UNL A   1      44.811  31.034  28.185  1.00  0.00     0.037 A 
ATOM     52  C   UNL A   1      43.855  23.191  27.306  1.00  0.00     0.037 A 
ATOM     53  C   UNL A   1      44.279  30.337  27.070  1.00  0.00     0.049 A 
ATOM     54  C   UNL A   1      43.919  24.293  26.340  1.00  0.00     0.074 A 
ATOM     55  C   UNL A   1      42.999  30.041  26.694  1.00  0.00     0.029 A 
ATOM     56  N   UNL A   1      45.156  29.538  26.384  1.00  0.00    -0.354 N 
ATOM     57  N   UNL A   1      45.011  24.852  25.919  1.00  0.00    -0.248 NA
ATOM     58  C   UNL A   1      42.655  24.928  25.958  1.00  0.00     0.031 C 
ATOM     59  C   UNL A   1      43.124  28.719  26.219  1.00  0.00     0.029 A 
ATOM     60  C   UNL A   1      44.476  28.396  26.053  1.00  0.00     0.049 A 
ATOM     61  H   UNL A   1      46.095  29.745  26.171  1.00  0.00     0.167 HD
ATOM     62  C   UNL A   1      44.564  26.081  25.502  1.00  0.00     0.074 A 
ATOM     63  C   UNL A   1      43.139  25.958  25.274  1.00  0.00     0.031 C 
ATOM     64  C   UNL A   1      45.249  27.203  25.827  1.00  0.00     0.037 A 
BRANCH  51  65
ATOM     65  C   UNL A   1      45.533  32.319  27.847  1.00  0.00     0.064 A 
ATOM     66  C   UNL A   1      44.736  33.451  27.513  1.00  0.00     0.173 A 
ATOM     67  C   UNL A   1      46.861  32.358  27.411  1.00  0.00     0.173 A 
ATOM     68  F   UNL A   1      43.471  33.556  27.952  1.00  0.00    -0.203 F 
ATOM     69  C   UNL A   1      45.175  34.433  26.628  1.00  0.00     0.198 A 
ATOM     70  C   UNL A   1      47.318  33.385  26.574  1.00  0.00     0.198 A 
ATOM     71  F   UNL A   1      47.708  31.360  27.690  1.00  0.00    -0.203 F 
ATOM     72  F   UNL A   1      44.321  35.370  26.189  1.00  0.00    -0.200 F 
ATOM     73  C   UNL A   1      46.462  34.385  26.138  1.00  0.00     0.200 A 
ATOM     74  F   UNL A   1      48.576  33.351  26.114  1.00  0.00    -0.200 F 
ATOM     75  F   UNL A   1      46.868  35.276  25.223  1.00  0.00    -0.200 F 
ENDBRANCH  51  65
BRANCH  52  76
ATOM     76  C   UNL A   1      43.287  21.877  26.783  1.00  0.00     0.064 A 
ATOM     77  C   UNL A   1      43.785  21.115  25.721  1.00  0.00     0.173 A 
ATOM     78  C   UNL A   1      42.195  21.255  27.467  1.00  0.00     0.173 A 
ATOM     79  F   UNL A   1      44.694  21.626  24.882  1.00  0.00    -0.203 F 
ATOM     80  C   UNL A   1      43.343  19.793  25.476  1.00  0.00     0.198 A 
ATOM     81  C   UNL A   1      41.809  19.927  27.278  1.00  0.00     0.198 A 
ATOM     82  F   UNL A   1      41.453  21.920  28.364  1.00  0.00    -0.203 F 
ATOM     83  F   UNL A   1      43.853  19.098  24.451  1.00  0.00    -0.200 F 
ATOM     84  C   UNL A   1      42.402  19.183  26.292  1.00  0.00     0.200 A 
ATOM     85  F   UNL A   1      40.879  19.381  28.078  1.00  0.00    -0.200 F 
ATOM     86  F   UNL A   1      42.058  17.898  26.117  1.00  0.00    -0.200 F 
ENDBRANCH  52  76
BRANCH  64  87
ATOM     87  C   UNL A   1      46.699  26.975  26.234  1.00  0.00     0.064 A 
ATOM     88  C   UNL A   1      47.629  26.545  25.279  1.00  0.00     0.173 A 
ATOM     89  C   UNL A   1      47.185  27.078  27.551  1.00  0.00     0.173 A 
ATOM     90  F   UNL A   1      47.261  26.437  23.994  1.00  0.00    -0.203 F 
ATOM     91  C   UNL A   1      48.950  26.231  25.621  1.00  0.00     0.198 A 
ATOM     92  C   UNL A   1      48.502  26.767  27.899  1.00  0.00     0.198 A 
ATOM     93  F   UNL A   1      46.396  27.495  28.535  1.00  0.00    -0.203 F 
ATOM     94  F   UNL A   1      49.807  25.833  24.671  1.00  0.00    -0.200 F 
ATOM     95  C   UNL A   1      49.387  26.341  26.932  1.00  0.00     0.200 A 
ATOM     96  F   UNL A   1      48.911  26.895  29.173  1.00  0.00    -0.200 F 
ATOM     97  F   UNL A   1      50.657  26.057  27.254  1.00  0.00    -0.200 F 
ENDBRANCH  64  87
ENDBRANCH  38  39
ENDBRANCH  30  33
ENDBRANCH  28  29
ENDBRANCH  27  28
ENDBRANCH  26  27
ENDBRANCH   1  26
TORSDOF 18
ENDMDL
