MODEL 1
REMARK VINA RESULT:     -11.8      0.000      0.000
REMARK SMILES C[C@@H](CNc1cccc(F)c1C(=O)NCCCCCCNC(=O)c1ccc(-c2c3nc(c(-c4c(F)c(F)c(F)c(F)c4F)c4ccc([nH]4)c(-c4c(F)c(F)c(F)c(F)c4F)c4nc(c(-c5c(F)c(F)c(F)c(F)c5F)c5ccc2[nH]5)C=C4)C=C3)cc1)[NH+]1CCCCC1
REMARK SMILES IDX 16 1 15 2 14 3 12 4 13 5 11 7 5 8 6 9 7 10 9 11 8 12 10 13
REMARK SMILES IDX 4 14 3 16 2 17 1 18 87 19 88 20 92 21 89 23 91 24 90 25
REMARK SMILES IDX 17 26 18 27 19 28 20 29 21 30 22 31 23 33 24 34 25 35 86 36
REMARK SMILES IDX 26 37 85 38 27 39 28 40 29 41 79 42 30 43 84 44 78 45 80 46
REMARK SMILES IDX 31 47 83 48 77 49 76 50 32 52 64 53 44 54 63 55 45 56 48 57
REMARK SMILES IDX 62 58 81 59 46 60 47 61 61 63 82 64 49 65 33 66 34 67 42 68
REMARK SMILES IDX 35 69 36 70 40 71 43 72 37 73 38 74 41 75 39 76 65 77 66 78
REMARK SMILES IDX 74 79 67 80 68 81 72 82 75 83 69 84 70 85 73 86 71 87 50 88
REMARK SMILES IDX 51 89 59 90 52 91 53 92 57 93 60 94 54 95 55 96 58 97 56 98
REMARK H PARENT 14 6 4 15 87 22 21 32 80 51 48 62
REMARK Flexibility Score: inf
ROOT
ATOM      1  C   UNL A   1      33.535  28.914  26.434  1.00  0.00     0.021 C 
ENDROOT
BRANCH   1   2
ATOM      2  C   UNL A   1      33.418  27.387  26.494  1.00  0.00     0.116 C 
BRANCH   2   3
ATOM      3  N   UNL A   1      33.764  26.844  25.194  1.00  0.00    -0.352 N 
ATOM      4  C   UNL A   1      33.021  26.523  24.087  1.00  0.00     0.256 C 
ATOM      5  O   UNL A   1      33.609  25.907  23.192  1.00  0.00    -0.269 OA
ATOM      6  H   UNL A   1      34.727  26.672  25.084  1.00  0.00     0.163 HD
BRANCH   4   7
ATOM      7  C   UNL A   1      31.629  26.998  23.850  1.00  0.00     0.098 A 
ATOM      8  C   UNL A   1      30.557  26.119  24.177  1.00  0.00     0.050 A 
ATOM      9  C   UNL A   1      29.244  26.540  23.911  1.00  0.00     0.027 A 
ATOM     10  C   UNL A   1      28.980  27.791  23.351  1.00  0.00     0.005 A 
ATOM     11  C   UNL A   1      31.344  28.265  23.341  1.00  0.00     0.138 A 
ATOM     12  C   UNL A   1      30.032  28.654  23.068  1.00  0.00     0.040 A 
ATOM     13  F   UNL A   1      32.311  29.167  23.120  1.00  0.00    -0.206 F 
BRANCH   8  14
ATOM     14  N   UNL A   1      30.805  24.850  24.686  1.00  0.00    -0.378 N 
ATOM     15  H   UNL A   1      31.087  24.155  24.049  1.00  0.00     0.160 HD
BRANCH  14  16
ATOM     16  C   UNL A   1      30.685  24.464  26.083  1.00  0.00     0.177 C 
BRANCH  16  17
ATOM     17  C   UNL A   1      30.465  22.929  26.298  1.00  0.00     0.200 C 
ATOM     18  C   UNL A   1      29.322  22.656  27.289  1.00  0.00     0.077 C 
BRANCH  17  19
ATOM     19  N   UNL A   1      31.721  22.162  26.544  1.00  0.00    -0.331 N 
ATOM     20  C   UNL A   1      32.292  21.535  25.347  1.00  0.00     0.262 C 
ATOM     21  C   UNL A   1      32.733  22.966  27.246  1.00  0.00     0.262 C 
ATOM     22  H   UNL A   1      31.437  21.396  27.154  1.00  0.00     0.348 HD
ATOM     23  C   UNL A   1      33.504  20.659  25.669  1.00  0.00     0.062 C 
ATOM     24  C   UNL A   1      33.945  22.116  27.640  1.00  0.00     0.062 C 
ATOM     25  C   UNL A   1      34.565  21.441  26.423  1.00  0.00     0.012 C 
ENDBRANCH  17  19
ENDBRANCH  16  17
ENDBRANCH  14  16
ENDBRANCH   8  14
ENDBRANCH   4   7
ENDBRANCH   2   3
ENDBRANCH   1   2
BRANCH   1  26
ATOM     26  C   UNL A   1      32.339  29.636  27.074  1.00  0.00     0.002 C 
BRANCH  26  27
ATOM     27  C   UNL A   1      31.523  30.503  26.108  1.00  0.00     0.002 C 
BRANCH  27  28
ATOM     28  C   UNL A   1      31.379  31.974  26.512  1.00  0.00     0.021 C 
BRANCH  28  29
ATOM     29  C   UNL A   1      32.677  32.658  26.935  1.00  0.00     0.116 C 
BRANCH  29  30
ATOM     30  N   UNL A   1      32.440  33.970  27.513  1.00  0.00    -0.352 N 
ATOM     31  C   UNL A   1      33.048  34.585  28.575  1.00  0.00     0.251 C 
ATOM     32  H   UNL A   1      31.733  34.497  27.074  1.00  0.00     0.163 HD
ATOM     33  O   UNL A   1      32.575  35.620  29.034  1.00  0.00    -0.269 OA
BRANCH  31  34
ATOM     34  C   UNL A   1      34.265  34.005  29.189  1.00  0.00     0.039 A 
ATOM     35  C   UNL A   1      34.108  33.086  30.231  1.00  0.00     0.014 A 
ATOM     36  C   UNL A   1      35.547  34.392  28.786  1.00  0.00     0.014 A 
ATOM     37  C   UNL A   1      35.232  32.524  30.837  1.00  0.00     0.010 A 
ATOM     38  C   UNL A   1      36.670  33.784  29.351  1.00  0.00     0.010 A 
ATOM     39  C   UNL A   1      36.523  32.848  30.385  1.00  0.00    -0.014 A 
BRANCH  39  40
ATOM     40  C   UNL A   1      37.712  32.190  30.985  1.00  0.00     0.031 A 
ATOM     41  C   UNL A   1      38.189  32.565  32.359  1.00  0.00     0.074 A 
ATOM     42  C   UNL A   1      38.376  31.261  30.271  1.00  0.00     0.049 A 
ATOM     43  N   UNL A   1      39.185  32.067  33.049  1.00  0.00    -0.248 NA
ATOM     44  C   UNL A   1      37.472  33.652  33.044  1.00  0.00     0.031 C 
ATOM     45  C   UNL A   1      38.048  30.860  28.902  1.00  0.00     0.029 A 
ATOM     46  N   UNL A   1      39.459  30.482  30.596  1.00  0.00    -0.354 N 
ATOM     47  C   UNL A   1      39.217  32.781  34.240  1.00  0.00     0.074 A 
ATOM     48  C   UNL A   1      38.171  33.779  34.162  1.00  0.00     0.031 C 
ATOM     49  C   UNL A   1      38.889  29.888  28.517  1.00  0.00     0.029 A 
ATOM     50  C   UNL A   1      39.830  29.613  29.600  1.00  0.00     0.049 A 
ATOM     51  H   UNL A   1      39.925  30.542  31.462  1.00  0.00     0.167 HD
ATOM     52  C   UNL A   1      40.031  32.604  35.307  1.00  0.00     0.037 A 
ATOM     53  C   UNL A   1      40.811  28.691  29.564  1.00  0.00     0.037 A 
ATOM     54  C   UNL A   1      41.046  31.587  35.394  1.00  0.00     0.049 A 
ATOM     55  C   UNL A   1      41.676  28.491  30.777  1.00  0.00     0.074 A 
ATOM     56  C   UNL A   1      41.860  31.274  36.470  1.00  0.00     0.029 A 
ATOM     57  N   UNL A   1      41.387  30.718  34.369  1.00  0.00    -0.354 N 
ATOM     58  N   UNL A   1      41.641  29.118  31.928  1.00  0.00    -0.248 NA
ATOM     59  C   UNL A   1      42.711  27.451  30.691  1.00  0.00     0.031 C 
ATOM     60  C   UNL A   1      42.725  30.248  36.080  1.00  0.00     0.029 A 
ATOM     61  C   UNL A   1      42.419  29.887  34.778  1.00  0.00     0.049 A 
ATOM     62  H   UNL A   1      40.960  30.695  33.482  1.00  0.00     0.167 HD
ATOM     63  C   UNL A   1      42.639  28.546  32.704  1.00  0.00     0.074 A 
ATOM     64  C   UNL A   1      43.244  27.502  31.904  1.00  0.00     0.031 C 
ATOM     65  C   UNL A   1      43.022  28.862  33.965  1.00  0.00     0.037 A 
BRANCH  52  66
ATOM     66  C   UNL A   1      39.853  33.512  36.488  1.00  0.00     0.064 A 
ATOM     67  C   UNL A   1      38.952  33.180  37.511  1.00  0.00     0.173 A 
ATOM     68  C   UNL A   1      40.502  34.753  36.560  1.00  0.00     0.173 A 
ATOM     69  F   UNL A   1      38.301  32.008  37.484  1.00  0.00    -0.203 F 
ATOM     70  C   UNL A   1      38.696  34.065  38.555  1.00  0.00     0.198 A 
ATOM     71  C   UNL A   1      40.263  35.625  37.619  1.00  0.00     0.198 A 
ATOM     72  F   UNL A   1      41.378  35.114  35.610  1.00  0.00    -0.203 F 
ATOM     73  F   UNL A   1      37.806  33.742  39.503  1.00  0.00    -0.200 F 
ATOM     74  C   UNL A   1      39.352  35.285  38.609  1.00  0.00     0.200 A 
ATOM     75  F   UNL A   1      40.911  36.797  37.680  1.00  0.00    -0.200 F 
ATOM     76  F   UNL A   1      39.107  36.136  39.616  1.00  0.00    -0.200 F 
ENDBRANCH  52  66
BRANCH  53  77
ATOM     77  C   UNL A   1      40.994  27.865  28.344  1.00  0.00     0.064 A 
ATOM     78  C   UNL A   1      40.368  26.618  28.210  1.00  0.00     0.173 A 
ATOM     79  C   UNL A   1      41.824  28.296  27.301  1.00  0.00     0.173 A 
ATOM     80  F   UNL A   1      39.567  26.159  29.184  1.00  0.00    -0.203 F 
ATOM     81  C   UNL A   1      40.580  25.824  27.086  1.00  0.00     0.198 A 
ATOM     82  C   UNL A   1      42.016  27.512  26.165  1.00  0.00     0.198 A 
ATOM     83  F   UNL A   1      42.429  29.490  27.376  1.00  0.00    -0.203 F 
ATOM     84  F   UNL A   1      39.996  24.621  26.995  1.00  0.00    -0.200 F 
ATOM     85  C   UNL A   1      41.401  26.274  26.062  1.00  0.00     0.200 A 
ATOM     86  F   UNL A   1      42.791  27.960  25.168  1.00  0.00    -0.200 F 
ATOM     87  F   UNL A   1      41.596  25.514  24.975  1.00  0.00    -0.200 F 
ENDBRANCH  53  77
BRANCH  65  88
ATOM     88  C   UNL A   1      44.157  28.081  34.558  1.00  0.00     0.064 A 
ATOM     89  C   UNL A   1      45.481  28.521  34.413  1.00  0.00     0.173 A 
ATOM     90  C   UNL A   1      43.936  26.865  35.222  1.00  0.00     0.173 A 
ATOM     91  F   UNL A   1      45.745  29.673  33.779  1.00  0.00    -0.203 F 
ATOM     92  C   UNL A   1      46.544  27.767  34.901  1.00  0.00     0.198 A 
ATOM     93  C   UNL A   1      44.999  26.127  35.733  1.00  0.00     0.198 A 
ATOM     94  F   UNL A   1      42.687  26.409  35.397  1.00  0.00    -0.203 F 
ATOM     95  F   UNL A   1      47.802  28.191  34.726  1.00  0.00    -0.200 F 
ATOM     96  C   UNL A   1      46.301  26.573  35.566  1.00  0.00     0.200 A 
ATOM     97  F   UNL A   1      44.762  24.987  36.396  1.00  0.00    -0.200 F 
ATOM     98  F   UNL A   1      47.325  25.855  36.049  1.00  0.00    -0.200 F 
ENDBRANCH  65  88
ENDBRANCH  39  40
ENDBRANCH  31  34
ENDBRANCH  29  30
ENDBRANCH  28  29
ENDBRANCH  27  28
ENDBRANCH  26  27
ENDBRANCH   1  26
TORSDOF 17
ENDMDL
MODEL 2
REMARK VINA RESULT:     -11.7      2.177      3.790
REMARK SMILES C[C@@H](CNc1cccc(F)c1C(=O)NCCCCCCNC(=O)c1ccc(-c2c3nc(c(-c4c(F)c(F)c(F)c(F)c4F)c4ccc([nH]4)c(-c4c(F)c(F)c(F)c(F)c4F)c4nc(c(-c5c(F)c(F)c(F)c(F)c5F)c5ccc2[nH]5)C=C4)C=C3)cc1)[NH+]1CCCCC1
REMARK SMILES IDX 16 1 15 2 14 3 12 4 13 5 11 7 5 8 6 9 7 10 9 11 8 12 10 13
REMARK SMILES IDX 4 14 3 16 2 17 1 18 87 19 88 20 92 21 89 23 91 24 90 25
REMARK SMILES IDX 17 26 18 27 19 28 20 29 21 30 22 31 23 33 24 34 25 35 86 36
REMARK SMILES IDX 26 37 85 38 27 39 28 40 29 41 79 42 30 43 84 44 78 45 80 46
REMARK SMILES IDX 31 47 83 48 77 49 76 50 32 52 64 53 44 54 63 55 45 56 48 57
REMARK SMILES IDX 62 58 81 59 46 60 47 61 61 63 82 64 49 65 33 66 34 67 42 68
REMARK SMILES IDX 35 69 36 70 40 71 43 72 37 73 38 74 41 75 39 76 65 77 66 78
REMARK SMILES IDX 74 79 67 80 68 81 72 82 75 83 69 84 70 85 73 86 71 87 50 88
REMARK SMILES IDX 51 89 59 90 52 91 53 92 57 93 60 94 54 95 55 96 58 97 56 98
REMARK H PARENT 14 6 4 15 87 22 21 32 80 51 48 62
REMARK Flexibility Score: inf
ROOT
ATOM      1  C   UNL A   1      32.451  25.775  21.158  1.00  0.00     0.021 C 
ENDROOT
BRANCH   1   2
ATOM      2  C   UNL A   1      33.355  24.721  21.806  1.00  0.00     0.116 C 
BRANCH   2   3
ATOM      3  N   UNL A   1      32.520  23.669  22.356  1.00  0.00    -0.352 N 
ATOM      4  C   UNL A   1      31.911  23.500  23.573  1.00  0.00     0.256 C 
ATOM      5  O   UNL A   1      31.408  22.392  23.785  1.00  0.00    -0.269 OA
ATOM      6  H   UNL A   1      32.358  22.928  21.730  1.00  0.00     0.163 HD
BRANCH   4   7
ATOM      7  C   UNL A   1      31.697  24.597  24.558  1.00  0.00     0.098 A 
ATOM      8  C   UNL A   1      32.715  24.835  25.526  1.00  0.00     0.050 A 
ATOM      9  C   UNL A   1      32.499  25.834  26.489  1.00  0.00     0.027 A 
ATOM     10  C   UNL A   1      31.327  26.591  26.503  1.00  0.00     0.005 A 
ATOM     11  C   UNL A   1      30.556  25.399  24.555  1.00  0.00     0.138 A 
ATOM     12  C   UNL A   1      30.356  26.373  25.533  1.00  0.00     0.040 A 
ATOM     13  F   UNL A   1      29.622  25.286  23.600  1.00  0.00    -0.206 F 
BRANCH   8  14
ATOM     14  N   UNL A   1      33.865  24.056  25.558  1.00  0.00    -0.378 N 
ATOM     15  H   UNL A   1      33.786  23.149  25.935  1.00  0.00     0.160 HD
BRANCH  14  16
ATOM     16  C   UNL A   1      35.175  24.466  25.080  1.00  0.00     0.177 C 
BRANCH  16  17
ATOM     17  C   UNL A   1      36.014  23.300  24.456  1.00  0.00     0.200 C 
ATOM     18  C   UNL A   1      35.210  21.991  24.405  1.00  0.00     0.077 C 
BRANCH  17  19
ATOM     19  N   UNL A   1      37.396  23.181  25.008  1.00  0.00    -0.331 N 
ATOM     20  C   UNL A   1      37.677  24.078  26.134  1.00  0.00     0.262 C 
ATOM     21  C   UNL A   1      37.738  21.792  25.348  1.00  0.00     0.262 C 
ATOM     22  H   UNL A   1      38.001  23.486  24.246  1.00  0.00     0.348 HD
ATOM     23  C   UNL A   1      39.138  24.011  26.583  1.00  0.00     0.062 C 
ATOM     24  C   UNL A   1      39.211  21.664  25.751  1.00  0.00     0.062 C 
ATOM     25  C   UNL A   1      39.546  22.586  26.916  1.00  0.00     0.012 C 
ENDBRANCH  17  19
ENDBRANCH  16  17
ENDBRANCH  14  16
ENDBRANCH   8  14
ENDBRANCH   4   7
ENDBRANCH   2   3
ENDBRANCH   1   2
BRANCH   1  26
ATOM     26  C   UNL A   1      32.320  27.055  21.998  1.00  0.00     0.002 C 
BRANCH  26  27
ATOM     27  C   UNL A   1      33.501  27.327  22.938  1.00  0.00     0.002 C 
BRANCH  27  28
ATOM     28  C   UNL A   1      33.627  28.773  23.428  1.00  0.00     0.021 C 
BRANCH  28  29
ATOM     29  C   UNL A   1      33.829  28.930  24.934  1.00  0.00     0.116 C 
BRANCH  29  30
ATOM     30  N   UNL A   1      33.088  30.060  25.469  1.00  0.00    -0.352 N 
ATOM     31  C   UNL A   1      33.280  30.766  26.628  1.00  0.00     0.251 C 
ATOM     32  H   UNL A   1      32.332  30.363  24.916  1.00  0.00     0.163 HD
ATOM     33  O   UNL A   1      32.429  31.566  27.003  1.00  0.00    -0.269 OA
BRANCH  31  34
ATOM     34  C   UNL A   1      34.499  30.562  27.444  1.00  0.00     0.039 A 
ATOM     35  C   UNL A   1      34.671  29.330  28.083  1.00  0.00     0.014 A 
ATOM     36  C   UNL A   1      35.441  31.580  27.626  1.00  0.00     0.014 A 
ATOM     37  C   UNL A   1      35.805  29.105  28.865  1.00  0.00     0.010 A 
ATOM     38  C   UNL A   1      36.604  31.334  28.358  1.00  0.00     0.010 A 
ATOM     39  C   UNL A   1      36.794  30.096  28.989  1.00  0.00    -0.014 A 
BRANCH  39  40
ATOM     40  C   UNL A   1      38.032  29.823  29.762  1.00  0.00     0.031 A 
ATOM     41  C   UNL A   1      38.212  30.372  31.149  1.00  0.00     0.074 A 
ATOM     42  C   UNL A   1      39.009  29.088  29.196  1.00  0.00     0.049 A 
ATOM     43  N   UNL A   1      39.212  30.202  31.979  1.00  0.00    -0.248 NA
ATOM     44  C   UNL A   1      37.145  31.241  31.668  1.00  0.00     0.031 C 
ATOM     45  C   UNL A   1      38.979  28.556  27.833  1.00  0.00     0.029 A 
ATOM     46  N   UNL A   1      40.214  28.659  29.694  1.00  0.00    -0.354 N 
ATOM     47  C   UNL A   1      38.897  30.944  33.109  1.00  0.00     0.074 A 
ATOM     48  C   UNL A   1      37.637  31.605  32.844  1.00  0.00     0.031 C 
ATOM     49  C   UNL A   1      40.095  27.844  27.615  1.00  0.00     0.029 A 
ATOM     50  C   UNL A   1      40.931  27.889  28.812  1.00  0.00     0.049 A 
ATOM     51  H   UNL A   1      40.534  28.882  30.599  1.00  0.00     0.167 HD
ATOM     52  C   UNL A   1      39.588  31.046  34.269  1.00  0.00     0.037 A 
ATOM     53  C   UNL A   1      42.123  27.279  28.952  1.00  0.00     0.037 A 
ATOM     54  C   UNL A   1      40.823  30.359  34.542  1.00  0.00     0.049 A 
ATOM     55  C   UNL A   1      42.851  27.379  30.263  1.00  0.00     0.074 A 
ATOM     56  C   UNL A   1      41.551  30.331  35.720  1.00  0.00     0.029 A 
ATOM     57  N   UNL A   1      41.515  29.579  33.627  1.00  0.00    -0.354 N 
ATOM     58  N   UNL A   1      42.501  28.017  31.354  1.00  0.00    -0.248 NA
ATOM     59  C   UNL A   1      44.133  26.669  30.368  1.00  0.00     0.031 C 
ATOM     60  C   UNL A   1      42.705  29.574  35.504  1.00  0.00     0.029 A 
ATOM     61  C   UNL A   1      42.675  29.089  34.206  1.00  0.00     0.049 A 
ATOM     62  H   UNL A   1      41.225  29.402  32.703  1.00  0.00     0.167 HD
ATOM     63  C   UNL A   1      43.512  27.780  32.275  1.00  0.00     0.074 A 
ATOM     64  C   UNL A   1      44.475  26.916  31.624  1.00  0.00     0.031 C 
ATOM     65  C   UNL A   1      43.632  28.242  33.543  1.00  0.00     0.037 A 
BRANCH  52  66
ATOM     66  C   UNL A   1      39.022  31.915  35.353  1.00  0.00     0.064 A 
ATOM     67  C   UNL A   1      39.343  33.280  35.411  1.00  0.00     0.173 A 
ATOM     68  C   UNL A   1      38.240  31.380  36.387  1.00  0.00     0.173 A 
ATOM     69  F   UNL A   1      40.094  33.839  34.450  1.00  0.00    -0.203 F 
ATOM     70  C   UNL A   1      38.915  34.072  36.472  1.00  0.00     0.198 A 
ATOM     71  C   UNL A   1      37.793  32.181  37.435  1.00  0.00     0.198 A 
ATOM     72  F   UNL A   1      37.901  30.082  36.374  1.00  0.00    -0.203 F 
ATOM     73  F   UNL A   1      39.262  35.365  36.524  1.00  0.00    -0.200 F 
ATOM     74  C   UNL A   1      38.140  33.523  37.482  1.00  0.00     0.200 A 
ATOM     75  F   UNL A   1      37.029  31.653  38.401  1.00  0.00    -0.200 F 
ATOM     76  F   UNL A   1      37.726  34.287  38.502  1.00  0.00    -0.200 F 
ENDBRANCH  52  66
BRANCH  53  77
ATOM     77  C   UNL A   1      42.677  26.488  27.823  1.00  0.00     0.064 A 
ATOM     78  C   UNL A   1      43.432  27.096  26.810  1.00  0.00     0.173 A 
ATOM     79  C   UNL A   1      42.436  25.111  27.723  1.00  0.00     0.173 A 
ATOM     80  F   UNL A   1      43.687  28.412  26.860  1.00  0.00    -0.203 F 
ATOM     81  C   UNL A   1      43.909  26.360  25.729  1.00  0.00     0.198 A 
ATOM     82  C   UNL A   1      42.935  24.371  26.653  1.00  0.00     0.198 A 
ATOM     83  F   UNL A   1      41.735  24.483  28.677  1.00  0.00    -0.203 F 
ATOM     84  F   UNL A   1      44.601  26.970  24.757  1.00  0.00    -0.200 F 
ATOM     85  C   UNL A   1      43.664  24.997  25.654  1.00  0.00     0.200 A 
ATOM     86  F   UNL A   1      42.715  23.050  26.595  1.00  0.00    -0.200 F 
ATOM     87  F   UNL A   1      44.133  24.286  24.618  1.00  0.00    -0.200 F 
ENDBRANCH  53  77
BRANCH  65  88
ATOM     88  C   UNL A   1      44.854  27.836  34.313  1.00  0.00     0.064 A 
ATOM     89  C   UNL A   1      44.852  26.671  35.094  1.00  0.00     0.173 A 
ATOM     90  C   UNL A   1      46.008  28.632  34.321  1.00  0.00     0.173 A 
ATOM     91  F   UNL A   1      43.770  25.880  35.127  1.00  0.00    -0.203 F 
ATOM     92  C   UNL A   1      45.959  26.324  35.865  1.00  0.00     0.198 A 
ATOM     93  C   UNL A   1      47.123  28.268  35.070  1.00  0.00     0.198 A 
ATOM     94  F   UNL A   1      46.063  29.749  33.579  1.00  0.00    -0.203 F 
ATOM     95  F   UNL A   1      45.925  25.222  36.627  1.00  0.00    -0.200 F 
ATOM     96  C   UNL A   1      47.095  27.120  35.847  1.00  0.00     0.200 A 
ATOM     97  F   UNL A   1      48.228  29.025  35.033  1.00  0.00    -0.200 F 
ATOM     98  F   UNL A   1      48.165  26.777  36.577  1.00  0.00    -0.200 F 
ENDBRANCH  65  88
ENDBRANCH  39  40
ENDBRANCH  31  34
ENDBRANCH  29  30
ENDBRANCH  28  29
ENDBRANCH  27  28
ENDBRANCH  26  27
ENDBRANCH   1  26
TORSDOF 17
ENDMDL
MODEL 3
REMARK VINA RESULT:     -11.5      0.895      2.258
REMARK SMILES C[C@@H](CNc1cccc(F)c1C(=O)NCCCCCCNC(=O)c1ccc(-c2c3nc(c(-c4c(F)c(F)c(F)c(F)c4F)c4ccc([nH]4)c(-c4c(F)c(F)c(F)c(F)c4F)c4nc(c(-c5c(F)c(F)c(F)c(F)c5F)c5ccc2[nH]5)C=C4)C=C3)cc1)[NH+]1CCCCC1
REMARK SMILES IDX 16 1 15 2 14 3 12 4 13 5 11 7 5 8 6 9 7 10 9 11 8 12 10 13
REMARK SMILES IDX 4 14 3 16 2 17 1 18 87 19 88 20 92 21 89 23 91 24 90 25
REMARK SMILES IDX 17 26 18 27 19 28 20 29 21 30 22 31 23 33 24 34 25 35 86 36
REMARK SMILES IDX 26 37 85 38 27 39 28 40 29 41 79 42 30 43 84 44 78 45 80 46
REMARK SMILES IDX 31 47 83 48 77 49 76 50 32 52 64 53 44 54 63 55 45 56 48 57
REMARK SMILES IDX 62 58 81 59 46 60 47 61 61 63 82 64 49 65 33 66 34 67 42 68
REMARK SMILES IDX 35 69 36 70 40 71 43 72 37 73 38 74 41 75 39 76 65 77 66 78
REMARK SMILES IDX 74 79 67 80 68 81 72 82 75 83 69 84 70 85 73 86 71 87 50 88
REMARK SMILES IDX 51 89 59 90 52 91 53 92 57 93 60 94 54 95 55 96 58 97 56 98
REMARK H PARENT 14 6 4 15 87 22 21 32 80 51 48 62
REMARK Flexibility Score: inf
ROOT
ATOM      1  C   UNL A   1      32.984  28.521  26.414  1.00  0.00     0.021 C 
ENDROOT
BRANCH   1   2
ATOM      2  C   UNL A   1      33.696  29.063  25.170  1.00  0.00     0.116 C 
BRANCH   2   3
ATOM      3  N   UNL A   1      33.966  27.955  24.273  1.00  0.00    -0.352 N 
ATOM      4  C   UNL A   1      33.182  26.953  23.762  1.00  0.00     0.256 C 
ATOM      5  O   UNL A   1      33.769  26.051  23.156  1.00  0.00    -0.269 OA
ATOM      6  H   UNL A   1      34.901  27.914  23.969  1.00  0.00     0.163 HD
BRANCH   4   7
ATOM      7  C   UNL A   1      31.692  26.974  23.768  1.00  0.00     0.098 A 
ATOM      8  C   UNL A   1      31.011  26.000  24.554  1.00  0.00     0.050 A 
ATOM      9  C   UNL A   1      29.607  25.983  24.527  1.00  0.00     0.027 A 
ATOM     10  C   UNL A   1      28.883  26.898  23.763  1.00  0.00     0.005 A 
ATOM     11  C   UNL A   1      30.951  27.915  23.053  1.00  0.00     0.138 A 
ATOM     12  C   UNL A   1      29.557  27.865  23.026  1.00  0.00     0.040 A 
ATOM     13  F   UNL A   1      31.543  28.916  22.387  1.00  0.00    -0.206 F 
BRANCH   8  14
ATOM     14  N   UNL A   1      31.718  25.049  25.280  1.00  0.00    -0.378 N 
ATOM     15  H   UNL A   1      32.391  25.377  25.920  1.00  0.00     0.160 HD
BRANCH  14  16
ATOM     16  C   UNL A   1      31.547  23.609  25.174  1.00  0.00     0.177 C 
BRANCH  16  17
ATOM     17  C   UNL A   1      32.564  22.920  24.203  1.00  0.00     0.200 C 
ATOM     18  C   UNL A   1      32.256  21.424  24.030  1.00  0.00     0.077 C 
BRANCH  17  19
ATOM     19  N   UNL A   1      33.992  23.250  24.483  1.00  0.00    -0.331 N 
ATOM     20  C   UNL A   1      34.499  22.716  25.751  1.00  0.00     0.262 C 
ATOM     21  C   UNL A   1      34.876  22.878  23.368  1.00  0.00     0.262 C 
ATOM     22  H   UNL A   1      34.004  24.266  24.579  1.00  0.00     0.348 HD
ATOM     23  C   UNL A   1      35.924  23.184  26.053  1.00  0.00     0.062 C 
ATOM     24  C   UNL A   1      36.306  23.375  23.599  1.00  0.00     0.062 C 
ATOM     25  C   UNL A   1      36.868  22.847  24.913  1.00  0.00     0.012 C 
ENDBRANCH  17  19
ENDBRANCH  16  17
ENDBRANCH  14  16
ENDBRANCH   8  14
ENDBRANCH   4   7
ENDBRANCH   2   3
ENDBRANCH   1   2
BRANCH   1  26
ATOM     26  C   UNL A   1      31.782  29.380  26.842  1.00  0.00     0.002 C 
BRANCH  26  27
ATOM     27  C   UNL A   1      31.392  30.476  25.843  1.00  0.00     0.002 C 
BRANCH  27  28
ATOM     28  C   UNL A   1      31.260  31.883  26.435  1.00  0.00     0.021 C 
BRANCH  28  29
ATOM     29  C   UNL A   1      32.534  32.439  27.068  1.00  0.00     0.116 C 
BRANCH  29  30
ATOM     30  N   UNL A   1      32.375  33.821  27.490  1.00  0.00    -0.352 N 
ATOM     31  C   UNL A   1      33.049  34.528  28.452  1.00  0.00     0.251 C 
ATOM     32  H   UNL A   1      31.677  34.326  27.013  1.00  0.00     0.163 HD
ATOM     33  O   UNL A   1      32.638  35.632  28.796  1.00  0.00    -0.269 OA
BRANCH  31  34
ATOM     34  C   UNL A   1      34.260  33.968  29.093  1.00  0.00     0.039 A 
ATOM     35  C   UNL A   1      34.097  32.991  30.079  1.00  0.00     0.014 A 
ATOM     36  C   UNL A   1      35.541  34.427  28.771  1.00  0.00     0.014 A 
ATOM     37  C   UNL A   1      35.215  32.445  30.709  1.00  0.00     0.010 A 
ATOM     38  C   UNL A   1      36.663  33.837  29.357  1.00  0.00     0.010 A 
ATOM     39  C   UNL A   1      36.510  32.844  30.336  1.00  0.00    -0.014 A 
BRANCH  39  40
ATOM     40  C   UNL A   1      37.698  32.206  30.958  1.00  0.00     0.031 A 
ATOM     41  C   UNL A   1      38.167  32.617  32.325  1.00  0.00     0.074 A 
ATOM     42  C   UNL A   1      38.368  31.260  30.272  1.00  0.00     0.049 A 
ATOM     43  N   UNL A   1      39.161  32.140  33.032  1.00  0.00    -0.248 NA
ATOM     44  C   UNL A   1      37.443  33.719  32.978  1.00  0.00     0.031 C 
ATOM     45  C   UNL A   1      38.049  30.824  28.912  1.00  0.00     0.029 A 
ATOM     46  N   UNL A   1      39.452  30.494  30.622  1.00  0.00    -0.354 N 
ATOM     47  C   UNL A   1      39.185  32.884  34.205  1.00  0.00     0.074 A 
ATOM     48  C   UNL A   1      38.137  33.876  34.097  1.00  0.00     0.031 C 
ATOM     49  C   UNL A   1      38.894  29.845  28.556  1.00  0.00     0.029 A 
ATOM     50  C   UNL A   1      39.830  29.601  29.650  1.00  0.00     0.049 A 
ATOM     51  H   UNL A   1      39.914  30.577  31.488  1.00  0.00     0.167 HD
ATOM     52  C   UNL A   1      39.994  32.736  35.280  1.00  0.00     0.037 A 
ATOM     53  C   UNL A   1      40.815  28.682  29.643  1.00  0.00     0.037 A 
ATOM     54  C   UNL A   1      41.012  31.725  35.398  1.00  0.00     0.049 A 
ATOM     55  C   UNL A   1      41.675  28.516  30.864  1.00  0.00     0.074 A 
ATOM     56  C   UNL A   1      41.821  31.443  36.485  1.00  0.00     0.029 A 
ATOM     57  N   UNL A   1      41.360  30.832  34.396  1.00  0.00    -0.354 N 
ATOM     58  N   UNL A   1      41.632  29.171  31.999  1.00  0.00    -0.248 NA
ATOM     59  C   UNL A   1      42.713  27.477  30.810  1.00  0.00     0.031 C 
ATOM     60  C   UNL A   1      42.691  30.409  36.126  1.00  0.00     0.029 A 
ATOM     61  C   UNL A   1      42.393  30.015  34.832  1.00  0.00     0.049 A 
ATOM     62  H   UNL A   1      40.938  30.785  33.509  1.00  0.00     0.167 HD
ATOM     63  C   UNL A   1      42.627  28.622  32.794  1.00  0.00     0.074 A 
ATOM     64  C   UNL A   1      43.240  27.560  32.024  1.00  0.00     0.031 C 
ATOM     65  C   UNL A   1      43.003  28.972  34.049  1.00  0.00     0.037 A 
BRANCH  52  66
ATOM     66  C   UNL A   1      39.807  33.674  36.436  1.00  0.00     0.064 A 
ATOM     67  C   UNL A   1      40.559  34.856  36.522  1.00  0.00     0.173 A 
ATOM     68  C   UNL A   1      38.957  33.357  37.506  1.00  0.00     0.173 A 
ATOM     69  F   UNL A   1      41.393  35.200  35.529  1.00  0.00    -0.203 F 
ATOM     70  C   UNL A   1      40.477  35.677  37.643  1.00  0.00     0.198 A 
ATOM     71  C   UNL A   1      38.858  34.194  38.614  1.00  0.00     0.198 A 
ATOM     72  F   UNL A   1      38.212  32.242  37.468  1.00  0.00    -0.203 F 
ATOM     73  F   UNL A   1      41.229  36.784  37.718  1.00  0.00    -0.200 F 
ATOM     74  C   UNL A   1      39.626  35.347  38.686  1.00  0.00     0.200 A 
ATOM     75  F   UNL A   1      38.022  33.883  39.614  1.00  0.00    -0.200 F 
ATOM     76  F   UNL A   1      39.546  36.140  39.764  1.00  0.00    -0.200 F 
ENDBRANCH  52  66
BRANCH  53  77
ATOM     77  C   UNL A   1      41.006  27.825  28.445  1.00  0.00     0.064 A 
ATOM     78  C   UNL A   1      41.888  28.195  27.419  1.00  0.00     0.173 A 
ATOM     79  C   UNL A   1      40.288  26.632  28.291  1.00  0.00     0.173 A 
ATOM     80  F   UNL A   1      42.595  29.331  27.518  1.00  0.00    -0.203 F 
ATOM     81  C   UNL A   1      42.029  27.414  26.276  1.00  0.00     0.198 A 
ATOM     82  C   UNL A   1      40.449  25.838  27.158  1.00  0.00     0.198 A 
ATOM     83  F   UNL A   1      39.448  26.228  29.254  1.00  0.00    -0.203 F 
ATOM     84  F   UNL A   1      42.853  27.806  25.294  1.00  0.00    -0.200 F 
ATOM     85  C   UNL A   1      41.312  26.233  26.148  1.00  0.00     0.200 A 
ATOM     86  F   UNL A   1      39.772  24.686  27.048  1.00  0.00    -0.200 F 
ATOM     87  F   UNL A   1      41.457  25.475  25.052  1.00  0.00    -0.200 F 
ENDBRANCH  53  77
BRANCH  65  88
ATOM     88  C   UNL A   1      44.137  28.210  34.667  1.00  0.00     0.064 A 
ATOM     89  C   UNL A   1      43.896  27.037  35.399  1.00  0.00     0.173 A 
ATOM     90  C   UNL A   1      45.458  28.674  34.582  1.00  0.00     0.173 A 
ATOM     91  F   UNL A   1      42.650  26.557  35.517  1.00  0.00    -0.203 F 
ATOM     92  C   UNL A   1      44.937  26.363  36.032  1.00  0.00     0.198 A 
ATOM     93  C   UNL A   1      46.499  27.982  35.193  1.00  0.00     0.198 A 
ATOM     94  F   UNL A   1      45.740  29.783  33.883  1.00  0.00    -0.203 F 
ATOM     95  F   UNL A   1      44.681  25.261  36.750  1.00  0.00    -0.200 F 
ATOM     96  C   UNL A   1      46.238  26.832  35.924  1.00  0.00     0.200 A 
ATOM     97  F   UNL A   1      47.758  28.423  35.068  1.00  0.00    -0.200 F 
ATOM     98  F   UNL A   1      47.240  26.174  36.522  1.00  0.00    -0.200 F 
ENDBRANCH  65  88
ENDBRANCH  39  40
ENDBRANCH  31  34
ENDBRANCH  29  30
ENDBRANCH  28  29
ENDBRANCH  27  28
ENDBRANCH  26  27
ENDBRANCH   1  26
TORSDOF 17
ENDMDL
