MODEL 1
REMARK VINA RESULT:     -11.6      0.000      0.000
REMARK SMILES CC(C)(C)NC(=O)c1ccccc1C(=O)NCCCCCCNC(=O)c1ccc(-c2c3nc(c(-c4c(F)c(F)c(F)c(F)c4F)c4ccc([nH]4)c(-c4c(F)c(F)c(F)c(F)c4F)c4nc(c(-c5c(F)c(F)c(F)c(F)c5F)c5ccc2[nH]5)C=C4)C=C3)cc1
REMARK SMILES IDX 19 1 18 2 17 3 16 4 14 5 15 6 13 8 8 9 9 10 10 11 12 12
REMARK SMILES IDX 11 13 6 14 5 15 7 17 2 18 1 19 3 20 4 21 20 22 21 23 22 24
REMARK SMILES IDX 23 25 24 26 25 28 26 29 27 30 88 31 28 32 87 33 29 34 30 35
REMARK SMILES IDX 31 36 81 37 32 38 86 39 80 40 82 41 33 42 85 43 79 44 78 45
REMARK SMILES IDX 34 47 66 48 46 49 65 50 47 51 50 52 64 53 83 54 48 55 49 56
REMARK SMILES IDX 63 58 84 59 51 60 35 61 36 62 44 63 37 64 38 65 42 66 45 67
REMARK SMILES IDX 39 68 40 69 43 70 41 71 67 72 68 73 76 74 69 75 70 76 74 77
REMARK SMILES IDX 77 78 71 79 72 80 75 81 73 82 52 83 53 84 61 85 54 86 55 87
REMARK SMILES IDX 59 88 62 89 56 90 57 91 60 92 58 93
REMARK H PARENT 16 7 5 16 23 27 82 46 50 57
REMARK Flexibility Score: inf
ROOT
ATOM      1  C   UNL A   1      37.780  22.068  25.356  1.00  0.00     0.002 C 
ENDROOT
BRANCH   1   2
ATOM      2  C   UNL A   1      37.026  23.315  24.871  1.00  0.00     0.021 C 
BRANCH   2   3
ATOM      3  C   UNL A   1      36.058  23.927  25.874  1.00  0.00     0.116 C 
BRANCH   3   4
ATOM      4  N   UNL A   1      35.390  22.966  26.721  1.00  0.00    -0.352 N 
ATOM      5  C   UNL A   1      34.196  22.309  26.570  1.00  0.00     0.252 C 
ATOM      6  O   UNL A   1      33.890  21.493  27.444  1.00  0.00    -0.269 OA
ATOM      7  H   UNL A   1      35.875  22.744  27.548  1.00  0.00     0.163 HD
BRANCH   5   8
ATOM      8  C   UNL A   1      33.220  22.552  25.473  1.00  0.00     0.052 A 
ATOM      9  C   UNL A   1      32.021  23.269  25.532  1.00  0.00     0.052 A 
ATOM     10  C   UNL A   1      31.190  23.356  24.394  1.00  0.00     0.014 A 
ATOM     11  C   UNL A   1      31.591  22.825  23.171  1.00  0.00     0.001 A 
ATOM     12  C   UNL A   1      33.625  22.061  24.211  1.00  0.00     0.014 A 
ATOM     13  C   UNL A   1      32.826  22.202  23.072  1.00  0.00     0.001 A 
BRANCH   9  14
ATOM     14  C   UNL A   1      31.474  23.945  26.710  1.00  0.00     0.252 C 
ATOM     15  N   UNL A   1      31.462  25.299  26.876  1.00  0.00    -0.347 N 
ATOM     16  H   UNL A   1      31.055  25.554  27.736  1.00  0.00     0.164 HD
ATOM     17  O   UNL A   1      30.944  23.241  27.573  1.00  0.00    -0.269 OA
BRANCH  15  18
ATOM     18  C   UNL A   1      31.896  26.484  26.109  1.00  0.00     0.032 C 
ATOM     19  C   UNL A   1      31.051  26.791  24.869  1.00  0.00     0.034 C 
ATOM     20  C   UNL A   1      33.376  26.354  25.723  1.00  0.00     0.034 C 
ATOM     21  C   UNL A   1      31.776  27.685  27.071  1.00  0.00     0.034 C 
ENDBRANCH  15  18
ENDBRANCH   9  14
ENDBRANCH   5   8
ENDBRANCH   3   4
ENDBRANCH   2   3
ENDBRANCH   1   2
BRANCH   1  22
ATOM     22  C   UNL A   1      37.383  20.716  24.749  1.00  0.00     0.002 C 
BRANCH  22  23
ATOM     23  C   UNL A   1      38.311  19.527  25.001  1.00  0.00     0.021 C 
BRANCH  23  24
ATOM     24  C   UNL A   1      39.323  19.692  26.127  1.00  0.00     0.116 C 
BRANCH  24  25
ATOM     25  N   UNL A   1      40.488  18.837  25.988  1.00  0.00    -0.352 N 
ATOM     26  C   UNL A   1      41.822  19.154  26.040  1.00  0.00     0.251 C 
ATOM     27  H   UNL A   1      40.291  17.885  25.833  1.00  0.00     0.163 HD
ATOM     28  O   UNL A   1      42.659  18.284  25.822  1.00  0.00    -0.269 OA
BRANCH  26  29
ATOM     29  C   UNL A   1      42.266  20.539  26.326  1.00  0.00     0.039 A 
ATOM     30  C   UNL A   1      42.480  21.399  25.244  1.00  0.00     0.014 A 
ATOM     31  C   UNL A   1      42.511  20.990  27.626  1.00  0.00     0.014 A 
ATOM     32  C   UNL A   1      42.905  22.710  25.465  1.00  0.00     0.010 A 
ATOM     33  C   UNL A   1      42.855  22.322  27.852  1.00  0.00     0.010 A 
ATOM     34  C   UNL A   1      43.077  23.190  26.774  1.00  0.00    -0.014 A 
BRANCH  34  35
ATOM     35  C   UNL A   1      43.525  24.585  27.015  1.00  0.00     0.031 A 
ATOM     36  C   UNL A   1      42.565  25.606  27.561  1.00  0.00     0.074 A 
ATOM     37  C   UNL A   1      44.791  24.939  26.722  1.00  0.00     0.049 A 
ATOM     38  N   UNL A   1      42.769  26.868  27.848  1.00  0.00    -0.248 NA
ATOM     39  C   UNL A   1      41.182  25.158  27.792  1.00  0.00     0.031 C 
ATOM     40  C   UNL A   1      45.800  24.055  26.135  1.00  0.00     0.029 A 
ATOM     41  N   UNL A   1      45.446  26.135  26.877  1.00  0.00    -0.354 N 
ATOM     42  C   UNL A   1      41.544  27.362  28.279  1.00  0.00     0.074 A 
ATOM     43  C   UNL A   1      40.588  26.283  28.159  1.00  0.00     0.031 C 
ATOM     44  C   UNL A   1      46.955  24.728  26.013  1.00  0.00     0.029 A 
ATOM     45  C   UNL A   1      46.762  26.096  26.483  1.00  0.00     0.049 A 
ATOM     46  H   UNL A   1      45.015  26.943  27.238  1.00  0.00     0.167 HD
ATOM     47  C   UNL A   1      41.250  28.593  28.762  1.00  0.00     0.037 A 
ATOM     48  C   UNL A   1      47.705  27.056  26.506  1.00  0.00     0.037 A 
ATOM     49  C   UNL A   1      42.210  29.655  28.903  1.00  0.00     0.049 A 
ATOM     50  C   UNL A   1      47.356  28.412  27.061  1.00  0.00     0.074 A 
ATOM     51  C   UNL A   1      42.028  30.922  29.429  1.00  0.00     0.029 A 
ATOM     52  N   UNL A   1      43.539  29.574  28.512  1.00  0.00    -0.354 N 
ATOM     53  N   UNL A   1      46.214  28.844  27.538  1.00  0.00    -0.248 NA
ATOM     54  C   UNL A   1      48.436  29.408  27.095  1.00  0.00     0.031 C 
ATOM     55  C   UNL A   1      43.235  31.622  29.315  1.00  0.00     0.029 A 
ATOM     56  C   UNL A   1      44.184  30.774  28.769  1.00  0.00     0.049 A 
ATOM     57  H   UNL A   1      43.963  28.780  28.111  1.00  0.00     0.167 HD
ATOM     58  C   UNL A   1      46.443  30.147  27.957  1.00  0.00     0.074 A 
ATOM     59  C   UNL A   1      47.840  30.428  27.695  1.00  0.00     0.031 C 
ATOM     60  C   UNL A   1      45.577  31.033  28.507  1.00  0.00     0.037 A 
BRANCH  47  61
ATOM     61  C   UNL A   1      39.829  28.854  29.178  1.00  0.00     0.064 A 
ATOM     62  C   UNL A   1      39.390  28.615  30.490  1.00  0.00     0.173 A 
ATOM     63  C   UNL A   1      38.902  29.374  28.263  1.00  0.00     0.173 A 
ATOM     64  F   UNL A   1      40.232  28.107  31.402  1.00  0.00    -0.203 F 
ATOM     65  C   UNL A   1      38.069  28.855  30.860  1.00  0.00     0.198 A 
ATOM     66  C   UNL A   1      37.590  29.643  28.646  1.00  0.00     0.198 A 
ATOM     67  F   UNL A   1      39.268  29.626  26.997  1.00  0.00    -0.203 F 
ATOM     68  F   UNL A   1      37.660  28.566  32.103  1.00  0.00    -0.200 F 
ATOM     69  C   UNL A   1      37.172  29.374  29.939  1.00  0.00     0.200 A 
ATOM     70  F   UNL A   1      36.727  30.159  27.759  1.00  0.00    -0.200 F 
ATOM     71  F   UNL A   1      35.903  29.610  30.298  1.00  0.00    -0.200 F 
ENDBRANCH  47  61
BRANCH  48  72
ATOM     72  C   UNL A   1      49.081  26.759  26.029  1.00  0.00     0.064 A 
ATOM     73  C   UNL A   1      50.055  26.257  26.903  1.00  0.00     0.173 A 
ATOM     74  C   UNL A   1      49.453  26.976  24.694  1.00  0.00     0.173 A 
ATOM     75  F   UNL A   1      49.754  26.051  28.194  1.00  0.00    -0.203 F 
ATOM     76  C   UNL A   1      51.355  26.009  26.467  1.00  0.00     0.198 A 
ATOM     77  C   UNL A   1      50.745  26.699  24.253  1.00  0.00     0.198 A 
ATOM     78  F   UNL A   1      48.557  27.449  23.815  1.00  0.00    -0.203 F 
ATOM     79  F   UNL A   1      52.280  25.578  27.337  1.00  0.00    -0.200 F 
ATOM     80  C   UNL A   1      51.697  26.225  25.141  1.00  0.00     0.200 A 
ATOM     81  F   UNL A   1      51.069  26.895  22.967  1.00  0.00    -0.200 F 
ATOM     82  F   UNL A   1      52.947  25.984  24.723  1.00  0.00    -0.200 F 
ENDBRANCH  48  72
BRANCH  60  83
ATOM     83  C   UNL A   1      46.127  32.375  28.899  1.00  0.00     0.064 A 
ATOM     84  C   UNL A   1      46.681  32.607  30.166  1.00  0.00     0.173 A 
ATOM     85  C   UNL A   1      46.113  33.440  27.984  1.00  0.00     0.173 A 
ATOM     86  F   UNL A   1      46.706  31.626  31.081  1.00  0.00    -0.203 F 
ATOM     87  C   UNL A   1      47.164  33.865  30.518  1.00  0.00     0.198 A 
ATOM     88  C   UNL A   1      46.628  34.687  28.327  1.00  0.00     0.198 A 
ATOM     89  F   UNL A   1      45.602  33.270  26.755  1.00  0.00    -0.203 F 
ATOM     90  F   UNL A   1      47.630  34.080  31.756  1.00  0.00    -0.200 F 
ATOM     91  C   UNL A   1      47.142  34.901  29.597  1.00  0.00     0.200 A 
ATOM     92  F   UNL A   1      46.620  35.684  27.431  1.00  0.00    -0.200 F 
ATOM     93  F   UNL A   1      47.606  36.112  29.937  1.00  0.00    -0.200 F 
ENDBRANCH  60  83
ENDBRANCH  34  35
ENDBRANCH  26  29
ENDBRANCH  24  25
ENDBRANCH  23  24
ENDBRANCH  22  23
ENDBRANCH   1  22
TORSDOF 15
ENDMDL
MODEL 2
REMARK VINA RESULT:     -11.6      3.321      8.675
REMARK SMILES CC(C)(C)NC(=O)c1ccccc1C(=O)NCCCCCCNC(=O)c1ccc(-c2c3nc(c(-c4c(F)c(F)c(F)c(F)c4F)c4ccc([nH]4)c(-c4c(F)c(F)c(F)c(F)c4F)c4nc(c(-c5c(F)c(F)c(F)c(F)c5F)c5ccc2[nH]5)C=C4)C=C3)cc1
REMARK SMILES IDX 19 1 18 2 17 3 16 4 14 5 15 6 13 8 8 9 9 10 10 11 12 12
REMARK SMILES IDX 11 13 6 14 5 15 7 17 2 18 1 19 3 20 4 21 20 22 21 23 22 24
REMARK SMILES IDX 23 25 24 26 25 28 26 29 27 30 88 31 28 32 87 33 29 34 30 35
REMARK SMILES IDX 31 36 81 37 32 38 86 39 80 40 82 41 33 42 85 43 79 44 78 45
REMARK SMILES IDX 34 47 66 48 46 49 65 50 47 51 50 52 64 53 83 54 48 55 49 56
REMARK SMILES IDX 63 58 84 59 51 60 35 61 36 62 44 63 37 64 38 65 42 66 45 67
REMARK SMILES IDX 39 68 40 69 43 70 41 71 67 72 68 73 76 74 69 75 70 76 74 77
REMARK SMILES IDX 77 78 71 79 72 80 75 81 73 82 52 83 53 84 61 85 54 86 55 87
REMARK SMILES IDX 59 88 62 89 56 90 57 91 60 92 58 93
REMARK H PARENT 16 7 5 16 23 27 82 46 50 57
REMARK Flexibility Score: inf
ROOT
ATOM      1  C   UNL A   1      34.359  21.713  24.630  1.00  0.00     0.002 C 
ENDROOT
BRANCH   1   2
ATOM      2  C   UNL A   1      33.051  21.376  23.898  1.00  0.00     0.021 C 
BRANCH   2   3
ATOM      3  C   UNL A   1      32.738  22.242  22.684  1.00  0.00     0.116 C 
BRANCH   3   4
ATOM      4  N   UNL A   1      31.476  22.942  22.761  1.00  0.00    -0.352 N 
ATOM      5  C   UNL A   1      31.151  24.155  23.311  1.00  0.00     0.252 C 
ATOM      6  O   UNL A   1      29.983  24.533  23.188  1.00  0.00    -0.269 OA
ATOM      7  H   UNL A   1      30.720  22.467  22.347  1.00  0.00     0.163 HD
BRANCH   5   8
ATOM      8  C   UNL A   1      32.080  25.013  24.096  1.00  0.00     0.052 A 
ATOM      9  C   UNL A   1      32.703  26.199  23.693  1.00  0.00     0.052 A 
ATOM     10  C   UNL A   1      33.599  26.860  24.561  1.00  0.00     0.014 A 
ATOM     11  C   UNL A   1      33.801  26.408  25.862  1.00  0.00     0.001 A 
ATOM     12  C   UNL A   1      32.267  24.601  25.435  1.00  0.00     0.014 A 
ATOM     13  C   UNL A   1      33.110  25.292  26.311  1.00  0.00     0.001 A 
BRANCH   9  14
ATOM     14  C   UNL A   1      32.558  26.853  22.392  1.00  0.00     0.252 C 
ATOM     15  N   UNL A   1      31.675  27.861  22.137  1.00  0.00    -0.347 N 
ATOM     16  H   UNL A   1      31.729  28.162  21.202  1.00  0.00     0.164 HD
ATOM     17  O   UNL A   1      33.325  26.502  21.492  1.00  0.00    -0.269 OA
BRANCH  15  18
ATOM     18  C   UNL A   1      30.659  28.622  22.893  1.00  0.00     0.032 C 
ATOM     19  C   UNL A   1      31.178  29.297  24.166  1.00  0.00     0.034 C 
ATOM     20  C   UNL A   1      29.458  27.724  23.221  1.00  0.00     0.034 C 
ATOM     21  C   UNL A   1      30.158  29.729  21.943  1.00  0.00     0.034 C 
ENDBRANCH  15  18
ENDBRANCH   9  14
ENDBRANCH   5   8
ENDBRANCH   3   4
ENDBRANCH   2   3
ENDBRANCH   1   2
BRANCH   1  22
ATOM     22  C   UNL A   1      35.417  22.515  23.861  1.00  0.00     0.002 C 
BRANCH  22  23
ATOM     23  C   UNL A   1      35.937  23.800  24.505  1.00  0.00     0.021 C 
BRANCH  23  24
ATOM     24  C   UNL A   1      36.565  23.655  25.885  1.00  0.00     0.116 C 
BRANCH  24  25
ATOM     25  N   UNL A   1      37.682  22.729  25.919  1.00  0.00    -0.352 N 
ATOM     26  C   UNL A   1      38.965  22.915  26.366  1.00  0.00     0.251 C 
ATOM     27  H   UNL A   1      37.489  21.830  25.566  1.00  0.00     0.163 HD
ATOM     28  O   UNL A   1      39.788  22.015  26.235  1.00  0.00    -0.269 OA
BRANCH  26  29
ATOM     29  C   UNL A   1      39.380  24.201  26.976  1.00  0.00     0.039 A 
ATOM     30  C   UNL A   1      40.015  25.143  26.159  1.00  0.00     0.014 A 
ATOM     31  C   UNL A   1      39.194  24.477  28.333  1.00  0.00     0.014 A 
ATOM     32  C   UNL A   1      40.429  26.365  26.693  1.00  0.00     0.010 A 
ATOM     33  C   UNL A   1      39.533  25.728  28.846  1.00  0.00     0.010 A 
ATOM     34  C   UNL A   1      40.173  26.677  28.038  1.00  0.00    -0.014 A 
BRANCH  34  35
ATOM     35  C   UNL A   1      40.608  27.977  28.609  1.00  0.00     0.031 A 
ATOM     36  C   UNL A   1      42.058  28.214  28.936  1.00  0.00     0.074 A 
ATOM     37  C   UNL A   1      39.696  28.937  28.854  1.00  0.00     0.049 A 
ATOM     38  N   UNL A   1      42.633  29.281  29.430  1.00  0.00    -0.248 NA
ATOM     39  C   UNL A   1      42.981  27.092  28.703  1.00  0.00     0.031 C 
ATOM     40  C   UNL A   1      38.254  28.807  28.633  1.00  0.00     0.029 A 
ATOM     41  N   UNL A   1      39.844  30.211  29.342  1.00  0.00    -0.354 N 
ATOM     42  C   UNL A   1      43.976  28.956  29.575  1.00  0.00     0.074 A 
ATOM     43  C   UNL A   1      44.120  27.573  29.177  1.00  0.00     0.031 C 
ATOM     44  C   UNL A   1      37.656  29.966  28.950  1.00  0.00     0.029 A 
ATOM     45  C   UNL A   1      38.664  30.909  29.424  1.00  0.00     0.049 A 
ATOM     46  H   UNL A   1      40.714  30.589  29.606  1.00  0.00     0.167 HD
ATOM     47  C   UNL A   1      45.001  29.747  29.974  1.00  0.00     0.037 A 
ATOM     48  C   UNL A   1      38.426  32.169  29.831  1.00  0.00     0.037 A 
ATOM     49  C   UNL A   1      44.856  31.130  30.346  1.00  0.00     0.049 A 
ATOM     50  C   UNL A   1      39.584  33.033  30.256  1.00  0.00     0.074 A 
ATOM     51  C   UNL A   1      45.837  32.034  30.714  1.00  0.00     0.029 A 
ATOM     52  N   UNL A   1      43.647  31.809  30.399  1.00  0.00    -0.354 N 
ATOM     53  N   UNL A   1      40.860  32.738  30.315  1.00  0.00    -0.248 NA
ATOM     54  C   UNL A   1      39.268  34.411  30.655  1.00  0.00     0.031 C 
ATOM     55  C   UNL A   1      45.216  33.247  31.033  1.00  0.00     0.029 A 
ATOM     56  C   UNL A   1      43.856  33.116  30.810  1.00  0.00     0.049 A 
ATOM     57  H   UNL A   1      42.770  31.420  30.176  1.00  0.00     0.167 HD
ATOM     58  C   UNL A   1      41.502  33.898  30.726  1.00  0.00     0.074 A 
ATOM     59  C   UNL A   1      40.475  34.908  30.882  1.00  0.00     0.031 C 
ATOM     60  C   UNL A   1      42.822  34.110  30.955  1.00  0.00     0.037 A 
BRANCH  47  61
ATOM     61  C   UNL A   1      46.372  29.133  30.023  1.00  0.00     0.064 A 
ATOM     62  C   UNL A   1      47.216  29.124  28.900  1.00  0.00     0.173 A 
ATOM     63  C   UNL A   1      46.861  28.573  31.212  1.00  0.00     0.173 A 
ATOM     64  F   UNL A   1      46.793  29.637  27.734  1.00  0.00    -0.203 F 
ATOM     65  C   UNL A   1      48.481  28.546  28.957  1.00  0.00     0.198 A 
ATOM     66  C   UNL A   1      48.140  28.025  31.274  1.00  0.00     0.198 A 
ATOM     67  F   UNL A   1      46.101  28.560  32.317  1.00  0.00    -0.203 F 
ATOM     68  F   UNL A   1      49.245  28.499  27.857  1.00  0.00    -0.200 F 
ATOM     69  C   UNL A   1      48.945  28.003  30.145  1.00  0.00     0.200 A 
ATOM     70  F   UNL A   1      48.593  27.513  32.427  1.00  0.00    -0.200 F 
ATOM     71  F   UNL A   1      50.165  27.453  30.201  1.00  0.00    -0.200 F 
ENDBRANCH  47  61
BRANCH  48  72
ATOM     72  C   UNL A   1      37.040  32.707  29.817  1.00  0.00     0.064 A 
ATOM     73  C   UNL A   1      36.215  32.605  30.946  1.00  0.00     0.173 A 
ATOM     74  C   UNL A   1      36.510  33.327  28.676  1.00  0.00     0.173 A 
ATOM     75  F   UNL A   1      36.669  32.003  32.055  1.00  0.00    -0.203 F 
ATOM     76  C   UNL A   1      34.904  33.078  30.925  1.00  0.00     0.198 A 
ATOM     77  C   UNL A   1      35.210  33.827  28.668  1.00  0.00     0.198 A 
ATOM     78  F   UNL A   1      37.260  33.457  27.572  1.00  0.00    -0.203 F 
ATOM     79  F   UNL A   1      34.121  32.920  32.001  1.00  0.00    -0.200 F 
ATOM     80  C   UNL A   1      34.405  33.694  29.788  1.00  0.00     0.200 A 
ATOM     81  F   UNL A   1      34.734  34.435  27.571  1.00  0.00    -0.200 F 
ATOM     82  F   UNL A   1      33.145  34.150  29.770  1.00  0.00    -0.200 F 
ENDBRANCH  48  72
BRANCH  60  83
ATOM     83  C   UNL A   1      43.232  35.497  31.360  1.00  0.00     0.064 A 
ATOM     84  C   UNL A   1      43.235  35.906  32.701  1.00  0.00     0.173 A 
ATOM     85  C   UNL A   1      43.642  36.425  30.390  1.00  0.00     0.173 A 
ATOM     86  F   UNL A   1      42.839  35.061  33.665  1.00  0.00    -0.203 F 
ATOM     87  C   UNL A   1      43.595  37.204  33.054  1.00  0.00     0.198 A 
ATOM     88  C   UNL A   1      44.034  37.712  30.749  1.00  0.00     0.198 A 
ATOM     89  F   UNL A   1      43.665  36.084  29.093  1.00  0.00    -0.203 F 
ATOM     90  F   UNL A   1      43.530  37.591  34.336  1.00  0.00    -0.200 F 
ATOM     91  C   UNL A   1      43.999  38.103  32.079  1.00  0.00     0.200 A 
ATOM     92  F   UNL A   1      44.439  38.575  29.807  1.00  0.00    -0.200 F 
ATOM     93  F   UNL A   1      44.346  39.352  32.419  1.00  0.00    -0.200 F 
ENDBRANCH  60  83
ENDBRANCH  34  35
ENDBRANCH  26  29
ENDBRANCH  24  25
ENDBRANCH  23  24
ENDBRANCH  22  23
ENDBRANCH   1  22
TORSDOF 15
ENDMDL
MODEL 3
REMARK VINA RESULT:     -11.6      5.508      9.823
REMARK SMILES CC(C)(C)NC(=O)c1ccccc1C(=O)NCCCCCCNC(=O)c1ccc(-c2c3nc(c(-c4c(F)c(F)c(F)c(F)c4F)c4ccc([nH]4)c(-c4c(F)c(F)c(F)c(F)c4F)c4nc(c(-c5c(F)c(F)c(F)c(F)c5F)c5ccc2[nH]5)C=C4)C=C3)cc1
REMARK SMILES IDX 19 1 18 2 17 3 16 4 14 5 15 6 13 8 8 9 9 10 10 11 12 12
REMARK SMILES IDX 11 13 6 14 5 15 7 17 2 18 1 19 3 20 4 21 20 22 21 23 22 24
REMARK SMILES IDX 23 25 24 26 25 28 26 29 27 30 88 31 28 32 87 33 29 34 30 35
REMARK SMILES IDX 31 36 81 37 32 38 86 39 80 40 82 41 33 42 85 43 79 44 78 45
REMARK SMILES IDX 34 47 66 48 46 49 65 50 47 51 50 52 64 53 83 54 48 55 49 56
REMARK SMILES IDX 63 58 84 59 51 60 35 61 36 62 44 63 37 64 38 65 42 66 45 67
REMARK SMILES IDX 39 68 40 69 43 70 41 71 67 72 68 73 76 74 69 75 70 76 74 77
REMARK SMILES IDX 77 78 71 79 72 80 75 81 73 82 52 83 53 84 61 85 54 86 55 87
REMARK SMILES IDX 59 88 62 89 56 90 57 91 60 92 58 93
REMARK H PARENT 16 7 5 16 23 27 82 46 50 57
REMARK Flexibility Score: inf
ROOT
ATOM      1  C   UNL A   1      32.991  30.153  27.066  1.00  0.00     0.002 C 
ENDROOT
BRANCH   1   2
ATOM      2  C   UNL A   1      33.126  28.635  27.252  1.00  0.00     0.021 C 
BRANCH   2   3
ATOM      3  C   UNL A   1      34.016  27.927  26.239  1.00  0.00     0.116 C 
BRANCH   3   4
ATOM      4  N   UNL A   1      34.001  28.514  24.919  1.00  0.00    -0.352 N 
ATOM      5  C   UNL A   1      33.178  28.294  23.845  1.00  0.00     0.252 C 
ATOM      6  O   UNL A   1      33.370  28.984  22.841  1.00  0.00    -0.269 OA
ATOM      7  H   UNL A   1      34.702  29.187  24.764  1.00  0.00     0.163 HD
BRANCH   5   8
ATOM      8  C   UNL A   1      32.120  27.249  23.780  1.00  0.00     0.052 A 
ATOM      9  C   UNL A   1      32.160  26.025  23.104  1.00  0.00     0.052 A 
ATOM     10  C   UNL A   1      31.035  25.173  23.113  1.00  0.00     0.014 A 
ATOM     11  C   UNL A   1      29.909  25.480  23.872  1.00  0.00     0.001 A 
ATOM     12  C   UNL A   1      30.985  27.517  24.578  1.00  0.00     0.014 A 
ATOM     13  C   UNL A   1      29.896  26.640  24.632  1.00  0.00     0.001 A 
BRANCH   9  14
ATOM     14  C   UNL A   1      33.279  25.512  22.312  1.00  0.00     0.252 C 
ATOM     15  N   UNL A   1      34.138  24.543  22.742  1.00  0.00    -0.347 N 
ATOM     16  H   UNL A   1      34.823  24.340  22.065  1.00  0.00     0.164 HD
ATOM     17  O   UNL A   1      33.410  25.947  21.166  1.00  0.00    -0.269 OA
BRANCH  15  18
ATOM     18  C   UNL A   1      34.313  23.717  23.955  1.00  0.00     0.032 C 
ATOM     19  C   UNL A   1      33.212  22.678  24.188  1.00  0.00     0.034 C 
ATOM     20  C   UNL A   1      34.466  24.614  25.191  1.00  0.00     0.034 C 
ATOM     21  C   UNL A   1      35.645  22.960  23.769  1.00  0.00     0.034 C 
ENDBRANCH  15  18
ENDBRANCH   9  14
ENDBRANCH   5   8
ENDBRANCH   3   4
ENDBRANCH   2   3
ENDBRANCH   1   2
BRANCH   1  22
ATOM     22  C   UNL A   1      31.646  30.690  26.561  1.00  0.00     0.002 C 
BRANCH  22  23
ATOM     23  C   UNL A   1      31.406  32.198  26.652  1.00  0.00     0.021 C 
BRANCH  23  24
ATOM     24  C   UNL A   1      32.639  33.061  26.886  1.00  0.00     0.116 C 
BRANCH  24  25
ATOM     25  N   UNL A   1      32.362  34.279  27.625  1.00  0.00    -0.352 N 
ATOM     26  C   UNL A   1      33.003  34.812  28.714  1.00  0.00     0.251 C 
ATOM     27  H   UNL A   1      31.596  34.802  27.294  1.00  0.00     0.163 HD
ATOM     28  O   UNL A   1      32.559  35.826  29.241  1.00  0.00    -0.269 OA
BRANCH  26  29
ATOM     29  C   UNL A   1      34.209  34.161  29.282  1.00  0.00     0.039 A 
ATOM     30  C   UNL A   1      34.026  33.161  30.243  1.00  0.00     0.014 A 
ATOM     31  C   UNL A   1      35.502  34.543  28.919  1.00  0.00     0.014 A 
ATOM     32  C   UNL A   1      35.132  32.526  30.810  1.00  0.00     0.010 A 
ATOM     33  C   UNL A   1      36.604  33.852  29.423  1.00  0.00     0.010 A 
ATOM     34  C   UNL A   1      36.432  32.852  30.390  1.00  0.00    -0.014 A 
BRANCH  34  35
ATOM     35  C   UNL A   1      37.612  32.177  30.987  1.00  0.00     0.031 A 
ATOM     36  C   UNL A   1      38.086  32.556  32.364  1.00  0.00     0.074 A 
ATOM     37  C   UNL A   1      38.271  31.237  30.282  1.00  0.00     0.049 A 
ATOM     38  N   UNL A   1      39.087  32.075  33.059  1.00  0.00    -0.248 NA
ATOM     39  C   UNL A   1      37.354  33.638  33.042  1.00  0.00     0.031 C 
ATOM     40  C   UNL A   1      37.943  30.823  28.917  1.00  0.00     0.029 A 
ATOM     41  N   UNL A   1      39.352  30.460  30.615  1.00  0.00    -0.354 N 
ATOM     42  C   UNL A   1      39.109  32.801  34.243  1.00  0.00     0.074 A 
ATOM     43  C   UNL A   1      38.064  33.796  34.149  1.00  0.00     0.031 C 
ATOM     44  C   UNL A   1      38.782  29.844  28.542  1.00  0.00     0.029 A 
ATOM     45  C   UNL A   1      39.723  29.582  29.627  1.00  0.00     0.049 A 
ATOM     46  H   UNL A   1      39.816  30.526  31.481  1.00  0.00     0.167 HD
ATOM     47  C   UNL A   1      39.909  32.634  35.324  1.00  0.00     0.037 A 
ATOM     48  C   UNL A   1      40.709  28.666  29.602  1.00  0.00     0.037 A 
ATOM     49  C   UNL A   1      40.932  31.627  35.423  1.00  0.00     0.049 A 
ATOM     50  C   UNL A   1      41.575  28.490  30.822  1.00  0.00     0.074 A 
ATOM     51  C   UNL A   1      41.762  31.339  36.492  1.00  0.00     0.029 A 
ATOM     52  N   UNL A   1      41.268  30.742  34.408  1.00  0.00    -0.354 N 
ATOM     53  N   UNL A   1      41.536  29.130  31.966  1.00  0.00    -0.248 NA
ATOM     54  C   UNL A   1      42.610  27.450  30.751  1.00  0.00     0.031 C 
ATOM     55  C   UNL A   1      42.629  30.309  36.109  1.00  0.00     0.029 A 
ATOM     56  C   UNL A   1      42.304  29.918  34.821  1.00  0.00     0.049 A 
ATOM     57  H   UNL A   1      40.833  30.704  33.525  1.00  0.00     0.167 HD
ATOM     58  C   UNL A   1      42.517  28.553  32.760  1.00  0.00     0.074 A 
ATOM     59  C   UNL A   1      43.120  27.496  31.973  1.00  0.00     0.031 C 
ATOM     60  C   UNL A   1      42.887  28.868  34.026  1.00  0.00     0.037 A 
BRANCH  47  61
ATOM     61  C   UNL A   1      39.702  33.561  36.489  1.00  0.00     0.064 A 
ATOM     62  C   UNL A   1      40.331  34.815  36.553  1.00  0.00     0.173 A 
ATOM     63  C   UNL A   1      38.845  33.205  37.541  1.00  0.00     0.173 A 
ATOM     64  F   UNL A   1      41.170  35.200  35.580  1.00  0.00    -0.203 F 
ATOM     65  C   UNL A   1      40.136  35.661  37.642  1.00  0.00     0.198 A 
ATOM     66  C   UNL A   1      38.627  34.068  38.612  1.00  0.00     0.198 A 
ATOM     67  F   UNL A   1      38.213  32.022  37.529  1.00  0.00    -0.203 F 
ATOM     68  F   UNL A   1      40.792  36.828  37.707  1.00  0.00    -0.200 F 
ATOM     69  C   UNL A   1      39.279  35.290  38.667  1.00  0.00     0.200 A 
ATOM     70  F   UNL A   1      37.787  33.715  39.595  1.00  0.00    -0.200 F 
ATOM     71  F   UNL A   1      39.088  36.108  39.711  1.00  0.00    -0.200 F 
ENDBRANCH  47  61
BRANCH  48  72
ATOM     72  C   UNL A   1      40.905  27.815  28.400  1.00  0.00     0.064 A 
ATOM     73  C   UNL A   1      41.731  28.233  27.347  1.00  0.00     0.173 A 
ATOM     74  C   UNL A   1      40.269  26.572  28.274  1.00  0.00     0.173 A 
ATOM     75  F   UNL A   1      42.347  29.423  27.411  1.00  0.00    -0.203 F 
ATOM     76  C   UNL A   1      41.892  27.453  26.203  1.00  0.00     0.198 A 
ATOM     77  C   UNL A   1      40.454  25.779  27.143  1.00  0.00     0.198 A 
ATOM     78  F   UNL A   1      39.474  26.122  29.256  1.00  0.00    -0.203 F 
ATOM     79  F   UNL A   1      42.645  27.901  25.190  1.00  0.00    -0.200 F 
ATOM     80  C   UNL A   1      41.257  26.225  26.105  1.00  0.00     0.200 A 
ATOM     81  F   UNL A   1      39.851  24.585  27.058  1.00  0.00    -0.200 F 
ATOM     82  F   UNL A   1      41.413  25.474  25.006  1.00  0.00    -0.200 F 
ENDBRANCH  48  72
BRANCH  60  83
ATOM     83  C   UNL A   1      43.969  28.033  34.650  1.00  0.00     0.064 A 
ATOM     84  C   UNL A   1      45.320  28.400  34.581  1.00  0.00     0.173 A 
ATOM     85  C   UNL A   1      43.644  26.854  35.341  1.00  0.00     0.173 A 
ATOM     86  F   UNL A   1      45.686  29.510  33.921  1.00  0.00    -0.203 F 
ATOM     87  C   UNL A   1      46.310  27.599  35.146  1.00  0.00     0.198 A 
ATOM     88  C   UNL A   1      44.632  26.074  35.934  1.00  0.00     0.198 A 
ATOM     89  F   UNL A   1      42.365  26.461  35.444  1.00  0.00    -0.203 F 
ATOM     90  F   UNL A   1      47.601  27.938  35.012  1.00  0.00    -0.200 F 
ATOM     91  C   UNL A   1      45.965  26.441  35.825  1.00  0.00     0.200 A 
ATOM     92  F   UNL A   1      44.296  24.963  36.603  1.00  0.00    -0.200 F 
ATOM     93  F   UNL A   1      46.919  25.671  36.368  1.00  0.00    -0.200 F 
ENDBRANCH  60  83
ENDBRANCH  34  35
ENDBRANCH  26  29
ENDBRANCH  24  25
ENDBRANCH  23  24
ENDBRANCH  22  23
ENDBRANCH   1  22
TORSDOF 15
ENDMDL
