MODEL 1
REMARK VINA RESULT:     -11.8      0.000      0.000
REMARK SMILES Cc1nsc(N(C)C(=O)[C@@H](C)NC(N)=O)c1C(=O)NCCCCCCNC(=O)c1ccc(-c2c3nc(c(-c4c(F)c(F)c(F)c(F)c4F)c4ccc([nH]4)c(-c4c(F)c(F)c(F)c(F)c4F)c4nc(c(-c5c(F)c(F)c(F)c(F)c5F)c5ccc2[nH]5)C=C4)C=C3)cc1
REMARK SMILES IDX 21 1 20 2 19 3 17 4 18 5 16 7 1 8 2 9 3 10 4 11 5 12 6 13
REMARK SMILES IDX 7 14 8 15 9 16 10 17 11 18 12 19 13 20 14 22 15 23 22 26
REMARK SMILES IDX 23 27 24 28 25 29 26 30 27 31 28 33 29 34 30 35 91 36 31 37
REMARK SMILES IDX 90 38 32 39 33 40 34 41 84 42 35 43 89 44 83 45 85 46 36 47
REMARK SMILES IDX 88 48 82 49 81 50 37 52 69 53 49 54 68 55 50 56 53 57 67 58
REMARK SMILES IDX 86 59 51 60 52 61 66 63 87 64 54 65 38 66 39 67 47 68 40 69
REMARK SMILES IDX 41 70 45 71 48 72 42 73 43 74 46 75 44 76 70 77 71 78 79 79
REMARK SMILES IDX 72 80 73 81 77 82 80 83 74 84 75 85 78 86 76 87 55 88 56 89
REMARK SMILES IDX 64 90 57 91 58 92 62 93 65 94 59 95 60 96 63 97 61 98
REMARK H PARENT 19 6 12 21 14 24 14 25 26 32 85 51 53 62
REMARK Flexibility Score: inf
ROOT
ATOM      1  C   UNL A   1      36.334  22.914  23.268  1.00  0.00     0.021 C 
ENDROOT
BRANCH   1   2
ATOM      2  C   UNL A   1      34.815  23.043  23.212  1.00  0.00     0.116 C 
BRANCH   2   3
ATOM      3  N   UNL A   1      34.360  24.323  23.678  1.00  0.00    -0.352 N 
ATOM      4  C   UNL A   1      33.970  24.695  24.938  1.00  0.00     0.256 C 
ATOM      5  O   UNL A   1      34.520  25.718  25.363  1.00  0.00    -0.269 OA
ATOM      6  H   UNL A   1      34.325  25.033  22.997  1.00  0.00     0.163 HD
BRANCH   4   7
ATOM      7  C   UNL A   1      32.939  24.012  25.738  1.00  0.00     0.097 A 
ATOM      8  C   UNL A   1      34.118  22.292  27.459  1.00  0.00     0.069 C 
ATOM      9  C   UNL A   1      32.997  23.068  26.862  1.00  0.00     0.066 A 
ATOM     10  N   UNL A   1      31.852  22.874  27.519  1.00  0.00    -0.195 NA
ATOM     11  S   UNL A   1      30.650  23.675  26.777  1.00  0.00    -0.017 S 
ATOM     12  C   UNL A   1      31.575  24.262  25.467  1.00  0.00     0.131 A 
BRANCH  12  13
ATOM     13  N   UNL A   1      30.876  24.869  24.384  1.00  0.00    -0.303 N 
ATOM     14  C   UNL A   1      30.507  24.148  23.169  1.00  0.00     0.154 C 
BRANCH  13  15
ATOM     15  C   UNL A   1      30.786  26.275  24.411  1.00  0.00     0.249 C 
ATOM     16  O   UNL A   1      30.726  26.888  25.490  1.00  0.00    -0.272 OA
BRANCH  15  17
ATOM     17  C   UNL A   1      30.988  27.118  23.109  1.00  0.00     0.170 C 
ATOM     18  C   UNL A   1      29.743  27.954  22.814  1.00  0.00     0.041 C 
BRANCH  17  19
ATOM     19  N   UNL A   1      32.185  27.947  22.970  1.00  0.00    -0.327 N 
ATOM     20  C   UNL A   1      33.308  27.513  22.336  1.00  0.00     0.312 C 
ATOM     21  H   UNL A   1      32.178  28.856  23.351  1.00  0.00     0.166 HD
ATOM     22  N   UNL A   1      34.285  28.452  22.300  1.00  0.00    -0.352 N 
ATOM     23  O   UNL A   1      33.459  26.420  21.814  1.00  0.00    -0.249 OA
ATOM     24  H   UNL A   1      34.143  29.328  22.727  1.00  0.00     0.161 HD
ATOM     25  H   UNL A   1      35.138  28.257  21.848  1.00  0.00     0.161 HD
ENDBRANCH  17  19
ENDBRANCH  15  17
ENDBRANCH  13  15
ENDBRANCH  12  13
ENDBRANCH   4   7
ENDBRANCH   2   3
ENDBRANCH   1   2
BRANCH   1  26
ATOM     26  C   UNL A   1      36.848  22.252  24.551  1.00  0.00     0.002 C 
BRANCH  26  27
ATOM     27  C   UNL A   1      36.388  20.801  24.779  1.00  0.00     0.002 C 
BRANCH  27  28
ATOM     28  C   UNL A   1      37.498  19.745  24.911  1.00  0.00     0.021 C 
BRANCH  28  29
ATOM     29  C   UNL A   1      38.748  20.285  25.574  1.00  0.00     0.116 C 
BRANCH  29  30
ATOM     30  N   UNL A   1      39.770  19.244  25.758  1.00  0.00    -0.352 N 
ATOM     31  C   UNL A   1      41.126  19.394  25.972  1.00  0.00     0.251 C 
ATOM     32  H   UNL A   1      39.445  18.316  25.724  1.00  0.00     0.163 HD
ATOM     33  O   UNL A   1      41.918  18.471  25.777  1.00  0.00    -0.269 OA
BRANCH  31  34
ATOM     34  C   UNL A   1      41.604  20.687  26.472  1.00  0.00     0.039 A 
ATOM     35  C   UNL A   1      42.302  21.615  25.693  1.00  0.00     0.014 A 
ATOM     36  C   UNL A   1      41.266  20.972  27.786  1.00  0.00     0.014 A 
ATOM     37  C   UNL A   1      42.627  22.841  26.269  1.00  0.00     0.010 A 
ATOM     38  C   UNL A   1      41.271  22.260  28.201  1.00  0.00     0.010 A 
ATOM     39  C   UNL A   1      42.107  23.137  27.536  1.00  0.00    -0.014 A 
BRANCH  39  40
ATOM     40  C   UNL A   1      42.399  24.348  28.275  1.00  0.00     0.031 A 
ATOM     41  C   UNL A   1      41.368  25.407  28.164  1.00  0.00     0.074 A 
ATOM     42  C   UNL A   1      43.369  24.337  29.220  1.00  0.00     0.049 A 
ATOM     43  N   UNL A   1      41.505  26.589  27.667  1.00  0.00    -0.248 NA
ATOM     44  C   UNL A   1      39.980  25.067  28.520  1.00  0.00     0.031 C 
ATOM     45  C   UNL A   1      44.224  23.221  29.663  1.00  0.00     0.029 A 
ATOM     46  N   UNL A   1      43.705  25.319  30.093  1.00  0.00    -0.354 N 
ATOM     47  C   UNL A   1      40.268  27.212  27.805  1.00  0.00     0.074 A 
ATOM     48  C   UNL A   1      39.334  26.176  28.158  1.00  0.00     0.031 C 
ATOM     49  C   UNL A   1      44.792  23.521  30.851  1.00  0.00     0.029 A 
ATOM     50  C   UNL A   1      44.484  24.899  31.168  1.00  0.00     0.049 A 
ATOM     51  H   UNL A   1      43.421  26.256  29.976  1.00  0.00     0.167 HD
ATOM     52  C   UNL A   1      40.164  28.570  27.827  1.00  0.00     0.037 A 
ATOM     53  C   UNL A   1      44.783  25.650  32.257  1.00  0.00     0.037 A 
ATOM     54  C   UNL A   1      41.392  29.181  27.381  1.00  0.00     0.049 A 
ATOM     55  C   UNL A   1      44.546  27.070  31.869  1.00  0.00     0.074 A 
ATOM     56  C   UNL A   1      42.091  29.172  26.190  1.00  0.00     0.029 A 
ATOM     57  N   UNL A   1      42.290  29.587  28.341  1.00  0.00    -0.354 N 
ATOM     58  N   UNL A   1      45.252  27.689  30.959  1.00  0.00    -0.248 NA
ATOM     59  C   UNL A   1      43.210  27.607  32.095  1.00  0.00     0.031 C 
ATOM     60  C   UNL A   1      43.460  29.070  26.574  1.00  0.00     0.029 A 
ATOM     61  C   UNL A   1      43.525  29.117  27.968  1.00  0.00     0.049 A 
ATOM     62  H   UNL A   1      42.085  30.115  29.146  1.00  0.00     0.167 HD
ATOM     63  C   UNL A   1      44.327  28.416  30.220  1.00  0.00     0.074 A 
ATOM     64  C   UNL A   1      43.090  28.360  30.997  1.00  0.00     0.031 C 
ATOM     65  C   UNL A   1      44.551  28.730  28.909  1.00  0.00     0.037 A 
BRANCH  52  66
ATOM     66  C   UNL A   1      39.111  29.360  28.562  1.00  0.00     0.064 A 
ATOM     67  C   UNL A   1      39.067  29.284  29.970  1.00  0.00     0.173 A 
ATOM     68  C   UNL A   1      37.979  29.936  27.950  1.00  0.00     0.173 A 
ATOM     69  F   UNL A   1      40.091  28.759  30.661  1.00  0.00    -0.203 F 
ATOM     70  C   UNL A   1      37.936  29.663  30.695  1.00  0.00     0.198 A 
ATOM     71  C   UNL A   1      36.874  30.363  28.682  1.00  0.00     0.198 A 
ATOM     72  F   UNL A   1      37.845  30.011  26.621  1.00  0.00    -0.203 F 
ATOM     73  F   UNL A   1      37.890  29.447  32.017  1.00  0.00    -0.200 F 
ATOM     74  C   UNL A   1      36.834  30.192  30.049  1.00  0.00     0.200 A 
ATOM     75  F   UNL A   1      35.811  30.865  28.036  1.00  0.00    -0.200 F 
ATOM     76  F   UNL A   1      35.723  30.491  30.732  1.00  0.00    -0.200 F 
ENDBRANCH  52  66
BRANCH  53  77
ATOM     77  C   UNL A   1      44.887  25.194  33.666  1.00  0.00     0.064 A 
ATOM     78  C   UNL A   1      43.748  24.979  34.457  1.00  0.00     0.173 A 
ATOM     79  C   UNL A   1      46.107  24.710  34.184  1.00  0.00     0.173 A 
ATOM     80  F   UNL A   1      42.542  25.363  34.017  1.00  0.00    -0.203 F 
ATOM     81  C   UNL A   1      43.823  24.311  35.687  1.00  0.00     0.198 A 
ATOM     82  C   UNL A   1      46.180  24.047  35.411  1.00  0.00     0.198 A 
ATOM     83  F   UNL A   1      47.237  24.788  33.467  1.00  0.00    -0.203 F 
ATOM     84  F   UNL A   1      42.707  24.079  36.393  1.00  0.00    -0.200 F 
ATOM     85  C   UNL A   1      45.037  23.837  36.158  1.00  0.00     0.200 A 
ATOM     86  F   UNL A   1      47.356  23.558  35.833  1.00  0.00    -0.200 F 
ATOM     87  F   UNL A   1      45.100  23.148  37.306  1.00  0.00    -0.200 F 
ENDBRANCH  53  77
BRANCH  65  88
ATOM     88  C   UNL A   1      45.906  28.435  28.322  1.00  0.00     0.064 A 
ATOM     89  C   UNL A   1      47.041  29.240  28.523  1.00  0.00     0.173 A 
ATOM     90  C   UNL A   1      46.107  27.188  27.716  1.00  0.00     0.173 A 
ATOM     91  F   UNL A   1      46.954  30.399  29.183  1.00  0.00    -0.203 F 
ATOM     92  C   UNL A   1      48.310  28.826  28.118  1.00  0.00     0.198 A 
ATOM     93  C   UNL A   1      47.378  26.761  27.342  1.00  0.00     0.198 A 
ATOM     94  F   UNL A   1      45.072  26.350  27.552  1.00  0.00    -0.203 F 
ATOM     95  F   UNL A   1      49.375  29.613  28.334  1.00  0.00    -0.200 F 
ATOM     96  C   UNL A   1      48.478  27.581  27.538  1.00  0.00     0.200 A 
ATOM     97  F   UNL A   1      47.542  25.534  26.831  1.00  0.00    -0.200 F 
ATOM     98  F   UNL A   1      49.702  27.157  27.196  1.00  0.00    -0.200 F 
ENDBRANCH  65  88
ENDBRANCH  39  40
ENDBRANCH  31  34
ENDBRANCH  29  30
ENDBRANCH  28  29
ENDBRANCH  27  28
ENDBRANCH  26  27
ENDBRANCH   1  26
TORSDOF 17
ENDMDL
MODEL 2
REMARK VINA RESULT:     -11.8      2.730      7.254
REMARK SMILES Cc1nsc(N(C)C(=O)[C@@H](C)NC(N)=O)c1C(=O)NCCCCCCNC(=O)c1ccc(-c2c3nc(c(-c4c(F)c(F)c(F)c(F)c4F)c4ccc([nH]4)c(-c4c(F)c(F)c(F)c(F)c4F)c4nc(c(-c5c(F)c(F)c(F)c(F)c5F)c5ccc2[nH]5)C=C4)C=C3)cc1
REMARK SMILES IDX 21 1 20 2 19 3 17 4 18 5 16 7 1 8 2 9 3 10 4 11 5 12 6 13
REMARK SMILES IDX 7 14 8 15 9 16 10 17 11 18 12 19 13 20 14 22 15 23 22 26
REMARK SMILES IDX 23 27 24 28 25 29 26 30 27 31 28 33 29 34 30 35 91 36 31 37
REMARK SMILES IDX 90 38 32 39 33 40 34 41 84 42 35 43 89 44 83 45 85 46 36 47
REMARK SMILES IDX 88 48 82 49 81 50 37 52 69 53 49 54 68 55 50 56 53 57 67 58
REMARK SMILES IDX 86 59 51 60 52 61 66 63 87 64 54 65 38 66 39 67 47 68 40 69
REMARK SMILES IDX 41 70 45 71 48 72 42 73 43 74 46 75 44 76 70 77 71 78 79 79
REMARK SMILES IDX 72 80 73 81 77 82 80 83 74 84 75 85 78 86 76 87 55 88 56 89
REMARK SMILES IDX 64 90 57 91 58 92 62 93 65 94 59 95 60 96 63 97 61 98
REMARK H PARENT 19 6 12 21 14 24 14 25 26 32 85 51 53 62
REMARK Flexibility Score: inf
ROOT
ATOM      1  C   UNL A   1      38.572  23.441  26.136  1.00  0.00     0.021 C 
ENDROOT
BRANCH   1   2
ATOM      2  C   UNL A   1      37.081  23.743  26.007  1.00  0.00     0.116 C 
BRANCH   2   3
ATOM      3  N   UNL A   1      36.490  23.085  24.876  1.00  0.00    -0.352 N 
ATOM      4  C   UNL A   1      35.460  23.503  24.073  1.00  0.00     0.256 C 
ATOM      5  O   UNL A   1      35.704  23.455  22.862  1.00  0.00    -0.269 OA
ATOM      6  H   UNL A   1      36.879  22.211  24.644  1.00  0.00     0.163 HD
BRANCH   4   7
ATOM      7  C   UNL A   1      34.133  23.921  24.555  1.00  0.00     0.097 A 
ATOM      8  C   UNL A   1      33.817  26.576  24.154  1.00  0.00     0.069 C 
ATOM      9  C   UNL A   1      33.399  25.193  24.508  1.00  0.00     0.066 A 
ATOM     10  N   UNL A   1      32.099  25.125  24.799  1.00  0.00    -0.195 NA
ATOM     11  S   UNL A   1      31.715  23.616  25.260  1.00  0.00    -0.017 S 
ATOM     12  C   UNL A   1      33.296  22.974  25.187  1.00  0.00     0.131 A 
BRANCH  12  13
ATOM     13  N   UNL A   1      33.509  21.677  25.736  1.00  0.00    -0.303 N 
ATOM     14  C   UNL A   1      33.751  21.442  27.157  1.00  0.00     0.154 C 
BRANCH  13  15
ATOM     15  C   UNL A   1      33.746  20.641  24.812  1.00  0.00     0.249 C 
ATOM     16  O   UNL A   1      34.884  20.161  24.671  1.00  0.00    -0.272 OA
BRANCH  15  17
ATOM     17  C   UNL A   1      32.559  19.909  24.103  1.00  0.00     0.170 C 
ATOM     18  C   UNL A   1      32.205  20.609  22.791  1.00  0.00     0.041 C 
BRANCH  17  19
ATOM     19  N   UNL A   1      32.633  18.464  23.887  1.00  0.00    -0.327 N 
ATOM     20  C   UNL A   1      32.552  17.565  24.906  1.00  0.00     0.312 C 
ATOM     21  H   UNL A   1      32.747  18.128  22.968  1.00  0.00     0.166 HD
ATOM     22  N   UNL A   1      32.618  16.281  24.479  1.00  0.00    -0.352 N 
ATOM     23  O   UNL A   1      32.407  17.834  26.089  1.00  0.00    -0.249 OA
ATOM     24  H   UNL A   1      32.735  16.086  23.521  1.00  0.00     0.161 HD
ATOM     25  H   UNL A   1      32.549  15.543  25.128  1.00  0.00     0.161 HD
ENDBRANCH  17  19
ENDBRANCH  15  17
ENDBRANCH  13  15
ENDBRANCH  12  13
ENDBRANCH   4   7
ENDBRANCH   2   3
ENDBRANCH   1   2
BRANCH   1  26
ATOM     26  C   UNL A   1      38.911  21.954  25.994  1.00  0.00     0.002 C 
BRANCH  26  27
ATOM     27  C   UNL A   1      40.155  21.479  26.767  1.00  0.00     0.002 C 
BRANCH  27  28
ATOM     28  C   UNL A   1      40.854  20.220  26.230  1.00  0.00     0.021 C 
BRANCH  28  29
ATOM     29  C   UNL A   1      42.177  19.944  26.915  1.00  0.00     0.116 C 
BRANCH  29  30
ATOM     30  N   UNL A   1      43.296  19.904  25.962  1.00  0.00    -0.352 N 
ATOM     31  C   UNL A   1      43.861  20.943  25.250  1.00  0.00     0.251 C 
ATOM     32  H   UNL A   1      43.697  19.018  25.812  1.00  0.00     0.163 HD
ATOM     33  O   UNL A   1      44.553  20.742  24.251  1.00  0.00    -0.269 OA
BRANCH  31  34
ATOM     34  C   UNL A   1      43.638  22.309  25.734  1.00  0.00     0.039 A 
ATOM     35  C   UNL A   1      42.747  23.211  25.145  1.00  0.00     0.014 A 
ATOM     36  C   UNL A   1      44.342  22.649  26.879  1.00  0.00     0.014 A 
ATOM     37  C   UNL A   1      42.570  24.451  25.755  1.00  0.00     0.010 A 
ATOM     38  C   UNL A   1      43.904  23.683  27.636  1.00  0.00     0.010 A 
ATOM     39  C   UNL A   1      43.172  24.669  27.001  1.00  0.00    -0.014 A 
BRANCH  39  40
ATOM     40  C   UNL A   1      43.115  25.921  27.727  1.00  0.00     0.031 A 
ATOM     41  C   UNL A   1      44.108  26.933  27.300  1.00  0.00     0.074 A 
ATOM     42  C   UNL A   1      42.028  26.205  28.484  1.00  0.00     0.049 A 
ATOM     43  N   UNL A   1      45.057  27.451  28.003  1.00  0.00    -0.248 NA
ATOM     44  C   UNL A   1      44.144  27.317  25.878  1.00  0.00     0.031 C 
ATOM     45  C   UNL A   1      40.807  25.407  28.695  1.00  0.00     0.029 A 
ATOM     46  N   UNL A   1      41.733  27.358  29.133  1.00  0.00    -0.354 N 
ATOM     47  C   UNL A   1      45.705  28.358  27.172  1.00  0.00     0.074 A 
ATOM     48  C   UNL A   1      45.225  28.098  25.841  1.00  0.00     0.031 C 
ATOM     49  C   UNL A   1      39.831  26.186  29.211  1.00  0.00     0.029 A 
ATOM     50  C   UNL A   1      40.401  27.479  29.524  1.00  0.00     0.049 A 
ATOM     51  H   UNL A   1      42.405  28.055  29.314  1.00  0.00     0.167 HD
ATOM     52  C   UNL A   1      46.423  29.395  27.688  1.00  0.00     0.037 A 
ATOM     53  C   UNL A   1      39.830  28.608  30.014  1.00  0.00     0.037 A 
ATOM     54  C   UNL A   1      46.653  29.201  29.098  1.00  0.00     0.049 A 
ATOM     55  C   UNL A   1      40.948  29.478  30.482  1.00  0.00     0.074 A 
ATOM     56  C   UNL A   1      47.334  28.255  29.838  1.00  0.00     0.029 A 
ATOM     57  N   UNL A   1      45.795  29.820  29.977  1.00  0.00    -0.354 N 
ATOM     58  N   UNL A   1      41.729  29.160  31.481  1.00  0.00    -0.248 NA
ATOM     59  C   UNL A   1      41.518  30.407  29.514  1.00  0.00     0.031 C 
ATOM     60  C   UNL A   1      46.500  28.008  30.967  1.00  0.00     0.029 A 
ATOM     61  C   UNL A   1      45.411  28.880  30.901  1.00  0.00     0.049 A 
ATOM     62  H   UNL A   1      45.510  30.762  29.949  1.00  0.00     0.167 HD
ATOM     63  C   UNL A   1      43.007  29.512  31.063  1.00  0.00     0.074 A 
ATOM     64  C   UNL A   1      42.806  30.318  29.860  1.00  0.00     0.031 C 
ATOM     65  C   UNL A   1      44.115  28.869  31.539  1.00  0.00     0.037 A 
BRANCH  52  66
ATOM     66  C   UNL A   1      46.625  30.738  27.032  1.00  0.00     0.064 A 
ATOM     67  C   UNL A   1      47.920  31.295  27.014  1.00  0.00     0.173 A 
ATOM     68  C   UNL A   1      45.579  31.621  26.695  1.00  0.00     0.173 A 
ATOM     69  F   UNL A   1      48.993  30.546  27.313  1.00  0.00    -0.203 F 
ATOM     70  C   UNL A   1      48.137  32.654  26.776  1.00  0.00     0.198 A 
ATOM     71  C   UNL A   1      45.805  32.965  26.404  1.00  0.00     0.198 A 
ATOM     72  F   UNL A   1      44.293  31.258  26.737  1.00  0.00    -0.203 F 
ATOM     73  F   UNL A   1      49.370  33.162  26.903  1.00  0.00    -0.200 F 
ATOM     74  C   UNL A   1      47.077  33.491  26.483  1.00  0.00     0.200 A 
ATOM     75  F   UNL A   1      44.763  33.763  26.131  1.00  0.00    -0.200 F 
ATOM     76  F   UNL A   1      47.272  34.806  26.322  1.00  0.00    -0.200 F 
ENDBRANCH  52  66
BRANCH  53  77
ATOM     77  C   UNL A   1      38.458  29.110  29.755  1.00  0.00     0.064 A 
ATOM     78  C   UNL A   1      37.621  29.539  30.797  1.00  0.00     0.173 A 
ATOM     79  C   UNL A   1      38.033  29.421  28.446  1.00  0.00     0.173 A 
ATOM     80  F   UNL A   1      37.974  29.329  32.073  1.00  0.00    -0.203 F 
ATOM     81  C   UNL A   1      36.438  30.246  30.545  1.00  0.00     0.198 A 
ATOM     82  C   UNL A   1      36.852  30.123  28.197  1.00  0.00     0.198 A 
ATOM     83  F   UNL A   1      38.803  29.131  27.387  1.00  0.00    -0.203 F 
ATOM     84  F   UNL A   1      35.689  30.684  31.567  1.00  0.00    -0.200 F 
ATOM     85  C   UNL A   1      36.059  30.545  29.246  1.00  0.00     0.200 A 
ATOM     86  F   UNL A   1      36.521  30.440  26.936  1.00  0.00    -0.200 F 
ATOM     87  F   UNL A   1      34.957  31.271  29.008  1.00  0.00    -0.200 F 
ENDBRANCH  53  77
BRANCH  65  88
ATOM     88  C   UNL A   1      43.945  27.889  32.670  1.00  0.00     0.064 A 
ATOM     89  C   UNL A   1      43.886  26.494  32.497  1.00  0.00     0.173 A 
ATOM     90  C   UNL A   1      44.060  28.366  33.981  1.00  0.00     0.173 A 
ATOM     91  F   UNL A   1      43.876  25.951  31.276  1.00  0.00    -0.203 F 
ATOM     92  C   UNL A   1      43.918  25.623  33.586  1.00  0.00     0.198 A 
ATOM     93  C   UNL A   1      44.126  27.494  35.065  1.00  0.00     0.198 A 
ATOM     94  F   UNL A   1      44.181  29.683  34.205  1.00  0.00    -0.203 F 
ATOM     95  F   UNL A   1      43.871  24.297  33.388  1.00  0.00    -0.200 F 
ATOM     96  C   UNL A   1      44.050  26.125  34.868  1.00  0.00     0.200 A 
ATOM     97  F   UNL A   1      44.308  27.983  36.299  1.00  0.00    -0.200 F 
ATOM     98  F   UNL A   1      44.135  25.289  35.913  1.00  0.00    -0.200 F 
ENDBRANCH  65  88
ENDBRANCH  39  40
ENDBRANCH  31  34
ENDBRANCH  29  30
ENDBRANCH  28  29
ENDBRANCH  27  28
ENDBRANCH  26  27
ENDBRANCH   1  26
TORSDOF 17
ENDMDL
MODEL 3
REMARK VINA RESULT:     -11.7      1.044      2.123
REMARK SMILES Cc1nsc(N(C)C(=O)[C@@H](C)NC(N)=O)c1C(=O)NCCCCCCNC(=O)c1ccc(-c2c3nc(c(-c4c(F)c(F)c(F)c(F)c4F)c4ccc([nH]4)c(-c4c(F)c(F)c(F)c(F)c4F)c4nc(c(-c5c(F)c(F)c(F)c(F)c5F)c5ccc2[nH]5)C=C4)C=C3)cc1
REMARK SMILES IDX 21 1 20 2 19 3 17 4 18 5 16 7 1 8 2 9 3 10 4 11 5 12 6 13
REMARK SMILES IDX 7 14 8 15 9 16 10 17 11 18 12 19 13 20 14 22 15 23 22 26
REMARK SMILES IDX 23 27 24 28 25 29 26 30 27 31 28 33 29 34 30 35 91 36 31 37
REMARK SMILES IDX 90 38 32 39 33 40 34 41 84 42 35 43 89 44 83 45 85 46 36 47
REMARK SMILES IDX 88 48 82 49 81 50 37 52 69 53 49 54 68 55 50 56 53 57 67 58
REMARK SMILES IDX 86 59 51 60 52 61 66 63 87 64 54 65 38 66 39 67 47 68 40 69
REMARK SMILES IDX 41 70 45 71 48 72 42 73 43 74 46 75 44 76 70 77 71 78 79 79
REMARK SMILES IDX 72 80 73 81 77 82 80 83 74 84 75 85 78 86 76 87 55 88 56 89
REMARK SMILES IDX 64 90 57 91 58 92 62 93 65 94 59 95 60 96 63 97 61 98
REMARK H PARENT 19 6 12 21 14 24 14 25 26 32 85 51 53 62
REMARK Flexibility Score: inf
ROOT
ATOM      1  C   UNL A   1      36.516  22.704  23.399  1.00  0.00     0.021 C 
ENDROOT
BRANCH   1   2
ATOM      2  C   UNL A   1      35.118  23.301  23.270  1.00  0.00     0.116 C 
BRANCH   2   3
ATOM      3  N   UNL A   1      34.995  24.551  23.966  1.00  0.00    -0.352 N 
ATOM      4  C   UNL A   1      34.091  24.919  24.928  1.00  0.00     0.256 C 
ATOM      5  O   UNL A   1      34.597  25.409  25.945  1.00  0.00    -0.269 OA
ATOM      6  H   UNL A   1      35.652  25.240  23.718  1.00  0.00     0.163 HD
BRANCH   4   7
ATOM      7  C   UNL A   1      32.627  24.824  24.791  1.00  0.00     0.097 A 
ATOM      8  C   UNL A   1      31.636  23.222  26.730  1.00  0.00     0.069 C 
ATOM      9  C   UNL A   1      31.579  24.187  25.599  1.00  0.00     0.066 A 
ATOM     10  N   UNL A   1      30.326  24.547  25.315  1.00  0.00    -0.195 NA
ATOM     11  S   UNL A   1      30.316  25.531  24.023  1.00  0.00    -0.017 S 
ATOM     12  C   UNL A   1      31.992  25.464  23.703  1.00  0.00     0.131 A 
BRANCH  12  13
ATOM     13  N   UNL A   1      32.453  26.022  22.477  1.00  0.00    -0.303 N 
ATOM     14  C   UNL A   1      32.599  25.244  21.250  1.00  0.00     0.154 C 
BRANCH  13  15
ATOM     15  C   UNL A   1      33.026  27.307  22.555  1.00  0.00     0.249 C 
ATOM     16  O   UNL A   1      33.909  27.661  21.755  1.00  0.00    -0.272 OA
BRANCH  15  17
ATOM     17  C   UNL A   1      32.417  28.402  23.493  1.00  0.00     0.170 C 
ATOM     18  C   UNL A   1      33.464  28.891  24.493  1.00  0.00     0.041 C 
BRANCH  17  19
ATOM     19  N   UNL A   1      31.725  29.548  22.902  1.00  0.00    -0.327 N 
ATOM     20  C   UNL A   1      30.584  29.417  22.171  1.00  0.00     0.312 C 
ATOM     21  H   UNL A   1      32.098  30.449  23.040  1.00  0.00     0.166 HD
ATOM     22  N   UNL A   1      30.098  30.607  21.742  1.00  0.00    -0.352 N 
ATOM     23  O   UNL A   1      30.008  28.369  21.923  1.00  0.00    -0.249 OA
ATOM     24  H   UNL A   1      30.578  31.440  21.953  1.00  0.00     0.161 HD
ATOM     25  H   UNL A   1      29.264  30.638  21.220  1.00  0.00     0.161 HD
ENDBRANCH  17  19
ENDBRANCH  15  17
ENDBRANCH  13  15
ENDBRANCH  12  13
ENDBRANCH   4   7
ENDBRANCH   2   3
ENDBRANCH   1   2
BRANCH   1  26
ATOM     26  C   UNL A   1      36.812  22.129  24.789  1.00  0.00     0.002 C 
BRANCH  26  27
ATOM     27  C   UNL A   1      36.416  20.655  24.995  1.00  0.00     0.002 C 
BRANCH  27  28
ATOM     28  C   UNL A   1      37.569  19.639  25.043  1.00  0.00     0.021 C 
BRANCH  28  29
ATOM     29  C   UNL A   1      38.871  20.248  25.523  1.00  0.00     0.116 C 
BRANCH  29  30
ATOM     30  N   UNL A   1      39.907  19.230  25.751  1.00  0.00    -0.352 N 
ATOM     31  C   UNL A   1      41.252  19.409  26.006  1.00  0.00     0.251 C 
ATOM     32  H   UNL A   1      39.601  18.295  25.718  1.00  0.00     0.163 HD
ATOM     33  O   UNL A   1      42.067  18.500  25.847  1.00  0.00    -0.269 OA
BRANCH  31  34
ATOM     34  C   UNL A   1      41.689  20.717  26.506  1.00  0.00     0.039 A 
ATOM     35  C   UNL A   1      42.355  21.668  25.726  1.00  0.00     0.014 A 
ATOM     36  C   UNL A   1      41.343  20.991  27.820  1.00  0.00     0.014 A 
ATOM     37  C   UNL A   1      42.640  22.904  26.301  1.00  0.00     0.010 A 
ATOM     38  C   UNL A   1      41.307  22.279  28.235  1.00  0.00     0.010 A 
ATOM     39  C   UNL A   1      42.114  23.183  27.569  1.00  0.00    -0.014 A 
BRANCH  39  40
ATOM     40  C   UNL A   1      42.367  24.402  28.307  1.00  0.00     0.031 A 
ATOM     41  C   UNL A   1      41.292  25.418  28.216  1.00  0.00     0.074 A 
ATOM     42  C   UNL A   1      43.350  24.428  29.238  1.00  0.00     0.049 A 
ATOM     43  N   UNL A   1      41.372  26.606  27.721  1.00  0.00    -0.248 NA
ATOM     44  C   UNL A   1      39.925  25.021  28.591  1.00  0.00     0.031 C 
ATOM     45  C   UNL A   1      44.257  23.347  29.664  1.00  0.00     0.029 A 
ATOM     46  N   UNL A   1      43.659  25.421  30.109  1.00  0.00    -0.354 N 
ATOM     47  C   UNL A   1      40.113  27.178  27.879  1.00  0.00     0.074 A 
ATOM     48  C   UNL A   1      39.228  26.104  28.243  1.00  0.00     0.031 C 
ATOM     49  C   UNL A   1      44.830  23.666  30.845  1.00  0.00     0.029 A 
ATOM     50  C   UNL A   1      44.472  25.030  31.170  1.00  0.00     0.049 A 
ATOM     51  H   UNL A   1      43.336  26.345  30.000  1.00  0.00     0.167 HD
ATOM     52  C   UNL A   1      39.955  28.531  27.908  1.00  0.00     0.037 A 
ATOM     53  C   UNL A   1      44.756  25.789  32.258  1.00  0.00     0.037 A 
ATOM     54  C   UNL A   1      41.149  29.192  27.445  1.00  0.00     0.049 A 
ATOM     55  C   UNL A   1      44.455  27.200  31.878  1.00  0.00     0.074 A 
ATOM     56  C   UNL A   1      41.830  29.216  26.244  1.00  0.00     0.029 A 
ATOM     57  N   UNL A   1      42.045  29.632  28.393  1.00  0.00    -0.354 N 
ATOM     58  N   UNL A   1      45.122  27.849  30.960  1.00  0.00    -0.248 NA
ATOM     59  C   UNL A   1      43.102  27.681  32.126  1.00  0.00     0.031 C 
ATOM     60  C   UNL A   1      43.208  29.169  26.607  1.00  0.00     0.029 A 
ATOM     61  C   UNL A   1      43.292  29.214  28.000  1.00  0.00     0.049 A 
ATOM     62  H   UNL A   1      41.831  30.149  29.203  1.00  0.00     0.167 HD
ATOM     63  C   UNL A   1      44.156  28.540  30.237  1.00  0.00     0.074 A 
ATOM     64  C   UNL A   1      42.934  28.432  31.033  1.00  0.00     0.031 C 
ATOM     65  C   UNL A   1      44.347  28.867  28.924  1.00  0.00     0.037 A 
BRANCH  52  66
ATOM     66  C   UNL A   1      38.882  29.275  28.661  1.00  0.00     0.064 A 
ATOM     67  C   UNL A   1      37.924  30.007  27.930  1.00  0.00     0.173 A 
ATOM     68  C   UNL A   1      38.926  29.545  30.045  1.00  0.00     0.173 A 
ATOM     69  F   UNL A   1      37.789  29.829  26.607  1.00  0.00    -0.203 F 
ATOM     70  C   UNL A   1      37.144  31.002  28.522  1.00  0.00     0.198 A 
ATOM     71  C   UNL A   1      38.107  30.501  30.642  1.00  0.00     0.198 A 
ATOM     72  F   UNL A   1      39.827  28.982  30.856  1.00  0.00    -0.203 F 
ATOM     73  F   UNL A   1      36.345  31.763  27.761  1.00  0.00    -0.200 F 
ATOM     74  C   UNL A   1      37.244  31.256  29.877  1.00  0.00     0.200 A 
ATOM     75  F   UNL A   1      38.226  30.739  31.957  1.00  0.00    -0.200 F 
ATOM     76  F   UNL A   1      36.550  32.255  30.436  1.00  0.00    -0.200 F 
ENDBRANCH  52  66
BRANCH  53  77
ATOM     77  C   UNL A   1      44.900  25.334  33.663  1.00  0.00     0.064 A 
ATOM     78  C   UNL A   1      43.784  25.132  34.490  1.00  0.00     0.173 A 
ATOM     79  C   UNL A   1      46.131  24.838  34.144  1.00  0.00     0.173 A 
ATOM     80  F   UNL A   1      42.569  25.527  34.088  1.00  0.00    -0.203 F 
ATOM     81  C   UNL A   1      43.891  24.464  35.718  1.00  0.00     0.198 A 
ATOM     82  C   UNL A   1      46.236  24.176  35.369  1.00  0.00     0.198 A 
ATOM     83  F   UNL A   1      47.238  24.905  33.391  1.00  0.00    -0.203 F 
ATOM     84  F   UNL A   1      42.796  24.245  36.459  1.00  0.00    -0.200 F 
ATOM     85  C   UNL A   1      45.115  23.979  36.152  1.00  0.00     0.200 A 
ATOM     86  F   UNL A   1      47.420  23.677  35.753  1.00  0.00    -0.200 F 
ATOM     87  F   UNL A   1      45.208  23.291  37.298  1.00  0.00    -0.200 F 
ENDBRANCH  53  77
BRANCH  65  88
ATOM     88  C   UNL A   1      45.704  28.628  28.315  1.00  0.00     0.064 A 
ATOM     89  C   UNL A   1      46.064  27.450  27.637  1.00  0.00     0.173 A 
ATOM     90  C   UNL A   1      46.590  29.709  28.233  1.00  0.00     0.173 A 
ATOM     91  F   UNL A   1      45.231  26.406  27.581  1.00  0.00    -0.203 F 
ATOM     92  C   UNL A   1      47.263  27.353  26.931  1.00  0.00     0.198 A 
ATOM     93  C   UNL A   1      47.771  29.623  27.500  1.00  0.00     0.198 A 
ATOM     94  F   UNL A   1      46.274  30.879  28.808  1.00  0.00    -0.203 F 
ATOM     95  F   UNL A   1      47.574  26.219  26.285  1.00  0.00    -0.200 F 
ATOM     96  C   UNL A   1      48.109  28.445  26.854  1.00  0.00     0.200 A 
ATOM     97  F   UNL A   1      48.560  30.699  27.384  1.00  0.00    -0.200 F 
ATOM     98  F   UNL A   1      49.237  28.373  26.132  1.00  0.00    -0.200 F 
ENDBRANCH  65  88
ENDBRANCH  39  40
ENDBRANCH  31  34
ENDBRANCH  29  30
ENDBRANCH  28  29
ENDBRANCH  27  28
ENDBRANCH  26  27
ENDBRANCH   1  26
TORSDOF 17
ENDMDL
