MODEL 1
REMARK VINA RESULT:     -12.4      0.000      0.000
REMARK SMILES Cn1ccc(C(=O)NCc2ccc(C(=O)NCCCCCCNC(=O)c3ccc(-c4c5nc(c(-c6c(F)c(F)c(F)c(F)c6F)c6ccc([nH]6)c(-c6c(F)c(F)c(F)c(F)c6F)c6nc(c(-c7c(F)c(F)c(F)c(F)c7F)c7ccc4[nH]7)C=C6)C=C5)cc3)cc2)cc1=O
REMARK SMILES IDX 19 1 18 2 17 3 16 4 14 5 15 6 13 8 10 9 11 10 90 11 12 12
REMARK SMILES IDX 89 13 9 14 8 15 6 16 7 17 5 19 1 20 2 21 3 22 92 23 4 24
REMARK SMILES IDX 91 25 93 26 20 27 21 28 22 29 23 30 24 31 25 33 26 34 27 35
REMARK SMILES IDX 88 36 28 37 87 38 29 39 30 40 31 41 81 42 32 43 86 44 80 45
REMARK SMILES IDX 82 46 33 47 85 48 79 49 78 50 34 52 66 53 46 54 65 55 47 56
REMARK SMILES IDX 50 57 64 58 83 59 48 60 49 61 63 63 84 64 51 65 35 66 36 67
REMARK SMILES IDX 44 68 37 69 38 70 42 71 45 72 39 73 40 74 43 75 41 76 67 77
REMARK SMILES IDX 68 78 76 79 69 80 70 81 74 82 77 83 71 84 72 85 75 86 73 87
REMARK SMILES IDX 52 88 53 89 61 90 54 91 55 92 59 93 62 94 56 95 57 96 60 97
REMARK SMILES IDX 58 98
REMARK H PARENT 16 7 8 18 23 32 82 51 50 62
REMARK Flexibility Score: inf
ROOT
ATOM      1  C   UNL A   1      32.012  29.800  25.665  1.00  0.00     0.002 C 
ENDROOT
BRANCH   1   2
ATOM      2  C   UNL A   1      32.798  29.452  24.393  1.00  0.00     0.021 C 
BRANCH   2   3
ATOM      3  C   UNL A   1      31.919  28.958  23.240  1.00  0.00     0.116 C 
BRANCH   3   4
ATOM      4  N   UNL A   1      32.682  28.110  22.342  1.00  0.00    -0.352 N 
ATOM      5  C   UNL A   1      32.935  26.762  22.340  1.00  0.00     0.251 C 
ATOM      6  O   UNL A   1      33.579  26.302  21.397  1.00  0.00    -0.269 OA
ATOM      7  H   UNL A   1      33.096  28.596  21.593  1.00  0.00     0.163 HD
BRANCH   5   8
ATOM      8  C   UNL A   1      32.439  25.833  23.394  1.00  0.00     0.039 A 
ATOM      9  C   UNL A   1      31.387  24.001  25.289  1.00  0.00    -0.029 A 
ATOM     10  C   UNL A   1      30.899  24.030  23.978  1.00  0.00     0.006 A 
ATOM     11  C   UNL A   1      32.447  24.863  25.616  1.00  0.00     0.006 A 
ATOM     12  C   UNL A   1      31.415  24.940  23.045  1.00  0.00     0.014 A 
ATOM     13  C   UNL A   1      32.978  25.753  24.677  1.00  0.00     0.014 A 
BRANCH   9  14
ATOM     14  C   UNL A   1      30.847  23.004  26.293  1.00  0.00     0.152 C 
BRANCH  14  15
ATOM     15  N   UNL A   1      31.141  21.641  25.893  1.00  0.00    -0.348 N 
ATOM     16  C   UNL A   1      32.189  21.035  25.286  1.00  0.00     0.251 C 
ATOM     17  O   UNL A   1      32.022  19.860  24.942  1.00  0.00    -0.269 OA
ATOM     18  H   UNL A   1      30.414  21.014  26.113  1.00  0.00     0.164 HD
BRANCH  16  19
ATOM     19  C   UNL A   1      33.539  21.664  25.122  1.00  0.00     0.046 A 
ATOM     20  C   UNL A   1      37.330  23.583  25.154  1.00  0.00     0.153 C 
ATOM     21  N   UNL A   1      36.052  22.892  25.115  1.00  0.00    -0.319 N 
ATOM     22  C   UNL A   1      35.559  22.356  26.287  1.00  0.00     0.089 A 
ATOM     23  C   UNL A   1      35.371  22.772  23.908  1.00  0.00     0.251 A 
ATOM     24  C   UNL A   1      34.361  21.765  26.319  1.00  0.00     0.032 A 
ATOM     25  C   UNL A   1      34.058  22.069  23.954  1.00  0.00     0.085 A 
ATOM     26  O   UNL A   1      35.764  23.214  22.831  1.00  0.00    -0.269 OA
ENDBRANCH  16  19
ENDBRANCH  14  15
ENDBRANCH   9  14
ENDBRANCH   5   8
ENDBRANCH   3   4
ENDBRANCH   2   3
ENDBRANCH   1   2
BRANCH   1  27
ATOM     27  C   UNL A   1      31.260  31.136  25.619  1.00  0.00     0.002 C 
BRANCH  27  28
ATOM     28  C   UNL A   1      31.305  31.955  26.911  1.00  0.00     0.021 C 
BRANCH  28  29
ATOM     29  C   UNL A   1      32.624  32.684  27.158  1.00  0.00     0.116 C 
BRANCH  29  30
ATOM     30  N   UNL A   1      32.415  34.079  27.512  1.00  0.00    -0.352 N 
ATOM     31  C   UNL A   1      32.995  34.822  28.508  1.00  0.00     0.251 C 
ATOM     32  H   UNL A   1      31.761  34.561  26.956  1.00  0.00     0.163 HD
ATOM     33  O   UNL A   1      32.535  35.924  28.805  1.00  0.00    -0.269 OA
BRANCH  31  34
ATOM     34  C   UNL A   1      34.166  34.298  29.239  1.00  0.00     0.039 A 
ATOM     35  C   UNL A   1      33.961  33.550  30.401  1.00  0.00     0.014 A 
ATOM     36  C   UNL A   1      35.464  34.563  28.794  1.00  0.00     0.014 A 
ATOM     37  C   UNL A   1      35.056  33.016  31.084  1.00  0.00     0.010 A 
ATOM     38  C   UNL A   1      36.552  33.978  29.439  1.00  0.00     0.010 A 
ATOM     39  C   UNL A   1      36.358  33.199  30.590  1.00  0.00    -0.014 A 
BRANCH  39  40
ATOM     40  C   UNL A   1      37.526  32.567  31.253  1.00  0.00     0.031 A 
ATOM     41  C   UNL A   1      38.246  31.424  30.595  1.00  0.00     0.074 A 
ATOM     42  C   UNL A   1      37.890  32.977  32.483  1.00  0.00     0.049 A 
ATOM     43  N   UNL A   1      39.237  30.699  31.050  1.00  0.00    -0.248 NA
ATOM     44  C   UNL A   1      37.772  31.023  29.262  1.00  0.00     0.031 C 
ATOM     45  C   UNL A   1      37.234  34.041  33.246  1.00  0.00     0.029 A 
ATOM     46  N   UNL A   1      38.890  32.539  33.316  1.00  0.00    -0.354 N 
ATOM     47  C   UNL A   1      39.494  29.751  30.068  1.00  0.00     0.074 A 
ATOM     48  C   UNL A   1      38.527  29.962  29.013  1.00  0.00     0.031 C 
ATOM     49  C   UNL A   1      37.855  34.181  34.428  1.00  0.00     0.029 A 
ATOM     50  C   UNL A   1      38.930  33.197  34.521  1.00  0.00     0.049 A 
ATOM     51  H   UNL A   1      39.518  31.822  33.072  1.00  0.00     0.167 HD
ATOM     52  C   UNL A   1      40.462  28.804  30.043  1.00  0.00     0.037 A 
ATOM     53  C   UNL A   1      39.733  33.017  35.586  1.00  0.00     0.037 A 
ATOM     54  C   UNL A   1      41.441  28.618  31.082  1.00  0.00     0.049 A 
ATOM     55  C   UNL A   1      40.805  31.963  35.527  1.00  0.00     0.074 A 
ATOM     56  C   UNL A   1      42.512  27.741  31.112  1.00  0.00     0.029 A 
ATOM     57  N   UNL A   1      41.466  29.319  32.279  1.00  0.00    -0.354 N 
ATOM     58  N   UNL A   1      41.090  31.126  34.559  1.00  0.00    -0.248 NA
ATOM     59  C   UNL A   1      41.670  31.831  36.708  1.00  0.00     0.031 C 
ATOM     60  C   UNL A   1      43.155  27.877  32.347  1.00  0.00     0.029 A 
ATOM     61  C   UNL A   1      42.516  28.873  33.066  1.00  0.00     0.049 A 
ATOM     62  H   UNL A   1      40.830  30.028  32.532  1.00  0.00     0.167 HD
ATOM     63  C   UNL A   1      42.177  30.386  35.002  1.00  0.00     0.074 A 
ATOM     64  C   UNL A   1      42.513  30.885  36.320  1.00  0.00     0.031 C 
ATOM     65  C   UNL A   1      42.836  29.381  34.376  1.00  0.00     0.037 A 
BRANCH  52  66
ATOM     66  C   UNL A   1      40.516  27.893  28.851  1.00  0.00     0.064 A 
ATOM     67  C   UNL A   1      39.795  26.689  28.812  1.00  0.00     0.173 A 
ATOM     68  C   UNL A   1      41.257  28.251  27.715  1.00  0.00     0.173 A 
ATOM     69  F   UNL A   1      39.078  26.296  29.876  1.00  0.00    -0.203 F 
ATOM     70  C   UNL A   1      39.834  25.867  27.688  1.00  0.00     0.198 A 
ATOM     71  C   UNL A   1      41.270  27.440  26.583  1.00  0.00     0.198 A 
ATOM     72  F   UNL A   1      41.959  29.394  27.698  1.00  0.00    -0.203 F 
ATOM     73  F   UNL A   1      39.172  24.702  27.690  1.00  0.00    -0.200 F 
ATOM     74  C   UNL A   1      40.565  26.247  26.572  1.00  0.00     0.200 A 
ATOM     75  F   UNL A   1      41.967  27.815  25.500  1.00  0.00    -0.200 F 
ATOM     76  F   UNL A   1      40.593  25.459  25.489  1.00  0.00    -0.200 F 
ENDBRANCH  52  66
BRANCH  53  77
ATOM     77  C   UNL A   1      39.564  33.866  36.793  1.00  0.00     0.064 A 
ATOM     78  C   UNL A   1      38.779  33.437  37.872  1.00  0.00     0.173 A 
ATOM     79  C   UNL A   1      40.181  35.122  36.893  1.00  0.00     0.173 A 
ATOM     80  F   UNL A   1      38.154  32.252  37.814  1.00  0.00    -0.203 F 
ATOM     81  C   UNL A   1      38.600  34.239  38.996  1.00  0.00     0.198 A 
ATOM     82  C   UNL A   1      40.023  35.912  38.030  1.00  0.00     0.198 A 
ATOM     83  F   UNL A   1      40.946  35.576  35.891  1.00  0.00    -0.203 F 
ATOM     84  F   UNL A   1      37.807  33.825  39.994  1.00  0.00    -0.200 F 
ATOM     85  C   UNL A   1      39.226  35.475  39.076  1.00  0.00     0.200 A 
ATOM     86  F   UNL A   1      40.642  37.099  38.110  1.00  0.00    -0.200 F 
ATOM     87  F   UNL A   1      39.056  36.245  40.160  1.00  0.00    -0.200 F 
ENDBRANCH  53  77
BRANCH  65  88
ATOM     88  C   UNL A   1      44.000  28.768  35.099  1.00  0.00     0.064 A 
ATOM     89  C   UNL A   1      45.297  29.289  34.975  1.00  0.00     0.173 A 
ATOM     90  C   UNL A   1      43.810  27.673  35.954  1.00  0.00     0.173 A 
ATOM     91  F   UNL A   1      45.532  30.326  34.156  1.00  0.00    -0.203 F 
ATOM     92  C   UNL A   1      46.364  28.720  35.662  1.00  0.00     0.198 A 
ATOM     93  C   UNL A   1      44.875  27.125  36.662  1.00  0.00     0.198 A 
ATOM     94  F   UNL A   1      42.588  27.143  36.112  1.00  0.00    -0.203 F 
ATOM     95  F   UNL A   1      47.603  29.204  35.491  1.00  0.00    -0.200 F 
ATOM     96  C   UNL A   1      46.152  27.643  36.510  1.00  0.00     0.200 A 
ATOM     97  F   UNL A   1      44.666  26.093  37.492  1.00  0.00    -0.200 F 
ATOM     98  F   UNL A   1      47.180  27.100  37.176  1.00  0.00    -0.200 F 
ENDBRANCH  65  88
ENDBRANCH  39  40
ENDBRANCH  31  34
ENDBRANCH  29  30
ENDBRANCH  28  29
ENDBRANCH  27  28
ENDBRANCH   1  27
TORSDOF 16
ENDMDL
MODEL 2
REMARK VINA RESULT:     -12.3      2.052      8.003
REMARK SMILES Cn1ccc(C(=O)NCc2ccc(C(=O)NCCCCCCNC(=O)c3ccc(-c4c5nc(c(-c6c(F)c(F)c(F)c(F)c6F)c6ccc([nH]6)c(-c6c(F)c(F)c(F)c(F)c6F)c6nc(c(-c7c(F)c(F)c(F)c(F)c7F)c7ccc4[nH]7)C=C6)C=C5)cc3)cc2)cc1=O
REMARK SMILES IDX 19 1 18 2 17 3 16 4 14 5 15 6 13 8 10 9 11 10 90 11 12 12
REMARK SMILES IDX 89 13 9 14 8 15 6 16 7 17 5 19 1 20 2 21 3 22 92 23 4 24
REMARK SMILES IDX 91 25 93 26 20 27 21 28 22 29 23 30 24 31 25 33 26 34 27 35
REMARK SMILES IDX 88 36 28 37 87 38 29 39 30 40 31 41 81 42 32 43 86 44 80 45
REMARK SMILES IDX 82 46 33 47 85 48 79 49 78 50 34 52 66 53 46 54 65 55 47 56
REMARK SMILES IDX 50 57 64 58 83 59 48 60 49 61 63 63 84 64 51 65 35 66 36 67
REMARK SMILES IDX 44 68 37 69 38 70 42 71 45 72 39 73 40 74 43 75 41 76 67 77
REMARK SMILES IDX 68 78 76 79 69 80 70 81 74 82 77 83 71 84 72 85 75 86 73 87
REMARK SMILES IDX 52 88 53 89 61 90 54 91 55 92 59 93 62 94 56 95 57 96 60 97
REMARK SMILES IDX 58 98
REMARK H PARENT 16 7 8 18 23 32 82 51 50 62
REMARK Flexibility Score: inf
ROOT
ATOM      1  C   UNL A   1      35.277  33.321  29.146  1.00  0.00     0.002 C 
ENDROOT
BRANCH   1   2
ATOM      2  C   UNL A   1      35.928  32.312  28.190  1.00  0.00     0.021 C 
BRANCH   2   3
ATOM      3  C   UNL A   1      35.052  31.093  27.889  1.00  0.00     0.116 C 
BRANCH   3   4
ATOM      4  N   UNL A   1      33.728  31.507  27.460  1.00  0.00    -0.352 N 
ATOM      5  C   UNL A   1      32.671  30.812  26.929  1.00  0.00     0.251 C 
ATOM      6  O   UNL A   1      31.629  31.431  26.713  1.00  0.00    -0.269 OA
ATOM      7  H   UNL A   1      33.558  32.470  27.569  1.00  0.00     0.163 HD
BRANCH   5   8
ATOM      8  C   UNL A   1      32.713  29.350  26.642  1.00  0.00     0.039 A 
ATOM      9  C   UNL A   1      32.649  26.550  26.184  1.00  0.00    -0.029 A 
ATOM     10  C   UNL A   1      31.644  27.173  26.932  1.00  0.00     0.006 A 
ATOM     11  C   UNL A   1      33.650  27.360  25.623  1.00  0.00     0.006 A 
ATOM     12  C   UNL A   1      31.681  28.555  27.164  1.00  0.00     0.014 A 
ATOM     13  C   UNL A   1      33.671  28.743  25.833  1.00  0.00     0.014 A 
BRANCH   9  14
ATOM     14  C   UNL A   1      32.600  25.061  25.914  1.00  0.00     0.152 C 
BRANCH  14  15
ATOM     15  N   UNL A   1      32.814  24.772  24.508  1.00  0.00    -0.348 N 
ATOM     16  C   UNL A   1      32.140  25.056  23.368  1.00  0.00     0.251 C 
ATOM     17  O   UNL A   1      32.534  24.493  22.341  1.00  0.00    -0.269 OA
ATOM     18  H   UNL A   1      33.633  24.251  24.346  1.00  0.00     0.164 HD
BRANCH  16  19
ATOM     19  C   UNL A   1      31.049  26.078  23.274  1.00  0.00     0.046 A 
ATOM     20  C   UNL A   1      27.623  28.585  23.078  1.00  0.00     0.153 C 
ATOM     21  N   UNL A   1      28.818  27.763  23.170  1.00  0.00    -0.319 N 
ATOM     22  C   UNL A   1      28.757  26.595  23.903  1.00  0.00     0.089 A 
ATOM     23  C   UNL A   1      29.987  28.174  22.539  1.00  0.00     0.251 A 
ATOM     24  C   UNL A   1      29.807  25.771  23.968  1.00  0.00     0.032 A 
ATOM     25  C   UNL A   1      31.162  27.266  22.662  1.00  0.00     0.085 A 
ATOM     26  O   UNL A   1      30.109  29.208  21.887  1.00  0.00    -0.269 OA
ENDBRANCH  16  19
ENDBRANCH  14  15
ENDBRANCH   9  14
ENDBRANCH   5   8
ENDBRANCH   3   4
ENDBRANCH   2   3
ENDBRANCH   1   2
BRANCH   1  27
ATOM     27  C   UNL A   1      35.338  34.783  28.686  1.00  0.00     0.002 C 
BRANCH  27  28
ATOM     28  C   UNL A   1      34.022  35.558  28.796  1.00  0.00     0.021 C 
BRANCH  28  29
ATOM     29  C   UNL A   1      32.933  34.852  29.601  1.00  0.00     0.116 C 
BRANCH  29  30
ATOM     30  N   UNL A   1      32.420  35.694  30.672  1.00  0.00    -0.352 N 
ATOM     31  C   UNL A   1      32.769  35.728  31.996  1.00  0.00     0.251 C 
ATOM     32  H   UNL A   1      31.718  36.331  30.405  1.00  0.00     0.163 HD
ATOM     33  O   UNL A   1      32.075  36.346  32.804  1.00  0.00    -0.269 OA
BRANCH  31  34
ATOM     34  C   UNL A   1      33.974  35.014  32.465  1.00  0.00     0.039 A 
ATOM     35  C   UNL A   1      33.834  33.734  33.009  1.00  0.00     0.014 A 
ATOM     36  C   UNL A   1      35.235  35.612  32.392  1.00  0.00     0.014 A 
ATOM     37  C   UNL A   1      34.966  33.030  33.424  1.00  0.00     0.010 A 
ATOM     38  C   UNL A   1      36.369  34.885  32.747  1.00  0.00     0.010 A 
ATOM     39  C   UNL A   1      36.245  33.587  33.266  1.00  0.00    -0.014 A 
BRANCH  39  40
ATOM     40  C   UNL A   1      37.465  32.819  33.619  1.00  0.00     0.031 A 
ATOM     41  C   UNL A   1      38.217  33.127  34.883  1.00  0.00     0.074 A 
ATOM     42  C   UNL A   1      37.935  31.893  32.762  1.00  0.00     0.049 A 
ATOM     43  N   UNL A   1      39.340  32.616  35.324  1.00  0.00    -0.248 NA
ATOM     44  C   UNL A   1      37.649  34.167  35.754  1.00  0.00     0.031 C 
ATOM     45  C   UNL A   1      37.322  31.543  31.479  1.00  0.00     0.029 A 
ATOM     46  N   UNL A   1      39.045  31.087  32.830  1.00  0.00    -0.354 N 
ATOM     47  C   UNL A   1      39.618  33.281  36.511  1.00  0.00     0.074 A 
ATOM     48  C   UNL A   1      38.573  34.263  36.701  1.00  0.00     0.031 C 
ATOM     49  C   UNL A   1      38.056  30.587  30.888  1.00  0.00     0.029 A 
ATOM     50  C   UNL A   1      39.207  30.280  31.731  1.00  0.00     0.049 A 
ATOM     51  H   UNL A   1      39.664  31.088  33.595  1.00  0.00     0.167 HD
ATOM     52  C   UNL A   1      40.642  33.074  37.373  1.00  0.00     0.037 A 
ATOM     53  C   UNL A   1      40.182  29.401  31.431  1.00  0.00     0.037 A 
ATOM     54  C   UNL A   1      41.663  32.074  37.194  1.00  0.00     0.049 A 
ATOM     55  C   UNL A   1      41.304  29.187  32.410  1.00  0.00     0.074 A 
ATOM     56  C   UNL A   1      42.695  31.733  38.051  1.00  0.00     0.029 A 
ATOM     57  N   UNL A   1      41.783  31.258  36.079  1.00  0.00    -0.354 N 
ATOM     58  N   UNL A   1      41.512  29.764  33.569  1.00  0.00    -0.248 NA
ATOM     59  C   UNL A   1      42.324  28.195  32.043  1.00  0.00     0.031 C 
ATOM     60  C   UNL A   1      43.468  30.744  37.433  1.00  0.00     0.029 A 
ATOM     61  C   UNL A   1      42.889  30.434  36.214  1.00  0.00     0.049 A 
ATOM     62  H   UNL A   1      41.172  31.264  35.306  1.00  0.00     0.167 HD
ATOM     63  C   UNL A   1      42.670  29.192  34.078  1.00  0.00     0.074 A 
ATOM     64  C   UNL A   1      43.110  28.208  33.110  1.00  0.00     0.031 C 
ATOM     65  C   UNL A   1      43.313  29.460  35.241  1.00  0.00     0.037 A 
BRANCH  52  66
ATOM     66  C   UNL A   1      40.713  33.945  38.594  1.00  0.00     0.064 A 
ATOM     67  C   UNL A   1      41.451  35.139  38.604  1.00  0.00     0.173 A 
ATOM     68  C   UNL A   1      39.994  33.608  39.750  1.00  0.00     0.173 A 
ATOM     69  F   UNL A   1      42.163  35.502  37.526  1.00  0.00    -0.203 F 
ATOM     70  C   UNL A   1      41.485  35.950  39.736  1.00  0.00     0.198 A 
ATOM     71  C   UNL A   1      40.008  34.435  40.869  1.00  0.00     0.198 A 
ATOM     72  F   UNL A   1      39.268  32.480  39.791  1.00  0.00    -0.203 F 
ATOM     73  F   UNL A   1      42.231  37.063  39.737  1.00  0.00    -0.200 F 
ATOM     74  C   UNL A   1      40.758  35.602  40.864  1.00  0.00     0.200 A 
ATOM     75  F   UNL A   1      39.294  34.105  41.955  1.00  0.00    -0.200 F 
ATOM     76  F   UNL A   1      40.785  36.388  41.949  1.00  0.00    -0.200 F 
ENDBRANCH  52  66
BRANCH  53  77
ATOM     77  C   UNL A   1      40.132  28.647  30.152  1.00  0.00     0.064 A 
ATOM     78  C   UNL A   1      39.486  27.406  30.072  1.00  0.00     0.173 A 
ATOM     79  C   UNL A   1      40.731  29.148  28.987  1.00  0.00     0.173 A 
ATOM     80  F   UNL A   1      38.916  26.877  31.165  1.00  0.00    -0.203 F 
ATOM     81  C   UNL A   1      39.456  26.685  28.880  1.00  0.00     0.198 A 
ATOM     82  C   UNL A   1      40.677  28.439  27.789  1.00  0.00     0.198 A 
ATOM     83  F   UNL A   1      41.357  30.333  29.009  1.00  0.00    -0.203 F 
ATOM     84  F   UNL A   1      38.872  25.480  28.843  1.00  0.00    -0.200 F 
ATOM     85  C   UNL A   1      40.048  27.205  27.738  1.00  0.00     0.200 A 
ATOM     86  F   UNL A   1      41.237  28.951  26.684  1.00  0.00    -0.200 F 
ATOM     87  F   UNL A   1      40.016  26.513  26.591  1.00  0.00    -0.200 F 
ENDBRANCH  53  77
BRANCH  65  88
ATOM     88  C   UNL A   1      44.549  28.663  35.540  1.00  0.00     0.064 A 
ATOM     89  C   UNL A   1      45.822  29.115  35.161  1.00  0.00     0.173 A 
ATOM     90  C   UNL A   1      44.462  27.455  36.245  1.00  0.00     0.173 A 
ATOM     91  F   UNL A   1      45.955  30.258  34.470  1.00  0.00    -0.203 F 
ATOM     92  C   UNL A   1      46.961  28.373  35.457  1.00  0.00     0.198 A 
ATOM     93  C   UNL A   1      45.607  26.729  36.565  1.00  0.00     0.198 A 
ATOM     94  F   UNL A   1      43.270  26.982  36.635  1.00  0.00    -0.203 F 
ATOM     95  F   UNL A   1      48.163  28.800  35.045  1.00  0.00    -0.200 F 
ATOM     96  C   UNL A   1      46.854  27.185  36.164  1.00  0.00     0.200 A 
ATOM     97  F   UNL A   1      45.502  25.588  37.260  1.00  0.00    -0.200 F 
ATOM     98  F   UNL A   1      47.952  26.474  36.454  1.00  0.00    -0.200 F 
ENDBRANCH  65  88
ENDBRANCH  39  40
ENDBRANCH  31  34
ENDBRANCH  29  30
ENDBRANCH  28  29
ENDBRANCH  27  28
ENDBRANCH   1  27
TORSDOF 16
ENDMDL
MODEL 3
REMARK VINA RESULT:     -12.2      6.152     10.911
REMARK SMILES Cn1ccc(C(=O)NCc2ccc(C(=O)NCCCCCCNC(=O)c3ccc(-c4c5nc(c(-c6c(F)c(F)c(F)c(F)c6F)c6ccc([nH]6)c(-c6c(F)c(F)c(F)c(F)c6F)c6nc(c(-c7c(F)c(F)c(F)c(F)c7F)c7ccc4[nH]7)C=C6)C=C5)cc3)cc2)cc1=O
REMARK SMILES IDX 19 1 18 2 17 3 16 4 14 5 15 6 13 8 10 9 11 10 90 11 12 12
REMARK SMILES IDX 89 13 9 14 8 15 6 16 7 17 5 19 1 20 2 21 3 22 92 23 4 24
REMARK SMILES IDX 91 25 93 26 20 27 21 28 22 29 23 30 24 31 25 33 26 34 27 35
REMARK SMILES IDX 88 36 28 37 87 38 29 39 30 40 31 41 81 42 32 43 86 44 80 45
REMARK SMILES IDX 82 46 33 47 85 48 79 49 78 50 34 52 66 53 46 54 65 55 47 56
REMARK SMILES IDX 50 57 64 58 83 59 48 60 49 61 63 63 84 64 51 65 35 66 36 67
REMARK SMILES IDX 44 68 37 69 38 70 42 71 45 72 39 73 40 74 43 75 41 76 67 77
REMARK SMILES IDX 68 78 76 79 69 80 70 81 74 82 77 83 71 84 72 85 75 86 73 87
REMARK SMILES IDX 52 88 53 89 61 90 54 91 55 92 59 93 62 94 56 95 57 96 60 97
REMARK SMILES IDX 58 98
REMARK H PARENT 16 7 8 18 23 32 82 51 50 62
REMARK Flexibility Score: inf
ROOT
ATOM      1  C   UNL A   1      41.959  21.284  27.156  1.00  0.00     0.002 C 
ENDROOT
BRANCH   1   2
ATOM      2  C   UNL A   1      40.804  22.188  27.607  1.00  0.00     0.021 C 
BRANCH   2   3
ATOM      3  C   UNL A   1      39.809  22.522  26.491  1.00  0.00     0.116 C 
BRANCH   3   4
ATOM      4  N   UNL A   1      39.222  21.310  25.949  1.00  0.00    -0.352 N 
ATOM      5  C   UNL A   1      38.035  21.068  25.306  1.00  0.00     0.251 C 
ATOM      6  O   UNL A   1      37.827  19.925  24.897  1.00  0.00    -0.269 OA
ATOM      7  H   UNL A   1      39.782  20.509  26.068  1.00  0.00     0.163 HD
BRANCH   5   8
ATOM      8  C   UNL A   1      37.014  22.121  25.047  1.00  0.00     0.039 A 
ATOM      9  C   UNL A   1      35.084  24.095  24.388  1.00  0.00    -0.029 A 
ATOM     10  C   UNL A   1      35.692  23.331  23.386  1.00  0.00     0.006 A 
ATOM     11  C   UNL A   1      35.415  23.814  25.724  1.00  0.00     0.006 A 
ATOM     12  C   UNL A   1      36.650  22.361  23.713  1.00  0.00     0.014 A 
ATOM     13  C   UNL A   1      36.353  22.828  26.049  1.00  0.00     0.014 A 
BRANCH   9  14
ATOM     14  C   UNL A   1      34.031  25.128  24.041  1.00  0.00     0.152 C 
BRANCH  14  15
ATOM     15  N   UNL A   1      32.848  24.973  24.865  1.00  0.00    -0.348 N 
ATOM     16  C   UNL A   1      31.919  24.000  25.020  1.00  0.00     0.251 C 
ATOM     17  O   UNL A   1      30.931  24.286  25.703  1.00  0.00    -0.269 OA
ATOM     18  H   UNL A   1      32.682  25.753  25.444  1.00  0.00     0.164 HD
BRANCH  16  19
ATOM     19  C   UNL A   1      32.082  22.599  24.513  1.00  0.00     0.046 A 
ATOM     20  C   UNL A   1      32.262  18.774  22.670  1.00  0.00     0.153 C 
ATOM     21  N   UNL A   1      32.247  20.078  23.314  1.00  0.00    -0.319 N 
ATOM     22  C   UNL A   1      32.089  21.199  22.525  1.00  0.00     0.089 A 
ATOM     23  C   UNL A   1      32.408  20.166  24.693  1.00  0.00     0.251 A 
ATOM     24  C   UNL A   1      32.005  22.415  23.071  1.00  0.00     0.032 A 
ATOM     25  C   UNL A   1      32.360  21.535  25.279  1.00  0.00     0.085 A 
ATOM     26  O   UNL A   1      32.568  19.209  25.446  1.00  0.00    -0.269 OA
ENDBRANCH  16  19
ENDBRANCH  14  15
ENDBRANCH   9  14
ENDBRANCH   5   8
ENDBRANCH   3   4
ENDBRANCH   2   3
ENDBRANCH   1   2
BRANCH   1  27
ATOM     27  C   UNL A   1      41.896  19.842  27.676  1.00  0.00     0.002 C 
BRANCH  27  28
ATOM     28  C   UNL A   1      42.659  18.812  26.839  1.00  0.00     0.021 C 
BRANCH  28  29
ATOM     29  C   UNL A   1      42.668  19.092  25.338  1.00  0.00     0.116 C 
BRANCH  29  30
ATOM     30  N   UNL A   1      43.944  18.745  24.730  1.00  0.00    -0.352 N 
ATOM     31  C   UNL A   1      44.990  19.556  24.377  1.00  0.00     0.251 C 
ATOM     32  H   UNL A   1      44.075  17.786  24.546  1.00  0.00     0.163 HD
ATOM     33  O   UNL A   1      45.899  19.122  23.670  1.00  0.00    -0.269 OA
BRANCH  31  34
ATOM     34  C   UNL A   1      45.027  20.961  24.831  1.00  0.00     0.039 A 
ATOM     35  C   UNL A   1      45.423  21.240  26.142  1.00  0.00     0.014 A 
ATOM     36  C   UNL A   1      44.649  22.000  23.976  1.00  0.00     0.014 A 
ATOM     37  C   UNL A   1      45.499  22.564  26.577  1.00  0.00     0.010 A 
ATOM     38  C   UNL A   1      44.785  23.324  24.390  1.00  0.00     0.010 A 
ATOM     39  C   UNL A   1      45.211  23.618  25.694  1.00  0.00    -0.014 A 
BRANCH  39  40
ATOM     40  C   UNL A   1      45.371  25.034  26.111  1.00  0.00     0.031 A 
ATOM     41  C   UNL A   1      46.718  25.696  26.053  1.00  0.00     0.074 A 
ATOM     42  C   UNL A   1      44.312  25.698  26.612  1.00  0.00     0.049 A 
ATOM     43  N   UNL A   1      47.067  26.897  26.441  1.00  0.00    -0.248 NA
ATOM     44  C   UNL A   1      47.826  24.894  25.513  1.00  0.00     0.031 C 
ATOM     45  C   UNL A   1      42.965  25.145  26.769  1.00  0.00     0.029 A 
ATOM     46  N   UNL A   1      44.203  26.978  27.098  1.00  0.00    -0.354 N 
ATOM     47  C   UNL A   1      48.433  26.988  26.207  1.00  0.00     0.074 A 
ATOM     48  C   UNL A   1      48.859  25.707  25.685  1.00  0.00     0.031 C 
ATOM     49  C   UNL A   1      42.164  26.081  27.301  1.00  0.00     0.029 A 
ATOM     50  C   UNL A   1      42.945  27.288  27.554  1.00  0.00     0.049 A 
ATOM     51  H   UNL A   1      44.955  27.613  27.116  1.00  0.00     0.167 HD
ATOM     52  C   UNL A   1      49.251  28.051  26.393  1.00  0.00     0.037 A 
ATOM     53  C   UNL A   1      42.478  28.414  28.125  1.00  0.00     0.037 A 
ATOM     54  C   UNL A   1      48.816  29.333  26.884  1.00  0.00     0.049 A 
ATOM     55  C   UNL A   1      43.408  29.583  28.312  1.00  0.00     0.074 A 
ATOM     56  C   UNL A   1      49.553  30.496  27.030  1.00  0.00     0.029 A 
ATOM     57  N   UNL A   1      47.529  29.618  27.315  1.00  0.00    -0.354 N 
ATOM     58  N   UNL A   1      44.680  29.684  28.011  1.00  0.00    -0.248 NA
ATOM     59  C   UNL A   1      42.836  30.795  28.914  1.00  0.00     0.031 C 
ATOM     60  C   UNL A   1      48.723  31.471  27.594  1.00  0.00     0.029 A 
ATOM     61  C   UNL A   1      47.458  30.931  27.753  1.00  0.00     0.049 A 
ATOM     62  H   UNL A   1      46.777  28.982  27.310  1.00  0.00     0.167 HD
ATOM     63  C   UNL A   1      45.054  30.973  28.365  1.00  0.00     0.074 A 
ATOM     64  C   UNL A   1      43.870  31.623  28.887  1.00  0.00     0.031 C 
ATOM     65  C   UNL A   1      46.271  31.563  28.270  1.00  0.00     0.037 A 
BRANCH  52  66
ATOM     66  C   UNL A   1      50.705  27.879  26.062  1.00  0.00     0.064 A 
ATOM     67  C   UNL A   1      51.655  27.579  27.051  1.00  0.00     0.173 A 
ATOM     68  C   UNL A   1      51.146  27.964  24.733  1.00  0.00     0.173 A 
ATOM     69  F   UNL A   1      51.286  27.495  28.338  1.00  0.00    -0.203 F 
ATOM     70  C   UNL A   1      52.996  27.396  26.724  1.00  0.00     0.198 A 
ATOM     71  C   UNL A   1      52.483  27.752  24.407  1.00  0.00     0.198 A 
ATOM     72  F   UNL A   1      50.279  28.242  23.748  1.00  0.00    -0.203 F 
ATOM     73  F   UNL A   1      53.892  27.153  27.691  1.00  0.00    -0.200 F 
ATOM     74  C   UNL A   1      53.408  27.474  25.402  1.00  0.00     0.200 A 
ATOM     75  F   UNL A   1      52.878  27.815  23.127  1.00  0.00    -0.200 F 
ATOM     76  F   UNL A   1      54.698  27.288  25.089  1.00  0.00    -0.200 F 
ENDBRANCH  52  66
BRANCH  53  77
ATOM     77  C   UNL A   1      41.056  28.497  28.547  1.00  0.00     0.064 A 
ATOM     78  C   UNL A   1      40.072  28.981  27.674  1.00  0.00     0.173 A 
ATOM     79  C   UNL A   1      40.652  28.097  29.830  1.00  0.00     0.173 A 
ATOM     80  F   UNL A   1      40.413  29.394  26.445  1.00  0.00    -0.203 F 
ATOM     81  C   UNL A   1      38.742  29.081  28.074  1.00  0.00     0.198 A 
ATOM     82  C   UNL A   1      39.317  28.172  30.218  1.00  0.00     0.198 A 
ATOM     83  F   UNL A   1      41.554  27.622  30.700  1.00  0.00    -0.203 F 
ATOM     84  F   UNL A   1      37.829  29.591  27.236  1.00  0.00    -0.200 F 
ATOM     85  C   UNL A   1      38.364  28.672  29.344  1.00  0.00     0.200 A 
ATOM     86  F   UNL A   1      38.953  27.761  31.442  1.00  0.00    -0.200 F 
ATOM     87  F   UNL A   1      37.083  28.765  29.728  1.00  0.00    -0.200 F 
ENDBRANCH  53  77
BRANCH  65  88
ATOM     88  C   UNL A   1      46.377  32.991  28.720  1.00  0.00     0.064 A 
ATOM     89  C   UNL A   1      46.735  33.320  30.035  1.00  0.00     0.173 A 
ATOM     90  C   UNL A   1      46.155  34.040  27.816  1.00  0.00     0.173 A 
ATOM     91  F   UNL A   1      46.942  32.352  30.941  1.00  0.00    -0.203 F 
ATOM     92  C   UNL A   1      46.843  34.649  30.435  1.00  0.00     0.198 A 
ATOM     93  C   UNL A   1      46.292  35.367  28.212  1.00  0.00     0.198 A 
ATOM     94  F   UNL A   1      45.816  33.778  26.545  1.00  0.00    -0.203 F 
ATOM     95  F   UNL A   1      47.140  34.941  31.709  1.00  0.00    -0.200 F 
ATOM     96  C   UNL A   1      46.629  35.671  29.523  1.00  0.00     0.200 A 
ATOM     97  F   UNL A   1      46.097  36.353  27.325  1.00  0.00    -0.200 F 
ATOM     98  F   UNL A   1      46.739  36.949  29.907  1.00  0.00    -0.200 F 
ENDBRANCH  65  88
ENDBRANCH  39  40
ENDBRANCH  31  34
ENDBRANCH  29  30
ENDBRANCH  28  29
ENDBRANCH  27  28
ENDBRANCH   1  27
TORSDOF 16
ENDMDL
