MODEL 1
REMARK VINA RESULT:     -11.4      0.000      0.000
REMARK SMILES CO[C@H]1C[C@@H](C(=O)NCCCCCCNC(=O)c2ccc(-c3c4nc(c(-c5c(F)c(F)c(F)c(F)c5F)c5ccc([nH]5)c(-c5c(F)c(F)c(F)c(F)c5F)c5nc(c(-c6c(F)c(F)c(F)c(F)c6F)c6ccc3[nH]6)C=C5)C=C4)cc2)N(C(=O)[C@@H](CCSC)NC(N)=O)C1
REMARK SMILES IDX 10 1 9 2 8 3 6 4 7 5 5 7 3 8 4 9 93 10 81 11 2 12 1 13 82 14
REMARK SMILES IDX 83 15 84 16 85 17 86 18 87 19 88 20 89 21 90 22 91 24 92 25
REMARK SMILES IDX 11 28 12 29 13 30 14 31 15 32 16 33 17 35 18 36 19 37 80 38
REMARK SMILES IDX 20 39 79 40 21 41 22 42 23 43 73 44 24 45 78 46 72 47 74 48
REMARK SMILES IDX 25 49 77 50 71 51 70 52 26 54 58 55 38 56 57 57 39 58 42 59
REMARK SMILES IDX 56 60 75 61 40 62 41 63 55 65 76 66 43 67 27 68 28 69 36 70
REMARK SMILES IDX 29 71 30 72 34 73 37 74 31 75 32 76 35 77 33 78 59 79 60 80
REMARK SMILES IDX 68 81 61 82 62 83 66 84 69 85 63 86 64 87 67 88 65 89 44 90
REMARK SMILES IDX 45 91 53 92 46 93 47 94 51 95 54 96 48 97 49 98 52 99 50 100
REMARK H PARENT 8 6 89 23 91 26 91 27 15 34 74 53 42 64
REMARK Flexibility Score: inf
ROOT
ATOM      1  C   UNL A   1      35.739  22.825  24.810  1.00  0.00     0.021 C 
ENDROOT
BRANCH   1   2
ATOM      2  C   UNL A   1      35.607  22.896  26.346  1.00  0.00     0.116 C 
BRANCH   2   3
ATOM      3  N   UNL A   1      34.254  23.201  26.873  1.00  0.00    -0.354 N 
ATOM      4  C   UNL A   1      33.134  23.928  26.531  1.00  0.00     0.242 C 
ATOM      5  O   UNL A   1      32.104  23.514  27.090  1.00  0.00    -0.273 OA
ATOM      6  H   UNL A   1      34.113  22.743  27.732  1.00  0.00     0.163 HD
BRANCH   4   7
ATOM      7  C   UNL A   1      32.963  25.068  25.429  1.00  0.00     0.177 C 
ATOM      8  C   UNL A   1      32.302  27.377  25.043  1.00  0.00     0.139 C 
ATOM      9  C   UNL A   1      32.861  26.450  26.125  1.00  0.00     0.069 C 
ATOM     10  C   UNL A   1      31.249  26.497  24.390  1.00  0.00     0.152 C 
ATOM     11  N   UNL A   1      31.790  25.137  24.497  1.00  0.00    -0.326 N 
BRANCH   8  12
ATOM     12  O   UNL A   1      31.841  28.654  25.453  1.00  0.00    -0.380 OA
ATOM     13  C   UNL A   1      31.840  28.908  26.848  1.00  0.00     0.195 C 
ENDBRANCH   8  12
BRANCH  11  14
ATOM     14  C   UNL A   1      31.446  24.265  23.476  1.00  0.00     0.246 C 
ATOM     15  O   UNL A   1      30.275  24.036  23.174  1.00  0.00    -0.272 OA
BRANCH  14  16
ATOM     16  C   UNL A   1      32.583  23.582  22.741  1.00  0.00     0.174 C 
BRANCH  16  17
ATOM     17  C   UNL A   1      32.659  22.021  22.988  1.00  0.00     0.046 C 
BRANCH  17  18
ATOM     18  C   UNL A   1      32.364  21.193  24.335  1.00  0.00     0.072 C 
BRANCH  18  19
ATOM     19  S   UNL A   1      32.901  19.464  25.113  1.00  0.00    -0.165 SA
ATOM     20  C   UNL A   1      33.282  18.142  23.871  1.00  0.00     0.085 C 
ENDBRANCH  18  19
ENDBRANCH  17  18
ENDBRANCH  16  17
BRANCH  16  21
ATOM     21  N   UNL A   1      32.502  24.134  21.380  1.00  0.00    -0.327 N 
ATOM     22  C   UNL A   1      32.916  25.355  20.951  1.00  0.00     0.312 C 
ATOM     23  H   UNL A   1      32.098  23.549  20.698  1.00  0.00     0.166 HD
ATOM     24  N   UNL A   1      32.528  25.578  19.662  1.00  0.00    -0.352 N 
ATOM     25  O   UNL A   1      33.544  26.178  21.601  1.00  0.00    -0.249 OA
ATOM     26  H   UNL A   1      32.024  24.889  19.174  1.00  0.00     0.161 HD
ATOM     27  H   UNL A   1      32.752  26.430  19.223  1.00  0.00     0.161 HD
ENDBRANCH  16  21
ENDBRANCH  14  16
ENDBRANCH  11  14
ENDBRANCH   4   7
ENDBRANCH   2   3
ENDBRANCH   1   2
BRANCH   1  28
ATOM     28  C   UNL A   1      36.653  21.724  24.266  1.00  0.00     0.002 C 
BRANCH  28  29
ATOM     29  C   UNL A   1      36.556  20.349  24.939  1.00  0.00     0.002 C 
BRANCH  29  30
ATOM     30  C   UNL A   1      37.838  19.510  25.000  1.00  0.00     0.021 C 
BRANCH  30  31
ATOM     31  C   UNL A   1      39.016  20.137  25.745  1.00  0.00     0.116 C 
BRANCH  31  32
ATOM     32  N   UNL A   1      40.105  19.196  25.954  1.00  0.00    -0.352 N 
ATOM     33  C   UNL A   1      41.445  19.402  26.153  1.00  0.00     0.251 C 
ATOM     34  H   UNL A   1      39.833  18.249  25.954  1.00  0.00     0.163 HD
ATOM     35  O   UNL A   1      42.221  18.452  26.087  1.00  0.00    -0.269 OA
BRANCH  33  36
ATOM     36  C   UNL A   1      41.972  20.752  26.444  1.00  0.00     0.039 A 
ATOM     37  C   UNL A   1      42.228  21.614  25.373  1.00  0.00     0.014 A 
ATOM     38  C   UNL A   1      42.271  21.151  27.750  1.00  0.00     0.014 A 
ATOM     39  C   UNL A   1      42.735  22.891  25.616  1.00  0.00     0.010 A 
ATOM     40  C   UNL A   1      42.710  22.451  27.997  1.00  0.00     0.010 A 
ATOM     41  C   UNL A   1      42.951  23.332  26.933  1.00  0.00    -0.014 A 
BRANCH  41  42
ATOM     42  C   UNL A   1      43.410  24.719  27.199  1.00  0.00     0.031 A 
ATOM     43  C   UNL A   1      42.465  25.746  27.759  1.00  0.00     0.074 A 
ATOM     44  C   UNL A   1      44.677  25.059  26.898  1.00  0.00     0.049 A 
ATOM     45  N   UNL A   1      42.690  27.003  28.051  1.00  0.00    -0.248 NA
ATOM     46  C   UNL A   1      41.082  25.312  28.001  1.00  0.00     0.031 C 
ATOM     47  C   UNL A   1      45.670  24.163  26.301  1.00  0.00     0.029 A 
ATOM     48  N   UNL A   1      45.350  26.245  27.050  1.00  0.00    -0.354 N 
ATOM     49  C   UNL A   1      41.480  27.508  28.506  1.00  0.00     0.074 A 
ATOM     50  C   UNL A   1      40.508  26.441  28.395  1.00  0.00     0.031 C 
ATOM     51  C   UNL A   1      46.832  24.820  26.170  1.00  0.00     0.029 A 
ATOM     52  C   UNL A   1      46.657  26.192  26.633  1.00  0.00     0.049 A 
ATOM     53  H   UNL A   1      44.935  27.056  27.423  1.00  0.00     0.167 HD
ATOM     54  C   UNL A   1      41.209  28.743  28.994  1.00  0.00     0.037 A 
ATOM     55  C   UNL A   1      47.608  27.146  26.621  1.00  0.00     0.037 A 
ATOM     56  C   UNL A   1      42.184  29.797  29.110  1.00  0.00     0.049 A 
ATOM     57  C   UNL A   1      47.276  28.513  27.155  1.00  0.00     0.074 A 
ATOM     58  C   UNL A   1      42.026  31.064  29.645  1.00  0.00     0.029 A 
ATOM     59  N   UNL A   1      43.499  29.710  28.675  1.00  0.00    -0.354 N 
ATOM     60  N   UNL A   1      46.149  28.955  27.657  1.00  0.00    -0.248 NA
ATOM     61  C   UNL A   1      48.353  29.511  27.127  1.00  0.00     0.031 C 
ATOM     62  C   UNL A   1      43.226  31.763  29.477  1.00  0.00     0.029 A 
ATOM     63  C   UNL A   1      44.153  30.911  28.899  1.00  0.00     0.049 A 
ATOM     64  H   UNL A   1      43.907  28.912  28.268  1.00  0.00     0.167 HD
ATOM     65  C   UNL A   1      46.386  30.273  28.028  1.00  0.00     0.074 A 
ATOM     66  C   UNL A   1      47.774  30.548  27.713  1.00  0.00     0.031 C 
ATOM     67  C   UNL A   1      45.534  31.173  28.575  1.00  0.00     0.037 A 
BRANCH  54  68
ATOM     68  C   UNL A   1      39.800  29.025  29.437  1.00  0.00     0.064 A 
ATOM     69  C   UNL A   1      38.819  29.472  28.537  1.00  0.00     0.173 A 
ATOM     70  C   UNL A   1      39.415  28.810  30.769  1.00  0.00     0.173 A 
ATOM     71  F   UNL A   1      39.134  29.702  27.254  1.00  0.00    -0.203 F 
ATOM     72  C   UNL A   1      37.516  29.724  28.962  1.00  0.00     0.198 A 
ATOM     73  C   UNL A   1      38.102  29.030  31.182  1.00  0.00     0.198 A 
ATOM     74  F   UNL A   1      40.308  28.378  31.670  1.00  0.00    -0.203 F 
ATOM     75  F   UNL A   1      36.612  30.201  28.095  1.00  0.00    -0.200 F 
ATOM     76  C   UNL A   1      37.157  29.495  30.281  1.00  0.00     0.200 A 
ATOM     77  F   UNL A   1      37.754  28.795  32.455  1.00  0.00    -0.200 F 
ATOM     78  F   UNL A   1      35.902  29.731  30.685  1.00  0.00    -0.200 F 
ENDBRANCH  54  68
BRANCH  55  79
ATOM     79  C   UNL A   1      48.967  26.833  26.107  1.00  0.00     0.064 A 
ATOM     80  C   UNL A   1      49.957  26.314  26.953  1.00  0.00     0.173 A 
ATOM     81  C   UNL A   1      49.305  27.049  24.763  1.00  0.00     0.173 A 
ATOM     82  F   UNL A   1      49.689  26.108  28.250  1.00  0.00    -0.203 F 
ATOM     83  C   UNL A   1      51.240  26.044  26.479  1.00  0.00     0.198 A 
ATOM     84  C   UNL A   1      50.578  26.747  24.283  1.00  0.00     0.198 A 
ATOM     85  F   UNL A   1      48.393  27.537  23.910  1.00  0.00    -0.203 F 
ATOM     86  F   UNL A   1      52.182  25.597  27.321  1.00  0.00    -0.200 F 
ATOM     87  C   UNL A   1      51.547  26.255  25.144  1.00  0.00     0.200 A 
ATOM     88  F   UNL A   1      50.865  26.936  22.988  1.00  0.00    -0.200 F 
ATOM     89  F   UNL A   1      52.779  25.991  24.687  1.00  0.00    -0.200 F 
ENDBRANCH  55  79
BRANCH  67  90
ATOM     90  C   UNL A   1      46.086  32.535  28.892  1.00  0.00     0.064 A 
ATOM     91  C   UNL A   1      46.663  32.825  30.139  1.00  0.00     0.173 A 
ATOM     92  C   UNL A   1      46.058  33.555  27.930  1.00  0.00     0.173 A 
ATOM     93  F   UNL A   1      46.702  31.889  31.099  1.00  0.00    -0.203 F 
ATOM     94  C   UNL A   1      47.155  34.096  30.421  1.00  0.00     0.198 A 
ATOM     95  C   UNL A   1      46.585  34.814  28.204  1.00  0.00     0.198 A 
ATOM     96  F   UNL A   1      45.525  33.329  26.720  1.00  0.00    -0.203 F 
ATOM     97  F   UNL A   1      47.645  34.368  31.638  1.00  0.00    -0.200 F 
ATOM     98  C   UNL A   1      47.123  35.087  29.451  1.00  0.00     0.200 A 
ATOM     99  F   UNL A   1      46.568  35.765  27.259  1.00  0.00    -0.200 F 
ATOM    100  F   UNL A   1      47.602  36.308  29.724  1.00  0.00    -0.200 F 
ENDBRANCH  67  90
ENDBRANCH  41  42
ENDBRANCH  33  36
ENDBRANCH  31  32
ENDBRANCH  30  31
ENDBRANCH  29  30
ENDBRANCH  28  29
ENDBRANCH   1  28
TORSDOF 20
ENDMDL
MODEL 2
REMARK VINA RESULT:     -10.8      2.032      7.991
REMARK SMILES CO[C@H]1C[C@@H](C(=O)NCCCCCCNC(=O)c2ccc(-c3c4nc(c(-c5c(F)c(F)c(F)c(F)c5F)c5ccc([nH]5)c(-c5c(F)c(F)c(F)c(F)c5F)c5nc(c(-c6c(F)c(F)c(F)c(F)c6F)c6ccc3[nH]6)C=C5)C=C4)cc2)N(C(=O)[C@@H](CCSC)NC(N)=O)C1
REMARK SMILES IDX 10 1 9 2 8 3 6 4 7 5 5 7 3 8 4 9 93 10 81 11 2 12 1 13 82 14
REMARK SMILES IDX 83 15 84 16 85 17 86 18 87 19 88 20 89 21 90 22 91 24 92 25
REMARK SMILES IDX 11 28 12 29 13 30 14 31 15 32 16 33 17 35 18 36 19 37 80 38
REMARK SMILES IDX 20 39 79 40 21 41 22 42 23 43 73 44 24 45 78 46 72 47 74 48
REMARK SMILES IDX 25 49 77 50 71 51 70 52 26 54 58 55 38 56 57 57 39 58 42 59
REMARK SMILES IDX 56 60 75 61 40 62 41 63 55 65 76 66 43 67 27 68 28 69 36 70
REMARK SMILES IDX 29 71 30 72 34 73 37 74 31 75 32 76 35 77 33 78 59 79 60 80
REMARK SMILES IDX 68 81 61 82 62 83 66 84 69 85 63 86 64 87 67 88 65 89 44 90
REMARK SMILES IDX 45 91 53 92 46 93 47 94 51 95 54 96 48 97 49 98 52 99 50 100
REMARK H PARENT 8 6 89 23 91 26 91 27 15 34 74 53 42 64
REMARK Flexibility Score: inf
ROOT
ATOM      1  C   UNL A   1      39.358  22.208  26.111  1.00  0.00     0.021 C 
ENDROOT
BRANCH   1   2
ATOM      2  C   UNL A   1      38.062  21.461  25.735  1.00  0.00     0.116 C 
BRANCH   2   3
ATOM      3  N   UNL A   1      37.398  21.892  24.480  1.00  0.00    -0.354 N 
ATOM      4  C   UNL A   1      36.149  22.260  24.027  1.00  0.00     0.242 C 
ATOM      5  O   UNL A   1      36.198  22.947  22.993  1.00  0.00    -0.273 OA
ATOM      6  H   UNL A   1      38.051  21.926  23.745  1.00  0.00     0.163 HD
BRANCH   4   7
ATOM      7  C   UNL A   1      34.724  22.072  24.719  1.00  0.00     0.177 C 
ATOM      8  C   UNL A   1      32.975  20.474  25.266  1.00  0.00     0.139 C 
ATOM      9  C   UNL A   1      34.479  20.568  25.001  1.00  0.00     0.069 C 
ATOM     10  C   UNL A   1      32.411  21.406  24.206  1.00  0.00     0.152 C 
ATOM     11  N   UNL A   1      33.435  22.446  24.049  1.00  0.00    -0.326 N 
BRANCH   8  12
ATOM     12  O   UNL A   1      32.397  19.180  25.291  1.00  0.00    -0.380 OA
ATOM     13  C   UNL A   1      32.688  18.335  24.190  1.00  0.00     0.195 C 
ENDBRANCH   8  12
BRANCH  11  14
ATOM     14  C   UNL A   1      32.972  23.706  23.708  1.00  0.00     0.246 C 
ATOM     15  O   UNL A   1      32.608  23.986  22.566  1.00  0.00    -0.272 OA
BRANCH  14  16
ATOM     16  C   UNL A   1      32.941  24.749  24.809  1.00  0.00     0.174 C 
BRANCH  16  17
ATOM     17  C   UNL A   1      33.567  26.140  24.391  1.00  0.00     0.046 C 
BRANCH  17  18
ATOM     18  C   UNL A   1      32.845  27.422  23.742  1.00  0.00     0.072 C 
BRANCH  18  19
ATOM     19  S   UNL A   1      31.096  28.320  23.882  1.00  0.00    -0.165 SA
ATOM     20  C   UNL A   1      30.624  29.329  22.401  1.00  0.00     0.085 C 
ENDBRANCH  18  19
ENDBRANCH  17  18
ENDBRANCH  16  17
BRANCH  16  21
ATOM     21  N   UNL A   1      31.570  24.659  25.338  1.00  0.00    -0.327 N 
ATOM     22  C   UNL A   1      31.162  24.079  26.496  1.00  0.00     0.312 C 
ATOM     23  H   UNL A   1      30.865  25.067  24.785  1.00  0.00     0.166 HD
ATOM     24  N   UNL A   1      29.800  24.045  26.573  1.00  0.00    -0.352 N 
ATOM     25  O   UNL A   1      31.882  23.625  27.375  1.00  0.00    -0.249 OA
ATOM     26  H   UNL A   1      29.257  24.422  25.844  1.00  0.00     0.161 HD
ATOM     27  H   UNL A   1      29.362  23.642  27.357  1.00  0.00     0.161 HD
ENDBRANCH  16  21
ENDBRANCH  14  16
ENDBRANCH  11  14
ENDBRANCH   4   7
ENDBRANCH   2   3
ENDBRANCH   1   2
BRANCH   1  28
ATOM     28  C   UNL A   1      40.325  21.455  27.029  1.00  0.00     0.002 C 
BRANCH  28  29
ATOM     29  C   UNL A   1      41.676  21.048  26.427  1.00  0.00     0.002 C 
BRANCH  29  30
ATOM     30  C   UNL A   1      41.757  19.668  25.765  1.00  0.00     0.021 C 
BRANCH  30  31
ATOM     31  C   UNL A   1      42.981  18.824  26.120  1.00  0.00     0.116 C 
BRANCH  31  32
ATOM     32  N   UNL A   1      43.887  18.658  24.994  1.00  0.00    -0.352 N 
ATOM     33  C   UNL A   1      44.595  19.578  24.267  1.00  0.00     0.251 C 
ATOM     34  H   UNL A   1      44.015  17.724  24.706  1.00  0.00     0.163 HD
ATOM     35  O   UNL A   1      45.129  19.239  23.215  1.00  0.00    -0.269 OA
BRANCH  33  36
ATOM     36  C   UNL A   1      44.724  20.976  24.730  1.00  0.00     0.039 A 
ATOM     37  C   UNL A   1      45.252  21.212  26.003  1.00  0.00     0.014 A 
ATOM     38  C   UNL A   1      44.274  22.045  23.950  1.00  0.00     0.014 A 
ATOM     39  C   UNL A   1      45.375  22.521  26.471  1.00  0.00     0.010 A 
ATOM     40  C   UNL A   1      44.464  23.354  24.389  1.00  0.00     0.010 A 
ATOM     41  C   UNL A   1      45.011  23.605  25.655  1.00  0.00    -0.014 A 
BRANCH  41  42
ATOM     42  C   UNL A   1      45.221  25.001  26.117  1.00  0.00     0.031 A 
ATOM     43  C   UNL A   1      46.579  25.640  26.039  1.00  0.00     0.074 A 
ATOM     44  C   UNL A   1      44.183  25.680  26.643  1.00  0.00     0.049 A 
ATOM     45  N   UNL A   1      46.947  26.845  26.397  1.00  0.00    -0.248 NA
ATOM     46  C   UNL A   1      47.672  24.812  25.511  1.00  0.00     0.031 C 
ATOM     47  C   UNL A   1      42.831  25.146  26.820  1.00  0.00     0.029 A 
ATOM     48  N   UNL A   1      44.100  26.961  27.126  1.00  0.00    -0.354 N 
ATOM     49  C   UNL A   1      48.310  26.916  26.142  1.00  0.00     0.074 A 
ATOM     50  C   UNL A   1      48.717  25.615  25.656  1.00  0.00     0.031 C 
ATOM     51  C   UNL A   1      42.046  26.102  27.339  1.00  0.00     0.029 A 
ATOM     52  C   UNL A   1      42.846  27.300  27.571  1.00  0.00     0.049 A 
ATOM     53  H   UNL A   1      44.866  27.578  27.152  1.00  0.00     0.167 HD
ATOM     54  C   UNL A   1      49.141  27.978  26.279  1.00  0.00     0.037 A 
ATOM     55  C   UNL A   1      42.392  28.448  28.110  1.00  0.00     0.037 A 
ATOM     56  C   UNL A   1      48.727  29.272  26.756  1.00  0.00     0.049 A 
ATOM     57  C   UNL A   1      43.341  29.605  28.265  1.00  0.00     0.074 A 
ATOM     58  C   UNL A   1      49.478  30.429  26.876  1.00  0.00     0.029 A 
ATOM     59  N   UNL A   1      47.448  29.580  27.200  1.00  0.00    -0.354 N 
ATOM     60  N   UNL A   1      44.609  29.686  27.945  1.00  0.00    -0.248 NA
ATOM     61  C   UNL A   1      42.789  30.835  28.850  1.00  0.00     0.031 C 
ATOM     62  C   UNL A   1      48.670  31.418  27.450  1.00  0.00     0.029 A 
ATOM     63  C   UNL A   1      47.398  30.897  27.627  1.00  0.00     0.049 A 
ATOM     64  H   UNL A   1      46.689  28.953  27.211  1.00  0.00     0.167 HD
ATOM     65  C   UNL A   1      45.003  30.979  28.265  1.00  0.00     0.074 A 
ATOM     66  C   UNL A   1      43.829  31.653  28.782  1.00  0.00     0.031 C 
ATOM     67  C   UNL A   1      46.224  31.555  28.144  1.00  0.00     0.037 A 
BRANCH  54  68
ATOM     68  C   UNL A   1      50.587  27.784  25.913  1.00  0.00     0.064 A 
ATOM     69  C   UNL A   1      51.037  27.913  24.589  1.00  0.00     0.173 A 
ATOM     70  C   UNL A   1      51.541  27.502  26.902  1.00  0.00     0.173 A 
ATOM     71  F   UNL A   1      50.166  28.173  23.603  1.00  0.00    -0.203 F 
ATOM     72  C   UNL A   1      52.380  27.735  24.267  1.00  0.00     0.198 A 
ATOM     73  C   UNL A   1      52.889  27.359  26.580  1.00  0.00     0.198 A 
ATOM     74  F   UNL A   1      51.169  27.373  28.184  1.00  0.00    -0.203 F 
ATOM     75  F   UNL A   1      52.776  27.811  22.988  1.00  0.00    -0.200 F 
ATOM     76  C   UNL A   1      53.306  27.467  25.263  1.00  0.00     0.200 A 
ATOM     77  F   UNL A   1      53.785  27.113  27.547  1.00  0.00    -0.200 F 
ATOM     78  F   UNL A   1      54.599  27.304  24.951  1.00  0.00    -0.200 F 
ENDBRANCH  54  68
BRANCH  55  79
ATOM     79  C   UNL A   1      40.968  28.563  28.521  1.00  0.00     0.064 A 
ATOM     80  C   UNL A   1      39.989  28.996  27.616  1.00  0.00     0.173 A 
ATOM     81  C   UNL A   1      40.557  28.247  29.824  1.00  0.00     0.173 A 
ATOM     82  F   UNL A   1      40.334  29.328  26.363  1.00  0.00    -0.203 F 
ATOM     83  C   UNL A   1      38.657  29.130  28.005  1.00  0.00     0.198 A 
ATOM     84  C   UNL A   1      39.220  28.349  30.202  1.00  0.00     0.198 A 
ATOM     85  F   UNL A   1      41.452  27.821  30.726  1.00  0.00    -0.203 F 
ATOM     86  F   UNL A   1      37.751  29.594  27.135  1.00  0.00    -0.200 F 
ATOM     87  C   UNL A   1      38.273  28.800  29.296  1.00  0.00     0.200 A 
ATOM     88  F   UNL A   1      38.851  28.013  31.446  1.00  0.00    -0.200 F 
ATOM     89  F   UNL A   1      36.992  28.924  29.669  1.00  0.00    -0.200 F 
ENDBRANCH  55  79
BRANCH  67  90
ATOM     90  C   UNL A   1      46.346  32.995  28.557  1.00  0.00     0.064 A 
ATOM     91  C   UNL A   1      46.710  33.360  29.863  1.00  0.00     0.173 A 
ATOM     92  C   UNL A   1      46.119  34.022  27.629  1.00  0.00     0.173 A 
ATOM     93  F   UNL A   1      46.924  32.417  30.792  1.00  0.00    -0.203 F 
ATOM     94  C   UNL A   1      46.803  34.699  30.231  1.00  0.00     0.198 A 
ATOM     95  C   UNL A   1      46.250  35.359  27.992  1.00  0.00     0.198 A 
ATOM     96  F   UNL A   1      45.777  33.729  26.365  1.00  0.00    -0.203 F 
ATOM     97  F   UNL A   1      47.091  35.024  31.499  1.00  0.00    -0.200 F 
ATOM     98  C   UNL A   1      46.581  35.697  29.294  1.00  0.00     0.200 A 
ATOM     99  F   UNL A   1      46.051  36.321  27.081  1.00  0.00    -0.200 F 
ATOM    100  F   UNL A   1      46.677  36.985  29.651  1.00  0.00    -0.200 F 
ENDBRANCH  67  90
ENDBRANCH  41  42
ENDBRANCH  33  36
ENDBRANCH  31  32
ENDBRANCH  30  31
ENDBRANCH  29  30
ENDBRANCH  28  29
ENDBRANCH   1  28
TORSDOF 20
ENDMDL
MODEL 3
REMARK VINA RESULT:     -10.8      1.335      7.635
REMARK SMILES CO[C@H]1C[C@@H](C(=O)NCCCCCCNC(=O)c2ccc(-c3c4nc(c(-c5c(F)c(F)c(F)c(F)c5F)c5ccc([nH]5)c(-c5c(F)c(F)c(F)c(F)c5F)c5nc(c(-c6c(F)c(F)c(F)c(F)c6F)c6ccc3[nH]6)C=C5)C=C4)cc2)N(C(=O)[C@@H](CCSC)NC(N)=O)C1
REMARK SMILES IDX 10 1 9 2 8 3 6 4 7 5 5 7 3 8 4 9 93 10 81 11 2 12 1 13 82 14
REMARK SMILES IDX 83 15 84 16 85 17 86 18 87 19 88 20 89 21 90 22 91 24 92 25
REMARK SMILES IDX 11 28 12 29 13 30 14 31 15 32 16 33 17 35 18 36 19 37 80 38
REMARK SMILES IDX 20 39 79 40 21 41 22 42 23 43 73 44 24 45 78 46 72 47 74 48
REMARK SMILES IDX 25 49 77 50 71 51 70 52 26 54 58 55 38 56 57 57 39 58 42 59
REMARK SMILES IDX 56 60 75 61 40 62 41 63 55 65 76 66 43 67 27 68 28 69 36 70
REMARK SMILES IDX 29 71 30 72 34 73 37 74 31 75 32 76 35 77 33 78 59 79 60 80
REMARK SMILES IDX 68 81 61 82 62 83 66 84 69 85 63 86 64 87 67 88 65 89 44 90
REMARK SMILES IDX 45 91 53 92 46 93 47 94 51 95 54 96 48 97 49 98 52 99 50 100
REMARK H PARENT 8 6 89 23 91 26 91 27 15 34 74 53 42 64
REMARK Flexibility Score: inf
ROOT
ATOM      1  C   UNL A   1      36.402  22.890  25.214  1.00  0.00     0.021 C 
ENDROOT
BRANCH   1   2
ATOM      2  C   UNL A   1      35.931  22.432  26.610  1.00  0.00     0.116 C 
BRANCH   2   3
ATOM      3  N   UNL A   1      34.602  22.924  27.047  1.00  0.00    -0.354 N 
ATOM      4  C   UNL A   1      33.268  22.754  26.743  1.00  0.00     0.242 C 
ATOM      5  O   UNL A   1      32.518  23.063  27.684  1.00  0.00    -0.273 OA
ATOM      6  H   UNL A   1      34.703  23.570  27.782  1.00  0.00     0.163 HD
BRANCH   4   7
ATOM      7  C   UNL A   1      32.599  22.079  25.461  1.00  0.00     0.177 C 
ATOM      8  C   UNL A   1      32.311  20.002  24.232  1.00  0.00     0.139 C 
ATOM      9  C   UNL A   1      32.576  20.540  25.639  1.00  0.00     0.069 C 
ATOM     10  C   UNL A   1      33.187  20.905  23.380  1.00  0.00     0.152 C 
ATOM     11  N   UNL A   1      33.177  22.194  24.082  1.00  0.00    -0.326 N 
BRANCH   8  12
ATOM     12  O   UNL A   1      32.500  18.613  24.018  1.00  0.00    -0.380 OA
ATOM     13  C   UNL A   1      33.746  18.074  24.428  1.00  0.00     0.195 C 
ENDBRANCH   8  12
BRANCH  11  14
ATOM     14  C   UNL A   1      33.289  23.321  23.283  1.00  0.00     0.246 C 
ATOM     15  O   UNL A   1      34.321  23.591  22.669  1.00  0.00    -0.272 OA
BRANCH  14  16
ATOM     16  C   UNL A   1      32.078  24.230  23.201  1.00  0.00     0.174 C 
BRANCH  16  17
ATOM     17  C   UNL A   1      32.042  25.350  24.317  1.00  0.00     0.046 C 
BRANCH  17  18
ATOM     18  C   UNL A   1      33.268  26.102  25.038  1.00  0.00     0.072 C 
BRANCH  18  19
ATOM     19  S   UNL A   1      33.696  27.935  25.620  1.00  0.00    -0.165 SA
ATOM     20  C   UNL A   1      33.155  29.265  24.447  1.00  0.00     0.085 C 
ENDBRANCH  18  19
ENDBRANCH  17  18
ENDBRANCH  16  17
BRANCH  16  21
ATOM     21  N   UNL A   1      31.995  24.575  21.773  1.00  0.00    -0.327 N 
ATOM     22  C   UNL A   1      32.552  25.640  21.140  1.00  0.00     0.312 C 
ATOM     23  H   UNL A   1      31.473  23.959  21.208  1.00  0.00     0.166 HD
ATOM     24  N   UNL A   1      32.124  25.719  19.848  1.00  0.00    -0.352 N 
ATOM     25  O   UNL A   1      33.327  26.450  21.628  1.00  0.00    -0.249 OA
ATOM     26  H   UNL A   1      31.499  25.047  19.494  1.00  0.00     0.161 HD
ATOM     27  H   UNL A   1      32.439  26.452  19.270  1.00  0.00     0.161 HD
ENDBRANCH  16  21
ENDBRANCH  14  16
ENDBRANCH  11  14
ENDBRANCH   4   7
ENDBRANCH   2   3
ENDBRANCH   1   2
BRANCH   1  28
ATOM     28  C   UNL A   1      36.982  21.799  24.310  1.00  0.00     0.002 C 
BRANCH  28  29
ATOM     29  C   UNL A   1      36.692  20.346  24.706  1.00  0.00     0.002 C 
BRANCH  29  30
ATOM     30  C   UNL A   1      37.900  19.445  24.988  1.00  0.00     0.021 C 
BRANCH  30  31
ATOM     31  C   UNL A   1      39.059  20.093  25.744  1.00  0.00     0.116 C 
BRANCH  31  32
ATOM     32  N   UNL A   1      40.190  19.192  25.905  1.00  0.00    -0.352 N 
ATOM     33  C   UNL A   1      41.521  19.447  26.104  1.00  0.00     0.251 C 
ATOM     34  H   UNL A   1      39.959  18.235  25.865  1.00  0.00     0.163 HD
ATOM     35  O   UNL A   1      42.336  18.536  25.992  1.00  0.00    -0.269 OA
BRANCH  33  36
ATOM     36  C   UNL A   1      41.991  20.805  26.450  1.00  0.00     0.039 A 
ATOM     37  C   UNL A   1      42.151  21.739  25.422  1.00  0.00     0.014 A 
ATOM     38  C   UNL A   1      42.332  21.145  27.762  1.00  0.00     0.014 A 
ATOM     39  C   UNL A   1      42.604  23.026  25.717  1.00  0.00     0.010 A 
ATOM     40  C   UNL A   1      42.715  22.451  28.066  1.00  0.00     0.010 A 
ATOM     41  C   UNL A   1      42.859  23.402  27.046  1.00  0.00    -0.014 A 
BRANCH  41  42
ATOM     42  C   UNL A   1      43.259  24.795  27.373  1.00  0.00     0.031 A 
ATOM     43  C   UNL A   1      44.668  25.264  27.142  1.00  0.00     0.074 A 
ATOM     44  C   UNL A   1      42.349  25.626  27.916  1.00  0.00     0.049 A 
ATOM     45  N   UNL A   1      45.195  26.441  27.370  1.00  0.00    -0.248 NA
ATOM     46  C   UNL A   1      45.616  24.277  26.606  1.00  0.00     0.031 C 
ATOM     47  C   UNL A   1      40.966  25.268  28.235  1.00  0.00     0.029 A 
ATOM     48  N   UNL A   1      42.448  26.941  28.295  1.00  0.00    -0.354 N 
ATOM     49  C   UNL A   1      46.531  26.334  27.011  1.00  0.00     0.074 A 
ATOM     50  C   UNL A   1      46.751  24.962  26.606  1.00  0.00     0.031 C 
ATOM     51  C   UNL A   1      40.336  26.345  28.730  1.00  0.00     0.029 A 
ATOM     52  C   UNL A   1      41.279  27.456  28.802  1.00  0.00     0.049 A 
ATOM     53  H   UNL A   1      43.276  27.465  28.213  1.00  0.00     0.167 HD
ATOM     54  C   UNL A   1      47.483  27.299  26.997  1.00  0.00     0.037 A 
ATOM     55  C   UNL A   1      41.001  28.685  29.275  1.00  0.00     0.037 A 
ATOM     56  C   UNL A   1      47.254  28.665  27.394  1.00  0.00     0.049 A 
ATOM     57  C   UNL A   1      42.081  29.733  29.263  1.00  0.00     0.074 A 
ATOM     58  C   UNL A   1      48.135  29.733  27.361  1.00  0.00     0.029 A 
ATOM     59  N   UNL A   1      46.058  29.151  27.904  1.00  0.00    -0.354 N 
ATOM     60  N   UNL A   1      43.319  29.642  28.844  1.00  0.00    -0.248 NA
ATOM     61  C   UNL A   1      41.718  31.059  29.782  1.00  0.00     0.031 C 
ATOM     62  C   UNL A   1      47.492  30.848  27.909  1.00  0.00     0.029 A 
ATOM     63  C   UNL A   1      46.189  30.494  28.221  1.00  0.00     0.049 A 
ATOM     64  H   UNL A   1      45.238  28.619  28.022  1.00  0.00     0.167 HD
ATOM     65  C   UNL A   1      43.878  30.900  29.025  1.00  0.00     0.074 A 
ATOM     66  C   UNL A   1      42.832  31.743  29.569  1.00  0.00     0.031 C 
ATOM     67  C   UNL A   1      45.141  31.320  28.768  1.00  0.00     0.037 A 
BRANCH  54  68
ATOM     68  C   UNL A   1      48.863  26.912  26.543  1.00  0.00     0.064 A 
ATOM     69  C   UNL A   1      49.814  26.390  27.434  1.00  0.00     0.173 A 
ATOM     70  C   UNL A   1      49.228  27.028  25.193  1.00  0.00     0.173 A 
ATOM     71  F   UNL A   1      49.521  26.265  28.737  1.00  0.00    -0.203 F 
ATOM     72  C   UNL A   1      51.087  26.030  26.996  1.00  0.00     0.198 A 
ATOM     73  C   UNL A   1      50.491  26.635  24.753  1.00  0.00     0.198 A 
ATOM     74  F   UNL A   1      48.358  27.515  24.296  1.00  0.00    -0.203 F 
ATOM     75  F   UNL A   1      51.994  25.585  27.877  1.00  0.00    -0.200 F 
ATOM     76  C   UNL A   1      51.421  26.146  25.656  1.00  0.00     0.200 A 
ATOM     77  F   UNL A   1      50.806  26.735  23.454  1.00  0.00    -0.200 F 
ATOM     78  F   UNL A   1      52.644  25.792  25.236  1.00  0.00    -0.200 F 
ENDBRANCH  54  68
BRANCH  55  79
ATOM     79  C   UNL A   1      39.637  28.996  29.778  1.00  0.00     0.064 A 
ATOM     80  C   UNL A   1      39.299  28.790  31.123  1.00  0.00     0.173 A 
ATOM     81  C   UNL A   1      38.643  29.500  28.927  1.00  0.00     0.173 A 
ATOM     82  F   UNL A   1      40.209  28.292  31.973  1.00  0.00    -0.203 F 
ATOM     83  C   UNL A   1      38.014  29.056  31.592  1.00  0.00     0.198 A 
ATOM     84  C   UNL A   1      37.368  29.797  29.404  1.00  0.00     0.198 A 
ATOM     85  F   UNL A   1      38.916  29.722  27.633  1.00  0.00    -0.203 F 
ATOM     86  F   UNL A   1      37.704  28.802  32.871  1.00  0.00    -0.200 F 
ATOM     87  C   UNL A   1      37.052  29.564  30.733  1.00  0.00     0.200 A 
ATOM     88  F   UNL A   1      36.446  30.305  28.574  1.00  0.00    -0.200 F 
ATOM     89  F   UNL A   1      35.817  29.825  31.185  1.00  0.00    -0.200 F 
ENDBRANCH  55  79
BRANCH  67  90
ATOM     90  C   UNL A   1      45.455  32.763  29.049  1.00  0.00     0.064 A 
ATOM     91  C   UNL A   1      45.985  33.175  30.281  1.00  0.00     0.173 A 
ATOM     92  C   UNL A   1      45.242  33.741  28.066  1.00  0.00     0.173 A 
ATOM     93  F   UNL A   1      46.194  32.283  31.260  1.00  0.00    -0.203 F 
ATOM     94  C   UNL A   1      46.256  34.518  30.529  1.00  0.00     0.198 A 
ATOM     95  C   UNL A   1      45.549  35.077  28.305  1.00  0.00     0.198 A 
ATOM     96  F   UNL A   1      44.745  33.399  26.868  1.00  0.00    -0.203 F 
ATOM     97  F   UNL A   1      46.704  34.898  31.734  1.00  0.00    -0.200 F 
ATOM     98  C   UNL A   1      46.045  35.467  29.539  1.00  0.00     0.200 A 
ATOM     99  F   UNL A   1      45.360  35.989  27.342  1.00  0.00    -0.200 F 
ATOM    100  F   UNL A   1      46.311  36.758  29.780  1.00  0.00    -0.200 F 
ENDBRANCH  67  90
ENDBRANCH  41  42
ENDBRANCH  33  36
ENDBRANCH  31  32
ENDBRANCH  30  31
ENDBRANCH  29  30
ENDBRANCH  28  29
ENDBRANCH   1  28
TORSDOF 20
ENDMDL
