MODEL 1
REMARK VINA RESULT:     -10.6      0.000      0.000
REMARK SMILES C[C@@H](CNC(=O)N(C)CC(C)(C)O)C(=O)NCCCCCCNC(=O)c1ccc(-c2c3nc(c(-c4c(F)c(F)c(F)c(F)c4F)c4ccc([nH]4)c(-c4c(F)c(F)c(F)c(F)c4F)c4nc(c(-c5c(F)c(F)c(F)c(F)c5F)c5ccc2[nH]5)C=C4)C=C3)cc1
REMARK SMILES IDX 17 1 16 2 14 3 15 4 2 6 1 7 3 8 4 9 5 10 6 12 7 13 8 14 9 15
REMARK SMILES IDX 10 16 11 17 12 18 13 19 18 21 19 22 20 23 21 24 22 25 23 26
REMARK SMILES IDX 24 27 25 29 26 30 27 31 88 32 28 33 87 34 29 35 30 36 31 37
REMARK SMILES IDX 81 38 32 39 86 40 80 41 82 42 33 43 85 44 79 45 78 46 34 48
REMARK SMILES IDX 66 49 46 50 65 51 47 52 50 53 64 54 83 55 48 56 49 57 63 59
REMARK SMILES IDX 84 60 51 61 35 62 36 63 44 64 37 65 38 66 42 67 45 68 39 69
REMARK SMILES IDX 40 70 43 71 41 72 67 73 68 74 76 75 69 76 70 77 74 78 77 79
REMARK SMILES IDX 71 80 72 81 75 82 73 83 52 84 53 85 61 86 54 87 55 88 59 89
REMARK SMILES IDX 62 90 56 91 57 92 60 93 58 94
REMARK H PARENT 16 5 4 11 13 20 23 28 82 47 50 58
REMARK Flexibility Score: inf
ROOT
ATOM      1  C   UNL A   1      33.891  28.039  26.276  1.00  0.00     0.116 C 
ENDROOT
BRANCH   1   2
ATOM      2  N   UNL A   1      32.718  27.275  26.645  1.00  0.00    -0.356 N 
ATOM      3  C   UNL A   1      32.319  26.034  26.251  1.00  0.00     0.224 C 
ATOM      4  O   UNL A   1      31.456  25.475  26.936  1.00  0.00    -0.275 OA
ATOM      5  H   UNL A   1      32.113  27.723  27.280  1.00  0.00     0.163 HD
BRANCH   3   6
ATOM      6  C   UNL A   1      32.862  25.336  25.005  1.00  0.00     0.094 C 
ATOM      7  C   UNL A   1      34.038  24.399  25.294  1.00  0.00     0.020 C 
BRANCH   6   8
ATOM      8  C   UNL A   1      31.813  24.752  24.040  1.00  0.00     0.130 C 
BRANCH   8   9
ATOM      9  N   UNL A   1      31.742  25.381  22.737  1.00  0.00    -0.337 N 
ATOM     10  C   UNL A   1      31.515  26.602  22.229  1.00  0.00     0.317 C 
ATOM     11  H   UNL A   1      31.905  24.726  22.021  1.00  0.00     0.165 HD
ATOM     12  O   UNL A   1      31.261  26.581  21.019  1.00  0.00    -0.249 OA
BRANCH  10  13
ATOM     13  N   UNL A   1      31.529  27.763  22.937  1.00  0.00    -0.325 N 
ATOM     14  C   UNL A   1      32.628  28.705  23.085  1.00  0.00     0.148 C 
BRANCH  13  15
ATOM     15  C   UNL A   1      30.272  28.176  23.600  1.00  0.00     0.155 C 
BRANCH  15  16
ATOM     16  C   UNL A   1      29.316  29.137  22.821  1.00  0.00     0.077 C 
ATOM     17  C   UNL A   1      27.850  28.685  22.816  1.00  0.00     0.043 C 
ATOM     18  C   UNL A   1      29.373  30.526  23.479  1.00  0.00     0.043 C 
BRANCH  16  19
ATOM     19  O   UNL A   1      29.775  29.301  21.474  1.00  0.00    -0.389 OA
ATOM     20  H   UNL A   1      30.713  29.549  21.481  1.00  0.00     0.211 HD
ENDBRANCH  16  19
ENDBRANCH  15  16
ENDBRANCH  13  15
ENDBRANCH  10  13
ENDBRANCH   8   9
ENDBRANCH   6   8
ENDBRANCH   3   6
ENDBRANCH   1   2
BRANCH   1  21
ATOM     21  C   UNL A   1      33.843  29.497  26.709  1.00  0.00     0.021 C 
BRANCH  21  22
ATOM     22  C   UNL A   1      32.469  29.959  27.207  1.00  0.00     0.002 C 
BRANCH  22  23
ATOM     23  C   UNL A   1      31.654  30.816  26.228  1.00  0.00     0.002 C 
BRANCH  23  24
ATOM     24  C   UNL A   1      31.468  32.284  26.619  1.00  0.00     0.021 C 
BRANCH  24  25
ATOM     25  C   UNL A   1      32.690  32.944  27.247  1.00  0.00     0.116 C 
BRANCH  25  26
ATOM     26  N   UNL A   1      32.427  34.310  27.672  1.00  0.00    -0.352 N 
ATOM     27  C   UNL A   1      33.010  35.042  28.675  1.00  0.00     0.251 C 
ATOM     28  H   UNL A   1      31.727  34.778  27.163  1.00  0.00     0.163 HD
ATOM     29  O   UNL A   1      32.540  36.124  29.005  1.00  0.00    -0.269 OA
BRANCH  27  30
ATOM     30  C   UNL A   1      34.200  34.514  29.376  1.00  0.00     0.039 A 
ATOM     31  C   UNL A   1      34.019  33.785  30.554  1.00  0.00     0.014 A 
ATOM     32  C   UNL A   1      35.486  34.741  28.880  1.00  0.00     0.014 A 
ATOM     33  C   UNL A   1      35.126  33.232  31.202  1.00  0.00     0.010 A 
ATOM     34  C   UNL A   1      36.579  34.128  29.484  1.00  0.00     0.010 A 
ATOM     35  C   UNL A   1      36.411  33.369  30.652  1.00  0.00    -0.014 A 
BRANCH  35  36
ATOM     36  C   UNL A   1      37.591  32.723  31.282  1.00  0.00     0.031 A 
ATOM     37  C   UNL A   1      38.280  31.576  30.594  1.00  0.00     0.074 A 
ATOM     38  C   UNL A   1      37.995  33.122  32.504  1.00  0.00     0.049 A 
ATOM     39  N   UNL A   1      39.267  30.829  31.019  1.00  0.00    -0.248 NA
ATOM     40  C   UNL A   1      37.776  31.202  29.263  1.00  0.00     0.031 C 
ATOM     41  C   UNL A   1      37.384  34.196  33.290  1.00  0.00     0.029 A 
ATOM     42  N   UNL A   1      39.009  32.662  33.309  1.00  0.00    -0.354 N 
ATOM     43  C   UNL A   1      39.485  29.886  30.023  1.00  0.00     0.074 A 
ATOM     44  C   UNL A   1      38.502  30.127  28.989  1.00  0.00     0.031 C 
ATOM     45  C   UNL A   1      38.045  34.324  34.451  1.00  0.00     0.029 A 
ATOM     46  C   UNL A   1      39.095  33.314  34.516  1.00  0.00     0.049 A 
ATOM     47  H   UNL A   1      39.617  31.933  33.046  1.00  0.00     0.167 HD
ATOM     48  C   UNL A   1      40.430  28.919  29.970  1.00  0.00     0.037 A 
ATOM     49  C   UNL A   1      39.919  33.108  35.562  1.00  0.00     0.037 A 
ATOM     50  C   UNL A   1      41.429  28.709  30.984  1.00  0.00     0.049 A 
ATOM     51  C   UNL A   1      40.950  32.012  35.475  1.00  0.00     0.074 A 
ATOM     52  C   UNL A   1      42.483  27.811  30.981  1.00  0.00     0.029 A 
ATOM     53  N   UNL A   1      41.494  29.399  32.186  1.00  0.00    -0.354 N 
ATOM     54  N   UNL A   1      41.203  31.186  34.490  1.00  0.00    -0.248 NA
ATOM     55  C   UNL A   1      41.814  31.823  36.650  1.00  0.00     0.031 C 
ATOM     56  C   UNL A   1      43.146  27.911  32.207  1.00  0.00     0.029 A 
ATOM     57  C   UNL A   1      42.548  28.921  32.946  1.00  0.00     0.049 A 
ATOM     58  H   UNL A   1      40.883  30.122  32.457  1.00  0.00     0.167 HD
ATOM     59  C   UNL A   1      42.277  30.411  34.907  1.00  0.00     0.074 A 
ATOM     60  C   UNL A   1      42.637  30.873  36.230  1.00  0.00     0.031 C 
ATOM     61  C   UNL A   1      42.909  29.406  34.253  1.00  0.00     0.037 A 
BRANCH  48  62
ATOM     62  C   UNL A   1      40.437  28.000  28.782  1.00  0.00     0.064 A 
ATOM     63  C   UNL A   1      41.195  28.277  27.635  1.00  0.00     0.173 A 
ATOM     64  C   UNL A   1      39.736  26.784  28.826  1.00  0.00     0.173 A 
ATOM     65  F   UNL A   1      41.876  29.429  27.537  1.00  0.00    -0.203 F 
ATOM     66  C   UNL A   1      41.236  27.380  26.570  1.00  0.00     0.198 A 
ATOM     67  C   UNL A   1      39.806  25.876  27.774  1.00  0.00     0.198 A 
ATOM     68  F   UNL A   1      39.000  26.467  29.903  1.00  0.00    -0.203 F 
ATOM     69  F   UNL A   1      41.939  27.683  25.469  1.00  0.00    -0.200 F 
ATOM     70  C   UNL A   1      40.552  26.176  26.645  1.00  0.00     0.200 A 
ATOM     71  F   UNL A   1      39.156  24.707  27.856  1.00  0.00    -0.200 F 
ATOM     72  F   UNL A   1      40.610  25.306  25.628  1.00  0.00    -0.200 F 
ENDBRANCH  48  62
BRANCH  49  73
ATOM     73  C   UNL A   1      39.815  33.950  36.785  1.00  0.00     0.064 A 
ATOM     74  C   UNL A   1      39.003  33.561  37.860  1.00  0.00     0.173 A 
ATOM     75  C   UNL A   1      40.480  35.181  36.885  1.00  0.00     0.173 A 
ATOM     76  F   UNL A   1      38.329  32.403  37.806  1.00  0.00    -0.203 F 
ATOM     77  C   UNL A   1      38.830  34.387  38.969  1.00  0.00     0.198 A 
ATOM     78  C   UNL A   1      40.335  35.989  38.011  1.00  0.00     0.198 A 
ATOM     79  F   UNL A   1      41.273  35.600  35.888  1.00  0.00    -0.203 F 
ATOM     80  F   UNL A   1      37.993  34.022  39.949  1.00  0.00    -0.200 F 
ATOM     81  C   UNL A   1      39.499  35.600  39.045  1.00  0.00     0.200 A 
ATOM     82  F   UNL A   1      40.995  37.153  38.086  1.00  0.00    -0.200 F 
ATOM     83  F   UNL A   1      39.325  36.398  40.107  1.00  0.00    -0.200 F 
ENDBRANCH  49  73
BRANCH  61  84
ATOM     84  C   UNL A   1      44.091  28.773  34.929  1.00  0.00     0.064 A 
ATOM     85  C   UNL A   1      43.958  27.643  35.749  1.00  0.00     0.173 A 
ATOM     86  C   UNL A   1      45.383  29.279  34.713  1.00  0.00     0.173 A 
ATOM     87  F   UNL A   1      42.745  27.129  36.000  1.00  0.00    -0.203 F 
ATOM     88  C   UNL A   1      45.072  27.060  36.348  1.00  0.00     0.198 A 
ATOM     89  C   UNL A   1      46.497  28.672  35.285  1.00  0.00     0.198 A 
ATOM     90  F   UNL A   1      45.567  30.354  33.931  1.00  0.00    -0.203 F 
ATOM     91  F   UNL A   1      44.916  26.012  37.170  1.00  0.00    -0.200 F 
ATOM     92  C   UNL A   1      46.340  27.568  36.109  1.00  0.00     0.200 A 
ATOM     93  F   UNL A   1      47.723  29.154  35.035  1.00  0.00    -0.200 F 
ATOM     94  F   UNL A   1      47.411  26.997  36.676  1.00  0.00    -0.200 F 
ENDBRANCH  61  84
ENDBRANCH  35  36
ENDBRANCH  27  30
ENDBRANCH  25  26
ENDBRANCH  24  25
ENDBRANCH  23  24
ENDBRANCH  22  23
ENDBRANCH  21  22
ENDBRANCH   1  21
TORSDOF 19
ENDMDL
MODEL 2
REMARK VINA RESULT:     -10.6      5.745     11.120
REMARK SMILES C[C@@H](CNC(=O)N(C)CC(C)(C)O)C(=O)NCCCCCCNC(=O)c1ccc(-c2c3nc(c(-c4c(F)c(F)c(F)c(F)c4F)c4ccc([nH]4)c(-c4c(F)c(F)c(F)c(F)c4F)c4nc(c(-c5c(F)c(F)c(F)c(F)c5F)c5ccc2[nH]5)C=C4)C=C3)cc1
REMARK SMILES IDX 17 1 16 2 14 3 15 4 2 6 1 7 3 8 4 9 5 10 6 12 7 13 8 14 9 15
REMARK SMILES IDX 10 16 11 17 12 18 13 19 18 21 19 22 20 23 21 24 22 25 23 26
REMARK SMILES IDX 24 27 25 29 26 30 27 31 88 32 28 33 87 34 29 35 30 36 31 37
REMARK SMILES IDX 81 38 32 39 86 40 80 41 82 42 33 43 85 44 79 45 78 46 34 48
REMARK SMILES IDX 66 49 46 50 65 51 47 52 50 53 64 54 83 55 48 56 49 57 63 59
REMARK SMILES IDX 84 60 51 61 35 62 36 63 44 64 37 65 38 66 42 67 45 68 39 69
REMARK SMILES IDX 40 70 43 71 41 72 67 73 68 74 76 75 69 76 70 77 74 78 77 79
REMARK SMILES IDX 71 80 72 81 75 82 73 83 52 84 53 85 61 86 54 87 55 88 59 89
REMARK SMILES IDX 62 90 56 91 57 92 60 93 58 94
REMARK H PARENT 16 5 4 11 13 20 23 28 82 47 50 58
REMARK Flexibility Score: inf
ROOT
ATOM      1  C   UNL A   1      35.735  23.566  25.682  1.00  0.00     0.116 C 
ENDROOT
BRANCH   1   2
ATOM      2  N   UNL A   1      34.852  22.947  26.649  1.00  0.00    -0.356 N 
ATOM      3  C   UNL A   1      33.952  21.936  26.494  1.00  0.00     0.224 C 
ATOM      4  O   UNL A   1      33.549  21.377  27.520  1.00  0.00    -0.275 OA
ATOM      5  H   UNL A   1      34.911  23.313  27.561  1.00  0.00     0.163 HD
BRANCH   3   6
ATOM      6  C   UNL A   1      33.409  21.500  25.134  1.00  0.00     0.094 C 
ATOM      7  C   UNL A   1      33.575  20.002  24.863  1.00  0.00     0.020 C 
BRANCH   6   8
ATOM      8  C   UNL A   1      32.031  22.063  24.738  1.00  0.00     0.130 C 
BRANCH   8   9
ATOM      9  N   UNL A   1      31.147  22.387  25.839  1.00  0.00    -0.337 N 
ATOM     10  C   UNL A   1      30.774  23.473  26.533  1.00  0.00     0.317 C 
ATOM     11  H   UNL A   1      30.690  21.582  26.173  1.00  0.00     0.165 HD
ATOM     12  O   UNL A   1      30.205  23.195  27.595  1.00  0.00    -0.249 OA
BRANCH  10  13
ATOM     13  N   UNL A   1      31.000  24.761  26.159  1.00  0.00    -0.325 N 
ATOM     14  C   UNL A   1      32.281  25.440  26.027  1.00  0.00     0.148 C 
BRANCH  13  15
ATOM     15  C   UNL A   1      29.828  25.581  25.777  1.00  0.00     0.155 C 
BRANCH  15  16
ATOM     16  C   UNL A   1      29.651  25.944  24.267  1.00  0.00     0.077 C 
ATOM     17  C   UNL A   1      30.289  27.282  23.871  1.00  0.00     0.043 C 
ATOM     18  C   UNL A   1      30.307  24.844  23.417  1.00  0.00     0.043 C 
BRANCH  16  19
ATOM     19  O   UNL A   1      28.259  25.953  23.924  1.00  0.00    -0.389 OA
ATOM     20  H   UNL A   1      27.727  25.988  24.735  1.00  0.00     0.211 HD
ENDBRANCH  16  19
ENDBRANCH  15  16
ENDBRANCH  13  15
ENDBRANCH  10  13
ENDBRANCH   8   9
ENDBRANCH   6   8
ENDBRANCH   3   6
ENDBRANCH   1   2
BRANCH   1  21
ATOM     21  C   UNL A   1      37.133  22.964  25.646  1.00  0.00     0.021 C 
BRANCH  21  22
ATOM     22  C   UNL A   1      37.333  21.903  24.559  1.00  0.00     0.002 C 
BRANCH  22  23
ATOM     23  C   UNL A   1      36.992  20.461  24.960  1.00  0.00     0.002 C 
BRANCH  23  24
ATOM     24  C   UNL A   1      38.170  19.483  25.006  1.00  0.00     0.021 C 
BRANCH  24  25
ATOM     25  C   UNL A   1      39.376  19.966  25.805  1.00  0.00     0.116 C 
BRANCH  25  26
ATOM     26  N   UNL A   1      40.427  18.964  25.882  1.00  0.00    -0.352 N 
ATOM     27  C   UNL A   1      41.780  19.125  26.044  1.00  0.00     0.251 C 
ATOM     28  H   UNL A   1      40.122  18.031  25.807  1.00  0.00     0.163 HD
ATOM     29  O   UNL A   1      42.538  18.171  25.912  1.00  0.00    -0.269 OA
BRANCH  27  30
ATOM     30  C   UNL A   1      42.329  20.461  26.358  1.00  0.00     0.039 A 
ATOM     31  C   UNL A   1      42.838  21.242  25.318  1.00  0.00     0.014 A 
ATOM     32  C   UNL A   1      42.349  20.939  27.671  1.00  0.00     0.014 A 
ATOM     33  C   UNL A   1      43.313  22.528  25.586  1.00  0.00     0.010 A 
ATOM     34  C   UNL A   1      42.752  22.246  27.926  1.00  0.00     0.010 A 
ATOM     35  C   UNL A   1      43.240  23.054  26.887  1.00  0.00    -0.014 A 
BRANCH  35  36
ATOM     36  C   UNL A   1      43.666  24.446  27.180  1.00  0.00     0.031 A 
ATOM     37  C   UNL A   1      42.668  25.447  27.694  1.00  0.00     0.074 A 
ATOM     38  C   UNL A   1      44.932  24.825  26.914  1.00  0.00     0.049 A 
ATOM     39  N   UNL A   1      42.824  26.726  27.927  1.00  0.00    -0.248 NA
ATOM     40  C   UNL A   1      41.307  24.953  27.956  1.00  0.00     0.031 C 
ATOM     41  C   UNL A   1      45.981  23.957  26.376  1.00  0.00     0.029 A 
ATOM     42  N   UNL A   1      45.550  26.044  27.047  1.00  0.00    -0.354 N 
ATOM     43  C   UNL A   1      41.581  27.190  28.338  1.00  0.00     0.074 A 
ATOM     44  C   UNL A   1      40.670  26.068  28.285  1.00  0.00     0.031 C 
ATOM     45  C   UNL A   1      47.114  24.664  26.244  1.00  0.00     0.029 A 
ATOM     46  C   UNL A   1      46.863  26.045  26.641  1.00  0.00     0.049 A 
ATOM     47  H   UNL A   1      45.095  26.843  27.400  1.00  0.00     0.167 HD
ATOM     48  C   UNL A   1      41.238  28.436  28.739  1.00  0.00     0.037 A 
ATOM     49  C   UNL A   1      47.757  27.051  26.580  1.00  0.00     0.037 A 
ATOM     50  C   UNL A   1      42.158  29.539  28.826  1.00  0.00     0.049 A 
ATOM     51  C   UNL A   1      47.337  28.430  27.021  1.00  0.00     0.074 A 
ATOM     52  C   UNL A   1      41.925  30.818  29.303  1.00  0.00     0.029 A 
ATOM     53  N   UNL A   1      43.484  29.498  28.420  1.00  0.00    -0.354 N 
ATOM     54  N   UNL A   1      46.183  28.835  27.492  1.00  0.00    -0.248 NA
ATOM     55  C   UNL A   1      48.348  29.493  26.922  1.00  0.00     0.031 C 
ATOM     56  C   UNL A   1      43.090  31.569  29.125  1.00  0.00     0.029 A 
ATOM     57  C   UNL A   1      44.070  30.740  28.602  1.00  0.00     0.049 A 
ATOM     58  H   UNL A   1      43.940  28.705  28.058  1.00  0.00     0.167 HD
ATOM     59  C   UNL A   1      46.342  30.183  27.784  1.00  0.00     0.074 A 
ATOM     60  C   UNL A   1      47.707  30.526  27.449  1.00  0.00     0.031 C 
ATOM     61  C   UNL A   1      45.438  31.061  28.285  1.00  0.00     0.037 A 
BRANCH  48  62
ATOM     62  C   UNL A   1      39.805  28.690  29.112  1.00  0.00     0.064 A 
ATOM     63  C   UNL A   1      39.343  28.536  30.427  1.00  0.00     0.173 A 
ATOM     64  C   UNL A   1      38.901  29.174  28.152  1.00  0.00     0.173 A 
ATOM     65  F   UNL A   1      40.163  28.068  31.380  1.00  0.00    -0.203 F 
ATOM     66  C   UNL A   1      38.026  28.838  30.763  1.00  0.00     0.198 A 
ATOM     67  C   UNL A   1      37.595  29.505  28.498  1.00  0.00     0.198 A 
ATOM     68  F   UNL A   1      39.293  29.346  26.880  1.00  0.00    -0.203 F 
ATOM     69  F   UNL A   1      37.597  28.647  32.019  1.00  0.00    -0.200 F 
ATOM     70  C   UNL A   1      37.157  29.332  29.802  1.00  0.00     0.200 A 
ATOM     71  F   UNL A   1      36.762  29.998  27.572  1.00  0.00    -0.200 F 
ATOM     72  F   UNL A   1      35.896  29.642  30.133  1.00  0.00    -0.200 F 
ENDBRANCH  48  62
BRANCH  49  73
ATOM     73  C   UNL A   1      49.141  26.806  26.089  1.00  0.00     0.064 A 
ATOM     74  C   UNL A   1      49.472  27.008  24.742  1.00  0.00     0.173 A 
ATOM     75  C   UNL A   1      50.144  26.319  26.939  1.00  0.00     0.173 A 
ATOM     76  F   UNL A   1      48.544  27.454  23.883  1.00  0.00    -0.203 F 
ATOM     77  C   UNL A   1      50.740  26.695  24.256  1.00  0.00     0.198 A 
ATOM     78  C   UNL A   1      51.423  26.040  26.460  1.00  0.00     0.198 A 
ATOM     79  F   UNL A   1      49.883  26.111  28.239  1.00  0.00    -0.203 F 
ATOM     80  F   UNL A   1      51.007  26.830  22.950  1.00  0.00    -0.200 F 
ATOM     81  C   UNL A   1      51.716  26.213  25.117  1.00  0.00     0.200 A 
ATOM     82  F   UNL A   1      52.366  25.590  27.298  1.00  0.00    -0.200 F 
ATOM     83  F   UNL A   1      52.932  25.903  24.648  1.00  0.00    -0.200 F 
ENDBRANCH  49  73
BRANCH  61  84
ATOM     84  C   UNL A   1      45.906  32.461  28.558  1.00  0.00     0.064 A 
ATOM     85  C   UNL A   1      45.783  33.481  27.604  1.00  0.00     0.173 A 
ATOM     86  C   UNL A   1      46.443  32.795  29.812  1.00  0.00     0.173 A 
ATOM     87  F   UNL A   1      45.291  33.213  26.386  1.00  0.00    -0.203 F 
ATOM     88  C   UNL A   1      46.205  34.778  27.887  1.00  0.00     0.198 A 
ATOM     89  C   UNL A   1      46.829  34.100  30.103  1.00  0.00     0.198 A 
ATOM     90  F   UNL A   1      46.574  31.857  30.763  1.00  0.00    -0.203 F 
ATOM     91  F   UNL A   1      46.126  35.727  26.943  1.00  0.00    -0.200 F 
ATOM     92  C   UNL A   1      46.718  35.089  29.138  1.00  0.00     0.200 A 
ATOM     93  F   UNL A   1      47.306  34.399  31.319  1.00  0.00    -0.200 F 
ATOM     94  F   UNL A   1      47.110  36.340  29.412  1.00  0.00    -0.200 F 
ENDBRANCH  61  84
ENDBRANCH  35  36
ENDBRANCH  27  30
ENDBRANCH  25  26
ENDBRANCH  24  25
ENDBRANCH  23  24
ENDBRANCH  22  23
ENDBRANCH  21  22
ENDBRANCH   1  21
TORSDOF 19
ENDMDL
MODEL 3
REMARK VINA RESULT:     -10.6      1.993      8.001
REMARK SMILES C[C@@H](CNC(=O)N(C)CC(C)(C)O)C(=O)NCCCCCCNC(=O)c1ccc(-c2c3nc(c(-c4c(F)c(F)c(F)c(F)c4F)c4ccc([nH]4)c(-c4c(F)c(F)c(F)c(F)c4F)c4nc(c(-c5c(F)c(F)c(F)c(F)c5F)c5ccc2[nH]5)C=C4)C=C3)cc1
REMARK SMILES IDX 17 1 16 2 14 3 15 4 2 6 1 7 3 8 4 9 5 10 6 12 7 13 8 14 9 15
REMARK SMILES IDX 10 16 11 17 12 18 13 19 18 21 19 22 20 23 21 24 22 25 23 26
REMARK SMILES IDX 24 27 25 29 26 30 27 31 88 32 28 33 87 34 29 35 30 36 31 37
REMARK SMILES IDX 81 38 32 39 86 40 80 41 82 42 33 43 85 44 79 45 78 46 34 48
REMARK SMILES IDX 66 49 46 50 65 51 47 52 50 53 64 54 83 55 48 56 49 57 63 59
REMARK SMILES IDX 84 60 51 61 35 62 36 63 44 64 37 65 38 66 42 67 45 68 39 69
REMARK SMILES IDX 40 70 43 71 41 72 67 73 68 74 76 75 69 76 70 77 74 78 77 79
REMARK SMILES IDX 71 80 72 81 75 82 73 83 52 84 53 85 61 86 54 87 55 88 59 89
REMARK SMILES IDX 62 90 56 91 57 92 60 93 58 94
REMARK H PARENT 16 5 4 11 13 20 23 28 82 47 50 58
REMARK Flexibility Score: inf
ROOT
ATOM      1  C   UNL A   1      34.574  30.380  27.748  1.00  0.00     0.116 C 
ENDROOT
BRANCH   1   2
ATOM      2  N   UNL A   1      34.031  30.163  26.424  1.00  0.00    -0.356 N 
ATOM      3  C   UNL A   1      33.095  29.271  25.995  1.00  0.00     0.224 C 
ATOM      4  O   UNL A   1      32.573  29.486  24.895  1.00  0.00    -0.275 OA
ATOM      5  H   UNL A   1      34.395  30.751  25.723  1.00  0.00     0.163 HD
BRANCH   3   6
ATOM      6  C   UNL A   1      32.699  28.026  26.787  1.00  0.00     0.094 C 
ATOM      7  C   UNL A   1      31.431  28.215  27.626  1.00  0.00     0.020 C 
BRANCH   6   8
ATOM      8  C   UNL A   1      32.759  26.687  26.029  1.00  0.00     0.130 C 
BRANCH   8   9
ATOM      9  N   UNL A   1      32.121  25.566  26.686  1.00  0.00    -0.337 N 
ATOM     10  C   UNL A   1      31.561  24.395  26.345  1.00  0.00     0.317 C 
ATOM     11  H   UNL A   1      32.089  25.700  27.661  1.00  0.00     0.165 HD
ATOM     12  O   UNL A   1      30.876  23.905  27.251  1.00  0.00    -0.249 OA
BRANCH  10  13
ATOM     13  N   UNL A   1      31.685  23.787  25.134  1.00  0.00    -0.325 N 
ATOM     14  C   UNL A   1      30.838  23.952  23.962  1.00  0.00     0.148 C 
BRANCH  13  15
ATOM     15  C   UNL A   1      32.845  22.890  24.933  1.00  0.00     0.155 C 
BRANCH  15  16
ATOM     16  C   UNL A   1      32.599  21.348  25.008  1.00  0.00     0.077 C 
ATOM     17  C   UNL A   1      32.521  20.663  23.638  1.00  0.00     0.043 C 
ATOM     18  C   UNL A   1      33.757  20.703  25.788  1.00  0.00     0.043 C 
BRANCH  16  19
ATOM     19  O   UNL A   1      31.403  21.077  25.751  1.00  0.00    -0.389 OA
ATOM     20  H   UNL A   1      31.560  21.256  26.691  1.00  0.00     0.211 HD
ENDBRANCH  16  19
ENDBRANCH  15  16
ENDBRANCH  13  15
ENDBRANCH  10  13
ENDBRANCH   8   9
ENDBRANCH   6   8
ENDBRANCH   3   6
ENDBRANCH   1   2
BRANCH   1  21
ATOM     21  C   UNL A   1      35.201  31.753  27.943  1.00  0.00     0.021 C 
BRANCH  21  22
ATOM     22  C   UNL A   1      34.402  32.684  28.860  1.00  0.00     0.002 C 
BRANCH  22  23
ATOM     23  C   UNL A   1      34.355  34.160  28.440  1.00  0.00     0.002 C 
BRANCH  23  24
ATOM     24  C   UNL A   1      33.062  34.910  28.775  1.00  0.00     0.021 C 
BRANCH  24  25
ATOM     25  C   UNL A   1      33.260  36.284  29.406  1.00  0.00     0.116 C 
BRANCH  25  26
ATOM     26  N   UNL A   1      32.479  36.453  30.622  1.00  0.00    -0.352 N 
ATOM     27  C   UNL A   1      32.616  35.843  31.843  1.00  0.00     0.251 C 
ATOM     28  H   UNL A   1      31.742  37.103  30.558  1.00  0.00     0.163 HD
ATOM     29  O   UNL A   1      31.757  35.981  32.704  1.00  0.00    -0.269 OA
BRANCH  27  30
ATOM     30  C   UNL A   1      33.798  34.998  32.114  1.00  0.00     0.039 A 
ATOM     31  C   UNL A   1      35.069  35.505  31.831  1.00  0.00     0.014 A 
ATOM     32  C   UNL A   1      33.655  33.709  32.636  1.00  0.00     0.014 A 
ATOM     33  C   UNL A   1      36.201  34.743  32.129  1.00  0.00     0.010 A 
ATOM     34  C   UNL A   1      34.784  32.981  33.001  1.00  0.00     0.010 A 
ATOM     35  C   UNL A   1      36.068  33.489  32.750  1.00  0.00    -0.014 A 
BRANCH  35  36
ATOM     36  C   UNL A   1      37.259  32.696  33.146  1.00  0.00     0.031 A 
ATOM     37  C   UNL A   1      37.970  32.998  34.437  1.00  0.00     0.074 A 
ATOM     38  C   UNL A   1      37.742  31.756  32.311  1.00  0.00     0.049 A 
ATOM     39  N   UNL A   1      39.072  32.479  34.916  1.00  0.00    -0.248 NA
ATOM     40  C   UNL A   1      37.380  34.041  35.292  1.00  0.00     0.031 C 
ATOM     41  C   UNL A   1      37.164  31.399  31.013  1.00  0.00     0.029 A 
ATOM     42  N   UNL A   1      38.838  30.935  32.420  1.00  0.00    -0.354 N 
ATOM     43  C   UNL A   1      39.318  33.145  36.110  1.00  0.00     0.074 A 
ATOM     44  C   UNL A   1      38.275  34.135  36.265  1.00  0.00     0.031 C 
ATOM     45  C   UNL A   1      37.898  30.421  30.458  1.00  0.00     0.029 A 
ATOM     46  C   UNL A   1      39.024  30.113  31.333  1.00  0.00     0.049 A 
ATOM     47  H   UNL A   1      39.435  30.935  33.203  1.00  0.00     0.167 HD
ATOM     48  C   UNL A   1      40.315  32.937  37.001  1.00  0.00     0.037 A 
ATOM     49  C   UNL A   1      40.001  29.225  31.068  1.00  0.00     0.037 A 
ATOM     50  C   UNL A   1      41.327  31.924  36.859  1.00  0.00     0.049 A 
ATOM     51  C   UNL A   1      41.104  29.029  32.077  1.00  0.00     0.074 A 
ATOM     52  C   UNL A   1      42.329  31.578  37.751  1.00  0.00     0.029 A 
ATOM     53  N   UNL A   1      41.474  31.102  35.752  1.00  0.00    -0.354 N 
ATOM     54  N   UNL A   1      41.274  29.602  33.242  1.00  0.00    -0.248 NA
ATOM     55  C   UNL A   1      42.151  28.056  31.730  1.00  0.00     0.031 C 
ATOM     56  C   UNL A   1      43.121  30.592  37.156  1.00  0.00     0.029 A 
ATOM     57  C   UNL A   1      42.572  30.274  35.924  1.00  0.00     0.049 A 
ATOM     58  H   UNL A   1      40.885  31.105  34.964  1.00  0.00     0.167 HD
ATOM     59  C   UNL A   1      42.418  29.033  33.785  1.00  0.00     0.074 A 
ATOM     60  C   UNL A   1      42.895  28.059  32.826  1.00  0.00     0.031 C 
ATOM     61  C   UNL A   1      43.022  29.293  34.971  1.00  0.00     0.037 A 
BRANCH  48  62
ATOM     62  C   UNL A   1      40.375  33.820  38.215  1.00  0.00     0.064 A 
ATOM     63  C   UNL A   1      41.151  34.987  38.244  1.00  0.00     0.173 A 
ATOM     64  C   UNL A   1      39.579  33.534  39.335  1.00  0.00     0.173 A 
ATOM     65  F   UNL A   1      41.936  35.303  37.203  1.00  0.00    -0.203 F 
ATOM     66  C   UNL A   1      41.142  35.825  39.357  1.00  0.00     0.198 A 
ATOM     67  C   UNL A   1      39.548  34.390  40.432  1.00  0.00     0.198 A 
ATOM     68  F   UNL A   1      38.812  32.432  39.357  1.00  0.00    -0.203 F 
ATOM     69  F   UNL A   1      41.920  36.917  39.377  1.00  0.00    -0.200 F 
ATOM     70  C   UNL A   1      40.333  35.532  40.444  1.00  0.00     0.200 A 
ATOM     71  F   UNL A   1      38.753  34.112  41.474  1.00  0.00    -0.200 F 
ATOM     72  F   UNL A   1      40.311  36.351  41.505  1.00  0.00    -0.200 F 
ENDBRANCH  48  62
BRANCH  49  73
ATOM     73  C   UNL A   1      39.992  28.446  29.800  1.00  0.00     0.064 A 
ATOM     74  C   UNL A   1      39.374  27.189  29.732  1.00  0.00     0.173 A 
ATOM     75  C   UNL A   1      40.640  28.914  28.648  1.00  0.00     0.173 A 
ATOM     76  F   UNL A   1      38.758  26.686  30.812  1.00  0.00    -0.203 F 
ATOM     77  C   UNL A   1      39.440  26.414  28.576  1.00  0.00     0.198 A 
ATOM     78  C   UNL A   1      40.674  28.154  27.480  1.00  0.00     0.198 A 
ATOM     79  F   UNL A   1      41.243  30.112  28.655  1.00  0.00    -0.203 F 
ATOM     80  F   UNL A   1      38.903  25.186  28.563  1.00  0.00    -0.200 F 
ATOM     81  C   UNL A   1      40.088  26.899  27.449  1.00  0.00     0.200 A 
ATOM     82  F   UNL A   1      41.288  28.633  26.390  1.00  0.00    -0.200 F 
ATOM     83  F   UNL A   1      40.159  26.150  26.340  1.00  0.00    -0.200 F 
ENDBRANCH  49  73
BRANCH  61  84
ATOM     84  C   UNL A   1      44.229  28.476  35.329  1.00  0.00     0.064 A 
ATOM     85  C   UNL A   1      45.529  28.900  35.018  1.00  0.00     0.173 A 
ATOM     86  C   UNL A   1      44.083  27.273  36.038  1.00  0.00     0.173 A 
ATOM     87  F   UNL A   1      45.723  30.034  34.329  1.00  0.00    -0.203 F 
ATOM     88  C   UNL A   1      46.636  28.136  35.379  1.00  0.00     0.198 A 
ATOM     89  C   UNL A   1      45.194  26.531  36.430  1.00  0.00     0.198 A 
ATOM     90  F   UNL A   1      42.862  26.826  36.369  1.00  0.00    -0.203 F 
ATOM     91  F   UNL A   1      47.867  28.534  35.027  1.00  0.00    -0.200 F 
ATOM     92  C   UNL A   1      46.469  26.958  36.093  1.00  0.00     0.200 A 
ATOM     93  F   UNL A   1      45.029  25.403  37.136  1.00  0.00    -0.200 F 
ATOM     94  F   UNL A   1      47.536  26.232  36.451  1.00  0.00    -0.200 F 
ENDBRANCH  61  84
ENDBRANCH  35  36
ENDBRANCH  27  30
ENDBRANCH  25  26
ENDBRANCH  24  25
ENDBRANCH  23  24
ENDBRANCH  22  23
ENDBRANCH  21  22
ENDBRANCH   1  21
TORSDOF 19
ENDMDL
