MODEL 1
REMARK VINA RESULT:     -12.0      0.000      0.000
REMARK SMILES O=C(CCCc1nc2cc(Cl)ccc2[nH]1)NCCCCCCNC(=O)c1ccc(-c2c3nc(c(-c4c(F)c(F)c(F)c(F)c4F)c4ccc([nH]4)c(-c4c(F)c(F)c(F)c(F)c4F)c4nc(c(-c5c(F)c(F)c(F)c(F)c5F)c5ccc2[nH]5)C=C4)C=C3)cc1
REMARK SMILES IDX 19 1 18 2 17 3 16 4 1 5 2 6 3 8 4 9 5 10 6 11 7 12 15 13
REMARK SMILES IDX 8 14 14 15 9 17 13 18 10 19 12 20 11 21 20 22 21 23 22 24
REMARK SMILES IDX 23 25 24 26 25 28 26 29 27 30 88 31 28 32 87 33 29 34 30 35
REMARK SMILES IDX 31 36 81 37 32 38 86 39 80 40 82 41 33 42 85 43 79 44 78 45
REMARK SMILES IDX 34 47 66 48 46 49 65 50 47 51 50 52 64 53 83 54 48 55 49 56
REMARK SMILES IDX 63 58 84 59 51 60 35 61 36 62 44 63 37 64 38 65 42 66 45 67
REMARK SMILES IDX 39 68 40 69 43 70 41 71 67 72 68 73 76 74 69 75 70 76 74 77
REMARK SMILES IDX 77 78 71 79 72 80 75 81 73 82 52 83 53 84 61 85 54 86 55 87
REMARK SMILES IDX 59 88 62 89 56 90 57 91 60 92 58 93
REMARK H PARENT 16 7 15 16 23 27 82 46 50 57
REMARK Flexibility Score: inf
ROOT
ATOM      1  C   UNL A   1      31.717  29.401  27.270  1.00  0.00     0.002 C 
ENDROOT
BRANCH   1   2
ATOM      2  C   UNL A   1      32.724  28.248  27.378  1.00  0.00     0.021 C 
BRANCH   2   3
ATOM      3  C   UNL A   1      33.905  28.310  26.406  1.00  0.00     0.116 C 
BRANCH   3   4
ATOM      4  N   UNL A   1      33.783  27.328  25.341  1.00  0.00    -0.356 N 
ATOM      5  O   UNL A   1      33.837  28.844  23.636  1.00  0.00    -0.275 OA
ATOM      6  C   UNL A   1      33.742  27.679  24.013  1.00  0.00     0.220 C 
ATOM      7  H   UNL A   1      33.727  26.375  25.581  1.00  0.00     0.163 HD
BRANCH   6   8
ATOM      8  C   UNL A   1      33.430  26.563  23.027  1.00  0.00     0.100 C 
BRANCH   8   9
ATOM      9  C   UNL A   1      32.027  26.501  22.416  1.00  0.00     0.018 C 
BRANCH   9  10
ATOM     10  C   UNL A   1      30.829  26.871  23.297  1.00  0.00     0.076 C 
BRANCH  10  11
ATOM     11  C   UNL A   1      30.229  28.203  23.003  1.00  0.00     0.107 A 
ATOM     12  N   UNL A   1      29.749  28.618  21.849  1.00  0.00    -0.233 NA
ATOM     13  N   UNL A   1      30.077  29.175  23.961  1.00  0.00    -0.342 N 
ATOM     14  C   UNL A   1      29.272  29.889  22.073  1.00  0.00     0.090 A 
ATOM     15  C   UNL A   1      29.454  30.256  23.400  1.00  0.00     0.066 A 
ATOM     16  H   UNL A   1      30.369  29.105  24.898  1.00  0.00     0.168 HD
ATOM     17  C   UNL A   1      28.676  30.796  21.189  1.00  0.00     0.051 A 
ATOM     18  C   UNL A   1      29.063  31.486  23.929  1.00  0.00     0.030 A 
ATOM     19  C   UNL A   1      28.285  32.042  21.691  1.00  0.00     0.043 A 
ATOM     20  C   UNL A   1      28.468  32.381  23.035  1.00  0.00     0.023 A 
ATOM     21  Cl  UNL A   1      27.565  33.190  20.627  1.00  0.00    -0.084 Cl
ENDBRANCH  10  11
ENDBRANCH   9  10
ENDBRANCH   8   9
ENDBRANCH   6   8
ENDBRANCH   3   4
ENDBRANCH   2   3
ENDBRANCH   1   2
BRANCH   1  22
ATOM     22  C   UNL A   1      32.070  30.512  26.280  1.00  0.00     0.002 C 
BRANCH  22  23
ATOM     23  C   UNL A   1      31.690  31.919  26.732  1.00  0.00     0.021 C 
BRANCH  23  24
ATOM     24  C   UNL A   1      32.821  32.712  27.381  1.00  0.00     0.116 C 
BRANCH  24  25
ATOM     25  N   UNL A   1      32.455  34.092  27.666  1.00  0.00    -0.352 N 
ATOM     26  C   UNL A   1      32.989  34.954  28.593  1.00  0.00     0.251 C 
ATOM     27  H   UNL A   1      31.723  34.458  27.119  1.00  0.00     0.163 HD
ATOM     28  O   UNL A   1      32.474  36.049  28.797  1.00  0.00    -0.269 OA
BRANCH  26  29
ATOM     29  C   UNL A   1      34.172  34.538  29.375  1.00  0.00     0.039 A 
ATOM     30  C   UNL A   1      33.983  33.997  30.649  1.00  0.00     0.014 A 
ATOM     31  C   UNL A   1      35.456  34.643  28.835  1.00  0.00     0.014 A 
ATOM     32  C   UNL A   1      35.076  33.482  31.348  1.00  0.00     0.010 A 
ATOM     33  C   UNL A   1      36.532  34.065  29.500  1.00  0.00     0.010 A 
ATOM     34  C   UNL A   1      36.351  33.469  30.757  1.00  0.00    -0.014 A 
BRANCH  34  35
ATOM     35  C   UNL A   1      37.502  32.811  31.424  1.00  0.00     0.031 A 
ATOM     36  C   UNL A   1      38.175  31.630  30.785  1.00  0.00     0.074 A 
ATOM     37  C   UNL A   1      37.883  33.221  32.650  1.00  0.00     0.049 A 
ATOM     38  N   UNL A   1      39.130  30.867  31.252  1.00  0.00    -0.248 NA
ATOM     39  C   UNL A   1      37.689  31.238  29.454  1.00  0.00     0.031 C 
ATOM     40  C   UNL A   1      37.269  34.318  33.400  1.00  0.00     0.029 A 
ATOM     41  N   UNL A   1      38.862  32.751  33.489  1.00  0.00    -0.354 N 
ATOM     42  C   UNL A   1      39.351  29.901  30.280  1.00  0.00     0.074 A 
ATOM     43  C   UNL A   1      38.391  30.139  29.223  1.00  0.00     0.031 C 
ATOM     44  C   UNL A   1      37.890  34.441  34.584  1.00  0.00     0.029 A 
ATOM     45  C   UNL A   1      38.918  33.410  34.692  1.00  0.00     0.049 A 
ATOM     46  H   UNL A   1      39.465  32.011  33.251  1.00  0.00     0.167 HD
ATOM     47  C   UNL A   1      40.284  28.919  30.262  1.00  0.00     0.037 A 
ATOM     48  C   UNL A   1      39.698  33.198  35.769  1.00  0.00     0.037 A 
ATOM     49  C   UNL A   1      41.245  28.696  31.311  1.00  0.00     0.049 A 
ATOM     50  C   UNL A   1      40.722  32.097  35.730  1.00  0.00     0.074 A 
ATOM     51  C   UNL A   1      42.273  27.771  31.356  1.00  0.00     0.029 A 
ATOM     52  N   UNL A   1      41.288  29.401  32.506  1.00  0.00    -0.354 N 
ATOM     53  N   UNL A   1      40.975  31.238  34.772  1.00  0.00    -0.248 NA
ATOM     54  C   UNL A   1      41.572  31.939  36.918  1.00  0.00     0.031 C 
ATOM     55  C   UNL A   1      42.907  27.883  32.599  1.00  0.00     0.029 A 
ATOM     56  C   UNL A   1      42.308  28.912  33.307  1.00  0.00     0.049 A 
ATOM     57  H   UNL A   1      40.685  30.139  32.748  1.00  0.00     0.167 HD
ATOM     58  C   UNL A   1      42.022  30.452  35.232  1.00  0.00     0.074 A 
ATOM     59  C   UNL A   1      42.370  30.947  36.547  1.00  0.00     0.031 C 
ATOM     60  C   UNL A   1      42.639  29.412  34.618  1.00  0.00     0.037 A 
BRANCH  47  61
ATOM     61  C   UNL A   1      40.305  28.011  29.066  1.00  0.00     0.064 A 
ATOM     62  C   UNL A   1      41.058  28.318  27.922  1.00  0.00     0.173 A 
ATOM     63  C   UNL A   1      39.579  26.811  29.068  1.00  0.00     0.173 A 
ATOM     64  F   UNL A   1      41.763  29.458  27.863  1.00  0.00    -0.203 F 
ATOM     65  C   UNL A   1      41.053  27.477  26.812  1.00  0.00     0.198 A 
ATOM     66  C   UNL A   1      39.602  25.956  27.969  1.00  0.00     0.198 A 
ATOM     67  F   UNL A   1      38.847  26.465  30.138  1.00  0.00    -0.203 F 
ATOM     68  F   UNL A   1      41.733  27.822  25.710  1.00  0.00    -0.200 F 
ATOM     69  C   UNL A   1      40.330  26.295  26.838  1.00  0.00     0.200 A 
ATOM     70  F   UNL A   1      38.913  24.808  28.001  1.00  0.00    -0.200 F 
ATOM     71  F   UNL A   1      40.326  25.487  25.770  1.00  0.00    -0.200 F 
ENDBRANCH  47  61
BRANCH  48  72
ATOM     72  C   UNL A   1      39.540  34.058  36.971  1.00  0.00     0.064 A 
ATOM     73  C   UNL A   1      38.760  33.643  38.059  1.00  0.00     0.173 A 
ATOM     74  C   UNL A   1      40.180  35.303  37.064  1.00  0.00     0.173 A 
ATOM     75  F   UNL A   1      38.112  32.469  38.008  1.00  0.00    -0.203 F 
ATOM     76  C   UNL A   1      38.616  34.445  39.188  1.00  0.00     0.198 A 
ATOM     77  C   UNL A   1      40.058  36.091  38.205  1.00  0.00     0.198 A 
ATOM     78  F   UNL A   1      40.944  35.742  36.053  1.00  0.00    -0.203 F 
ATOM     79  F   UNL A   1      37.834  34.041  40.200  1.00  0.00    -0.200 F 
ATOM     80  C   UNL A   1      39.270  35.665  39.264  1.00  0.00     0.200 A 
ATOM     81  F   UNL A   1      40.705  37.262  38.281  1.00  0.00    -0.200 F 
ATOM     82  F   UNL A   1      39.140  36.432  40.355  1.00  0.00    -0.200 F 
ENDBRANCH  48  72
BRANCH  60  83
ATOM     83  C   UNL A   1      43.764  28.747  35.356  1.00  0.00     0.064 A 
ATOM     84  C   UNL A   1      45.095  29.155  35.189  1.00  0.00     0.173 A 
ATOM     85  C   UNL A   1      43.501  27.719  36.276  1.00  0.00     0.173 A 
ATOM     86  F   UNL A   1      45.400  30.121  34.310  1.00  0.00    -0.203 F 
ATOM     87  C   UNL A   1      46.125  28.544  35.900  1.00  0.00     0.198 A 
ATOM     88  C   UNL A   1      44.531  27.132  37.007  1.00  0.00     0.198 A 
ATOM     89  F   UNL A   1      42.245  27.296  36.476  1.00  0.00    -0.203 F 
ATOM     90  F   UNL A   1      47.395  28.920  35.692  1.00  0.00    -0.200 F 
ATOM     91  C   UNL A   1      45.842  27.540  36.814  1.00  0.00     0.200 A 
ATOM     92  F   UNL A   1      44.253  26.172  37.898  1.00  0.00    -0.200 F 
ATOM     93  F   UNL A   1      46.833  26.961  37.504  1.00  0.00    -0.200 F 
ENDBRANCH  60  83
ENDBRANCH  34  35
ENDBRANCH  26  29
ENDBRANCH  24  25
ENDBRANCH  23  24
ENDBRANCH  22  23
ENDBRANCH   1  22
TORSDOF 16
ENDMDL
MODEL 2
REMARK VINA RESULT:     -11.6      5.872     11.118
REMARK SMILES O=C(CCCc1nc2cc(Cl)ccc2[nH]1)NCCCCCCNC(=O)c1ccc(-c2c3nc(c(-c4c(F)c(F)c(F)c(F)c4F)c4ccc([nH]4)c(-c4c(F)c(F)c(F)c(F)c4F)c4nc(c(-c5c(F)c(F)c(F)c(F)c5F)c5ccc2[nH]5)C=C4)C=C3)cc1
REMARK SMILES IDX 19 1 18 2 17 3 16 4 1 5 2 6 3 8 4 9 5 10 6 11 7 12 15 13
REMARK SMILES IDX 8 14 14 15 9 17 13 18 10 19 12 20 11 21 20 22 21 23 22 24
REMARK SMILES IDX 23 25 24 26 25 28 26 29 27 30 88 31 28 32 87 33 29 34 30 35
REMARK SMILES IDX 31 36 81 37 32 38 86 39 80 40 82 41 33 42 85 43 79 44 78 45
REMARK SMILES IDX 34 47 66 48 46 49 65 50 47 51 50 52 64 53 83 54 48 55 49 56
REMARK SMILES IDX 63 58 84 59 51 60 35 61 36 62 44 63 37 64 38 65 42 66 45 67
REMARK SMILES IDX 39 68 40 69 43 70 41 71 67 72 68 73 76 74 69 75 70 76 74 77
REMARK SMILES IDX 77 78 71 79 72 80 75 81 73 82 52 83 53 84 61 85 54 86 55 87
REMARK SMILES IDX 59 88 62 89 56 90 57 91 60 92 58 93
REMARK H PARENT 16 7 15 16 23 27 82 46 50 57
REMARK Flexibility Score: inf
ROOT
ATOM      1  C   UNL A   1      36.894  22.155  23.922  1.00  0.00     0.002 C 
ENDROOT
BRANCH   1   2
ATOM      2  C   UNL A   1      35.860  23.285  24.000  1.00  0.00     0.021 C 
BRANCH   2   3
ATOM      3  C   UNL A   1      34.420  22.888  23.664  1.00  0.00     0.116 C 
BRANCH   3   4
ATOM      4  N   UNL A   1      33.610  24.040  23.301  1.00  0.00    -0.356 N 
ATOM      5  O   UNL A   1      33.325  23.430  21.120  1.00  0.00    -0.275 OA
ATOM      6  C   UNL A   1      33.129  24.233  22.029  1.00  0.00     0.220 C 
ATOM      7  H   UNL A   1      33.400  24.705  23.994  1.00  0.00     0.163 HD
BRANCH   6   8
ATOM      8  C   UNL A   1      32.454  25.570  21.757  1.00  0.00     0.100 C 
BRANCH   8   9
ATOM      9  C   UNL A   1      31.171  25.908  22.521  1.00  0.00     0.018 C 
BRANCH   9  10
ATOM     10  C   UNL A   1      31.224  27.005  23.590  1.00  0.00     0.076 C 
BRANCH  10  11
ATOM     11  C   UNL A   1      30.549  28.278  23.209  1.00  0.00     0.107 A 
ATOM     12  N   UNL A   1      30.082  28.602  22.021  1.00  0.00    -0.233 NA
ATOM     13  N   UNL A   1      30.304  29.284  24.110  1.00  0.00    -0.342 N 
ATOM     14  C   UNL A   1      29.518  29.849  22.165  1.00  0.00     0.090 A 
ATOM     15  C   UNL A   1      29.632  30.292  23.476  1.00  0.00     0.066 A 
ATOM     16  H   UNL A   1      30.569  29.281  25.058  1.00  0.00     0.168 HD
ATOM     17  C   UNL A   1      28.894  30.668  21.217  1.00  0.00     0.051 A 
ATOM     18  C   UNL A   1      29.145  31.519  23.928  1.00  0.00     0.030 A 
ATOM     19  C   UNL A   1      28.407  31.910  21.642  1.00  0.00     0.043 A 
ATOM     20  C   UNL A   1      28.524  32.327  22.971  1.00  0.00     0.023 A 
ATOM     21  Cl  UNL A   1      27.650  32.953  20.499  1.00  0.00    -0.084 Cl
ENDBRANCH  10  11
ENDBRANCH   9  10
ENDBRANCH   8   9
ENDBRANCH   6   8
ENDBRANCH   3   4
ENDBRANCH   2   3
ENDBRANCH   1   2
BRANCH   1  22
ATOM     22  C   UNL A   1      36.851  21.125  25.052  1.00  0.00     0.002 C 
BRANCH  22  23
ATOM     23  C   UNL A   1      37.937  20.055  24.987  1.00  0.00     0.021 C 
BRANCH  23  24
ATOM     24  C   UNL A   1      39.210  20.383  25.762  1.00  0.00     0.116 C 
BRANCH  24  25
ATOM     25  N   UNL A   1      40.115  19.249  25.872  1.00  0.00    -0.352 N 
ATOM     26  C   UNL A   1      41.468  19.241  26.114  1.00  0.00     0.251 C 
ATOM     27  H   UNL A   1      39.700  18.363  25.758  1.00  0.00     0.163 HD
ATOM     28  O   UNL A   1      42.109  18.198  26.046  1.00  0.00    -0.269 OA
BRANCH  26  29
ATOM     29  C   UNL A   1      42.156  20.512  26.421  1.00  0.00     0.039 A 
ATOM     30  C   UNL A   1      42.676  21.270  25.370  1.00  0.00     0.014 A 
ATOM     31  C   UNL A   1      42.251  20.971  27.738  1.00  0.00     0.014 A 
ATOM     32  C   UNL A   1      43.215  22.531  25.630  1.00  0.00     0.010 A 
ATOM     33  C   UNL A   1      42.722  22.256  27.986  1.00  0.00     0.010 A 
ATOM     34  C   UNL A   1      43.198  23.053  26.934  1.00  0.00    -0.014 A 
BRANCH  34  35
ATOM     35  C   UNL A   1      43.645  24.441  27.215  1.00  0.00     0.031 A 
ATOM     36  C   UNL A   1      42.665  25.469  27.703  1.00  0.00     0.074 A 
ATOM     37  C   UNL A   1      44.916  24.796  26.944  1.00  0.00     0.049 A 
ATOM     38  N   UNL A   1      42.843  26.748  27.914  1.00  0.00    -0.248 NA
ATOM     39  C   UNL A   1      41.295  25.001  27.959  1.00  0.00     0.031 C 
ATOM     40  C   UNL A   1      45.946  23.903  26.411  1.00  0.00     0.029 A 
ATOM     41  N   UNL A   1      45.552  26.007  27.058  1.00  0.00    -0.354 N 
ATOM     42  C   UNL A   1      41.608  27.239  28.316  1.00  0.00     0.074 A 
ATOM     43  C   UNL A   1      40.677  26.132  28.264  1.00  0.00     0.031 C 
ATOM     44  C   UNL A   1      47.087  24.594  26.252  1.00  0.00     0.029 A 
ATOM     45  C   UNL A   1      46.858  25.984  26.634  1.00  0.00     0.049 A 
ATOM     46  H   UNL A   1      45.113  26.814  27.409  1.00  0.00     0.167 HD
ATOM     47  C   UNL A   1      41.287  28.493  28.714  1.00  0.00     0.037 A 
ATOM     48  C   UNL A   1      47.766  26.975  26.547  1.00  0.00     0.037 A 
ATOM     49  C   UNL A   1      42.221  29.587  28.777  1.00  0.00     0.049 A 
ATOM     50  C   UNL A   1      47.385  28.362  26.987  1.00  0.00     0.074 A 
ATOM     51  C   UNL A   1      42.009  30.877  29.229  1.00  0.00     0.029 A 
ATOM     52  N   UNL A   1      43.544  29.520  28.363  1.00  0.00    -0.354 N 
ATOM     53  N   UNL A   1      46.235  28.797  27.441  1.00  0.00    -0.248 NA
ATOM     54  C   UNL A   1      48.429  29.393  26.908  1.00  0.00     0.031 C 
ATOM     55  C   UNL A   1      43.190  31.605  29.044  1.00  0.00     0.029 A 
ATOM     56  C   UNL A   1      44.153  30.755  28.524  1.00  0.00     0.049 A 
ATOM     57  H   UNL A   1      43.985  28.715  28.009  1.00  0.00     0.167 HD
ATOM     58  C   UNL A   1      46.420  30.145  27.719  1.00  0.00     0.074 A 
ATOM     59  C   UNL A   1      47.798  30.451  27.400  1.00  0.00     0.031 C 
ATOM     60  C   UNL A   1      45.526  31.046  28.195  1.00  0.00     0.037 A 
BRANCH  47  61
ATOM     61  C   UNL A   1      39.861  28.745  29.111  1.00  0.00     0.064 A 
ATOM     62  C   UNL A   1      39.423  28.576  30.434  1.00  0.00     0.173 A 
ATOM     63  C   UNL A   1      38.922  29.180  28.163  1.00  0.00     0.173 A 
ATOM     64  F   UNL A   1      40.278  28.152  31.379  1.00  0.00    -0.203 F 
ATOM     65  C   UNL A   1      38.094  28.793  30.785  1.00  0.00     0.198 A 
ATOM     66  C   UNL A   1      37.600  29.429  28.524  1.00  0.00     0.198 A 
ATOM     67  F   UNL A   1      39.287  29.365  26.886  1.00  0.00    -0.203 F 
ATOM     68  F   UNL A   1      37.688  28.567  32.042  1.00  0.00    -0.200 F 
ATOM     69  C   UNL A   1      37.184  29.225  29.832  1.00  0.00     0.200 A 
ATOM     70  F   UNL A   1      36.726  29.858  27.604  1.00  0.00    -0.200 F 
ATOM     71  F   UNL A   1      35.906  29.435  30.170  1.00  0.00    -0.200 F 
ENDBRANCH  47  61
BRANCH  48  72
ATOM     72  C   UNL A   1      49.127  26.681  26.028  1.00  0.00     0.064 A 
ATOM     73  C   UNL A   1      50.112  26.129  26.857  1.00  0.00     0.173 A 
ATOM     74  C   UNL A   1      49.465  26.930  24.689  1.00  0.00     0.173 A 
ATOM     75  F   UNL A   1      49.843  25.892  28.149  1.00  0.00    -0.203 F 
ATOM     76  C   UNL A   1      51.387  25.847  26.371  1.00  0.00     0.198 A 
ATOM     77  C   UNL A   1      50.730  26.622  24.197  1.00  0.00     0.198 A 
ATOM     78  F   UNL A   1      48.554  27.452  23.853  1.00  0.00    -0.203 F 
ATOM     79  F   UNL A   1      52.322  25.352  27.194  1.00  0.00    -0.200 F 
ATOM     80  C   UNL A   1      51.693  26.087  25.040  1.00  0.00     0.200 A 
ATOM     81  F   UNL A   1      51.016  26.840  22.906  1.00  0.00    -0.200 F 
ATOM     82  F   UNL A   1      52.916  25.806  24.569  1.00  0.00    -0.200 F 
ENDBRANCH  48  72
BRANCH  60  83
ATOM     83  C   UNL A   1      46.014  32.449  28.414  1.00  0.00     0.064 A 
ATOM     84  C   UNL A   1      46.615  32.838  29.619  1.00  0.00     0.173 A 
ATOM     85  C   UNL A   1      45.921  33.402  27.388  1.00  0.00     0.173 A 
ATOM     86  F   UNL A   1      46.713  31.969  30.636  1.00  0.00    -0.203 F 
ATOM     87  C   UNL A   1      47.086  34.137  29.798  1.00  0.00     0.198 A 
ATOM     88  C   UNL A   1      46.419  34.691  27.560  1.00  0.00     0.198 A 
ATOM     89  F   UNL A   1      45.359  33.079  26.214  1.00  0.00    -0.203 F 
ATOM     90  F   UNL A   1      47.617  34.499  30.974  1.00  0.00    -0.200 F 
ATOM     91  C   UNL A   1      46.995  35.059  28.766  1.00  0.00     0.200 A 
ATOM     92  F   UNL A   1      46.342  35.576  26.557  1.00  0.00    -0.200 F 
ATOM     93  F   UNL A   1      47.457  36.305  28.937  1.00  0.00    -0.200 F 
ENDBRANCH  60  83
ENDBRANCH  34  35
ENDBRANCH  26  29
ENDBRANCH  24  25
ENDBRANCH  23  24
ENDBRANCH  22  23
ENDBRANCH   1  22
TORSDOF 16
ENDMDL
MODEL 3
REMARK VINA RESULT:     -11.6      3.461      4.825
REMARK SMILES O=C(CCCc1nc2cc(Cl)ccc2[nH]1)NCCCCCCNC(=O)c1ccc(-c2c3nc(c(-c4c(F)c(F)c(F)c(F)c4F)c4ccc([nH]4)c(-c4c(F)c(F)c(F)c(F)c4F)c4nc(c(-c5c(F)c(F)c(F)c(F)c5F)c5ccc2[nH]5)C=C4)C=C3)cc1
REMARK SMILES IDX 19 1 18 2 17 3 16 4 1 5 2 6 3 8 4 9 5 10 6 11 7 12 15 13
REMARK SMILES IDX 8 14 14 15 9 17 13 18 10 19 12 20 11 21 20 22 21 23 22 24
REMARK SMILES IDX 23 25 24 26 25 28 26 29 27 30 88 31 28 32 87 33 29 34 30 35
REMARK SMILES IDX 31 36 81 37 32 38 86 39 80 40 82 41 33 42 85 43 79 44 78 45
REMARK SMILES IDX 34 47 66 48 46 49 65 50 47 51 50 52 64 53 83 54 48 55 49 56
REMARK SMILES IDX 63 58 84 59 51 60 35 61 36 62 44 63 37 64 38 65 42 66 45 67
REMARK SMILES IDX 39 68 40 69 43 70 41 71 67 72 68 73 76 74 69 75 70 76 74 77
REMARK SMILES IDX 77 78 71 79 72 80 75 81 73 82 52 83 53 84 61 85 54 86 55 87
REMARK SMILES IDX 59 88 62 89 56 90 57 91 60 92 58 93
REMARK H PARENT 16 7 15 16 23 27 82 46 50 57
REMARK Flexibility Score: inf
ROOT
ATOM      1  C   UNL A   1      32.532  29.467  27.294  1.00  0.00     0.002 C 
ENDROOT
BRANCH   1   2
ATOM      2  C   UNL A   1      31.716  28.183  27.490  1.00  0.00     0.021 C 
BRANCH   2   3
ATOM      3  C   UNL A   1      31.455  27.365  26.222  1.00  0.00     0.116 C 
BRANCH   3   4
ATOM      4  N   UNL A   1      32.127  26.076  26.260  1.00  0.00    -0.356 N 
ATOM      5  O   UNL A   1      34.087  26.823  25.360  1.00  0.00    -0.275 OA
ATOM      6  C   UNL A   1      33.411  25.898  25.804  1.00  0.00     0.220 C 
ATOM      7  H   UNL A   1      31.644  25.303  26.628  1.00  0.00     0.163 HD
BRANCH   6   8
ATOM      8  C   UNL A   1      33.914  24.464  25.740  1.00  0.00     0.100 C 
BRANCH   8   9
ATOM      9  C   UNL A   1      33.391  23.556  24.624  1.00  0.00     0.018 C 
BRANCH   9  10
ATOM     10  C   UNL A   1      32.262  22.572  24.951  1.00  0.00     0.076 C 
BRANCH  10  11
ATOM     11  C   UNL A   1      32.672  21.139  24.969  1.00  0.00     0.107 A 
ATOM     12  N   UNL A   1      31.916  20.103  25.267  1.00  0.00    -0.233 NA
ATOM     13  N   UNL A   1      33.937  20.728  24.630  1.00  0.00    -0.342 N 
ATOM     14  C   UNL A   1      32.717  18.995  25.110  1.00  0.00     0.090 A 
ATOM     15  C   UNL A   1      33.990  19.363  24.695  1.00  0.00     0.066 A 
ATOM     16  H   UNL A   1      34.684  21.318  24.381  1.00  0.00     0.168 HD
ATOM     17  C   UNL A   1      32.428  17.640  25.311  1.00  0.00     0.051 A 
ATOM     18  C   UNL A   1      35.020  18.455  24.445  1.00  0.00     0.030 A 
ATOM     19  C   UNL A   1      33.447  16.710  25.079  1.00  0.00     0.043 A 
ATOM     20  C   UNL A   1      34.717  17.106  24.649  1.00  0.00     0.023 A 
ATOM     21  Cl  UNL A   1      33.133  15.035  25.334  1.00  0.00    -0.084 Cl
ENDBRANCH  10  11
ENDBRANCH   9  10
ENDBRANCH   8   9
ENDBRANCH   6   8
ENDBRANCH   3   4
ENDBRANCH   2   3
ENDBRANCH   1   2
BRANCH   1  22
ATOM     22  C   UNL A   1      32.005  30.444  26.242  1.00  0.00     0.002 C 
BRANCH  22  23
ATOM     23  C   UNL A   1      31.623  31.821  26.778  1.00  0.00     0.021 C 
BRANCH  23  24
ATOM     24  C   UNL A   1      32.776  32.618  27.380  1.00  0.00     0.116 C 
BRANCH  24  25
ATOM     25  N   UNL A   1      32.429  34.007  27.644  1.00  0.00    -0.352 N 
ATOM     26  C   UNL A   1      32.983  34.881  28.547  1.00  0.00     0.251 C 
ATOM     27  H   UNL A   1      31.694  34.371  27.098  1.00  0.00     0.163 HD
ATOM     28  O   UNL A   1      32.483  35.985  28.736  1.00  0.00    -0.269 OA
BRANCH  26  29
ATOM     29  C   UNL A   1      34.171  34.466  29.323  1.00  0.00     0.039 A 
ATOM     30  C   UNL A   1      33.989  33.913  30.592  1.00  0.00     0.014 A 
ATOM     31  C   UNL A   1      35.453  34.586  28.781  1.00  0.00     0.014 A 
ATOM     32  C   UNL A   1      35.087  33.399  31.284  1.00  0.00     0.010 A 
ATOM     33  C   UNL A   1      36.535  34.010  29.439  1.00  0.00     0.010 A 
ATOM     34  C   UNL A   1      36.361  33.401  30.691  1.00  0.00    -0.014 A 
BRANCH  34  35
ATOM     35  C   UNL A   1      37.519  32.745  31.350  1.00  0.00     0.031 A 
ATOM     36  C   UNL A   1      38.189  31.566  30.706  1.00  0.00     0.074 A 
ATOM     37  C   UNL A   1      37.907  33.157  32.572  1.00  0.00     0.049 A 
ATOM     38  N   UNL A   1      39.148  30.805  31.167  1.00  0.00    -0.248 NA
ATOM     39  C   UNL A   1      37.693  31.171  29.379  1.00  0.00     0.031 C 
ATOM     40  C   UNL A   1      37.297  34.253  33.327  1.00  0.00     0.029 A 
ATOM     41  N   UNL A   1      38.893  32.689  33.405  1.00  0.00    -0.354 N 
ATOM     42  C   UNL A   1      39.364  29.838  30.194  1.00  0.00     0.074 A 
ATOM     43  C   UNL A   1      38.396  30.073  29.144  1.00  0.00     0.031 C 
ATOM     44  C   UNL A   1      37.927  34.378  34.506  1.00  0.00     0.029 A 
ATOM     45  C   UNL A   1      38.957  33.349  34.607  1.00  0.00     0.049 A 
ATOM     46  H   UNL A   1      39.496  31.950  33.163  1.00  0.00     0.167 HD
ATOM     47  C   UNL A   1      40.298  28.858  30.169  1.00  0.00     0.037 A 
ATOM     48  C   UNL A   1      39.746  33.138  35.679  1.00  0.00     0.037 A 
ATOM     49  C   UNL A   1      41.267  28.637  31.211  1.00  0.00     0.049 A 
ATOM     50  C   UNL A   1      40.771  32.039  35.632  1.00  0.00     0.074 A 
ATOM     51  C   UNL A   1      42.298  27.714  31.249  1.00  0.00     0.029 A 
ATOM     52  N   UNL A   1      41.318  29.343  32.405  1.00  0.00    -0.354 N 
ATOM     53  N   UNL A   1      41.018  31.181  34.673  1.00  0.00    -0.248 NA
ATOM     54  C   UNL A   1      41.630  31.884  36.814  1.00  0.00     0.031 C 
ATOM     55  C   UNL A   1      42.941  27.828  32.487  1.00  0.00     0.029 A 
ATOM     56  C   UNL A   1      42.345  28.856  33.199  1.00  0.00     0.049 A 
ATOM     57  H   UNL A   1      40.715  30.080  32.651  1.00  0.00     0.167 HD
ATOM     58  C   UNL A   1      42.071  30.397  35.125  1.00  0.00     0.074 A 
ATOM     59  C   UNL A   1      42.428  30.893  36.437  1.00  0.00     0.031 C 
ATOM     60  C   UNL A   1      42.685  29.357  34.507  1.00  0.00     0.037 A 
BRANCH  47  61
ATOM     61  C   UNL A   1      40.312  27.949  28.974  1.00  0.00     0.064 A 
ATOM     62  C   UNL A   1      41.042  28.265  27.817  1.00  0.00     0.173 A 
ATOM     63  C   UNL A   1      39.603  26.739  28.989  1.00  0.00     0.173 A 
ATOM     64  F   UNL A   1      41.729  29.416  27.746  1.00  0.00    -0.203 F 
ATOM     65  C   UNL A   1      41.029  27.424  26.708  1.00  0.00     0.198 A 
ATOM     66  C   UNL A   1      39.620  25.883  27.890  1.00  0.00     0.198 A 
ATOM     67  F   UNL A   1      38.894  26.383  30.071  1.00  0.00    -0.203 F 
ATOM     68  F   UNL A   1      41.685  27.777  25.594  1.00  0.00    -0.200 F 
ATOM     69  C   UNL A   1      40.323  26.231  26.747  1.00  0.00     0.200 A 
ATOM     70  F   UNL A   1      38.947  24.725  27.935  1.00  0.00    -0.200 F 
ATOM     71  F   UNL A   1      40.313  25.422  25.680  1.00  0.00    -0.200 F 
ENDBRANCH  47  61
BRANCH  48  72
ATOM     72  C   UNL A   1      39.596  33.999  36.881  1.00  0.00     0.064 A 
ATOM     73  C   UNL A   1      40.226  35.248  36.958  1.00  0.00     0.173 A 
ATOM     74  C   UNL A   1      38.807  33.598  37.969  1.00  0.00     0.173 A 
ATOM     75  F   UNL A   1      41.007  35.667  35.951  1.00  0.00    -0.203 F 
ATOM     76  C   UNL A   1      40.082  36.058  38.082  1.00  0.00     0.198 A 
ATOM     77  C   UNL A   1      38.641  34.420  39.080  1.00  0.00     0.198 A 
ATOM     78  F   UNL A   1      38.177  32.413  37.941  1.00  0.00    -0.203 F 
ATOM     79  F   UNL A   1      40.725  37.233  38.146  1.00  0.00    -0.200 F 
ATOM     80  C   UNL A   1      39.284  35.647  39.139  1.00  0.00     0.200 A 
ATOM     81  F   UNL A   1      37.856  34.026  40.092  1.00  0.00    -0.200 F 
ATOM     82  F   UNL A   1      39.137  36.431  40.216  1.00  0.00    -0.200 F 
ENDBRANCH  48  72
BRANCH  60  83
ATOM     83  C   UNL A   1      43.816  28.695  35.237  1.00  0.00     0.064 A 
ATOM     84  C   UNL A   1      45.138  29.146  35.109  1.00  0.00     0.173 A 
ATOM     85  C   UNL A   1      43.569  27.624  36.111  1.00  0.00     0.173 A 
ATOM     86  F   UNL A   1      45.429  30.155  34.274  1.00  0.00    -0.203 F 
ATOM     87  C   UNL A   1      46.173  28.536  35.813  1.00  0.00     0.198 A 
ATOM     88  C   UNL A   1      44.603  27.037  36.835  1.00  0.00     0.198 A 
ATOM     89  F   UNL A   1      42.322  27.158  36.273  1.00  0.00    -0.203 F 
ATOM     90  F   UNL A   1      47.435  28.955  35.642  1.00  0.00    -0.200 F 
ATOM     91  C   UNL A   1      45.905  27.489  36.681  1.00  0.00     0.200 A 
ATOM     92  F   UNL A   1      44.339  26.034  37.683  1.00  0.00    -0.200 F 
ATOM     93  F   UNL A   1      46.901  26.910  37.364  1.00  0.00    -0.200 F 
ENDBRANCH  60  83
ENDBRANCH  34  35
ENDBRANCH  26  29
ENDBRANCH  24  25
ENDBRANCH  23  24
ENDBRANCH  22  23
ENDBRANCH   1  22
TORSDOF 16
ENDMDL
