MODEL 1
REMARK VINA RESULT:     -12.0      0.000      0.000
REMARK SMILES C[C@H]([C@@H](C)O)[NH+]1CCC(C)(C(=O)NCCCCCCNC(=O)c2ccc(-c3c4nc(c(-c5c(F)c(F)c(F)c(F)c5F)c5ccc([nH]5)c(-c5c(F)c(F)c(F)c(F)c5F)c5nc(c(-c6c(F)c(F)c(F)c(F)c6F)c6ccc3[nH]6)C=C5)C=C4)cc2)CC1
REMARK SMILES IDX 16 1 15 2 14 3 13 4 11 5 12 6 9 8 6 9 7 10 87 11 8 13 86 14
REMARK SMILES IDX 10 15 2 16 1 17 3 18 4 19 5 20 17 22 18 23 19 24 20 25 21 26
REMARK SMILES IDX 22 28 23 29 24 30 85 31 25 32 84 33 26 34 27 35 28 36 78 37
REMARK SMILES IDX 29 38 83 39 77 40 79 41 30 42 82 43 76 44 75 45 31 47 63 48
REMARK SMILES IDX 43 49 62 50 44 51 47 52 61 53 80 54 45 55 46 56 60 58 81 59
REMARK SMILES IDX 48 60 32 61 33 62 41 63 34 64 35 65 39 66 42 67 36 68 37 69
REMARK SMILES IDX 40 70 38 71 64 72 65 73 73 74 66 75 67 76 71 77 74 78 68 79
REMARK SMILES IDX 69 80 72 81 70 82 49 83 50 84 58 85 51 86 52 87 56 88 59 89
REMARK SMILES IDX 53 90 54 91 57 92 55 93
REMARK H PARENT 13 7 6 12 5 21 20 27 79 46 47 57
REMARK Flexibility Score: inf
ROOT
ATOM      1  C   UNL A   1      32.503  29.964  26.808  1.00  0.00     0.002 C 
ENDROOT
BRANCH   1   2
ATOM      2  C   UNL A   1      31.932  28.636  27.310  1.00  0.00     0.021 C 
BRANCH   2   3
ATOM      3  C   UNL A   1      31.821  27.561  26.230  1.00  0.00     0.116 C 
BRANCH   3   4
ATOM      4  N   UNL A   1      30.828  26.558  26.579  1.00  0.00    -0.356 N 
ATOM      5  C   UNL A   1      30.716  25.233  26.275  1.00  0.00     0.226 C 
ATOM      6  O   UNL A   1      29.692  24.665  26.665  1.00  0.00    -0.274 OA
ATOM      7  H   UNL A   1      30.096  26.901  27.141  1.00  0.00     0.163 HD
BRANCH   5   8
ATOM      8  C   UNL A   1      31.817  24.484  25.496  1.00  0.00     0.057 C 
ATOM      9  N   UNL A   1      32.339  21.689  26.422  1.00  0.00    -0.331 N 
ATOM     10  C   UNL A   1      31.065  22.080  25.854  1.00  0.00     0.263 C 
ATOM     11  C   UNL A   1      32.881  22.796  27.209  1.00  0.00     0.263 C 
ATOM     12  H   UNL A   1      32.130  20.914  27.052  1.00  0.00     0.348 HD
ATOM     13  C   UNL A   1      31.216  23.213  24.848  1.00  0.00     0.078 C 
ATOM     14  C   UNL A   1      33.007  24.120  26.445  1.00  0.00     0.078 C 
ATOM     15  C   UNL A   1      32.422  25.453  24.453  1.00  0.00     0.022 C 
BRANCH   9  16
ATOM     16  C   UNL A   1      33.297  20.920  25.593  1.00  0.00     0.209 C 
ATOM     17  C   UNL A   1      33.811  21.590  24.302  1.00  0.00     0.078 C 
BRANCH  16  18
ATOM     18  C   UNL A   1      32.935  19.408  25.358  1.00  0.00     0.169 C 
ATOM     19  C   UNL A   1      33.888  18.576  24.498  1.00  0.00     0.045 C 
BRANCH  18  20
ATOM     20  O   UNL A   1      32.826  18.743  26.630  1.00  0.00    -0.387 OA
ATOM     21  H   UNL A   1      32.445  19.352  27.281  1.00  0.00     0.211 HD
ENDBRANCH  18  20
ENDBRANCH  16  18
ENDBRANCH   9  16
ENDBRANCH   5   8
ENDBRANCH   3   4
ENDBRANCH   2   3
ENDBRANCH   1   2
BRANCH   1  22
ATOM     22  C   UNL A   1      31.519  30.819  26.006  1.00  0.00     0.002 C 
BRANCH  22  23
ATOM     23  C   UNL A   1      31.329  32.246  26.528  1.00  0.00     0.021 C 
BRANCH  23  24
ATOM     24  C   UNL A   1      32.535  32.810  27.269  1.00  0.00     0.116 C 
BRANCH  24  25
ATOM     25  N   UNL A   1      32.353  34.210  27.611  1.00  0.00    -0.352 N 
ATOM     26  C   UNL A   1      32.969  34.950  28.589  1.00  0.00     0.251 C 
ATOM     27  H   UNL A   1      31.694  34.697  27.066  1.00  0.00     0.163 HD
ATOM     28  O   UNL A   1      32.546  36.060  28.887  1.00  0.00    -0.269 OA
BRANCH  26  29
ATOM     29  C   UNL A   1      34.142  34.392  29.292  1.00  0.00     0.039 A 
ATOM     30  C   UNL A   1      33.941  33.658  30.463  1.00  0.00     0.014 A 
ATOM     31  C   UNL A   1      35.435  34.603  28.802  1.00  0.00     0.014 A 
ATOM     32  C   UNL A   1      35.035  33.091  31.117  1.00  0.00     0.010 A 
ATOM     33  C   UNL A   1      36.515  33.977  29.414  1.00  0.00     0.010 A 
ATOM     34  C   UNL A   1      36.328  33.223  30.582  1.00  0.00    -0.014 A 
BRANCH  34  35
ATOM     35  C   UNL A   1      37.498  32.591  31.239  1.00  0.00     0.031 A 
ATOM     36  C   UNL A   1      38.225  31.465  30.560  1.00  0.00     0.074 A 
ATOM     37  C   UNL A   1      37.867  32.992  32.470  1.00  0.00     0.049 A 
ATOM     38  N   UNL A   1      39.223  30.739  30.997  1.00  0.00    -0.248 NA
ATOM     39  C   UNL A   1      37.749  31.085  29.220  1.00  0.00     0.031 C 
ATOM     40  C   UNL A   1      37.213  34.045  33.248  1.00  0.00     0.029 A 
ATOM     41  N   UNL A   1      38.877  32.553  33.289  1.00  0.00    -0.354 N 
ATOM     42  C   UNL A   1      39.482  29.812  29.997  1.00  0.00     0.074 A 
ATOM     43  C   UNL A   1      38.503  30.028  28.954  1.00  0.00     0.031 C 
ATOM     44  C   UNL A   1      37.850  34.185  34.422  1.00  0.00     0.029 A 
ATOM     45  C   UNL A   1      38.932  33.208  34.495  1.00  0.00     0.049 A 
ATOM     46  H   UNL A   1      39.503  31.837  33.036  1.00  0.00     0.167 HD
ATOM     47  C   UNL A   1      40.464  28.880  29.943  1.00  0.00     0.037 A 
ATOM     48  C   UNL A   1      39.757  33.032  35.545  1.00  0.00     0.037 A 
ATOM     49  C   UNL A   1      41.449  28.686  30.973  1.00  0.00     0.049 A 
ATOM     50  C   UNL A   1      40.834  31.983  35.463  1.00  0.00     0.074 A 
ATOM     51  C   UNL A   1      42.520  27.809  30.989  1.00  0.00     0.029 A 
ATOM     52  N   UNL A   1      41.484  29.380  32.174  1.00  0.00    -0.354 N 
ATOM     53  N   UNL A   1      41.112  31.157  34.483  1.00  0.00    -0.248 NA
ATOM     54  C   UNL A   1      41.715  31.848  36.630  1.00  0.00     0.031 C 
ATOM     55  C   UNL A   1      43.172  27.937  32.219  1.00  0.00     0.029 A 
ATOM     56  C   UNL A   1      42.542  28.933  32.948  1.00  0.00     0.049 A 
ATOM     57  H   UNL A   1      40.849  30.084  32.438  1.00  0.00     0.167 HD
ATOM     58  C   UNL A   1      42.217  30.428  34.901  1.00  0.00     0.074 A 
ATOM     59  C   UNL A   1      42.566  30.919  36.218  1.00  0.00     0.031 C 
ATOM     60  C   UNL A   1      42.882  29.441  34.253  1.00  0.00     0.037 A 
BRANCH  47  61
ATOM     61  C   UNL A   1      40.519  28.000  28.728  1.00  0.00     0.064 A 
ATOM     62  C   UNL A   1      41.272  28.353  27.596  1.00  0.00     0.173 A 
ATOM     63  C   UNL A   1      39.843  26.771  28.707  1.00  0.00     0.173 A 
ATOM     64  F   UNL A   1      41.928  29.523  27.559  1.00  0.00    -0.203 F 
ATOM     65  C   UNL A   1      41.318  27.524  26.478  1.00  0.00     0.198 A 
ATOM     66  C   UNL A   1      39.918  25.929  27.599  1.00  0.00     0.198 A 
ATOM     67  F   UNL A   1      39.114  26.381  29.764  1.00  0.00    -0.203 F 
ATOM     68  F   UNL A   1      42.000  27.907  25.389  1.00  0.00    -0.200 F 
ATOM     69  C   UNL A   1      40.648  26.309  26.484  1.00  0.00     0.200 A 
ATOM     70  F   UNL A   1      39.282  24.750  27.612  1.00  0.00    -0.200 F 
ATOM     71  F   UNL A   1      40.701  25.509  25.411  1.00  0.00    -0.200 F 
ENDBRANCH  47  61
BRANCH  48  72
ATOM     72  C   UNL A   1      39.612  33.883  36.755  1.00  0.00     0.064 A 
ATOM     73  C   UNL A   1      38.848  33.454  37.849  1.00  0.00     0.173 A 
ATOM     74  C   UNL A   1      40.228  35.140  36.842  1.00  0.00     0.173 A 
ATOM     75  F   UNL A   1      38.224  32.268  37.805  1.00  0.00    -0.203 F 
ATOM     76  C   UNL A   1      38.685  34.260  38.974  1.00  0.00     0.198 A 
ATOM     77  C   UNL A   1      40.090  35.932  37.980  1.00  0.00     0.198 A 
ATOM     78  F   UNL A   1      40.976  35.595  35.825  1.00  0.00    -0.203 F 
ATOM     79  F   UNL A   1      37.909  33.846  39.984  1.00  0.00    -0.200 F 
ATOM     80  C   UNL A   1      39.310  35.496  39.041  1.00  0.00     0.200 A 
ATOM     81  F   UNL A   1      40.708  37.119  38.047  1.00  0.00    -0.200 F 
ATOM     82  F   UNL A   1      39.157  36.269  40.124  1.00  0.00    -0.200 F 
ENDBRANCH  48  72
BRANCH  60  83
ATOM     83  C   UNL A   1      44.080  28.851  34.940  1.00  0.00     0.064 A 
ATOM     84  C   UNL A   1      43.975  27.729  35.774  1.00  0.00     0.173 A 
ATOM     85  C   UNL A   1      45.356  29.394  34.726  1.00  0.00     0.173 A 
ATOM     86  F   UNL A   1      42.776  27.182  36.021  1.00  0.00    -0.203 F 
ATOM     87  C   UNL A   1      45.101  27.187  36.389  1.00  0.00     0.198 A 
ATOM     88  C   UNL A   1      46.483  28.830  35.317  1.00  0.00     0.198 A 
ATOM     89  F   UNL A   1      45.513  30.464  33.932  1.00  0.00    -0.203 F 
ATOM     90  F   UNL A   1      44.970  26.143  37.220  1.00  0.00    -0.200 F 
ATOM     91  C   UNL A   1      46.353  27.733  36.154  1.00  0.00     0.200 A 
ATOM     92  F   UNL A   1      47.695  29.350  35.077  1.00  0.00    -0.200 F 
ATOM     93  F   UNL A   1      47.437  27.203  36.740  1.00  0.00    -0.200 F 
ENDBRANCH  60  83
ENDBRANCH  34  35
ENDBRANCH  26  29
ENDBRANCH  24  25
ENDBRANCH  23  24
ENDBRANCH  22  23
ENDBRANCH   1  22
TORSDOF 16
ENDMDL
MODEL 2
REMARK VINA RESULT:     -11.9      1.020      2.063
REMARK SMILES C[C@H]([C@@H](C)O)[NH+]1CCC(C)(C(=O)NCCCCCCNC(=O)c2ccc(-c3c4nc(c(-c5c(F)c(F)c(F)c(F)c5F)c5ccc([nH]5)c(-c5c(F)c(F)c(F)c(F)c5F)c5nc(c(-c6c(F)c(F)c(F)c(F)c6F)c6ccc3[nH]6)C=C5)C=C4)cc2)CC1
REMARK SMILES IDX 16 1 15 2 14 3 13 4 11 5 12 6 9 8 6 9 7 10 87 11 8 13 86 14
REMARK SMILES IDX 10 15 2 16 1 17 3 18 4 19 5 20 17 22 18 23 19 24 20 25 21 26
REMARK SMILES IDX 22 28 23 29 24 30 85 31 25 32 84 33 26 34 27 35 28 36 78 37
REMARK SMILES IDX 29 38 83 39 77 40 79 41 30 42 82 43 76 44 75 45 31 47 63 48
REMARK SMILES IDX 43 49 62 50 44 51 47 52 61 53 80 54 45 55 46 56 60 58 81 59
REMARK SMILES IDX 48 60 32 61 33 62 41 63 34 64 35 65 39 66 42 67 36 68 37 69
REMARK SMILES IDX 40 70 38 71 64 72 65 73 73 74 66 75 67 76 71 77 74 78 68 79
REMARK SMILES IDX 69 80 72 81 70 82 49 83 50 84 58 85 51 86 52 87 56 88 59 89
REMARK SMILES IDX 53 90 54 91 57 92 55 93
REMARK H PARENT 13 7 6 12 5 21 20 27 79 46 47 57
REMARK Flexibility Score: inf
ROOT
ATOM      1  C   UNL A   1      32.926  30.167  26.131  1.00  0.00     0.002 C 
ENDROOT
BRANCH   1   2
ATOM      2  C   UNL A   1      33.355  29.090  27.129  1.00  0.00     0.021 C 
BRANCH   2   3
ATOM      3  C   UNL A   1      34.013  27.872  26.482  1.00  0.00     0.116 C 
BRANCH   3   4
ATOM      4  N   UNL A   1      33.611  27.725  25.093  1.00  0.00    -0.356 N 
ATOM      5  C   UNL A   1      33.078  26.680  24.397  1.00  0.00     0.226 C 
ATOM      6  O   UNL A   1      32.919  26.851  23.186  1.00  0.00    -0.274 OA
ATOM      7  H   UNL A   1      33.751  28.535  24.550  1.00  0.00     0.163 HD
BRANCH   5   8
ATOM      8  C   UNL A   1      32.683  25.361  25.093  1.00  0.00     0.057 C 
ATOM      9  N   UNL A   1      34.077  22.924  24.060  1.00  0.00    -0.331 N 
ATOM     10  C   UNL A   1      34.798  24.000  24.709  1.00  0.00     0.263 C 
ATOM     11  C   UNL A   1      32.975  23.481  23.276  1.00  0.00     0.263 C 
ATOM     12  H   UNL A   1      34.746  22.494  23.421  1.00  0.00     0.348 HD
ATOM     13  C   UNL A   1      33.938  24.722  25.737  1.00  0.00     0.078 C 
ATOM     14  C   UNL A   1      32.019  24.380  24.069  1.00  0.00     0.078 C 
ATOM     15  C   UNL A   1      31.575  25.667  26.127  1.00  0.00     0.022 C 
BRANCH   9  16
ATOM     16  C   UNL A   1      33.804  21.677  24.813  1.00  0.00     0.209 C 
ATOM     17  C   UNL A   1      34.971  20.682  24.977  1.00  0.00     0.078 C 
BRANCH  16  18
ATOM     18  C   UNL A   1      32.461  20.943  24.453  1.00  0.00     0.169 C 
ATOM     19  C   UNL A   1      32.557  19.621  23.690  1.00  0.00     0.045 C 
BRANCH  18  20
ATOM     20  O   UNL A   1      31.725  20.679  25.661  1.00  0.00    -0.387 OA
ATOM     21  H   UNL A   1      31.637  21.500  26.172  1.00  0.00     0.211 HD
ENDBRANCH  18  20
ENDBRANCH  16  18
ENDBRANCH   9  16
ENDBRANCH   5   8
ENDBRANCH   3   4
ENDBRANCH   2   3
ENDBRANCH   1   2
BRANCH   1  22
ATOM     22  C   UNL A   1      31.499  30.685  26.325  1.00  0.00     0.002 C 
BRANCH  22  23
ATOM     23  C   UNL A   1      31.390  32.186  26.608  1.00  0.00     0.021 C 
BRANCH  23  24
ATOM     24  C   UNL A   1      32.638  32.802  27.228  1.00  0.00     0.116 C 
BRANCH  24  25
ATOM     25  N   UNL A   1      32.426  34.187  27.609  1.00  0.00    -0.352 N 
ATOM     26  C   UNL A   1      32.998  34.903  28.630  1.00  0.00     0.251 C 
ATOM     27  H   UNL A   1      31.778  34.683  27.057  1.00  0.00     0.163 HD
ATOM     28  O   UNL A   1      32.550  35.997  28.949  1.00  0.00    -0.269 OA
BRANCH  26  29
ATOM     29  C   UNL A   1      34.155  34.338  29.355  1.00  0.00     0.039 A 
ATOM     30  C   UNL A   1      33.922  33.466  30.421  1.00  0.00     0.014 A 
ATOM     31  C   UNL A   1      35.461  34.676  28.988  1.00  0.00     0.014 A 
ATOM     32  C   UNL A   1      35.004  32.893  31.090  1.00  0.00     0.010 A 
ATOM     33  C   UNL A   1      36.536  34.047  29.607  1.00  0.00     0.010 A 
ATOM     34  C   UNL A   1      36.319  33.157  30.671  1.00  0.00    -0.014 A 
BRANCH  34  35
ATOM     35  C   UNL A   1      37.480  32.524  31.341  1.00  0.00     0.031 A 
ATOM     36  C   UNL A   1      38.227  31.412  30.660  1.00  0.00     0.074 A 
ATOM     37  C   UNL A   1      37.823  32.910  32.584  1.00  0.00     0.049 A 
ATOM     38  N   UNL A   1      39.221  30.686  31.107  1.00  0.00    -0.248 NA
ATOM     39  C   UNL A   1      37.780  31.048  29.306  1.00  0.00     0.031 C 
ATOM     40  C   UNL A   1      37.147  33.948  33.364  1.00  0.00     0.029 A 
ATOM     41  N   UNL A   1      38.820  32.466  33.416  1.00  0.00    -0.354 N 
ATOM     42  C   UNL A   1      39.506  29.775  30.098  1.00  0.00     0.074 A 
ATOM     43  C   UNL A   1      38.546  30.000  29.040  1.00  0.00     0.031 C 
ATOM     44  C   UNL A   1      37.760  34.075  34.552  1.00  0.00     0.029 A 
ATOM     45  C   UNL A   1      38.847  33.103  34.632  1.00  0.00     0.049 A 
ATOM     46  H   UNL A   1      39.455  31.757  33.165  1.00  0.00     0.167 HD
ATOM     47  C   UNL A   1      40.494  28.850  30.050  1.00  0.00     0.037 A 
ATOM     48  C   UNL A   1      39.653  32.918  35.695  1.00  0.00     0.037 A 
ATOM     49  C   UNL A   1      41.461  28.647  31.097  1.00  0.00     0.049 A 
ATOM     50  C   UNL A   1      40.738  31.877  35.619  1.00  0.00     0.074 A 
ATOM     51  C   UNL A   1      42.537  27.776  31.120  1.00  0.00     0.029 A 
ATOM     52  N   UNL A   1      41.468  29.324  32.308  1.00  0.00    -0.354 N 
ATOM     53  N   UNL A   1      41.040  31.067  34.634  1.00  0.00    -0.248 NA
ATOM     54  C   UNL A   1      41.598  31.731  36.801  1.00  0.00     0.031 C 
ATOM     55  C   UNL A   1      43.164  27.892  32.365  1.00  0.00     0.029 A 
ATOM     56  C   UNL A   1      42.514  28.873  33.095  1.00  0.00     0.049 A 
ATOM     57  H   UNL A   1      40.823  30.021  32.569  1.00  0.00     0.167 HD
ATOM     58  C   UNL A   1      42.141  30.338  35.063  1.00  0.00     0.074 A 
ATOM     59  C   UNL A   1      42.462  30.813  36.393  1.00  0.00     0.031 C 
ATOM     60  C   UNL A   1      42.825  29.365  34.414  1.00  0.00     0.037 A 
BRANCH  47  61
ATOM     61  C   UNL A   1      40.579  27.988  28.824  1.00  0.00     0.064 A 
ATOM     62  C   UNL A   1      39.853  26.790  28.714  1.00  0.00     0.173 A 
ATOM     63  C   UNL A   1      41.366  28.379  27.731  1.00  0.00     0.173 A 
ATOM     64  F   UNL A   1      39.094  26.364  29.735  1.00  0.00    -0.203 F 
ATOM     65  C   UNL A   1      39.939  26.003  27.569  1.00  0.00     0.198 A 
ATOM     66  C   UNL A   1      41.423  27.605  26.574  1.00  0.00     0.198 A 
ATOM     67  F   UNL A   1      42.075  29.517  27.780  1.00  0.00    -0.203 F 
ATOM     68  F   UNL A   1      39.278  24.838  27.508  1.00  0.00    -0.200 F 
ATOM     69  C   UNL A   1      40.716  26.415  26.497  1.00  0.00     0.200 A 
ATOM     70  F   UNL A   1      42.164  28.011  25.533  1.00  0.00    -0.200 F 
ATOM     71  F   UNL A   1      40.790  25.660  25.392  1.00  0.00    -0.200 F 
ENDBRANCH  47  61
BRANCH  48  72
ATOM     72  C   UNL A   1      39.479  33.751  36.914  1.00  0.00     0.064 A 
ATOM     73  C   UNL A   1      40.100  35.003  37.024  1.00  0.00     0.173 A 
ATOM     74  C   UNL A   1      38.697  33.314  37.993  1.00  0.00     0.173 A 
ATOM     75  F   UNL A   1      40.874  35.456  36.027  1.00  0.00    -0.203 F 
ATOM     76  C   UNL A   1      39.965  35.776  38.176  1.00  0.00     0.198 A 
ATOM     77  C   UNL A   1      38.537  34.100  39.131  1.00  0.00     0.198 A 
ATOM     78  F   UNL A   1      38.076  32.126  37.935  1.00  0.00    -0.203 F 
ATOM     79  F   UNL A   1      40.608  36.946  38.274  1.00  0.00    -0.200 F 
ATOM     80  C   UNL A   1      39.179  35.326  39.227  1.00  0.00     0.200 A 
ATOM     81  F   UNL A   1      37.765  33.669  40.137  1.00  0.00    -0.200 F 
ATOM     82  F   UNL A   1      39.046  36.071  40.332  1.00  0.00    -0.200 F 
ENDBRANCH  48  72
BRANCH  60  83
ATOM     83  C   UNL A   1      44.014  28.773  35.116  1.00  0.00     0.064 A 
ATOM     84  C   UNL A   1      43.889  27.677  35.981  1.00  0.00     0.173 A 
ATOM     85  C   UNL A   1      45.299  29.285  34.884  1.00  0.00     0.173 A 
ATOM     86  F   UNL A   1      42.681  27.160  36.247  1.00  0.00    -0.203 F 
ATOM     87  C   UNL A   1      45.007  27.132  36.610  1.00  0.00     0.198 A 
ATOM     88  C   UNL A   1      46.417  28.718  35.489  1.00  0.00     0.198 A 
ATOM     89  F   UNL A   1      45.474  30.329  34.059  1.00  0.00    -0.203 F 
ATOM     90  F   UNL A   1      44.858  26.115  37.471  1.00  0.00    -0.200 F 
ATOM     91  C   UNL A   1      46.268  27.647  36.358  1.00  0.00     0.200 A 
ATOM     92  F   UNL A   1      47.638  29.208  35.232  1.00  0.00    -0.200 F 
ATOM     93  F   UNL A   1      47.344  27.115  36.957  1.00  0.00    -0.200 F 
ENDBRANCH  60  83
ENDBRANCH  34  35
ENDBRANCH  26  29
ENDBRANCH  24  25
ENDBRANCH  23  24
ENDBRANCH  22  23
ENDBRANCH   1  22
TORSDOF 16
ENDMDL
MODEL 3
REMARK VINA RESULT:     -11.9      6.341     10.876
REMARK SMILES C[C@H]([C@@H](C)O)[NH+]1CCC(C)(C(=O)NCCCCCCNC(=O)c2ccc(-c3c4nc(c(-c5c(F)c(F)c(F)c(F)c5F)c5ccc([nH]5)c(-c5c(F)c(F)c(F)c(F)c5F)c5nc(c(-c6c(F)c(F)c(F)c(F)c6F)c6ccc3[nH]6)C=C5)C=C4)cc2)CC1
REMARK SMILES IDX 16 1 15 2 14 3 13 4 11 5 12 6 9 8 6 9 7 10 87 11 8 13 86 14
REMARK SMILES IDX 10 15 2 16 1 17 3 18 4 19 5 20 17 22 18 23 19 24 20 25 21 26
REMARK SMILES IDX 22 28 23 29 24 30 85 31 25 32 84 33 26 34 27 35 28 36 78 37
REMARK SMILES IDX 29 38 83 39 77 40 79 41 30 42 82 43 76 44 75 45 31 47 63 48
REMARK SMILES IDX 43 49 62 50 44 51 47 52 61 53 80 54 45 55 46 56 60 58 81 59
REMARK SMILES IDX 48 60 32 61 33 62 41 63 34 64 35 65 39 66 42 67 36 68 37 69
REMARK SMILES IDX 40 70 38 71 64 72 65 73 73 74 66 75 67 76 71 77 74 78 68 79
REMARK SMILES IDX 69 80 72 81 70 82 49 83 50 84 58 85 51 86 52 87 56 88 59 89
REMARK SMILES IDX 53 90 54 91 57 92 55 93
REMARK H PARENT 13 7 6 12 5 21 20 27 79 46 47 57
REMARK Flexibility Score: inf
ROOT
ATOM      1  C   UNL A   1      40.966  22.024  26.219  1.00  0.00     0.002 C 
ENDROOT
BRANCH   1   2
ATOM      2  C   UNL A   1      39.707  22.727  26.728  1.00  0.00     0.021 C 
BRANCH   2   3
ATOM      3  C   UNL A   1      38.429  22.317  25.997  1.00  0.00     0.116 C 
BRANCH   3   4
ATOM      4  N   UNL A   1      37.382  23.312  26.158  1.00  0.00    -0.356 N 
ATOM      5  C   UNL A   1      36.238  23.561  25.458  1.00  0.00     0.226 C 
ATOM      6  O   UNL A   1      35.586  24.550  25.805  1.00  0.00    -0.274 OA
ATOM      7  H   UNL A   1      37.526  23.923  26.916  1.00  0.00     0.163 HD
BRANCH   5   8
ATOM      8  C   UNL A   1      35.779  22.648  24.303  1.00  0.00     0.057 C 
ATOM      9  N   UNL A   1      33.617  20.707  25.011  1.00  0.00    -0.331 N 
ATOM     10  C   UNL A   1      33.401  22.139  25.049  1.00  0.00     0.263 C 
ATOM     11  C   UNL A   1      34.985  20.410  25.434  1.00  0.00     0.263 C 
ATOM     12  H   UNL A   1      32.972  20.316  25.698  1.00  0.00     0.348 HD
ATOM     13  C   UNL A   1      34.270  22.871  24.036  1.00  0.00     0.078 C 
ATOM     14  C   UNL A   1      36.071  21.148  24.642  1.00  0.00     0.078 C 
ATOM     15  C   UNL A   1      36.653  22.953  23.063  1.00  0.00     0.022 C 
BRANCH   9  16
ATOM     16  C   UNL A   1      33.079  19.922  23.875  1.00  0.00     0.209 C 
ATOM     17  C   UNL A   1      32.153  20.658  22.884  1.00  0.00     0.078 C 
BRANCH  16  18
ATOM     18  C   UNL A   1      32.528  18.493  24.233  1.00  0.00     0.169 C 
ATOM     19  C   UNL A   1      33.451  17.297  23.993  1.00  0.00     0.045 C 
BRANCH  18  20
ATOM     20  O   UNL A   1      32.153  18.464  25.623  1.00  0.00    -0.387 OA
ATOM     21  H   UNL A   1      32.863  18.052  26.140  1.00  0.00     0.211 HD
ENDBRANCH  18  20
ENDBRANCH  16  18
ENDBRANCH   9  16
ENDBRANCH   5   8
ENDBRANCH   3   4
ENDBRANCH   2   3
ENDBRANCH   1   2
BRANCH   1  22
ATOM     22  C   UNL A   1      41.333  20.744  26.974  1.00  0.00     0.002 C 
BRANCH  22  23
ATOM     23  C   UNL A   1      41.680  19.546  26.086  1.00  0.00     0.021 C 
BRANCH  23  24
ATOM     24  C   UNL A   1      43.065  18.961  26.332  1.00  0.00     0.116 C 
BRANCH  24  25
ATOM     25  N   UNL A   1      43.755  18.662  25.089  1.00  0.00    -0.352 N 
ATOM     26  C   UNL A   1      44.393  19.516  24.225  1.00  0.00     0.251 C 
ATOM     27  H   UNL A   1      43.765  17.714  24.828  1.00  0.00     0.163 HD
ATOM     28  O   UNL A   1      44.737  19.133  23.114  1.00  0.00    -0.269 OA
BRANCH  26  29
ATOM     29  C   UNL A   1      44.653  20.910  24.640  1.00  0.00     0.039 A 
ATOM     30  C   UNL A   1      44.152  21.951  23.857  1.00  0.00     0.014 A 
ATOM     31  C   UNL A   1      45.396  21.185  25.792  1.00  0.00     0.014 A 
ATOM     32  C   UNL A   1      44.355  23.273  24.256  1.00  0.00     0.010 A 
ATOM     33  C   UNL A   1      45.534  22.498  26.227  1.00  0.00     0.010 A 
ATOM     34  C   UNL A   1      45.023  23.556  25.459  1.00  0.00    -0.014 A 
BRANCH  34  35
ATOM     35  C   UNL A   1      45.211  24.952  25.923  1.00  0.00     0.031 A 
ATOM     36  C   UNL A   1      46.566  25.596  25.843  1.00  0.00     0.074 A 
ATOM     37  C   UNL A   1      44.176  25.616  26.471  1.00  0.00     0.049 A 
ATOM     38  N   UNL A   1      46.949  26.777  26.259  1.00  0.00    -0.248 NA
ATOM     39  C   UNL A   1      47.643  24.795  25.239  1.00  0.00     0.031 C 
ATOM     40  C   UNL A   1      42.823  25.082  26.643  1.00  0.00     0.029 A 
ATOM     41  N   UNL A   1      44.101  26.882  26.994  1.00  0.00    -0.354 N 
ATOM     42  C   UNL A   1      48.307  26.853  25.981  1.00  0.00     0.074 A 
ATOM     43  C   UNL A   1      48.695  25.580  25.413  1.00  0.00     0.031 C 
ATOM     44  C   UNL A   1      42.050  26.020  27.212  1.00  0.00     0.029 A 
ATOM     45  C   UNL A   1      42.858  27.205  27.480  1.00  0.00     0.049 A 
ATOM     46  H   UNL A   1      44.867  27.501  27.021  1.00  0.00     0.167 HD
ATOM     47  C   UNL A   1      49.149  27.898  26.162  1.00  0.00     0.037 A 
ATOM     48  C   UNL A   1      42.422  28.329  28.080  1.00  0.00     0.037 A 
ATOM     49  C   UNL A   1      48.751  29.170  26.706  1.00  0.00     0.049 A 
ATOM     50  C   UNL A   1      43.380  29.473  28.277  1.00  0.00     0.074 A 
ATOM     51  C   UNL A   1      49.514  30.312  26.876  1.00  0.00     0.029 A 
ATOM     52  N   UNL A   1      47.478  29.466  27.171  1.00  0.00    -0.354 N 
ATOM     53  N   UNL A   1      44.647  29.559  27.949  1.00  0.00    -0.248 NA
ATOM     54  C   UNL A   1      42.845  30.680  28.922  1.00  0.00     0.031 C 
ATOM     55  C   UNL A   1      48.715  31.283  27.488  1.00  0.00     0.029 A 
ATOM     56  C   UNL A   1      47.440  30.765  27.649  1.00  0.00     0.049 A 
ATOM     57  H   UNL A   1      46.715  28.845  27.162  1.00  0.00     0.167 HD
ATOM     58  C   UNL A   1      45.052  30.834  28.317  1.00  0.00     0.074 A 
ATOM     59  C   UNL A   1      43.892  31.493  28.881  1.00  0.00     0.031 C 
ATOM     60  C   UNL A   1      46.273  31.409  28.199  1.00  0.00     0.037 A 
BRANCH  47  61
ATOM     61  C   UNL A   1      50.585  27.710  25.766  1.00  0.00     0.064 A 
ATOM     62  C   UNL A   1      51.015  27.895  24.443  1.00  0.00     0.173 A 
ATOM     63  C   UNL A   1      51.551  27.376  26.728  1.00  0.00     0.173 A 
ATOM     64  F   UNL A   1      50.131  28.204  23.482  1.00  0.00    -0.203 F 
ATOM     65  C   UNL A   1      52.351  27.722  24.092  1.00  0.00     0.198 A 
ATOM     66  C   UNL A   1      52.892  27.236  26.379  1.00  0.00     0.198 A 
ATOM     67  F   UNL A   1      51.196  27.193  28.009  1.00  0.00    -0.203 F 
ATOM     68  F   UNL A   1      52.729  27.853  22.812  1.00  0.00    -0.200 F 
ATOM     69  C   UNL A   1      53.290  27.401  25.061  1.00  0.00     0.200 A 
ATOM     70  F   UNL A   1      53.800  26.939  27.319  1.00  0.00    -0.200 F 
ATOM     71  F   UNL A   1      54.577  27.243  24.723  1.00  0.00    -0.200 F 
ENDBRANCH  47  61
BRANCH  48  72
ATOM     72  C   UNL A   1      41.006  28.437  28.519  1.00  0.00     0.064 A 
ATOM     73  C   UNL A   1      40.620  28.040  29.807  1.00  0.00     0.173 A 
ATOM     74  C   UNL A   1      40.011  28.931  27.663  1.00  0.00     0.173 A 
ATOM     75  F   UNL A   1      41.531  27.542  30.656  1.00  0.00    -0.203 F 
ATOM     76  C   UNL A   1      39.289  28.111  30.214  1.00  0.00     0.198 A 
ATOM     77  C   UNL A   1      38.686  29.031  28.081  1.00  0.00     0.198 A 
ATOM     78  F   UNL A   1      40.329  29.332  26.423  1.00  0.00    -0.203 F 
ATOM     79  F   UNL A   1      38.940  27.680  31.432  1.00  0.00    -0.200 F 
ATOM     80  C   UNL A   1      38.323  28.612  29.353  1.00  0.00     0.200 A 
ATOM     81  F   UNL A   1      37.760  29.530  27.252  1.00  0.00    -0.200 F 
ATOM     82  F   UNL A   1      37.045  28.684  29.745  1.00  0.00    -0.200 F 
ENDBRANCH  48  72
BRANCH  60  83
ATOM     83  C   UNL A   1      46.411  32.834  28.651  1.00  0.00     0.064 A 
ATOM     84  C   UNL A   1      46.798  33.159  29.959  1.00  0.00     0.173 A 
ATOM     85  C   UNL A   1      46.194  33.887  27.749  1.00  0.00     0.173 A 
ATOM     86  F   UNL A   1      47.003  32.189  30.863  1.00  0.00    -0.203 F 
ATOM     87  C   UNL A   1      46.936  34.487  30.355  1.00  0.00     0.198 A 
ATOM     88  C   UNL A   1      46.365  35.212  28.139  1.00  0.00     0.198 A 
ATOM     89  F   UNL A   1      45.830  33.630  26.484  1.00  0.00    -0.203 F 
ATOM     90  F   UNL A   1      47.259  34.775  31.624  1.00  0.00    -0.200 F 
ATOM     91  C   UNL A   1      46.727  35.511  29.444  1.00  0.00     0.200 A 
ATOM     92  F   UNL A   1      46.178  36.199  27.253  1.00  0.00    -0.200 F 
ATOM     93  F   UNL A   1      46.870  36.789  29.825  1.00  0.00    -0.200 F 
ENDBRANCH  60  83
ENDBRANCH  34  35
ENDBRANCH  26  29
ENDBRANCH  24  25
ENDBRANCH  23  24
ENDBRANCH  22  23
ENDBRANCH   1  22
TORSDOF 16
ENDMDL
