MODEL 1
REMARK VINA RESULT:     -12.6      0.000      0.000
REMARK SMILES O=C(NCCCCCCNC(=O)c1ccc(S(=O)(=O)N[C@@H]2CC[N@@H+]3CCC[C@H]23)cc1)c1ccc(-c2c3nc(c(-c4c(F)c(F)c(F)c(F)c4F)c4ccc([nH]4)c(-c4c(F)c(F)c(F)c(F)c4F)c4nc(c(-c5c(F)c(F)c(F)c(F)c5F)c5ccc2[nH]5)C=C4)C=C3)cc1
REMARK SMILES IDX 7 1 6 2 5 3 4 4 3 5 1 6 2 7 31 9 32 10 93 11 33 12 92 13
REMARK SMILES IDX 34 14 35 15 36 16 86 17 37 18 91 19 85 20 87 21 38 22 90 23
REMARK SMILES IDX 84 24 83 25 39 27 71 28 51 29 70 30 52 31 55 32 69 33 88 34
REMARK SMILES IDX 53 35 54 36 68 38 89 39 56 40 40 41 41 42 49 43 42 44 43 45
REMARK SMILES IDX 47 46 50 47 44 48 45 49 48 50 46 51 72 52 73 53 81 54 74 55
REMARK SMILES IDX 75 56 79 57 82 58 76 59 77 60 80 61 78 62 57 63 58 64 66 65
REMARK SMILES IDX 59 66 60 67 64 68 67 69 61 70 62 71 65 72 63 73 8 74 9 75
REMARK SMILES IDX 10 76 11 77 12 79 13 80 14 81 30 82 15 83 29 84 16 85 17 86
REMARK SMILES IDX 18 87 19 88 20 89 21 91 22 92 28 93 23 94 24 95 27 96 25 97
REMARK SMILES IDX 26 99
REMARK H PARENT 3 8 87 26 55 37 10 78 20 90 24 98
REMARK Flexibility Score: inf
ROOT
ATOM      1  C   UNL A   1      32.825  29.813  25.869  1.00  0.00     0.002 C 
ENDROOT
BRANCH   1   2
ATOM      2  C   UNL A   1      31.469  30.516  25.748  1.00  0.00     0.002 C 
BRANCH   2   3
ATOM      3  C   UNL A   1      31.312  31.838  26.501  1.00  0.00     0.021 C 
BRANCH   3   4
ATOM      4  C   UNL A   1      32.591  32.438  27.066  1.00  0.00     0.116 C 
BRANCH   4   5
ATOM      5  N   UNL A   1      32.437  33.825  27.454  1.00  0.00    -0.352 N 
ATOM      6  O   UNL A   1      32.746  35.668  28.713  1.00  0.00    -0.269 OA
ATOM      7  C   UNL A   1      33.100  34.528  28.426  1.00  0.00     0.251 C 
ATOM      8  H   UNL A   1      31.762  34.332  26.949  1.00  0.00     0.163 HD
BRANCH   7   9
ATOM      9  C   UNL A   1      34.232  33.908  29.150  1.00  0.00     0.039 A 
ATOM     10  C   UNL A   1      34.028  32.874  30.070  1.00  0.00     0.014 A 
ATOM     11  C   UNL A   1      35.528  34.347  28.864  1.00  0.00     0.014 A 
ATOM     12  C   UNL A   1      35.109  32.343  30.768  1.00  0.00     0.010 A 
ATOM     13  C   UNL A   1      36.618  33.769  29.518  1.00  0.00     0.010 A 
ATOM     14  C   UNL A   1      36.415  32.771  30.483  1.00  0.00    -0.014 A 
BRANCH  14  15
ATOM     15  C   UNL A   1      37.569  32.100  31.128  1.00  0.00     0.031 A 
ATOM     16  C   UNL A   1      38.348  31.034  30.414  1.00  0.00     0.074 A 
ATOM     17  C   UNL A   1      37.896  32.453  32.385  1.00  0.00     0.049 A 
ATOM     18  N   UNL A   1      39.361  30.325  30.846  1.00  0.00    -0.248 NA
ATOM     19  C   UNL A   1      37.932  30.713  29.041  1.00  0.00     0.031 C 
ATOM     20  C   UNL A   1      37.193  33.460  33.185  1.00  0.00     0.029 A 
ATOM     21  N   UNL A   1      38.894  32.008  33.214  1.00  0.00    -0.354 N 
ATOM     22  C   UNL A   1      39.692  29.464  29.809  1.00  0.00     0.074 A 
ATOM     23  C   UNL A   1      38.762  29.725  28.731  1.00  0.00     0.031 C 
ATOM     24  C   UNL A   1      37.794  33.571  34.377  1.00  0.00     0.029 A 
ATOM     25  C   UNL A   1      38.889  32.612  34.447  1.00  0.00     0.049 A 
ATOM     26  H   UNL A   1      39.549  31.324  32.950  1.00  0.00     0.167 HD
ATOM     27  C   UNL A   1      40.687  28.547  29.766  1.00  0.00     0.037 A 
ATOM     28  C   UNL A   1      39.667  32.399  35.525  1.00  0.00     0.037 A 
ATOM     29  C   UNL A   1      41.623  28.309  30.835  1.00  0.00     0.049 A 
ATOM     30  C   UNL A   1      40.750  31.363  35.451  1.00  0.00     0.074 A 
ATOM     31  C   UNL A   1      42.710  27.453  30.856  1.00  0.00     0.029 A 
ATOM     32  N   UNL A   1      41.577  28.926  32.076  1.00  0.00    -0.354 N 
ATOM     33  N   UNL A   1      41.088  30.594  34.446  1.00  0.00    -0.248 NA
ATOM     34  C   UNL A   1      41.555  31.160  36.663  1.00  0.00     0.031 C 
ATOM     35  C   UNL A   1      43.296  27.519  32.126  1.00  0.00     0.029 A 
ATOM     36  C   UNL A   1      42.597  28.446  32.881  1.00  0.00     0.049 A 
ATOM     37  H   UNL A   1      40.917  29.605  32.346  1.00  0.00     0.167 HD
ATOM     38  C   UNL A   1      42.147  29.821  34.897  1.00  0.00     0.074 A 
ATOM     39  C   UNL A   1      42.410  30.229  36.262  1.00  0.00     0.031 C 
ATOM     40  C   UNL A   1      42.835  28.857  34.241  1.00  0.00     0.037 A 
BRANCH  27  41
ATOM     41  C   UNL A   1      40.816  27.714  28.525  1.00  0.00     0.064 A 
ATOM     42  C   UNL A   1      40.125  26.502  28.377  1.00  0.00     0.173 A 
ATOM     43  C   UNL A   1      41.590  28.166  27.446  1.00  0.00     0.173 A 
ATOM     44  F   UNL A   1      39.380  26.024  29.384  1.00  0.00    -0.203 F 
ATOM     45  C   UNL A   1      40.216  25.767  27.197  1.00  0.00     0.198 A 
ATOM     46  C   UNL A   1      41.662  27.438  26.260  1.00  0.00     0.198 A 
ATOM     47  F   UNL A   1      42.266  29.322  27.535  1.00  0.00    -0.203 F 
ATOM     48  F   UNL A   1      39.571  24.597  27.087  1.00  0.00    -0.200 F 
ATOM     49  C   UNL A   1      40.978  26.238  26.139  1.00  0.00     0.200 A 
ATOM     50  F   UNL A   1      42.391  27.900  25.234  1.00  0.00    -0.200 F 
ATOM     51  F   UNL A   1      41.056  25.534  25.001  1.00  0.00    -0.200 F 
ENDBRANCH  27  41
BRANCH  28  52
ATOM     52  C   UNL A   1      39.432  33.182  36.763  1.00  0.00     0.064 A 
ATOM     53  C   UNL A   1      40.095  34.396  36.985  1.00  0.00     0.173 A 
ATOM     54  C   UNL A   1      38.521  32.745  37.735  1.00  0.00     0.173 A 
ATOM     55  F   UNL A   1      40.989  34.843  36.091  1.00  0.00    -0.203 F 
ATOM     56  C   UNL A   1      39.863  35.139  38.140  1.00  0.00     0.198 A 
ATOM     57  C   UNL A   1      38.270  33.502  38.877  1.00  0.00     0.198 A 
ATOM     58  F   UNL A   1      37.859  31.592  37.565  1.00  0.00    -0.203 F 
ATOM     59  F   UNL A   1      40.533  36.282  38.343  1.00  0.00    -0.200 F 
ATOM     60  C   UNL A   1      38.945  34.696  39.081  1.00  0.00     0.200 A 
ATOM     61  F   UNL A   1      37.372  33.077  39.776  1.00  0.00    -0.200 F 
ATOM     62  F   UNL A   1      38.714  35.419  40.186  1.00  0.00    -0.200 F 
ENDBRANCH  28  52
BRANCH  40  63
ATOM     63  C   UNL A   1      43.942  28.182  34.993  1.00  0.00     0.064 A 
ATOM     64  C   UNL A   1      45.235  28.723  35.024  1.00  0.00     0.173 A 
ATOM     65  C   UNL A   1      43.701  27.003  35.714  1.00  0.00     0.173 A 
ATOM     66  F   UNL A   1      45.517  29.839  34.334  1.00  0.00    -0.203 F 
ATOM     67  C   UNL A   1      46.253  28.098  35.737  1.00  0.00     0.198 A 
ATOM     68  C   UNL A   1      44.716  26.393  36.444  1.00  0.00     0.198 A 
ATOM     69  F   UNL A   1      42.479  26.450  35.716  1.00  0.00    -0.203 F 
ATOM     70  F   UNL A   1      47.492  28.610  35.722  1.00  0.00    -0.200 F 
ATOM     71  C   UNL A   1      45.993  26.937  36.451  1.00  0.00     0.200 A 
ATOM     72  F   UNL A   1      44.461  25.277  37.140  1.00  0.00    -0.200 F 
ATOM     73  F   UNL A   1      46.973  26.339  37.140  1.00  0.00    -0.200 F 
ENDBRANCH  40  63
ENDBRANCH  14  15
ENDBRANCH   7   9
ENDBRANCH   4   5
ENDBRANCH   3   4
ENDBRANCH   2   3
ENDBRANCH   1   2
BRANCH   1  74
ATOM     74  C   UNL A   1      33.288  29.016  24.651  1.00  0.00     0.021 C 
BRANCH  74  75
ATOM     75  C   UNL A   1      32.206  28.218  23.941  1.00  0.00     0.116 C 
BRANCH  75  76
ATOM     76  N   UNL A   1      32.666  27.620  22.706  1.00  0.00    -0.352 N 
ATOM     77  C   UNL A   1      33.180  26.363  22.509  1.00  0.00     0.251 C 
ATOM     78  H   UNL A   1      32.604  28.189  21.904  1.00  0.00     0.163 HD
ATOM     79  O   UNL A   1      33.652  26.045  21.421  1.00  0.00    -0.269 OA
BRANCH  77  80
ATOM     80  C   UNL A   1      33.182  25.385  23.622  1.00  0.00     0.039 A 
ATOM     81  C   UNL A   1      34.377  25.154  24.311  1.00  0.00     0.015 A 
ATOM     82  C   UNL A   1      32.020  24.684  23.969  1.00  0.00     0.015 A 
ATOM     83  C   UNL A   1      34.413  24.217  25.348  1.00  0.00     0.022 A 
ATOM     84  C   UNL A   1      32.035  23.801  25.046  1.00  0.00     0.022 A 
ATOM     85  C   UNL A   1      33.247  23.519  25.683  1.00  0.00     0.082 A 
BRANCH  85  86
ATOM     86  S   UNL A   1      33.276  22.232  26.903  1.00  0.00     0.241 S 
ATOM     87  O   UNL A   1      34.665  21.982  27.243  1.00  0.00    -0.207 OA
ATOM     88  O   UNL A   1      32.307  22.578  27.912  1.00  0.00    -0.207 OA
BRANCH  86  89
ATOM     89  N   UNL A   1      32.787  20.806  26.147  1.00  0.00    -0.202 NA
ATOM     90  H   UNL A   1      31.805  20.944  25.907  1.00  0.00     0.141 HD
BRANCH  89  91
ATOM     91  C   UNL A   1      33.421  20.253  24.935  1.00  0.00     0.133 C 
ATOM     92  C   UNL A   1      32.494  20.416  23.721  1.00  0.00     0.087 C 
ATOM     93  C   UNL A   1      33.669  18.742  24.995  1.00  0.00     0.202 C 
ATOM     94  C   UNL A   1      32.428  19.045  23.043  1.00  0.00     0.264 C 
ATOM     95  N   UNL A   1      33.544  18.278  23.604  1.00  0.00    -0.331 N 
ATOM     96  C   UNL A   1      32.662  17.893  25.762  1.00  0.00     0.072 C 
ATOM     97  C   UNL A   1      33.277  16.833  23.684  1.00  0.00     0.262 C 
ATOM     98  H   UNL A   1      34.364  18.415  23.013  1.00  0.00     0.348 HD
ATOM     99  C   UNL A   1      32.836  16.534  25.117  1.00  0.00     0.068 C 
ENDBRANCH  89  91
ENDBRANCH  86  89
ENDBRANCH  85  86
ENDBRANCH  77  80
ENDBRANCH  75  76
ENDBRANCH  74  75
ENDBRANCH   1  74
TORSDOF 16
ENDMDL
MODEL 2
REMARK VINA RESULT:     -12.5      0.478      7.246
REMARK SMILES O=C(NCCCCCCNC(=O)c1ccc(S(=O)(=O)N[C@@H]2CC[N@@H+]3CCC[C@H]23)cc1)c1ccc(-c2c3nc(c(-c4c(F)c(F)c(F)c(F)c4F)c4ccc([nH]4)c(-c4c(F)c(F)c(F)c(F)c4F)c4nc(c(-c5c(F)c(F)c(F)c(F)c5F)c5ccc2[nH]5)C=C4)C=C3)cc1
REMARK SMILES IDX 7 1 6 2 5 3 4 4 3 5 1 6 2 7 31 9 32 10 93 11 33 12 92 13
REMARK SMILES IDX 34 14 35 15 36 16 86 17 37 18 91 19 85 20 87 21 38 22 90 23
REMARK SMILES IDX 84 24 83 25 39 27 71 28 51 29 70 30 52 31 55 32 69 33 88 34
REMARK SMILES IDX 53 35 54 36 68 38 89 39 56 40 40 41 41 42 49 43 42 44 43 45
REMARK SMILES IDX 47 46 50 47 44 48 45 49 48 50 46 51 72 52 73 53 81 54 74 55
REMARK SMILES IDX 75 56 79 57 82 58 76 59 77 60 80 61 78 62 57 63 58 64 66 65
REMARK SMILES IDX 59 66 60 67 64 68 67 69 61 70 62 71 65 72 63 73 8 74 9 75
REMARK SMILES IDX 10 76 11 77 12 79 13 80 14 81 30 82 15 83 29 84 16 85 17 86
REMARK SMILES IDX 18 87 19 88 20 89 21 91 22 92 28 93 23 94 24 95 27 96 25 97
REMARK SMILES IDX 26 99
REMARK H PARENT 3 8 87 26 55 37 10 78 20 90 24 98
REMARK Flexibility Score: inf
ROOT
ATOM      1  C   UNL A   1      32.759  29.852  25.911  1.00  0.00     0.002 C 
ENDROOT
BRANCH   1   2
ATOM      2  C   UNL A   1      31.426  30.587  25.739  1.00  0.00     0.002 C 
BRANCH   2   3
ATOM      3  C   UNL A   1      31.271  31.912  26.488  1.00  0.00     0.021 C 
BRANCH   3   4
ATOM      4  C   UNL A   1      32.535  32.465  27.130  1.00  0.00     0.116 C 
BRANCH   4   5
ATOM      5  N   UNL A   1      32.409  33.857  27.510  1.00  0.00    -0.352 N 
ATOM      6  O   UNL A   1      32.770  35.704  28.747  1.00  0.00    -0.269 OA
ATOM      7  C   UNL A   1      33.102  34.558  28.462  1.00  0.00     0.251 C 
ATOM      8  H   UNL A   1      31.730  34.370  27.015  1.00  0.00     0.163 HD
BRANCH   7   9
ATOM      9  C   UNL A   1      34.240  33.927  29.167  1.00  0.00     0.039 A 
ATOM     10  C   UNL A   1      34.040  32.915  30.111  1.00  0.00     0.014 A 
ATOM     11  C   UNL A   1      35.536  34.334  28.837  1.00  0.00     0.014 A 
ATOM     12  C   UNL A   1      35.129  32.374  30.790  1.00  0.00     0.010 A 
ATOM     13  C   UNL A   1      36.632  33.745  29.473  1.00  0.00     0.010 A 
ATOM     14  C   UNL A   1      36.435  32.769  30.462  1.00  0.00    -0.014 A 
BRANCH  14  15
ATOM     15  C   UNL A   1      37.592  32.085  31.088  1.00  0.00     0.031 A 
ATOM     16  C   UNL A   1      38.063  32.453  32.464  1.00  0.00     0.074 A 
ATOM     17  C   UNL A   1      38.232  31.132  30.383  1.00  0.00     0.049 A 
ATOM     18  N   UNL A   1      39.077  31.977  33.142  1.00  0.00    -0.248 NA
ATOM     19  C   UNL A   1      37.305  33.497  33.170  1.00  0.00     0.031 C 
ATOM     20  C   UNL A   1      37.876  30.711  29.026  1.00  0.00     0.029 A 
ATOM     21  N   UNL A   1      39.312  30.351  30.701  1.00  0.00    -0.354 N 
ATOM     22  C   UNL A   1      39.092  32.673  34.343  1.00  0.00     0.074 A 
ATOM     23  C   UNL A   1      37.996  33.617  34.296  1.00  0.00     0.031 C 
ATOM     24  C   UNL A   1      38.707  29.733  28.637  1.00  0.00     0.029 A 
ATOM     25  C   UNL A   1      39.683  29.495  29.694  1.00  0.00     0.049 A 
ATOM     26  H   UNL A   1      39.775  30.398  31.568  1.00  0.00     0.167 HD
ATOM     27  C   UNL A   1      39.942  32.527  35.387  1.00  0.00     0.037 A 
ATOM     28  C   UNL A   1      40.711  28.630  29.619  1.00  0.00     0.037 A 
ATOM     29  C   UNL A   1      41.016  31.569  35.435  1.00  0.00     0.049 A 
ATOM     30  C   UNL A   1      41.646  28.503  30.786  1.00  0.00     0.074 A 
ATOM     31  C   UNL A   1      41.884  31.296  36.478  1.00  0.00     0.029 A 
ATOM     32  N   UNL A   1      41.374  30.731  34.388  1.00  0.00    -0.354 N 
ATOM     33  N   UNL A   1      41.616  29.128  31.938  1.00  0.00    -0.248 NA
ATOM     34  C   UNL A   1      42.761  27.559  30.641  1.00  0.00     0.031 C 
ATOM     35  C   UNL A   1      42.795  30.324  36.047  1.00  0.00     0.029 A 
ATOM     36  C   UNL A   1      42.469  29.963  34.750  1.00  0.00     0.049 A 
ATOM     37  H   UNL A   1      40.917  30.688  33.517  1.00  0.00     0.167 HD
ATOM     38  C   UNL A   1      42.700  28.650  32.659  1.00  0.00     0.074 A 
ATOM     39  C   UNL A   1      43.356  27.666  31.821  1.00  0.00     0.031 C 
ATOM     40  C   UNL A   1      43.115  28.998  33.899  1.00  0.00     0.037 A 
BRANCH  27  41
ATOM     41  C   UNL A   1      39.759  33.432  36.569  1.00  0.00     0.064 A 
ATOM     42  C   UNL A   1      40.396  34.679  36.647  1.00  0.00     0.173 A 
ATOM     43  C   UNL A   1      38.883  33.075  37.606  1.00  0.00     0.173 A 
ATOM     44  F   UNL A   1      41.249  35.062  35.685  1.00  0.00    -0.203 F 
ATOM     45  C   UNL A   1      40.175  35.529  37.728  1.00  0.00     0.198 A 
ATOM     46  C   UNL A   1      38.648  33.936  38.675  1.00  0.00     0.198 A 
ATOM     47  F   UNL A   1      38.245  31.895  37.575  1.00  0.00    -0.203 F 
ATOM     48  F   UNL A   1      40.816  36.703  37.798  1.00  0.00    -0.200 F 
ATOM     49  C   UNL A   1      39.297  35.160  38.737  1.00  0.00     0.200 A 
ATOM     50  F   UNL A   1      37.792  33.583  39.643  1.00  0.00    -0.200 F 
ATOM     51  F   UNL A   1      39.077  35.984  39.771  1.00  0.00    -0.200 F 
ENDBRANCH  27  41
BRANCH  28  52
ATOM     52  C   UNL A   1      40.906  27.829  28.385  1.00  0.00     0.064 A 
ATOM     53  C   UNL A   1      41.695  28.309  27.332  1.00  0.00     0.173 A 
ATOM     54  C   UNL A   1      40.328  26.560  28.246  1.00  0.00     0.173 A 
ATOM     55  F   UNL A   1      42.251  29.527  27.413  1.00  0.00    -0.203 F 
ATOM     56  C   UNL A   1      41.892  27.551  26.180  1.00  0.00     0.198 A 
ATOM     57  C   UNL A   1      40.547  25.792  27.105  1.00  0.00     0.198 A 
ATOM     58  F   UNL A   1      39.569  26.056  29.230  1.00  0.00    -0.203 F 
ATOM     59  F   UNL A   1      42.625  28.045  25.173  1.00  0.00    -0.200 F 
ATOM     60  C   UNL A   1      41.324  26.289  26.071  1.00  0.00     0.200 A 
ATOM     61  F   UNL A   1      40.008  24.568  27.011  1.00  0.00    -0.200 F 
ATOM     62  F   UNL A   1      41.523  25.556  24.967  1.00  0.00    -0.200 F 
ENDBRANCH  28  52
BRANCH  40  63
ATOM     63  C   UNL A   1      44.335  28.305  34.426  1.00  0.00     0.064 A 
ATOM     64  C   UNL A   1      44.245  27.059  35.063  1.00  0.00     0.173 A 
ATOM     65  C   UNL A   1      45.607  28.875  34.264  1.00  0.00     0.173 A 
ATOM     66  F   UNL A   1      43.049  26.484  35.256  1.00  0.00    -0.203 F 
ATOM     67  C   UNL A   1      45.385  26.416  35.536  1.00  0.00     0.198 A 
ATOM     68  C   UNL A   1      46.746  28.218  34.718  1.00  0.00     0.198 A 
ATOM     69  F   UNL A   1      45.742  30.064  33.659  1.00  0.00    -0.203 F 
ATOM     70  F   UNL A   1      45.274  25.244  36.177  1.00  0.00    -0.200 F 
ATOM     71  C   UNL A   1      46.635  26.992  35.358  1.00  0.00     0.200 A 
ATOM     72  F   UNL A   1      47.953  28.772  34.539  1.00  0.00    -0.200 F 
ATOM     73  F   UNL A   1      47.731  26.370  35.810  1.00  0.00    -0.200 F 
ENDBRANCH  40  63
ENDBRANCH  14  15
ENDBRANCH   7   9
ENDBRANCH   4   5
ENDBRANCH   3   4
ENDBRANCH   2   3
ENDBRANCH   1   2
BRANCH   1  74
ATOM     74  C   UNL A   1      33.256  29.056  24.705  1.00  0.00     0.021 C 
BRANCH  74  75
ATOM     75  C   UNL A   1      32.180  28.342  23.904  1.00  0.00     0.116 C 
BRANCH  75  76
ATOM     76  N   UNL A   1      32.676  27.791  22.661  1.00  0.00    -0.352 N 
ATOM     77  C   UNL A   1      33.185  26.538  22.428  1.00  0.00     0.251 C 
ATOM     78  H   UNL A   1      32.644  28.393  21.882  1.00  0.00     0.163 HD
ATOM     79  O   UNL A   1      33.691  26.261  21.344  1.00  0.00    -0.269 OA
BRANCH  77  80
ATOM     80  C   UNL A   1      33.142  25.515  23.499  1.00  0.00     0.039 A 
ATOM     81  C   UNL A   1      34.244  25.386  24.350  1.00  0.00     0.015 A 
ATOM     82  C   UNL A   1      32.033  24.672  23.649  1.00  0.00     0.015 A 
ATOM     83  C   UNL A   1      34.241  24.411  25.351  1.00  0.00     0.022 A 
ATOM     84  C   UNL A   1      31.996  23.747  24.689  1.00  0.00     0.022 A 
ATOM     85  C   UNL A   1      33.130  23.573  25.490  1.00  0.00     0.082 A 
BRANCH  85  86
ATOM     86  S   UNL A   1      33.134  22.240  26.661  1.00  0.00     0.241 S 
ATOM     87  O   UNL A   1      34.519  21.910  26.943  1.00  0.00    -0.207 OA
ATOM     88  O   UNL A   1      32.217  22.594  27.714  1.00  0.00    -0.207 OA
BRANCH  86  89
ATOM     89  N   UNL A   1      32.550  20.869  25.871  1.00  0.00    -0.202 NA
ATOM     90  H   UNL A   1      31.626  21.125  25.521  1.00  0.00     0.141 HD
BRANCH  89  91
ATOM     91  C   UNL A   1      33.236  20.209  24.743  1.00  0.00     0.133 C 
ATOM     92  C   UNL A   1      32.317  20.154  23.513  1.00  0.00     0.087 C 
ATOM     93  C   UNL A   1      33.580  18.738  24.998  1.00  0.00     0.202 C 
ATOM     94  C   UNL A   1      32.350  18.707  23.016  1.00  0.00     0.264 C 
ATOM     95  N   UNL A   1      33.505  18.094  23.677  1.00  0.00    -0.331 N 
ATOM     96  C   UNL A   1      32.620  17.929  25.861  1.00  0.00     0.072 C 
ATOM     97  C   UNL A   1      33.331  16.656  23.941  1.00  0.00     0.262 C 
ATOM     98  H   UNL A   1      34.323  18.208  23.078  1.00  0.00     0.348 HD
ATOM     99  C   UNL A   1      32.890  16.513  25.397  1.00  0.00     0.068 C 
ENDBRANCH  89  91
ENDBRANCH  86  89
ENDBRANCH  85  86
ENDBRANCH  77  80
ENDBRANCH  75  76
ENDBRANCH  74  75
ENDBRANCH   1  74
TORSDOF 16
ENDMDL
MODEL 3
REMARK VINA RESULT:     -12.3      5.237     11.242
REMARK SMILES O=C(NCCCCCCNC(=O)c1ccc(S(=O)(=O)N[C@@H]2CC[N@@H+]3CCC[C@H]23)cc1)c1ccc(-c2c3nc(c(-c4c(F)c(F)c(F)c(F)c4F)c4ccc([nH]4)c(-c4c(F)c(F)c(F)c(F)c4F)c4nc(c(-c5c(F)c(F)c(F)c(F)c5F)c5ccc2[nH]5)C=C4)C=C3)cc1
REMARK SMILES IDX 7 1 6 2 5 3 4 4 3 5 1 6 2 7 31 9 32 10 93 11 33 12 92 13
REMARK SMILES IDX 34 14 35 15 36 16 86 17 37 18 91 19 85 20 87 21 38 22 90 23
REMARK SMILES IDX 84 24 83 25 39 27 71 28 51 29 70 30 52 31 55 32 69 33 88 34
REMARK SMILES IDX 53 35 54 36 68 38 89 39 56 40 40 41 41 42 49 43 42 44 43 45
REMARK SMILES IDX 47 46 50 47 44 48 45 49 48 50 46 51 72 52 73 53 81 54 74 55
REMARK SMILES IDX 75 56 79 57 82 58 76 59 77 60 80 61 78 62 57 63 58 64 66 65
REMARK SMILES IDX 59 66 60 67 64 68 67 69 61 70 62 71 65 72 63 73 8 74 9 75
REMARK SMILES IDX 10 76 11 77 12 79 13 80 14 81 30 82 15 83 29 84 16 85 17 86
REMARK SMILES IDX 18 87 19 88 20 89 21 91 22 92 28 93 23 94 24 95 27 96 25 97
REMARK SMILES IDX 26 99
REMARK H PARENT 3 8 87 26 55 37 10 78 20 90 24 98
REMARK Flexibility Score: inf
ROOT
ATOM      1  C   UNL A   1      35.308  19.813  24.997  1.00  0.00     0.002 C 
ENDROOT
BRANCH   1   2
ATOM      2  C   UNL A   1      36.680  20.493  24.958  1.00  0.00     0.002 C 
BRANCH   2   3
ATOM      3  C   UNL A   1      37.903  19.576  25.001  1.00  0.00     0.021 C 
BRANCH   3   4
ATOM      4  C   UNL A   1      39.093  20.091  25.798  1.00  0.00     0.116 C 
BRANCH   4   5
ATOM      5  N   UNL A   1      40.150  19.109  25.925  1.00  0.00    -0.352 N 
ATOM      6  O   UNL A   1      42.269  18.358  26.075  1.00  0.00    -0.269 OA
ATOM      7  C   UNL A   1      41.492  19.306  26.126  1.00  0.00     0.251 C 
ATOM      8  H   UNL A   1      39.865  18.169  25.858  1.00  0.00     0.163 HD
BRANCH   7   9
ATOM      9  C   UNL A   1      42.012  20.667  26.383  1.00  0.00     0.039 A 
ATOM     10  C   UNL A   1      42.267  21.559  25.336  1.00  0.00     0.014 A 
ATOM     11  C   UNL A   1      42.205  21.068  27.709  1.00  0.00     0.014 A 
ATOM     12  C   UNL A   1      42.799  22.816  25.609  1.00  0.00     0.010 A 
ATOM     13  C   UNL A   1      42.679  22.353  27.985  1.00  0.00     0.010 A 
ATOM     14  C   UNL A   1      42.990  23.232  26.936  1.00  0.00    -0.014 A 
BRANCH  14  15
ATOM     15  C   UNL A   1      43.421  24.622  27.219  1.00  0.00     0.031 A 
ATOM     16  C   UNL A   1      42.464  25.635  27.774  1.00  0.00     0.074 A 
ATOM     17  C   UNL A   1      44.694  24.966  26.948  1.00  0.00     0.049 A 
ATOM     18  N   UNL A   1      42.670  26.900  28.047  1.00  0.00    -0.248 NA
ATOM     19  C   UNL A   1      41.095  25.177  28.051  1.00  0.00     0.031 C 
ATOM     20  C   UNL A   1      45.705  24.069  26.383  1.00  0.00     0.029 A 
ATOM     21  N   UNL A   1      45.357  26.157  27.103  1.00  0.00    -0.354 N 
ATOM     22  C   UNL A   1      41.458  27.392  28.509  1.00  0.00     0.074 A 
ATOM     23  C   UNL A   1      40.513  26.296  28.464  1.00  0.00     0.031 C 
ATOM     24  C   UNL A   1      46.862  24.732  26.260  1.00  0.00     0.029 A 
ATOM     25  C   UNL A   1      46.664  26.112  26.688  1.00  0.00     0.049 A 
ATOM     26  H   UNL A   1      44.935  26.963  27.477  1.00  0.00     0.167 HD
ATOM     27  C   UNL A   1      41.168  28.644  28.935  1.00  0.00     0.037 A 
ATOM     28  C   UNL A   1      47.596  27.082  26.636  1.00  0.00     0.037 A 
ATOM     29  C   UNL A   1      42.120  29.724  28.999  1.00  0.00     0.049 A 
ATOM     30  C   UNL A   1      47.239  28.463  27.100  1.00  0.00     0.074 A 
ATOM     31  C   UNL A   1      41.939  31.006  29.485  1.00  0.00     0.029 A 
ATOM     32  N   UNL A   1      43.431  29.647  28.553  1.00  0.00    -0.354 N 
ATOM     33  N   UNL A   1      46.104  28.902  27.586  1.00  0.00    -0.248 NA
ATOM     34  C   UNL A   1      48.288  29.486  27.001  1.00  0.00     0.031 C 
ATOM     35  C   UNL A   1      43.128  31.719  29.293  1.00  0.00     0.029 A 
ATOM     36  C   UNL A   1      44.061  30.869  28.724  1.00  0.00     0.049 A 
ATOM     37  H   UNL A   1      43.852  28.843  28.171  1.00  0.00     0.167 HD
ATOM     38  C   UNL A   1      46.302  30.247  27.859  1.00  0.00     0.074 A 
ATOM     39  C   UNL A   1      47.674  30.548  27.503  1.00  0.00     0.031 C 
ATOM     40  C   UNL A   1      45.424  31.152  28.354  1.00  0.00     0.037 A 
BRANCH  27  41
ATOM     41  C   UNL A   1      39.758  28.929  29.361  1.00  0.00     0.064 A 
ATOM     42  C   UNL A   1      39.333  28.727  30.682  1.00  0.00     0.173 A 
ATOM     43  C   UNL A   1      38.840  29.474  28.451  1.00  0.00     0.173 A 
ATOM     44  F   UNL A   1      40.171  28.201  31.587  1.00  0.00    -0.203 F 
ATOM     45  C   UNL A   1      38.035  29.046  31.072  1.00  0.00     0.198 A 
ATOM     46  C   UNL A   1      37.549  29.811  28.849  1.00  0.00     0.198 A 
ATOM     47  F   UNL A   1      39.199  29.691  27.176  1.00  0.00    -0.203 F 
ATOM     48  F   UNL A   1      37.640  28.818  32.332  1.00  0.00    -0.200 F 
ATOM     49  C   UNL A   1      37.146  29.594  30.158  1.00  0.00     0.200 A 
ATOM     50  F   UNL A   1      36.695  30.349  27.967  1.00  0.00    -0.200 F 
ATOM     51  F   UNL A   1      35.901  29.909  30.538  1.00  0.00    -0.200 F 
ENDBRANCH  27  41
BRANCH  28  52
ATOM     52  C   UNL A   1      48.949  26.770  26.112  1.00  0.00     0.064 A 
ATOM     53  C   UNL A   1      49.269  26.992  24.766  1.00  0.00     0.173 A 
ATOM     54  C   UNL A   1      49.953  26.268  26.952  1.00  0.00     0.173 A 
ATOM     55  F   UNL A   1      48.334  27.452  23.923  1.00  0.00    -0.203 F 
ATOM     56  C   UNL A   1      50.544  26.714  24.278  1.00  0.00     0.198 A 
ATOM     57  C   UNL A   1      51.235  26.016  26.468  1.00  0.00     0.198 A 
ATOM     58  F   UNL A   1      49.695  26.044  28.248  1.00  0.00    -0.203 F 
ATOM     59  F   UNL A   1      50.818  26.906  22.980  1.00  0.00    -0.200 F 
ATOM     60  C   UNL A   1      51.528  26.234  25.131  1.00  0.00     0.200 A 
ATOM     61  F   UNL A   1      52.185  25.566  27.299  1.00  0.00    -0.200 F 
ATOM     62  F   UNL A   1      52.757  25.979  24.662  1.00  0.00    -0.200 F 
ENDBRANCH  28  52
BRANCH  40  63
ATOM     63  C   UNL A   1      45.926  32.551  28.544  1.00  0.00     0.064 A 
ATOM     64  C   UNL A   1      45.776  33.520  27.542  1.00  0.00     0.173 A 
ATOM     65  C   UNL A   1      46.532  32.934  29.749  1.00  0.00     0.173 A 
ATOM     66  F   UNL A   1      45.218  33.194  26.366  1.00  0.00    -0.203 F 
ATOM     67  C   UNL A   1      46.232  34.820  27.733  1.00  0.00     0.198 A 
ATOM     68  C   UNL A   1      46.967  34.241  29.945  1.00  0.00     0.198 A 
ATOM     69  F   UNL A   1      46.695  32.042  30.738  1.00  0.00    -0.203 F 
ATOM     70  F   UNL A   1      46.115  35.722  26.748  1.00  0.00    -0.200 F 
ATOM     71  C   UNL A   1      46.822  35.182  28.936  1.00  0.00     0.200 A 
ATOM     72  F   UNL A   1      47.529  34.592  31.111  1.00  0.00    -0.200 F 
ATOM     73  F   UNL A   1      47.256  36.436  29.120  1.00  0.00    -0.200 F 
ENDBRANCH  40  63
ENDBRANCH  14  15
ENDBRANCH   7   9
ENDBRANCH   4   5
ENDBRANCH   3   4
ENDBRANCH   2   3
ENDBRANCH   1   2
BRANCH   1  74
ATOM     74  C   UNL A   1      34.099  20.730  25.174  1.00  0.00     0.021 C 
BRANCH  74  75
ATOM     75  C   UNL A   1      34.167  21.680  26.358  1.00  0.00     0.116 C 
BRANCH  75  76
ATOM     76  N   UNL A   1      32.890  21.850  27.018  1.00  0.00    -0.352 N 
ATOM     77  C   UNL A   1      31.999  22.886  26.894  1.00  0.00     0.251 C 
ATOM     78  H   UNL A   1      32.627  21.130  27.636  1.00  0.00     0.163 HD
ATOM     79  O   UNL A   1      31.014  22.953  27.623  1.00  0.00    -0.269 OA
BRANCH  77  80
ATOM     80  C   UNL A   1      32.236  23.945  25.885  1.00  0.00     0.039 A 
ATOM     81  C   UNL A   1      31.677  23.796  24.611  1.00  0.00     0.015 A 
ATOM     82  C   UNL A   1      33.022  25.066  26.183  1.00  0.00     0.015 A 
ATOM     83  C   UNL A   1      31.907  24.766  23.632  1.00  0.00     0.022 A 
ATOM     84  C   UNL A   1      33.195  26.068  25.233  1.00  0.00     0.022 A 
ATOM     85  C   UNL A   1      32.696  25.880  23.940  1.00  0.00     0.082 A 
BRANCH  85  86
ATOM     86  S   UNL A   1      33.119  27.069  22.694  1.00  0.00     0.241 S 
ATOM     87  O   UNL A   1      33.959  28.076  23.316  1.00  0.00    -0.207 OA
ATOM     88  O   UNL A   1      33.559  26.335  21.535  1.00  0.00    -0.207 OA
BRANCH  86  89
ATOM     89  N   UNL A   1      31.711  27.912  22.299  1.00  0.00    -0.202 NA
ATOM     90  H   UNL A   1      31.227  27.334  21.613  1.00  0.00     0.141 HD
BRANCH  89  91
ATOM     91  C   UNL A   1      30.685  28.312  23.281  1.00  0.00     0.133 C 
ATOM     92  C   UNL A   1      29.484  27.355  23.223  1.00  0.00     0.087 C 
ATOM     93  C   UNL A   1      30.062  29.684  23.008  1.00  0.00     0.202 C 
ATOM     94  C   UNL A   1      28.236  28.237  23.126  1.00  0.00     0.264 C 
ATOM     95  N   UNL A   1      28.679  29.582  23.501  1.00  0.00    -0.331 N 
ATOM     96  C   UNL A   1      29.906  30.110  21.553  1.00  0.00     0.072 C 
ATOM     97  C   UNL A   1      27.930  30.654  22.824  1.00  0.00     0.262 C 
ATOM     98  H   UNL A   1      28.555  29.698  24.507  1.00  0.00     0.348 HD
ATOM     99  C   UNL A   1      28.772  31.111  21.634  1.00  0.00     0.068 C 
ENDBRANCH  89  91
ENDBRANCH  86  89
ENDBRANCH  85  86
ENDBRANCH  77  80
ENDBRANCH  75  76
ENDBRANCH  74  75
ENDBRANCH   1  74
TORSDOF 16
ENDMDL
