MODEL 1
REMARK VINA RESULT:     -12.1      0.000      0.000
REMARK SMILES CC[C@H](CNC(=O)[C@H]1CSc2ccccc21)C(=O)NCCCCCCNC(=O)c1ccc(-c2c3nc(c(-c4c(F)c(F)c(F)c(F)c4F)c4ccc([nH]4)c(-c4c(F)c(F)c(F)c(F)c4F)c4nc(c(-c5c(F)c(F)c(F)c(F)c5F)c5ccc2[nH]5)C=C4)C=C3)cc1
REMARK SMILES IDX 22 1 21 2 20 3 19 4 17 5 18 6 3 8 2 9 1 10 4 11 5 12 6 13
REMARK SMILES IDX 7 15 8 16 9 17 16 18 10 19 11 20 15 21 12 22 14 23 13 24
REMARK SMILES IDX 23 25 24 26 25 27 26 28 27 29 28 31 29 32 30 33 91 34 31 35
REMARK SMILES IDX 90 36 32 37 33 38 34 39 84 40 35 41 89 42 83 43 85 44 36 45
REMARK SMILES IDX 88 46 82 47 81 48 37 50 69 51 49 52 68 53 50 54 53 55 67 56
REMARK SMILES IDX 86 57 51 58 52 59 66 61 87 62 54 63 38 64 39 65 47 66 40 67
REMARK SMILES IDX 41 68 45 69 48 70 42 71 43 72 46 73 44 74 70 75 71 76 79 77
REMARK SMILES IDX 72 78 73 79 77 80 80 81 74 82 75 83 78 84 76 85 55 86 56 87
REMARK SMILES IDX 64 88 57 89 58 90 62 91 65 92 59 93 60 94 63 95 61 96
REMARK H PARENT 19 7 5 14 26 30 85 49 53 60
REMARK Flexibility Score: inf
ROOT
ATOM      1  C   UNL A   1      32.384  29.744  27.164  1.00  0.00     0.002 C 
ENDROOT
BRANCH   1   2
ATOM      2  C   UNL A   1      33.737  29.156  26.752  1.00  0.00     0.021 C 
BRANCH   2   3
ATOM      3  C   UNL A   1      33.669  27.823  26.011  1.00  0.00     0.116 C 
BRANCH   3   4
ATOM      4  N   UNL A   1      32.586  26.987  26.493  1.00  0.00    -0.356 N 
ATOM      5  C   UNL A   1      31.590  26.335  25.833  1.00  0.00     0.224 C 
ATOM      6  O   UNL A   1      30.836  25.624  26.502  1.00  0.00    -0.275 OA
ATOM      7  H   UNL A   1      32.567  26.872  27.470  1.00  0.00     0.163 HD
BRANCH   5   8
ATOM      8  C   UNL A   1      31.413  26.432  24.319  1.00  0.00     0.097 C 
BRANCH   8   9
ATOM      9  C   UNL A   1      30.477  27.625  24.003  1.00  0.00     0.012 C 
ATOM     10  C   UNL A   1      31.013  28.705  23.079  1.00  0.00     0.005 C 
ENDBRANCH   8   9
BRANCH   8  11
ATOM     11  C   UNL A   1      31.082  25.070  23.682  1.00  0.00     0.129 C 
BRANCH  11  12
ATOM     12  N   UNL A   1      32.033  24.665  22.646  1.00  0.00    -0.355 N 
ATOM     13  C   UNL A   1      32.821  23.550  22.538  1.00  0.00     0.228 C 
ATOM     14  H   UNL A   1      32.121  25.302  21.901  1.00  0.00     0.163 HD
ATOM     15  O   UNL A   1      33.333  23.319  21.441  1.00  0.00    -0.274 OA
BRANCH  13  16
ATOM     16  C   UNL A   1      33.082  22.678  23.756  1.00  0.00     0.120 C 
ATOM     17  C   UNL A   1      32.524  21.257  23.567  1.00  0.00     0.093 C 
ATOM     18  C   UNL A   1      34.556  22.501  24.064  1.00  0.00    -0.021 A 
ATOM     19  S   UNL A   1      33.475  20.180  24.692  1.00  0.00    -0.125 SA
ATOM     20  C   UNL A   1      34.875  21.258  24.621  1.00  0.00     0.011 A 
ATOM     21  C   UNL A   1      35.553  23.460  23.915  1.00  0.00     0.006 A 
ATOM     22  C   UNL A   1      36.166  20.963  25.039  1.00  0.00     0.015 A 
ATOM     23  C   UNL A   1      36.852  23.178  24.341  1.00  0.00     0.000 A 
ATOM     24  C   UNL A   1      37.158  21.935  24.902  1.00  0.00     0.001 A 
ENDBRANCH  13  16
ENDBRANCH  11  12
ENDBRANCH   8  11
ENDBRANCH   5   8
ENDBRANCH   3   4
ENDBRANCH   2   3
ENDBRANCH   1   2
BRANCH   1  25
ATOM     25  C   UNL A   1      31.722  30.657  26.128  1.00  0.00     0.002 C 
BRANCH  25  26
ATOM     26  C   UNL A   1      31.423  32.080  26.603  1.00  0.00     0.021 C 
BRANCH  26  27
ATOM     27  C   UNL A   1      32.572  32.773  27.327  1.00  0.00     0.116 C 
BRANCH  27  28
ATOM     28  N   UNL A   1      32.295  34.170  27.620  1.00  0.00    -0.352 N 
ATOM     29  C   UNL A   1      32.904  35.001  28.531  1.00  0.00     0.251 C 
ATOM     30  H   UNL A   1      31.569  34.577  27.095  1.00  0.00     0.163 HD
ATOM     31  O   UNL A   1      32.451  36.117  28.760  1.00  0.00    -0.269 OA
BRANCH  29  32
ATOM     32  C   UNL A   1      34.094  34.523  29.268  1.00  0.00     0.039 A 
ATOM     33  C   UNL A   1      35.368  34.630  28.707  1.00  0.00     0.014 A 
ATOM     34  C   UNL A   1      33.925  33.924  30.519  1.00  0.00     0.014 A 
ATOM     35  C   UNL A   1      36.443  33.989  29.313  1.00  0.00     0.010 A 
ATOM     36  C   UNL A   1      35.023  33.353  31.169  1.00  0.00     0.010 A 
ATOM     37  C   UNL A   1      36.281  33.334  30.546  1.00  0.00    -0.014 A 
BRANCH  37  38
ATOM     38  C   UNL A   1      37.438  32.627  31.154  1.00  0.00     0.031 A 
ATOM     39  C   UNL A   1      37.894  32.957  32.551  1.00  0.00     0.074 A 
ATOM     40  C   UNL A   1      38.042  31.638  30.467  1.00  0.00     0.049 A 
ATOM     41  N   UNL A   1      38.868  32.426  33.249  1.00  0.00    -0.248 NA
ATOM     42  C   UNL A   1      37.167  34.022  33.259  1.00  0.00     0.031 C 
ATOM     43  C   UNL A   1      37.681  31.217  29.113  1.00  0.00     0.029 A 
ATOM     44  N   UNL A   1      39.062  30.792  30.820  1.00  0.00    -0.354 N 
ATOM     45  C   UNL A   1      38.878  33.099  34.464  1.00  0.00     0.074 A 
ATOM     46  C   UNL A   1      37.834  34.099  34.401  1.00  0.00     0.031 C 
ATOM     47  C   UNL A   1      38.427  30.156  28.771  1.00  0.00     0.029 A 
ATOM     48  C   UNL A   1      39.360  29.862  29.854  1.00  0.00     0.049 A 
ATOM     49  H   UNL A   1      39.534  30.845  31.682  1.00  0.00     0.167 HD
ATOM     50  C   UNL A   1      39.676  32.890  35.538  1.00  0.00     0.037 A 
ATOM     51  C   UNL A   1      40.288  28.887  29.835  1.00  0.00     0.037 A 
ATOM     52  C   UNL A   1      40.699  31.879  35.608  1.00  0.00     0.049 A 
ATOM     53  C   UNL A   1      41.190  28.710  31.023  1.00  0.00     0.074 A 
ATOM     54  C   UNL A   1      41.545  31.581  36.663  1.00  0.00     0.029 A 
ATOM     55  N   UNL A   1      41.013  31.000  34.583  1.00  0.00    -0.354 N 
ATOM     56  N   UNL A   1      41.188  29.351  32.165  1.00  0.00    -0.248 NA
ATOM     57  C   UNL A   1      42.234  27.681  30.914  1.00  0.00     0.031 C 
ATOM     58  C   UNL A   1      42.398  30.548  36.262  1.00  0.00     0.029 A 
ATOM     59  C   UNL A   1      42.054  30.171  34.975  1.00  0.00     0.049 A 
ATOM     60  H   UNL A   1      40.564  30.969  33.708  1.00  0.00     0.167 HD
ATOM     61  C   UNL A   1      42.217  28.801  32.914  1.00  0.00     0.074 A 
ATOM     62  C   UNL A   1      42.812  27.756  32.105  1.00  0.00     0.031 C 
ATOM     63  C   UNL A   1      42.635  29.138  34.158  1.00  0.00     0.037 A 
BRANCH  50  64
ATOM     64  C   UNL A   1      39.485  33.773  36.737  1.00  0.00     0.064 A 
ATOM     65  C   UNL A   1      38.693  33.372  37.823  1.00  0.00     0.173 A 
ATOM     66  C   UNL A   1      40.161  34.999  36.835  1.00  0.00     0.173 A 
ATOM     67  F   UNL A   1      38.017  32.214  37.775  1.00  0.00    -0.203 F 
ATOM     68  C   UNL A   1      38.575  34.172  38.957  1.00  0.00     0.198 A 
ATOM     69  C   UNL A   1      40.061  35.784  37.980  1.00  0.00     0.198 A 
ATOM     70  F   UNL A   1      40.937  35.424  35.827  1.00  0.00    -0.203 F 
ATOM     71  F   UNL A   1      37.790  33.782  39.971  1.00  0.00    -0.200 F 
ATOM     72  C   UNL A   1      39.267  35.371  39.039  1.00  0.00     0.200 A 
ATOM     73  F   UNL A   1      40.740  36.937  38.063  1.00  0.00    -0.200 F 
ATOM     74  F   UNL A   1      39.164  36.132  40.138  1.00  0.00    -0.200 F 
ENDBRANCH  50  64
BRANCH  51  75
ATOM     75  C   UNL A   1      40.398  28.003  28.648  1.00  0.00     0.064 A 
ATOM     76  C   UNL A   1      41.190  28.367  27.551  1.00  0.00     0.173 A 
ATOM     77  C   UNL A   1      39.743  26.763  28.600  1.00  0.00     0.173 A 
ATOM     78  F   UNL A   1      41.818  29.553  27.544  1.00  0.00    -0.203 F 
ATOM     79  C   UNL A   1      41.321  27.526  26.449  1.00  0.00     0.198 A 
ATOM     80  C   UNL A   1      39.897  25.910  27.510  1.00  0.00     0.198 A 
ATOM     81  F   UNL A   1      38.975  26.369  29.625  1.00  0.00    -0.203 F 
ATOM     82  F   UNL A   1      42.063  27.909  25.401  1.00  0.00    -0.200 F 
ATOM     83  C   UNL A   1      40.684  26.294  26.433  1.00  0.00     0.200 A 
ATOM     84  F   UNL A   1      39.292  24.716  27.505  1.00  0.00    -0.200 F 
ATOM     85  F   UNL A   1      40.824  25.478  25.379  1.00  0.00    -0.200 F 
ENDBRANCH  51  75
BRANCH  63  86
ATOM     86  C   UNL A   1      43.786  28.366  34.732  1.00  0.00     0.064 A 
ATOM     87  C   UNL A   1      43.585  27.169  35.433  1.00  0.00     0.173 A 
ATOM     88  C   UNL A   1      45.107  28.793  34.522  1.00  0.00     0.173 A 
ATOM     89  F   UNL A   1      42.340  26.728  35.671  1.00  0.00    -0.203 F 
ATOM     90  C   UNL A   1      44.664  26.432  35.914  1.00  0.00     0.198 A 
ATOM     91  C   UNL A   1      46.183  28.041  34.982  1.00  0.00     0.198 A 
ATOM     92  F   UNL A   1      45.351  29.929  33.851  1.00  0.00    -0.203 F 
ATOM     93  F   UNL A   1      44.447  25.307  36.609  1.00  0.00    -0.200 F 
ATOM     94  C   UNL A   1      45.961  26.864  35.680  1.00  0.00     0.200 A 
ATOM     95  F   UNL A   1      47.436  28.453  34.744  1.00  0.00    -0.200 F 
ATOM     96  F   UNL A   1      46.998  26.145  36.132  1.00  0.00    -0.200 F 
ENDBRANCH  63  86
ENDBRANCH  37  38
ENDBRANCH  29  32
ENDBRANCH  27  28
ENDBRANCH  26  27
ENDBRANCH  25  26
ENDBRANCH   1  25
TORSDOF 17
ENDMDL
MODEL 2
REMARK VINA RESULT:     -12.0      0.717      2.186
REMARK SMILES CC[C@H](CNC(=O)[C@H]1CSc2ccccc21)C(=O)NCCCCCCNC(=O)c1ccc(-c2c3nc(c(-c4c(F)c(F)c(F)c(F)c4F)c4ccc([nH]4)c(-c4c(F)c(F)c(F)c(F)c4F)c4nc(c(-c5c(F)c(F)c(F)c(F)c5F)c5ccc2[nH]5)C=C4)C=C3)cc1
REMARK SMILES IDX 22 1 21 2 20 3 19 4 17 5 18 6 3 8 2 9 1 10 4 11 5 12 6 13
REMARK SMILES IDX 7 15 8 16 9 17 16 18 10 19 11 20 15 21 12 22 14 23 13 24
REMARK SMILES IDX 23 25 24 26 25 27 26 28 27 29 28 31 29 32 30 33 91 34 31 35
REMARK SMILES IDX 90 36 32 37 33 38 34 39 84 40 35 41 89 42 83 43 85 44 36 45
REMARK SMILES IDX 88 46 82 47 81 48 37 50 69 51 49 52 68 53 50 54 53 55 67 56
REMARK SMILES IDX 86 57 51 58 52 59 66 61 87 62 54 63 38 64 39 65 47 66 40 67
REMARK SMILES IDX 41 68 45 69 48 70 42 71 43 72 46 73 44 74 70 75 71 76 79 77
REMARK SMILES IDX 72 78 73 79 77 80 80 81 74 82 75 83 78 84 76 85 55 86 56 87
REMARK SMILES IDX 64 88 57 89 58 90 62 91 65 92 59 93 60 94 63 95 61 96
REMARK H PARENT 19 7 5 14 26 30 85 49 53 60
REMARK Flexibility Score: inf
ROOT
ATOM      1  C   UNL A   1      32.118  29.954  25.374  1.00  0.00     0.002 C 
ENDROOT
BRANCH   1   2
ATOM      2  C   UNL A   1      30.904  29.712  24.472  1.00  0.00     0.021 C 
BRANCH   2   3
ATOM      3  C   UNL A   1      31.188  28.921  23.197  1.00  0.00     0.116 C 
BRANCH   3   4
ATOM      4  N   UNL A   1      32.370  28.091  23.324  1.00  0.00    -0.356 N 
ATOM      5  C   UNL A   1      32.526  26.805  23.746  1.00  0.00     0.224 C 
ATOM      6  O   UNL A   1      33.658  26.319  23.679  1.00  0.00    -0.275 OA
ATOM      7  H   UNL A   1      33.207  28.534  23.058  1.00  0.00     0.163 HD
BRANCH   5   8
ATOM      8  C   UNL A   1      31.356  25.965  24.252  1.00  0.00     0.097 C 
BRANCH   8   9
ATOM      9  C   UNL A   1      31.653  25.522  25.706  1.00  0.00     0.012 C 
ATOM     10  C   UNL A   1      31.801  26.616  26.750  1.00  0.00     0.005 C 
ENDBRANCH   8   9
BRANCH   8  11
ATOM     11  C   UNL A   1      30.939  24.880  23.241  1.00  0.00     0.129 C 
BRANCH  11  12
ATOM     12  N   UNL A   1      32.008  24.505  22.315  1.00  0.00    -0.355 N 
ATOM     13  C   UNL A   1      32.874  23.445  22.327  1.00  0.00     0.228 C 
ATOM     14  H   UNL A   1      32.124  25.119  21.554  1.00  0.00     0.163 HD
ATOM     15  O   UNL A   1      33.502  23.210  21.293  1.00  0.00    -0.274 OA
BRANCH  13  16
ATOM     16  C   UNL A   1      33.076  22.637  23.600  1.00  0.00     0.120 C 
ATOM     17  C   UNL A   1      32.428  21.246  23.498  1.00  0.00     0.093 C 
ATOM     18  C   UNL A   1      34.535  22.386  23.928  1.00  0.00    -0.021 A 
ATOM     19  S   UNL A   1      33.305  20.185  24.696  1.00  0.00    -0.125 SA
ATOM     20  C   UNL A   1      34.772  21.164  24.566  1.00  0.00     0.011 A 
ATOM     21  C   UNL A   1      35.591  23.268  23.725  1.00  0.00     0.006 A 
ATOM     22  C   UNL A   1      36.040  20.814  25.010  1.00  0.00     0.015 A 
ATOM     23  C   UNL A   1      36.868  22.932  24.177  1.00  0.00     0.000 A 
ATOM     24  C   UNL A   1      37.092  21.710  24.818  1.00  0.00     0.001 A 
ENDBRANCH  13  16
ENDBRANCH  11  12
ENDBRANCH   8  11
ENDBRANCH   5   8
ENDBRANCH   3   4
ENDBRANCH   2   3
ENDBRANCH   1   2
BRANCH   1  25
ATOM     25  C   UNL A   1      31.803  30.513  26.764  1.00  0.00     0.002 C 
BRANCH  25  26
ATOM     26  C   UNL A   1      31.577  32.024  26.828  1.00  0.00     0.021 C 
BRANCH  26  27
ATOM     27  C   UNL A   1      32.788  32.839  27.268  1.00  0.00     0.116 C 
BRANCH  27  28
ATOM     28  N   UNL A   1      32.447  34.202  27.643  1.00  0.00    -0.352 N 
ATOM     29  C   UNL A   1      33.003  34.997  28.618  1.00  0.00     0.251 C 
ATOM     30  H   UNL A   1      31.714  34.612  27.129  1.00  0.00     0.163 HD
ATOM     31  O   UNL A   1      32.498  36.076  28.908  1.00  0.00    -0.269 OA
BRANCH  29  32
ATOM     32  C   UNL A   1      34.198  34.521  29.349  1.00  0.00     0.039 A 
ATOM     33  C   UNL A   1      35.472  34.662  28.796  1.00  0.00     0.014 A 
ATOM     34  C   UNL A   1      34.033  33.892  30.586  1.00  0.00     0.014 A 
ATOM     35  C   UNL A   1      36.554  34.024  29.392  1.00  0.00     0.010 A 
ATOM     36  C   UNL A   1      35.138  33.323  31.227  1.00  0.00     0.010 A 
ATOM     37  C   UNL A   1      36.398  33.339  30.609  1.00  0.00    -0.014 A 
BRANCH  37  38
ATOM     38  C   UNL A   1      37.565  32.637  31.206  1.00  0.00     0.031 A 
ATOM     39  C   UNL A   1      38.034  32.970  32.597  1.00  0.00     0.074 A 
ATOM     40  C   UNL A   1      38.164  31.650  30.513  1.00  0.00     0.049 A 
ATOM     41  N   UNL A   1      39.017  32.443  33.285  1.00  0.00    -0.248 NA
ATOM     42  C   UNL A   1      37.310  34.033  33.312  1.00  0.00     0.031 C 
ATOM     43  C   UNL A   1      37.791  31.225  29.164  1.00  0.00     0.029 A 
ATOM     44  N   UNL A   1      39.192  30.807  30.856  1.00  0.00    -0.354 N 
ATOM     45  C   UNL A   1      39.037  33.118  34.500  1.00  0.00     0.074 A 
ATOM     46  C   UNL A   1      37.989  34.114  34.447  1.00  0.00     0.031 C 
ATOM     47  C   UNL A   1      38.538  30.167  28.814  1.00  0.00     0.029 A 
ATOM     48  C   UNL A   1      39.483  29.878  29.888  1.00  0.00     0.049 A 
ATOM     49  H   UNL A   1      39.673  30.863  31.713  1.00  0.00     0.167 HD
ATOM     50  C   UNL A   1      39.848  32.913  35.566  1.00  0.00     0.037 A 
ATOM     51  C   UNL A   1      40.415  28.907  29.860  1.00  0.00     0.037 A 
ATOM     52  C   UNL A   1      40.875  31.906  35.626  1.00  0.00     0.049 A 
ATOM     53  C   UNL A   1      41.330  28.734  31.039  1.00  0.00     0.074 A 
ATOM     54  C   UNL A   1      41.733  31.612  36.672  1.00  0.00     0.029 A 
ATOM     55  N   UNL A   1      41.181  31.027  34.599  1.00  0.00    -0.354 N 
ATOM     56  N   UNL A   1      41.337  29.377  32.180  1.00  0.00    -0.248 NA
ATOM     57  C   UNL A   1      42.376  27.709  30.920  1.00  0.00     0.031 C 
ATOM     58  C   UNL A   1      42.585  30.582  36.263  1.00  0.00     0.029 A 
ATOM     59  C   UNL A   1      42.229  30.203  34.980  1.00  0.00     0.049 A 
ATOM     60  H   UNL A   1      40.723  30.993  33.728  1.00  0.00     0.167 HD
ATOM     61  C   UNL A   1      42.376  28.831  32.919  1.00  0.00     0.074 A 
ATOM     62  C   UNL A   1      42.966  27.787  32.105  1.00  0.00     0.031 C 
ATOM     63  C   UNL A   1      42.806  29.171  34.159  1.00  0.00     0.037 A 
BRANCH  50  64
ATOM     64  C   UNL A   1      39.666  33.796  36.766  1.00  0.00     0.064 A 
ATOM     65  C   UNL A   1      40.249  35.070  36.833  1.00  0.00     0.173 A 
ATOM     66  C   UNL A   1      38.839  33.396  37.827  1.00  0.00     0.173 A 
ATOM     67  F   UNL A   1      41.057  35.496  35.850  1.00  0.00    -0.203 F 
ATOM     68  C   UNL A   1      40.020  35.906  37.924  1.00  0.00     0.198 A 
ATOM     69  C   UNL A   1      38.592  34.244  38.903  1.00  0.00     0.198 A 
ATOM     70  F   UNL A   1      38.252  32.190  37.807  1.00  0.00    -0.203 F 
ATOM     71  F   UNL A   1      40.611  37.108  37.980  1.00  0.00    -0.200 F 
ATOM     72  C   UNL A   1      39.185  35.496  38.952  1.00  0.00     0.200 A 
ATOM     73  F   UNL A   1      37.774  33.852  39.890  1.00  0.00    -0.200 F 
ATOM     74  F   UNL A   1      38.953  36.308  39.993  1.00  0.00    -0.200 F 
ENDBRANCH  50  64
BRANCH  51  75
ATOM     75  C   UNL A   1      40.515  28.021  28.673  1.00  0.00     0.064 A 
ATOM     76  C   UNL A   1      39.825  26.803  28.624  1.00  0.00     0.173 A 
ATOM     77  C   UNL A   1      41.273  28.390  27.551  1.00  0.00     0.173 A 
ATOM     78  F   UNL A   1      39.105  26.400  29.682  1.00  0.00    -0.203 F 
ATOM     79  C   UNL A   1      39.891  25.986  27.499  1.00  0.00     0.198 A 
ATOM     80  C   UNL A   1      41.316  27.585  26.416  1.00  0.00     0.198 A 
ATOM     81  F   UNL A   1      41.950  29.548  27.549  1.00  0.00    -0.203 F 
ATOM     82  F   UNL A   1      39.244  24.812  27.488  1.00  0.00    -0.200 F 
ATOM     83  C   UNL A   1      40.627  26.380  26.392  1.00  0.00     0.200 A 
ATOM     84  F   UNL A   1      42.016  27.978  25.344  1.00  0.00    -0.200 F 
ATOM     85  F   UNL A   1      40.676  25.600  25.304  1.00  0.00    -0.200 F 
ENDBRANCH  51  75
BRANCH  63  86
ATOM     86  C   UNL A   1      43.966  28.404  34.721  1.00  0.00     0.064 A 
ATOM     87  C   UNL A   1      45.283  28.866  34.581  1.00  0.00     0.173 A 
ATOM     88  C   UNL A   1      43.754  27.232  35.463  1.00  0.00     0.173 A 
ATOM     89  F   UNL A   1      45.536  29.974  33.867  1.00  0.00    -0.203 F 
ATOM     90  C   UNL A   1      46.347  28.175  35.153  1.00  0.00     0.198 A 
ATOM     91  C   UNL A   1      44.818  26.558  36.055  1.00  0.00     0.198 A 
ATOM     92  F   UNL A   1      42.512  26.754  35.631  1.00  0.00    -0.203 F 
ATOM     93  F   UNL A   1      47.600  28.616  34.979  1.00  0.00    -0.200 F 
ATOM     94  C   UNL A   1      46.113  27.028  35.897  1.00  0.00     0.200 A 
ATOM     95  F   UNL A   1      44.589  25.457  36.785  1.00  0.00    -0.200 F 
ATOM     96  F   UNL A   1      47.138  26.373  36.459  1.00  0.00    -0.200 F 
ENDBRANCH  63  86
ENDBRANCH  37  38
ENDBRANCH  29  32
ENDBRANCH  27  28
ENDBRANCH  26  27
ENDBRANCH  25  26
ENDBRANCH   1  25
TORSDOF 17
ENDMDL
MODEL 3
REMARK VINA RESULT:     -12.0      5.315     10.991
REMARK SMILES CC[C@H](CNC(=O)[C@H]1CSc2ccccc21)C(=O)NCCCCCCNC(=O)c1ccc(-c2c3nc(c(-c4c(F)c(F)c(F)c(F)c4F)c4ccc([nH]4)c(-c4c(F)c(F)c(F)c(F)c4F)c4nc(c(-c5c(F)c(F)c(F)c(F)c5F)c5ccc2[nH]5)C=C4)C=C3)cc1
REMARK SMILES IDX 22 1 21 2 20 3 19 4 17 5 18 6 3 8 2 9 1 10 4 11 5 12 6 13
REMARK SMILES IDX 7 15 8 16 9 17 16 18 10 19 11 20 15 21 12 22 14 23 13 24
REMARK SMILES IDX 23 25 24 26 25 27 26 28 27 29 28 31 29 32 30 33 91 34 31 35
REMARK SMILES IDX 90 36 32 37 33 38 34 39 84 40 35 41 89 42 83 43 85 44 36 45
REMARK SMILES IDX 88 46 82 47 81 48 37 50 69 51 49 52 68 53 50 54 53 55 67 56
REMARK SMILES IDX 86 57 51 58 52 59 66 61 87 62 54 63 38 64 39 65 47 66 40 67
REMARK SMILES IDX 41 68 45 69 48 70 42 71 43 72 46 73 44 74 70 75 71 76 79 77
REMARK SMILES IDX 72 78 73 79 77 80 80 81 74 82 75 83 78 84 76 85 55 86 56 87
REMARK SMILES IDX 64 88 57 89 58 90 62 91 65 92 59 93 60 94 63 95 61 96
REMARK H PARENT 19 7 5 14 26 30 85 49 53 60
REMARK Flexibility Score: inf
ROOT
ATOM      1  C   UNL A   1      36.848  22.223  24.473  1.00  0.00     0.002 C 
ENDROOT
BRANCH   1   2
ATOM      2  C   UNL A   1      36.413  23.337  25.429  1.00  0.00     0.021 C 
BRANCH   2   3
ATOM      3  C   UNL A   1      35.162  24.106  25.007  1.00  0.00     0.116 C 
BRANCH   3   4
ATOM      4  N   UNL A   1      34.817  23.862  23.619  1.00  0.00    -0.356 N 
ATOM      5  C   UNL A   1      33.704  23.324  23.050  1.00  0.00     0.224 C 
ATOM      6  O   UNL A   1      33.649  23.305  21.818  1.00  0.00    -0.275 OA
ATOM      7  H   UNL A   1      35.510  24.133  22.976  1.00  0.00     0.163 HD
BRANCH   5   8
ATOM      8  C   UNL A   1      32.538  22.792  23.880  1.00  0.00     0.097 C 
BRANCH   8   9
ATOM      9  C   UNL A   1      32.462  21.255  23.703  1.00  0.00     0.012 C 
ATOM     10  C   UNL A   1      33.341  20.406  24.606  1.00  0.00     0.005 C 
ENDBRANCH   8   9
BRANCH   8  11
ATOM     11  C   UNL A   1      31.249  23.605  23.662  1.00  0.00     0.129 C 
BRANCH  11  12
ATOM     12  N   UNL A   1      30.650  24.091  24.906  1.00  0.00    -0.355 N 
ATOM     13  C   UNL A   1      30.347  25.361  25.320  1.00  0.00     0.228 C 
ATOM     14  H   UNL A   1      30.428  23.386  25.556  1.00  0.00     0.163 HD
ATOM     15  O   UNL A   1      29.606  25.480  26.297  1.00  0.00    -0.274 OA
BRANCH  13  16
ATOM     16  C   UNL A   1      30.961  26.561  24.615  1.00  0.00     0.120 C 
ATOM     17  C   UNL A   1      29.959  27.233  23.660  1.00  0.00     0.093 C 
ATOM     18  C   UNL A   1      31.412  27.651  25.568  1.00  0.00    -0.021 A 
ATOM     19  S   UNL A   1      30.524  28.956  23.457  1.00  0.00    -0.125 SA
ATOM     20  C   UNL A   1      31.295  28.944  25.048  1.00  0.00     0.011 A 
ATOM     21  C   UNL A   1      31.978  27.468  26.826  1.00  0.00     0.006 A 
ATOM     22  C   UNL A   1      31.741  30.052  25.757  1.00  0.00     0.015 A 
ATOM     23  C   UNL A   1      32.440  28.573  27.542  1.00  0.00     0.000 A 
ATOM     24  C   UNL A   1      32.323  29.861  27.010  1.00  0.00     0.001 A 
ENDBRANCH  13  16
ENDBRANCH  11  12
ENDBRANCH   8  11
ENDBRANCH   5   8
ENDBRANCH   3   4
ENDBRANCH   2   3
ENDBRANCH   1   2
BRANCH   1  25
ATOM     25  C   UNL A   1      36.827  20.809  25.060  1.00  0.00     0.002 C 
BRANCH  25  26
ATOM     26  C   UNL A   1      38.094  19.984  24.829  1.00  0.00     0.021 C 
BRANCH  26  27
ATOM     27  C   UNL A   1      39.241  20.281  25.787  1.00  0.00     0.116 C 
BRANCH  27  28
ATOM     28  N   UNL A   1      40.204  19.195  25.872  1.00  0.00    -0.352 N 
ATOM     29  C   UNL A   1      41.559  19.254  26.100  1.00  0.00     0.251 C 
ATOM     30  H   UNL A   1      39.835  18.291  25.746  1.00  0.00     0.163 HD
ATOM     31  O   UNL A   1      42.255  18.250  25.994  1.00  0.00    -0.269 OA
BRANCH  29  32
ATOM     32  C   UNL A   1      42.183  20.552  26.436  1.00  0.00     0.039 A 
ATOM     33  C   UNL A   1      42.288  20.966  27.765  1.00  0.00     0.014 A 
ATOM     34  C   UNL A   1      42.632  21.380  25.404  1.00  0.00     0.014 A 
ATOM     35  C   UNL A   1      42.679  22.270  28.050  1.00  0.00     0.010 A 
ATOM     36  C   UNL A   1      43.105  22.662  25.699  1.00  0.00     0.010 A 
ATOM     37  C   UNL A   1      43.082  23.136  27.020  1.00  0.00    -0.014 A 
BRANCH  37  38
ATOM     38  C   UNL A   1      43.462  24.535  27.349  1.00  0.00     0.031 A 
ATOM     39  C   UNL A   1      44.852  25.041  27.071  1.00  0.00     0.074 A 
ATOM     40  C   UNL A   1      42.529  25.372  27.843  1.00  0.00     0.049 A 
ATOM     41  N   UNL A   1      45.351  26.236  27.270  1.00  0.00    -0.248 NA
ATOM     42  C   UNL A   1      45.811  24.084  26.496  1.00  0.00     0.031 C 
ATOM     43  C   UNL A   1      41.145  25.003  28.140  1.00  0.00     0.029 A 
ATOM     44  N   UNL A   1      42.594  26.707  28.154  1.00  0.00    -0.354 N 
ATOM     45  C   UNL A   1      46.678  26.169  26.862  1.00  0.00     0.074 A 
ATOM     46  C   UNL A   1      46.918  24.810  26.431  1.00  0.00     0.031 C 
ATOM     47  C   UNL A   1      40.475  26.096  28.537  1.00  0.00     0.029 A 
ATOM     48  C   UNL A   1      41.397  27.227  28.581  1.00  0.00     0.049 A 
ATOM     49  H   UNL A   1      43.418  27.240  28.079  1.00  0.00     0.167 HD
ATOM     50  C   UNL A   1      47.604  27.157  26.836  1.00  0.00     0.037 A 
ATOM     51  C   UNL A   1      41.076  28.474  28.975  1.00  0.00     0.037 A 
ATOM     52  C   UNL A   1      47.357  28.516  27.243  1.00  0.00     0.049 A 
ATOM     53  C   UNL A   1      42.136  29.538  28.979  1.00  0.00     0.074 A 
ATOM     54  C   UNL A   1      48.230  29.590  27.234  1.00  0.00     0.029 A 
ATOM     55  N   UNL A   1      46.147  28.988  27.731  1.00  0.00    -0.354 N 
ATOM     56  N   UNL A   1      43.384  29.461  28.589  1.00  0.00    -0.248 NA
ATOM     57  C   UNL A   1      41.747  30.858  29.492  1.00  0.00     0.031 C 
ATOM     58  C   UNL A   1      47.560  30.703  27.753  1.00  0.00     0.029 A 
ATOM     59  C   UNL A   1      46.258  30.334  28.043  1.00  0.00     0.049 A 
ATOM     60  H   UNL A   1      45.332  28.447  27.839  1.00  0.00     0.167 HD
ATOM     61  C   UNL A   1      43.927  30.720  28.797  1.00  0.00     0.074 A 
ATOM     62  C   UNL A   1      42.866  31.551  29.330  1.00  0.00     0.031 C 
ATOM     63  C   UNL A   1      45.194  31.146  28.574  1.00  0.00     0.037 A 
BRANCH  50  64
ATOM     64  C   UNL A   1      48.983  26.814  26.352  1.00  0.00     0.064 A 
ATOM     65  C   UNL A   1      49.938  26.243  27.206  1.00  0.00     0.173 A 
ATOM     66  C   UNL A   1      49.329  26.988  25.003  1.00  0.00     0.173 A 
ATOM     67  F   UNL A   1      49.661  26.067  28.507  1.00  0.00    -0.203 F 
ATOM     68  C   UNL A   1      51.193  25.870  26.729  1.00  0.00     0.198 A 
ATOM     69  C   UNL A   1      50.575  26.591  24.525  1.00  0.00     0.198 A 
ATOM     70  F   UNL A   1      48.449  27.523  24.144  1.00  0.00    -0.203 F 
ATOM     71  F   UNL A   1      52.099  25.353  27.570  1.00  0.00    -0.200 F 
ATOM     72  C   UNL A   1      51.506  26.035  25.388  1.00  0.00     0.200 A 
ATOM     73  F   UNL A   1      50.871  26.739  23.226  1.00  0.00    -0.200 F 
ATOM     74  F   UNL A   1      52.708  25.661  24.929  1.00  0.00    -0.200 F 
ENDBRANCH  50  64
BRANCH  51  75
ATOM     75  C   UNL A   1      39.683  28.776  29.389  1.00  0.00     0.064 A 
ATOM     76  C   UNL A   1      38.754  29.284  28.471  1.00  0.00     0.173 A 
ATOM     77  C   UNL A   1      39.242  28.530  30.698  1.00  0.00     0.173 A 
ATOM     78  F   UNL A   1      39.136  29.553  27.213  1.00  0.00    -0.203 F 
ATOM     79  C   UNL A   1      37.438  29.537  28.847  1.00  0.00     0.198 A 
ATOM     80  C   UNL A   1      37.918  28.758  31.066  1.00  0.00     0.198 A 
ATOM     81  F   UNL A   1      40.092  28.042  31.613  1.00  0.00    -0.203 F 
ATOM     82  F   UNL A   1      36.576  30.049  27.957  1.00  0.00    -0.200 F 
ATOM     83  C   UNL A   1      37.017  29.265  30.140  1.00  0.00     0.200 A 
ATOM     84  F   UNL A   1      37.514  28.480  32.312  1.00  0.00    -0.200 F 
ATOM     85  F   UNL A   1      35.746  29.494  30.497  1.00  0.00    -0.200 F 
ENDBRANCH  51  75
BRANCH  63  86
ATOM     86  C   UNL A   1      45.508  32.577  28.895  1.00  0.00     0.064 A 
ATOM     87  C   UNL A   1      46.051  32.945  30.134  1.00  0.00     0.173 A 
ATOM     88  C   UNL A   1      45.326  33.581  27.931  1.00  0.00     0.173 A 
ATOM     89  F   UNL A   1      46.230  32.023  31.092  1.00  0.00    -0.203 F 
ATOM     90  C   UNL A   1      46.389  34.269  30.401  1.00  0.00     0.198 A 
ATOM     91  C   UNL A   1      45.688  34.898  28.193  1.00  0.00     0.198 A 
ATOM     92  F   UNL A   1      44.815  33.277  26.728  1.00  0.00    -0.203 F 
ATOM     93  F   UNL A   1      46.877  34.603  31.604  1.00  0.00    -0.200 F 
ATOM     94  C   UNL A   1      46.217  35.242  29.428  1.00  0.00     0.200 A 
ATOM     95  F   UNL A   1      45.533  35.835  27.247  1.00  0.00    -0.200 F 
ATOM     96  F   UNL A   1      46.556  36.513  29.683  1.00  0.00    -0.200 F 
ENDBRANCH  63  86
ENDBRANCH  37  38
ENDBRANCH  29  32
ENDBRANCH  27  28
ENDBRANCH  26  27
ENDBRANCH  25  26
ENDBRANCH   1  25
TORSDOF 17
ENDMDL
