MODEL 1
REMARK VINA RESULT:     -12.2      0.000      0.000
REMARK SMILES Cc1ncccc1NC(=O)NC[C@H]1CCC[C@H]1C(=O)NCCCCCCNC(=O)c1ccc(-c2c3nc(c(-c4c(F)c(F)c(F)c(F)c4F)c4ccc([nH]4)c(-c4c(F)c(F)c(F)c(F)c4F)c4nc(c(-c5c(F)c(F)c(F)c(F)c5F)c5ccc2[nH]5)C=C4)C=C3)cc1
REMARK SMILES IDX 23 1 22 2 21 3 20 4 18 5 19 6 17 8 13 9 14 10 15 11 16 12
REMARK SMILES IDX 12 13 11 14 8 15 9 16 10 18 7 20 1 21 2 22 3 23 4 24 6 25
REMARK SMILES IDX 5 26 24 27 25 28 26 29 27 30 28 31 29 33 30 34 31 35 92 36
REMARK SMILES IDX 32 37 91 38 33 39 34 40 35 41 85 42 36 43 90 44 84 45 86 46
REMARK SMILES IDX 37 47 89 48 83 49 82 50 38 52 70 53 50 54 69 55 51 56 54 57
REMARK SMILES IDX 68 58 87 59 52 60 53 61 67 63 88 64 55 65 39 66 40 67 48 68
REMARK SMILES IDX 41 69 42 70 46 71 49 72 43 73 44 74 47 75 45 76 71 77 72 78
REMARK SMILES IDX 80 79 73 80 74 81 78 82 81 83 75 84 76 85 79 86 77 87 56 88
REMARK SMILES IDX 57 89 65 90 58 91 59 92 63 93 66 94 60 95 61 96 64 97 62 98
REMARK H PARENT 20 7 8 17 11 19 27 32 86 51 54 62
REMARK Flexibility Score: inf
ROOT
ATOM      1  C   UNL A   1      34.755  32.787  28.060  1.00  0.00     0.002 C 
ENDROOT
BRANCH   1   2
ATOM      2  C   UNL A   1      33.600  31.782  28.069  1.00  0.00     0.021 C 
BRANCH   2   3
ATOM      3  C   UNL A   1      33.890  30.457  27.337  1.00  0.00     0.116 C 
BRANCH   3   4
ATOM      4  N   UNL A   1      32.858  29.464  27.626  1.00  0.00    -0.356 N 
ATOM      5  C   UNL A   1      32.506  28.214  27.278  1.00  0.00     0.223 C 
ATOM      6  O   UNL A   1      31.457  27.827  27.820  1.00  0.00    -0.275 OA
ATOM      7  H   UNL A   1      32.219  29.824  28.283  1.00  0.00     0.163 HD
BRANCH   5   8
ATOM      8  C   UNL A   1      33.175  27.256  26.296  1.00  0.00     0.083 C 
ATOM      9  C   UNL A   1      32.584  25.838  26.134  1.00  0.00     0.021 C 
ATOM     10  C   UNL A   1      33.599  25.244  25.146  1.00  0.00     0.006 C 
ATOM     11  C   UNL A   1      33.907  26.370  24.156  1.00  0.00     0.001 C 
ATOM     12  C   UNL A   1      33.641  27.690  24.907  1.00  0.00     0.014 C 
BRANCH   9  13
ATOM     13  C   UNL A   1      31.124  25.739  25.651  1.00  0.00     0.122 C 
BRANCH  13  14
ATOM     14  N   UNL A   1      30.365  24.762  26.408  1.00  0.00    -0.338 N 
ATOM     15  N   UNL A   1      31.108  22.500  26.679  1.00  0.00    -0.306 N 
ATOM     16  C   UNL A   1      30.306  23.533  26.866  1.00  0.00     0.319 C 
ATOM     17  H   UNL A   1      30.843  21.758  27.269  1.00  0.00     0.171 HD
ATOM     18  O   UNL A   1      29.347  23.329  27.627  1.00  0.00    -0.249 OA
ATOM     19  H   UNL A   1      29.542  25.212  26.702  1.00  0.00     0.165 HD
BRANCH  15  20
ATOM     20  C   UNL A   1      32.213  22.128  25.910  1.00  0.00     0.064 A 
ATOM     21  C   UNL A   1      33.684  22.217  27.999  1.00  0.00     0.069 C 
ATOM     22  C   UNL A   1      33.482  22.050  26.516  1.00  0.00     0.061 A 
ATOM     23  N   UNL A   1      34.614  21.730  25.832  1.00  0.00    -0.259 NA
ATOM     24  C   UNL A   1      34.496  21.457  24.520  1.00  0.00     0.111 A 
ATOM     25  C   UNL A   1      32.142  21.768  24.575  1.00  0.00     0.030 A 
ATOM     26  C   UNL A   1      33.290  21.448  23.856  1.00  0.00     0.022 A 
ENDBRANCH  15  20
ENDBRANCH  13  14
ENDBRANCH   9  13
ENDBRANCH   5   8
ENDBRANCH   3   4
ENDBRANCH   2   3
ENDBRANCH   1   2
BRANCH   1  27
ATOM     27  C   UNL A   1      34.596  33.971  29.016  1.00  0.00     0.002 C 
BRANCH  27  28
ATOM     28  C   UNL A   1      33.250  34.705  28.961  1.00  0.00     0.021 C 
BRANCH  28  29
ATOM     29  C   UNL A   1      33.281  36.185  29.337  1.00  0.00     0.116 C 
BRANCH  29  30
ATOM     30  N   UNL A   1      32.515  36.470  30.541  1.00  0.00    -0.352 N 
ATOM     31  C   UNL A   1      32.626  35.965  31.812  1.00  0.00     0.251 C 
ATOM     32  H   UNL A   1      31.799  37.135  30.424  1.00  0.00     0.163 HD
ATOM     33  O   UNL A   1      31.739  36.180  32.633  1.00  0.00    -0.269 OA
BRANCH  31  34
ATOM     34  C   UNL A   1      33.803  35.163  32.210  1.00  0.00     0.039 A 
ATOM     35  C   UNL A   1      33.610  33.850  32.651  1.00  0.00     0.014 A 
ATOM     36  C   UNL A   1      35.085  35.718  32.220  1.00  0.00     0.014 A 
ATOM     37  C   UNL A   1      34.703  33.078  33.054  1.00  0.00     0.010 A 
ATOM     38  C   UNL A   1      36.182  34.928  32.556  1.00  0.00     0.010 A 
ATOM     39  C   UNL A   1      36.002  33.605  32.988  1.00  0.00    -0.014 A 
BRANCH  39  40
ATOM     40  C   UNL A   1      37.187  32.806  33.394  1.00  0.00     0.031 A 
ATOM     41  C   UNL A   1      37.883  33.107  34.693  1.00  0.00     0.074 A 
ATOM     42  C   UNL A   1      37.684  31.871  32.565  1.00  0.00     0.049 A 
ATOM     43  N   UNL A   1      38.999  32.616  35.172  1.00  0.00    -0.248 NA
ATOM     44  C   UNL A   1      37.252  34.117  35.555  1.00  0.00     0.031 C 
ATOM     45  C   UNL A   1      37.120  31.508  31.265  1.00  0.00     0.029 A 
ATOM     46  N   UNL A   1      38.792  31.068  32.683  1.00  0.00    -0.354 N 
ATOM     47  C   UNL A   1      39.215  33.277  36.375  1.00  0.00     0.074 A 
ATOM     48  C   UNL A   1      38.143  34.235  36.529  1.00  0.00     0.031 C 
ATOM     49  C   UNL A   1      37.879  30.551  30.709  1.00  0.00     0.029 A 
ATOM     50  C   UNL A   1      39.005  30.261  31.592  1.00  0.00     0.049 A 
ATOM     51  H   UNL A   1      39.378  31.071  33.474  1.00  0.00     0.167 HD
ATOM     52  C   UNL A   1      40.209  33.088  37.276  1.00  0.00     0.037 A 
ATOM     53  C   UNL A   1      40.004  29.397  31.329  1.00  0.00     0.037 A 
ATOM     54  C   UNL A   1      41.260  32.115  37.129  1.00  0.00     0.049 A 
ATOM     55  C   UNL A   1      41.099  29.206  32.343  1.00  0.00     0.074 A 
ATOM     56  C   UNL A   1      42.281  31.806  38.010  1.00  0.00     0.029 A 
ATOM     57  N   UNL A   1      41.425  31.294  36.022  1.00  0.00    -0.354 N 
ATOM     58  N   UNL A   1      41.267  29.795  33.502  1.00  0.00    -0.248 NA
ATOM     59  C   UNL A   1      42.142  28.224  32.014  1.00  0.00     0.031 C 
ATOM     60  C   UNL A   1      43.090  30.831  37.418  1.00  0.00     0.029 A 
ATOM     61  C   UNL A   1      42.543  30.492  36.190  1.00  0.00     0.049 A 
ATOM     62  H   UNL A   1      40.835  31.283  35.234  1.00  0.00     0.167 HD
ATOM     63  C   UNL A   1      42.410  29.236  34.054  1.00  0.00     0.074 A 
ATOM     64  C   UNL A   1      42.894  28.253  33.106  1.00  0.00     0.031 C 
ATOM     65  C   UNL A   1      43.004  29.509  35.242  1.00  0.00     0.037 A 
BRANCH  52  66
ATOM     66  C   UNL A   1      40.207  33.961  38.499  1.00  0.00     0.064 A 
ATOM     67  C   UNL A   1      40.811  35.228  38.502  1.00  0.00     0.173 A 
ATOM     68  C   UNL A   1      39.583  33.531  39.680  1.00  0.00     0.173 A 
ATOM     69  F   UNL A   1      41.429  35.684  37.403  1.00  0.00    -0.203 F 
ATOM     70  C   UNL A   1      40.826  36.013  39.653  1.00  0.00     0.198 A 
ATOM     71  C   UNL A   1      39.571  34.333  40.819  1.00  0.00     0.198 A 
ATOM     72  F   UNL A   1      38.983  32.333  39.732  1.00  0.00    -0.203 F 
ATOM     73  F   UNL A   1      41.463  37.192  39.649  1.00  0.00    -0.200 F 
ATOM     74  C   UNL A   1      40.203  35.568  40.808  1.00  0.00     0.200 A 
ATOM     75  F   UNL A   1      38.954  33.908  41.931  1.00  0.00    -0.200 F 
ATOM     76  F   UNL A   1      40.218  36.324  41.914  1.00  0.00    -0.200 F 
ENDBRANCH  52  66
BRANCH  53  77
ATOM     77  C   UNL A   1      39.997  28.631  30.055  1.00  0.00     0.064 A 
ATOM     78  C   UNL A   1      40.599  29.150  28.902  1.00  0.00     0.173 A 
ATOM     79  C   UNL A   1      39.404  27.362  29.970  1.00  0.00     0.173 A 
ATOM     80  F   UNL A   1      41.160  30.367  28.930  1.00  0.00    -0.203 F 
ATOM     81  C   UNL A   1      40.599  28.434  27.706  1.00  0.00     0.198 A 
ATOM     82  C   UNL A   1      39.429  26.637  28.780  1.00  0.00     0.198 A 
ATOM     83  F   UNL A   1      38.819  26.819  31.047  1.00  0.00    -0.203 F 
ATOM     84  F   UNL A   1      41.151  28.970  26.608  1.00  0.00    -0.200 F 
ATOM     85  C   UNL A   1      40.021  27.176  27.648  1.00  0.00     0.200 A 
ATOM     86  F   UNL A   1      38.881  25.415  28.732  1.00  0.00    -0.200 F 
ATOM     87  F   UNL A   1      40.029  26.485  26.500  1.00  0.00    -0.200 F 
ENDBRANCH  53  77
BRANCH  65  88
ATOM     88  C   UNL A   1      44.218  28.707  35.610  1.00  0.00     0.064 A 
ATOM     89  C   UNL A   1      44.120  27.497  36.314  1.00  0.00     0.173 A 
ATOM     90  C   UNL A   1      45.494  29.132  35.208  1.00  0.00     0.173 A 
ATOM     91  F   UNL A   1      42.926  27.055  36.734  1.00  0.00    -0.203 F 
ATOM     92  C   UNL A   1      45.258  26.752  36.616  1.00  0.00     0.198 A 
ATOM     93  C   UNL A   1      46.625  28.370  35.486  1.00  0.00     0.198 A 
ATOM     94  F   UNL A   1      45.641  30.280  34.527  1.00  0.00    -0.203 F 
ATOM     95  F   UNL A   1      45.146  25.620  37.325  1.00  0.00    -0.200 F 
ATOM     96  C   UNL A   1      46.506  27.185  36.195  1.00  0.00     0.200 A 
ATOM     97  F   UNL A   1      47.828  28.782  35.066  1.00  0.00    -0.200 F 
ATOM     98  F   UNL A   1      47.599  26.460  36.478  1.00  0.00    -0.200 F 
ENDBRANCH  65  88
ENDBRANCH  39  40
ENDBRANCH  31  34
ENDBRANCH  29  30
ENDBRANCH  28  29
ENDBRANCH  27  28
ENDBRANCH   1  27
TORSDOF 16
ENDMDL
MODEL 2
REMARK VINA RESULT:     -12.0      1.668      7.505
REMARK SMILES Cc1ncccc1NC(=O)NC[C@H]1CCC[C@H]1C(=O)NCCCCCCNC(=O)c1ccc(-c2c3nc(c(-c4c(F)c(F)c(F)c(F)c4F)c4ccc([nH]4)c(-c4c(F)c(F)c(F)c(F)c4F)c4nc(c(-c5c(F)c(F)c(F)c(F)c5F)c5ccc2[nH]5)C=C4)C=C3)cc1
REMARK SMILES IDX 23 1 22 2 21 3 20 4 18 5 19 6 17 8 13 9 14 10 15 11 16 12
REMARK SMILES IDX 12 13 11 14 8 15 9 16 10 18 7 20 1 21 2 22 3 23 4 24 6 25
REMARK SMILES IDX 5 26 24 27 25 28 26 29 27 30 28 31 29 33 30 34 31 35 92 36
REMARK SMILES IDX 32 37 91 38 33 39 34 40 35 41 85 42 36 43 90 44 84 45 86 46
REMARK SMILES IDX 37 47 89 48 83 49 82 50 38 52 70 53 50 54 69 55 51 56 54 57
REMARK SMILES IDX 68 58 87 59 52 60 53 61 67 63 88 64 55 65 39 66 40 67 48 68
REMARK SMILES IDX 41 69 42 70 46 71 49 72 43 73 44 74 47 75 45 76 71 77 72 78
REMARK SMILES IDX 80 79 73 80 74 81 78 82 81 83 75 84 76 85 79 86 77 87 56 88
REMARK SMILES IDX 57 89 65 90 58 91 59 92 63 93 66 94 60 95 61 96 64 97 62 98
REMARK H PARENT 20 7 8 17 11 19 27 32 86 51 54 62
REMARK Flexibility Score: inf
ROOT
ATOM      1  C   UNL A   1      32.377  29.959  26.525  1.00  0.00     0.002 C 
ENDROOT
BRANCH   1   2
ATOM      2  C   UNL A   1      31.778  28.741  27.233  1.00  0.00     0.021 C 
BRANCH   2   3
ATOM      3  C   UNL A   1      31.774  27.446  26.399  1.00  0.00     0.116 C 
BRANCH   3   4
ATOM      4  N   UNL A   1      31.054  27.635  25.142  1.00  0.00    -0.356 N 
ATOM      5  C   UNL A   1      31.079  27.211  23.867  1.00  0.00     0.223 C 
ATOM      6  O   UNL A   1      30.216  27.745  23.150  1.00  0.00    -0.275 OA
ATOM      7  H   UNL A   1      30.319  28.277  25.269  1.00  0.00     0.163 HD
BRANCH   5   8
ATOM      8  C   UNL A   1      32.031  26.227  23.191  1.00  0.00     0.083 C 
ATOM      9  C   UNL A   1      32.163  24.806  23.783  1.00  0.00     0.021 C 
ATOM     10  C   UNL A   1      33.247  24.237  22.856  1.00  0.00     0.006 C 
ATOM     11  C   UNL A   1      32.902  24.763  21.460  1.00  0.00     0.001 C 
ATOM     12  C   UNL A   1      32.116  26.072  21.673  1.00  0.00     0.014 C 
BRANCH   9  13
ATOM     13  C   UNL A   1      30.884  23.948  23.835  1.00  0.00     0.122 C 
BRANCH  13  14
ATOM     14  N   UNL A   1      30.478  23.658  25.196  1.00  0.00    -0.338 N 
ATOM     15  N   UNL A   1      31.737  22.201  26.622  1.00  0.00    -0.306 N 
ATOM     16  C   UNL A   1      30.760  23.036  26.318  1.00  0.00     0.319 C 
ATOM     17  H   UNL A   1      31.731  22.013  27.588  1.00  0.00     0.171 HD
ATOM     18  O   UNL A   1      29.989  23.312  27.250  1.00  0.00    -0.249 OA
ATOM     19  H   UNL A   1      29.625  24.127  25.341  1.00  0.00     0.165 HD
BRANCH  15  20
ATOM     20  C   UNL A   1      32.776  21.498  26.006  1.00  0.00     0.064 A 
ATOM     21  C   UNL A   1      34.446  23.229  26.876  1.00  0.00     0.069 C 
ATOM     22  C   UNL A   1      34.086  22.015  26.060  1.00  0.00     0.061 A 
ATOM     23  N   UNL A   1      35.147  21.413  25.458  1.00  0.00    -0.259 NA
ATOM     24  C   UNL A   1      34.923  20.260  24.801  1.00  0.00     0.111 A 
ATOM     25  C   UNL A   1      32.619  20.275  25.377  1.00  0.00     0.030 A 
ATOM     26  C   UNL A   1      33.690  19.650  24.746  1.00  0.00     0.022 A 
ENDBRANCH  15  20
ENDBRANCH  13  14
ENDBRANCH   9  13
ENDBRANCH   5   8
ENDBRANCH   3   4
ENDBRANCH   2   3
ENDBRANCH   1   2
BRANCH   1  27
ATOM     27  C   UNL A   1      31.360  30.907  25.884  1.00  0.00     0.002 C 
BRANCH  27  28
ATOM     28  C   UNL A   1      31.264  32.307  26.501  1.00  0.00     0.021 C 
BRANCH  28  29
ATOM     29  C   UNL A   1      32.539  32.838  27.155  1.00  0.00     0.116 C 
BRANCH  29  30
ATOM     30  N   UNL A   1      32.393  34.205  27.630  1.00  0.00    -0.352 N 
ATOM     31  C   UNL A   1      33.008  34.863  28.667  1.00  0.00     0.251 C 
ATOM     32  H   UNL A   1      31.745  34.748  27.127  1.00  0.00     0.163 HD
ATOM     33  O   UNL A   1      32.583  35.953  29.035  1.00  0.00    -0.269 OA
BRANCH  31  34
ATOM     34  C   UNL A   1      34.183  34.274  29.348  1.00  0.00     0.039 A 
ATOM     35  C   UNL A   1      35.463  34.579  28.873  1.00  0.00     0.014 A 
ATOM     36  C   UNL A   1      34.028  33.370  30.401  1.00  0.00     0.014 A 
ATOM     37  C   UNL A   1      36.587  34.018  29.484  1.00  0.00     0.010 A 
ATOM     38  C   UNL A   1      35.151  32.865  31.053  1.00  0.00     0.010 A 
ATOM     39  C   UNL A   1      36.441  33.174  30.595  1.00  0.00    -0.014 A 
BRANCH  39  40
ATOM     40  C   UNL A   1      37.616  32.573  31.277  1.00  0.00     0.031 A 
ATOM     41  C   UNL A   1      38.361  31.439  30.627  1.00  0.00     0.074 A 
ATOM     42  C   UNL A   1      37.964  32.989  32.508  1.00  0.00     0.049 A 
ATOM     43  N   UNL A   1      39.328  30.697  31.104  1.00  0.00    -0.248 NA
ATOM     44  C   UNL A   1      37.939  31.073  29.267  1.00  0.00     0.031 C 
ATOM     45  C   UNL A   1      37.303  34.058  33.258  1.00  0.00     0.029 A 
ATOM     46  N   UNL A   1      38.949  32.547  33.356  1.00  0.00    -0.354 N 
ATOM     47  C   UNL A   1      39.610  29.763  30.116  1.00  0.00     0.074 A 
ATOM     48  C   UNL A   1      38.680  30.001  29.034  1.00  0.00     0.031 C 
ATOM     49  C   UNL A   1      37.904  34.193  34.450  1.00  0.00     0.029 A 
ATOM     50  C   UNL A   1      38.965  33.197  34.567  1.00  0.00     0.049 A 
ATOM     51  H   UNL A   1      39.584  31.833  33.120  1.00  0.00     0.167 HD
ATOM     52  C   UNL A   1      40.569  28.806  30.105  1.00  0.00     0.037 A 
ATOM     53  C   UNL A   1      39.738  33.000  35.652  1.00  0.00     0.037 A 
ATOM     54  C   UNL A   1      41.508  28.590  31.176  1.00  0.00     0.049 A 
ATOM     55  C   UNL A   1      40.794  31.929  35.619  1.00  0.00     0.074 A 
ATOM     56  C   UNL A   1      42.553  27.686  31.239  1.00  0.00     0.029 A 
ATOM     57  N   UNL A   1      41.511  29.290  32.375  1.00  0.00    -0.354 N 
ATOM     58  N   UNL A   1      41.090  31.086  34.659  1.00  0.00    -0.248 NA
ATOM     59  C   UNL A   1      41.629  31.785  36.820  1.00  0.00     0.031 C 
ATOM     60  C   UNL A   1      43.159  27.806  32.494  1.00  0.00     0.029 A 
ATOM     61  C   UNL A   1      42.528  28.823  33.192  1.00  0.00     0.049 A 
ATOM     62  H   UNL A   1      40.884  30.011  32.609  1.00  0.00     0.167 HD
ATOM     63  C   UNL A   1      42.161  30.336  35.125  1.00  0.00     0.074 A 
ATOM     64  C   UNL A   1      42.470  30.828  36.452  1.00  0.00     0.031 C 
ATOM     65  C   UNL A   1      42.831  29.333  34.506  1.00  0.00     0.037 A 
BRANCH  52  66
ATOM     66  C   UNL A   1      40.642  27.915  28.898  1.00  0.00     0.064 A 
ATOM     67  C   UNL A   1      41.449  28.233  27.794  1.00  0.00     0.173 A 
ATOM     68  C   UNL A   1      39.906  26.722  28.848  1.00  0.00     0.173 A 
ATOM     69  F   UNL A   1      42.167  29.366  27.786  1.00  0.00    -0.203 F 
ATOM     70  C   UNL A   1      41.484  27.411  26.670  1.00  0.00     0.198 A 
ATOM     71  C   UNL A   1      39.969  25.885  27.736  1.00  0.00     0.198 A 
ATOM     72  F   UNL A   1      39.125  26.364  29.878  1.00  0.00    -0.203 F 
ATOM     73  F   UNL A   1      42.213  27.768  25.604  1.00  0.00    -0.200 F 
ATOM     74  C   UNL A   1      40.748  26.236  26.644  1.00  0.00     0.200 A 
ATOM     75  F   UNL A   1      39.269  24.742  27.718  1.00  0.00    -0.200 F 
ATOM     76  F   UNL A   1      40.782  25.447  25.562  1.00  0.00    -0.200 F 
ENDBRANCH  52  66
BRANCH  53  77
ATOM     77  C   UNL A   1      39.552  33.857  36.852  1.00  0.00     0.064 A 
ATOM     78  C   UNL A   1      38.752  33.432  37.920  1.00  0.00     0.173 A 
ATOM     79  C   UNL A   1      40.181  35.106  36.962  1.00  0.00     0.173 A 
ATOM     80  F   UNL A   1      38.114  32.254  37.851  1.00  0.00    -0.203 F 
ATOM     81  C   UNL A   1      38.577  34.229  39.050  1.00  0.00     0.198 A 
ATOM     82  C   UNL A   1      40.027  35.889  38.104  1.00  0.00     0.198 A 
ATOM     83  F   UNL A   1      40.962  35.556  35.969  1.00  0.00    -0.203 F 
ATOM     84  F   UNL A   1      37.777  33.814  40.042  1.00  0.00    -0.200 F 
ATOM     85  C   UNL A   1      39.220  35.453  39.144  1.00  0.00     0.200 A 
ATOM     86  F   UNL A   1      40.662  37.066  38.197  1.00  0.00    -0.200 F 
ATOM     87  F   UNL A   1      39.059  36.216  40.234  1.00  0.00    -0.200 F 
ENDBRANCH  53  77
BRANCH  65  88
ATOM     88  C   UNL A   1      43.995  28.726  35.234  1.00  0.00     0.064 A 
ATOM     89  C   UNL A   1      43.841  27.619  36.081  1.00  0.00     0.173 A 
ATOM     90  C   UNL A   1      45.290  29.231  35.039  1.00  0.00     0.173 A 
ATOM     91  F   UNL A   1      42.622  27.109  36.313  1.00  0.00    -0.203 F 
ATOM     92  C   UNL A   1      44.940  27.051  36.721  1.00  0.00     0.198 A 
ATOM     93  C   UNL A   1      46.390  28.642  35.657  1.00  0.00     0.198 A 
ATOM     94  F   UNL A   1      45.492  30.285  34.233  1.00  0.00    -0.203 F 
ATOM     95  F   UNL A   1      44.766  26.019  37.559  1.00  0.00    -0.200 F 
ATOM     96  C   UNL A   1      46.213  27.557  36.502  1.00  0.00     0.200 A 
ATOM     97  F   UNL A   1      47.620  29.123  35.432  1.00  0.00    -0.200 F 
ATOM     98  F   UNL A   1      47.271  27.001  37.110  1.00  0.00    -0.200 F 
ENDBRANCH  65  88
ENDBRANCH  39  40
ENDBRANCH  31  34
ENDBRANCH  29  30
ENDBRANCH  28  29
ENDBRANCH  27  28
ENDBRANCH   1  27
TORSDOF 16
ENDMDL
MODEL 3
REMARK VINA RESULT:     -11.9      6.150     10.849
REMARK SMILES Cc1ncccc1NC(=O)NC[C@H]1CCC[C@H]1C(=O)NCCCCCCNC(=O)c1ccc(-c2c3nc(c(-c4c(F)c(F)c(F)c(F)c4F)c4ccc([nH]4)c(-c4c(F)c(F)c(F)c(F)c4F)c4nc(c(-c5c(F)c(F)c(F)c(F)c5F)c5ccc2[nH]5)C=C4)C=C3)cc1
REMARK SMILES IDX 23 1 22 2 21 3 20 4 18 5 19 6 17 8 13 9 14 10 15 11 16 12
REMARK SMILES IDX 12 13 11 14 8 15 9 16 10 18 7 20 1 21 2 22 3 23 4 24 6 25
REMARK SMILES IDX 5 26 24 27 25 28 26 29 27 30 28 31 29 33 30 34 31 35 92 36
REMARK SMILES IDX 32 37 91 38 33 39 34 40 35 41 85 42 36 43 90 44 84 45 86 46
REMARK SMILES IDX 37 47 89 48 83 49 82 50 38 52 70 53 50 54 69 55 51 56 54 57
REMARK SMILES IDX 68 58 87 59 52 60 53 61 67 63 88 64 55 65 39 66 40 67 48 68
REMARK SMILES IDX 41 69 42 70 46 71 49 72 43 73 44 74 47 75 45 76 71 77 72 78
REMARK SMILES IDX 80 79 73 80 74 81 78 82 81 83 75 84 76 85 79 86 77 87 56 88
REMARK SMILES IDX 57 89 65 90 58 91 59 92 63 93 66 94 60 95 61 96 64 97 62 98
REMARK H PARENT 20 7 8 17 11 19 27 32 86 51 54 62
REMARK Flexibility Score: inf
ROOT
ATOM      1  C   UNL A   1      35.988  21.498  24.778  1.00  0.00     0.002 C 
ENDROOT
BRANCH   1   2
ATOM      2  C   UNL A   1      35.155  20.359  25.373  1.00  0.00     0.021 C 
BRANCH   2   3
ATOM      3  C   UNL A   1      33.960  19.912  24.509  1.00  0.00     0.116 C 
BRANCH   3   4
ATOM      4  N   UNL A   1      32.713  20.487  25.005  1.00  0.00    -0.356 N 
ATOM      5  C   UNL A   1      32.190  21.679  25.341  1.00  0.00     0.223 C 
ATOM      6  O   UNL A   1      31.024  21.607  25.766  1.00  0.00    -0.275 OA
ATOM      7  H   UNL A   1      32.043  19.777  25.133  1.00  0.00     0.163 HD
BRANCH   5   8
ATOM      8  C   UNL A   1      32.836  23.062  25.318  1.00  0.00     0.083 C 
ATOM      9  C   UNL A   1      33.132  23.713  23.949  1.00  0.00     0.021 C 
ATOM     10  C   UNL A   1      33.826  25.001  24.417  1.00  0.00     0.006 C 
ATOM     11  C   UNL A   1      33.038  25.460  25.647  1.00  0.00     0.001 C 
ATOM     12  C   UNL A   1      32.397  24.193  26.248  1.00  0.00     0.014 C 
BRANCH   9  13
ATOM     13  C   UNL A   1      31.930  23.965  23.018  1.00  0.00     0.122 C 
BRANCH  13  14
ATOM     14  N   UNL A   1      32.332  24.549  21.754  1.00  0.00    -0.338 N 
ATOM     15  N   UNL A   1      32.483  26.918  21.432  1.00  0.00    -0.306 N 
ATOM     16  C   UNL A   1      32.594  25.648  21.086  1.00  0.00     0.319 C 
ATOM     17  H   UNL A   1      32.883  27.492  20.739  1.00  0.00     0.171 HD
ATOM     18  O   UNL A   1      33.052  25.447  19.950  1.00  0.00    -0.249 OA
ATOM     19  H   UNL A   1      32.464  23.801  21.128  1.00  0.00     0.165 HD
BRANCH  15  20
ATOM     20  C   UNL A   1      31.978  27.705  22.470  1.00  0.00     0.064 A 
ATOM     21  C   UNL A   1      34.313  28.676  22.855  1.00  0.00     0.069 C 
ATOM     22  C   UNL A   1      32.860  28.513  23.216  1.00  0.00     0.061 A 
ATOM     23  N   UNL A   1      32.457  29.281  24.264  1.00  0.00    -0.259 NA
ATOM     24  C   UNL A   1      31.148  29.274  24.578  1.00  0.00     0.111 A 
ATOM     25  C   UNL A   1      30.636  27.792  22.794  1.00  0.00     0.030 A 
ATOM     26  C   UNL A   1      30.205  28.564  23.869  1.00  0.00     0.022 A 
ENDBRANCH  15  20
ENDBRANCH  13  14
ENDBRANCH   9  13
ENDBRANCH   5   8
ENDBRANCH   3   4
ENDBRANCH   2   3
ENDBRANCH   1   2
BRANCH   1  27
ATOM     27  C   UNL A   1      37.378  21.096  24.278  1.00  0.00     0.002 C 
BRANCH  27  28
ATOM     28  C   UNL A   1      37.988  19.845  24.920  1.00  0.00     0.021 C 
BRANCH  28  29
ATOM     29  C   UNL A   1      38.992  20.094  26.045  1.00  0.00     0.116 C 
BRANCH  29  30
ATOM     30  N   UNL A   1      40.131  19.191  25.985  1.00  0.00    -0.352 N 
ATOM     31  C   UNL A   1      41.480  19.448  26.012  1.00  0.00     0.251 C 
ATOM     32  H   UNL A   1      39.897  18.238  25.912  1.00  0.00     0.163 HD
ATOM     33  O   UNL A   1      42.276  18.558  25.731  1.00  0.00    -0.269 OA
BRANCH  31  34
ATOM     34  C   UNL A   1      41.989  20.788  26.377  1.00  0.00     0.039 A 
ATOM     35  C   UNL A   1      42.248  21.070  27.722  1.00  0.00     0.014 A 
ATOM     36  C   UNL A   1      42.143  21.789  25.414  1.00  0.00     0.014 A 
ATOM     37  C   UNL A   1      42.709  22.336  28.096  1.00  0.00     0.010 A 
ATOM     38  C   UNL A   1      42.666  23.028  25.778  1.00  0.00     0.010 A 
ATOM     39  C   UNL A   1      42.942  23.318  27.123  1.00  0.00    -0.014 A 
BRANCH  39  40
ATOM     40  C   UNL A   1      43.446  24.669  27.485  1.00  0.00     0.031 A 
ATOM     41  C   UNL A   1      42.499  25.695  28.043  1.00  0.00     0.074 A 
ATOM     42  C   UNL A   1      44.727  24.997  27.239  1.00  0.00     0.049 A 
ATOM     43  N   UNL A   1      42.706  26.962  28.305  1.00  0.00    -0.248 NA
ATOM     44  C   UNL A   1      41.127  25.242  28.315  1.00  0.00     0.031 C 
ATOM     45  C   UNL A   1      45.736  24.101  26.672  1.00  0.00     0.029 A 
ATOM     46  N   UNL A   1      45.396  26.183  27.416  1.00  0.00    -0.354 N 
ATOM     47  C   UNL A   1      41.487  27.460  28.746  1.00  0.00     0.074 A 
ATOM     48  C   UNL A   1      40.535  26.372  28.670  1.00  0.00     0.031 C 
ATOM     49  C   UNL A   1      46.896  24.766  26.553  1.00  0.00     0.029 A 
ATOM     50  C   UNL A   1      46.704  26.144  26.998  1.00  0.00     0.049 A 
ATOM     51  H   UNL A   1      44.979  26.985  27.805  1.00  0.00     0.167 HD
ATOM     52  C   UNL A   1      41.192  28.705  29.190  1.00  0.00     0.037 A 
ATOM     53  C   UNL A   1      47.637  27.114  26.962  1.00  0.00     0.037 A 
ATOM     54  C   UNL A   1      42.150  29.777  29.286  1.00  0.00     0.049 A 
ATOM     55  C   UNL A   1      47.288  28.491  27.457  1.00  0.00     0.074 A 
ATOM     56  C   UNL A   1      41.966  31.058  29.775  1.00  0.00     0.029 A 
ATOM     57  N   UNL A   1      43.474  29.689  28.880  1.00  0.00    -0.354 N 
ATOM     58  N   UNL A   1      46.147  28.939  27.923  1.00  0.00    -0.248 NA
ATOM     59  C   UNL A   1      48.358  29.498  27.426  1.00  0.00     0.031 C 
ATOM     60  C   UNL A   1      43.167  31.759  29.623  1.00  0.00     0.029 A 
ATOM     61  C   UNL A   1      44.114  30.900  29.090  1.00  0.00     0.049 A 
ATOM     62  H   UNL A   1      43.896  28.886  28.500  1.00  0.00     0.167 HD
ATOM     63  C   UNL A   1      46.368  30.264  28.270  1.00  0.00     0.074 A 
ATOM     64  C   UNL A   1      47.756  30.548  27.968  1.00  0.00     0.031 C 
ATOM     65  C   UNL A   1      45.501  31.163  28.796  1.00  0.00     0.037 A 
BRANCH  52  66
ATOM     66  C   UNL A   1      39.771  28.975  29.597  1.00  0.00     0.064 A 
ATOM     67  C   UNL A   1      39.330  28.773  30.915  1.00  0.00     0.173 A 
ATOM     68  C   UNL A   1      38.841  29.455  28.663  1.00  0.00     0.173 A 
ATOM     69  F   UNL A   1      40.176  28.307  31.846  1.00  0.00    -0.203 F 
ATOM     70  C   UNL A   1      38.003  29.000  31.270  1.00  0.00     0.198 A 
ATOM     71  C   UNL A   1      37.522  29.713  29.030  1.00  0.00     0.198 A 
ATOM     72  F   UNL A   1      39.209  29.675  27.393  1.00  0.00    -0.203 F 
ATOM     73  F   UNL A   1      37.592  28.739  32.519  1.00  0.00    -0.200 F 
ATOM     74  C   UNL A   1      37.102  29.474  30.330  1.00  0.00     0.200 A 
ATOM     75  F   UNL A   1      36.656  30.187  28.123  1.00  0.00    -0.200 F 
ATOM     76  F   UNL A   1      35.825  29.692  30.673  1.00  0.00    -0.200 F 
ENDBRANCH  52  66
BRANCH  53  77
ATOM     77  C   UNL A   1      49.001  26.804  26.459  1.00  0.00     0.064 A 
ATOM     78  C   UNL A   1      49.977  26.272  27.312  1.00  0.00     0.173 A 
ATOM     79  C   UNL A   1      49.350  27.016  25.117  1.00  0.00     0.173 A 
ATOM     80  F   UNL A   1      49.696  26.071  28.607  1.00  0.00    -0.203 F 
ATOM     81  C   UNL A   1      51.256  25.975  26.845  1.00  0.00     0.198 A 
ATOM     82  C   UNL A   1      50.621  26.693  24.646  1.00  0.00     0.198 A 
ATOM     83  F   UNL A   1      48.450  27.518  24.259  1.00  0.00    -0.203 F 
ATOM     84  F   UNL A   1      52.182  25.501  27.691  1.00  0.00    -0.200 F 
ATOM     85  C   UNL A   1      51.575  26.179  25.511  1.00  0.00     0.200 A 
ATOM     86  F   UNL A   1      50.920  26.878  23.353  1.00  0.00    -0.200 F 
ATOM     87  F   UNL A   1      52.802  25.885  25.061  1.00  0.00    -0.200 F 
ENDBRANCH  53  77
BRANCH  65  88
ATOM     88  C   UNL A   1      46.032  32.529  29.122  1.00  0.00     0.064 A 
ATOM     89  C   UNL A   1      46.625  32.815  30.360  1.00  0.00     0.173 A 
ATOM     90  C   UNL A   1      45.990  33.550  28.160  1.00  0.00     0.173 A 
ATOM     91  F   UNL A   1      46.675  31.878  31.318  1.00  0.00    -0.203 F 
ATOM     92  C   UNL A   1      47.141  34.081  30.630  1.00  0.00     0.198 A 
ATOM     93  C   UNL A   1      46.533  34.805  28.423  1.00  0.00     0.198 A 
ATOM     94  F   UNL A   1      45.439  33.325  26.958  1.00  0.00    -0.203 F 
ATOM     95  F   UNL A   1      47.666  34.345  31.834  1.00  0.00    -0.200 F 
ATOM     96  C   UNL A   1      47.102  35.071  29.659  1.00  0.00     0.200 A 
ATOM     97  F   UNL A   1      46.509  35.755  27.478  1.00  0.00    -0.200 F 
ATOM     98  F   UNL A   1      47.610  36.285  29.916  1.00  0.00    -0.200 F 
ENDBRANCH  65  88
ENDBRANCH  39  40
ENDBRANCH  31  34
ENDBRANCH  29  30
ENDBRANCH  28  29
ENDBRANCH  27  28
ENDBRANCH   1  27
TORSDOF 16
ENDMDL
