MODEL 1
REMARK VINA RESULT:     -12.0      0.000      0.000
REMARK SMILES C[C@H](NC(=O)c1c(C(=O)NCCCCCCNC(=O)c2ccc(-c3c4nc(c(-c5c(F)c(F)c(F)c(F)c5F)c5ccc([nH]5)c(-c5c(F)c(F)c(F)c(F)c5F)c5nc(c(-c6c(F)c(F)c(F)c(F)c6F)c6ccc3[nH]6)C=C5)C=C4)cc2)cnn1C)[C@]12C[C@H]3C[C@H](C[C@H](C3)C1)C2
REMARK SMILES IDX 13 1 12 2 11 3 10 4 8 5 9 6 7 8 6 9 85 10 83 11 84 12 86 13
REMARK SMILES IDX 4 14 3 15 5 17 2 18 1 19 87 20 88 21 95 22 96 23 89 24 93 25
REMARK SMILES IDX 91 26 90 27 94 28 92 29 14 30 15 31 16 32 17 33 18 34 19 36
REMARK SMILES IDX 20 37 21 38 82 39 22 40 81 41 23 42 24 43 25 44 75 45 26 46
REMARK SMILES IDX 80 47 74 48 76 49 27 50 79 51 73 52 72 53 28 55 60 56 40 57
REMARK SMILES IDX 59 58 41 59 44 60 58 61 77 62 42 63 43 64 57 66 78 67 45 68
REMARK SMILES IDX 29 69 30 70 38 71 31 72 32 73 36 74 39 75 33 76 34 77 37 78
REMARK SMILES IDX 35 79 61 80 62 81 70 82 63 83 64 84 68 85 71 86 65 87 66 88
REMARK SMILES IDX 69 89 67 90 46 91 47 92 55 93 48 94 49 95 53 96 56 97 50 98
REMARK SMILES IDX 51 99 54 100 52 101
REMARK H PARENT 10 7 3 16 17 35 76 54 44 65
REMARK Flexibility Score: inf
ROOT
ATOM      1  C   UNL A   1      34.623  32.517  29.235  1.00  0.00     0.002 C 
ENDROOT
BRANCH   1   2
ATOM      2  C   UNL A   1      35.080  31.592  28.108  1.00  0.00     0.021 C 
BRANCH   2   3
ATOM      3  C   UNL A   1      33.983  30.963  27.253  1.00  0.00     0.116 C 
BRANCH   3   4
ATOM      4  N   UNL A   1      34.143  29.541  27.088  1.00  0.00    -0.352 N 
ATOM      5  C   UNL A   1      33.622  28.612  26.229  1.00  0.00     0.255 C 
ATOM      6  O   UNL A   1      34.020  27.460  26.435  1.00  0.00    -0.269 OA
ATOM      7  H   UNL A   1      34.767  29.149  27.740  1.00  0.00     0.163 HD
BRANCH   5   8
ATOM      8  C   UNL A   1      32.662  28.849  25.151  1.00  0.00     0.090 A 
ATOM      9  C   UNL A   1      32.545  28.530  23.798  1.00  0.00     0.138 A 
ATOM     10  N   UNL A   1      31.297  28.968  23.412  1.00  0.00    -0.262 N 
ATOM     11  C   UNL A   1      31.456  29.572  25.406  1.00  0.00     0.149 A 
ATOM     12  N   UNL A   1      30.657  29.680  24.348  1.00  0.00    -0.180 NA
ATOM     13  C   UNL A   1      30.621  28.731  22.156  1.00  0.00     0.174 C 
BRANCH   9  14
ATOM     14  C   UNL A   1      33.373  27.799  22.893  1.00  0.00     0.270 C 
ATOM     15  N   UNL A   1      33.368  26.427  22.977  1.00  0.00    -0.348 N 
ATOM     16  H   UNL A   1      34.071  25.975  22.457  1.00  0.00     0.164 HD
ATOM     17  O   UNL A   1      34.093  28.333  22.054  1.00  0.00    -0.267 OA
BRANCH  15  18
ATOM     18  C   UNL A   1      32.470  25.526  23.724  1.00  0.00     0.085 C 
ATOM     19  C   UNL A   1      31.314  25.095  22.813  1.00  0.00     0.031 C 
BRANCH  18  20
ATOM     20  C   UNL A   1      33.250  24.323  24.369  1.00  0.00    -0.009 C 
ATOM     21  C   UNL A   1      32.817  24.092  25.849  1.00  0.00     0.012 C 
ATOM     22  C   UNL A   1      34.773  24.643  24.372  1.00  0.00     0.012 C 
ATOM     23  C   UNL A   1      33.046  22.977  23.614  1.00  0.00     0.012 C 
ATOM     24  C   UNL A   1      33.624  22.962  26.506  1.00  0.00    -0.010 C 
ATOM     25  C   UNL A   1      35.580  23.511  25.028  1.00  0.00    -0.010 C 
ATOM     26  C   UNL A   1      33.855  21.842  24.269  1.00  0.00    -0.010 C 
ATOM     27  C   UNL A   1      33.396  21.660  25.721  1.00  0.00     0.007 C 
ATOM     28  C   UNL A   1      35.114  23.325  26.480  1.00  0.00     0.007 C 
ATOM     29  C   UNL A   1      35.349  22.207  24.249  1.00  0.00     0.007 C 
ENDBRANCH  18  20
ENDBRANCH  15  18
ENDBRANCH   9  14
ENDBRANCH   5   8
ENDBRANCH   3   4
ENDBRANCH   2   3
ENDBRANCH   1   2
BRANCH   1  30
ATOM     30  C   UNL A   1      34.696  34.022  28.965  1.00  0.00     0.002 C 
BRANCH  30  31
ATOM     31  C   UNL A   1      33.369  34.778  28.860  1.00  0.00     0.021 C 
BRANCH  31  32
ATOM     32  C   UNL A   1      33.307  36.161  29.505  1.00  0.00     0.116 C 
BRANCH  32  33
ATOM     33  N   UNL A   1      32.379  36.242  30.614  1.00  0.00    -0.352 N 
ATOM     34  C   UNL A   1      32.492  35.761  31.896  1.00  0.00     0.251 C 
ATOM     35  H   UNL A   1      31.538  36.715  30.420  1.00  0.00     0.163 HD
ATOM     36  O   UNL A   1      31.548  35.875  32.674  1.00  0.00    -0.269 OA
BRANCH  34  37
ATOM     37  C   UNL A   1      33.723  35.071  32.349  1.00  0.00     0.039 A 
ATOM     38  C   UNL A   1      33.602  33.771  32.852  1.00  0.00     0.014 A 
ATOM     39  C   UNL A   1      34.976  35.691  32.326  1.00  0.00     0.014 A 
ATOM     40  C   UNL A   1      34.737  33.070  33.270  1.00  0.00     0.010 A 
ATOM     41  C   UNL A   1      36.116  34.978  32.706  1.00  0.00     0.010 A 
ATOM     42  C   UNL A   1      36.006  33.660  33.174  1.00  0.00    -0.014 A 
BRANCH  42  43
ATOM     43  C   UNL A   1      37.226  32.903  33.552  1.00  0.00     0.031 A 
ATOM     44  C   UNL A   1      37.917  33.175  34.856  1.00  0.00     0.074 A 
ATOM     45  C   UNL A   1      37.739  31.998  32.698  1.00  0.00     0.049 A 
ATOM     46  N   UNL A   1      39.036  32.675  35.317  1.00  0.00    -0.248 NA
ATOM     47  C   UNL A   1      37.274  34.145  35.754  1.00  0.00     0.031 C 
ATOM     48  C   UNL A   1      37.177  31.654  31.392  1.00  0.00     0.029 A 
ATOM     49  N   UNL A   1      38.857  31.208  32.800  1.00  0.00    -0.354 N 
ATOM     50  C   UNL A   1      39.246  33.287  36.544  1.00  0.00     0.074 A 
ATOM     51  C   UNL A   1      38.142  34.202  36.755  1.00  0.00     0.031 C 
ATOM     52  C   UNL A   1      37.945  30.714  30.818  1.00  0.00     0.029 A 
ATOM     53  C   UNL A   1      39.066  30.409  31.704  1.00  0.00     0.049 A 
ATOM     54  H   UNL A   1      39.452  31.214  33.583  1.00  0.00     0.167 HD
ATOM     55  C   UNL A   1      40.263  33.100  37.418  1.00  0.00     0.037 A 
ATOM     56  C   UNL A   1      40.053  29.534  31.438  1.00  0.00     0.037 A 
ATOM     57  C   UNL A   1      41.343  32.168  37.237  1.00  0.00     0.049 A 
ATOM     58  C   UNL A   1      41.154  29.325  32.438  1.00  0.00     0.074 A 
ATOM     59  C   UNL A   1      42.394  31.884  38.093  1.00  0.00     0.029 A 
ATOM     60  N   UNL A   1      41.505  31.359  36.123  1.00  0.00    -0.354 N 
ATOM     61  N   UNL A   1      41.333  29.901  33.599  1.00  0.00    -0.248 NA
ATOM     62  C   UNL A   1      42.192  28.344  32.085  1.00  0.00     0.031 C 
ATOM     63  C   UNL A   1      43.200  30.912  37.491  1.00  0.00     0.029 A 
ATOM     64  C   UNL A   1      42.642  30.580  36.268  1.00  0.00     0.049 A 
ATOM     65  H   UNL A   1      40.902  31.340  35.346  1.00  0.00     0.167 HD
ATOM     66  C   UNL A   1      42.494  29.352  34.121  1.00  0.00     0.074 A 
ATOM     67  C   UNL A   1      42.976  28.387  33.154  1.00  0.00     0.031 C 
ATOM     68  C   UNL A   1      43.106  29.625  35.298  1.00  0.00     0.037 A 
BRANCH  55  69
ATOM     69  C   UNL A   1      40.259  33.935  38.659  1.00  0.00     0.064 A 
ATOM     70  C   UNL A   1      39.601  33.509  39.821  1.00  0.00     0.173 A 
ATOM     71  C   UNL A   1      40.948  35.154  38.695  1.00  0.00     0.173 A 
ATOM     72  F   UNL A   1      38.919  32.354  39.825  1.00  0.00    -0.203 F 
ATOM     73  C   UNL A   1      39.624  34.285  40.977  1.00  0.00     0.198 A 
ATOM     74  C   UNL A   1      40.980  35.922  39.856  1.00  0.00     0.198 A 
ATOM     75  F   UNL A   1      41.591  35.601  37.605  1.00  0.00    -0.203 F 
ATOM     76  F   UNL A   1      38.968  33.874  42.071  1.00  0.00    -0.200 F 
ATOM     77  C   UNL A   1      40.316  35.487  40.994  1.00  0.00     0.200 A 
ATOM     78  F   UNL A   1      41.649  37.083  39.873  1.00  0.00    -0.200 F 
ATOM     79  F   UNL A   1      40.336  36.233  42.108  1.00  0.00    -0.200 F 
ENDBRANCH  55  69
BRANCH  56  80
ATOM     80  C   UNL A   1      40.037  28.778  30.165  1.00  0.00     0.064 A 
ATOM     81  C   UNL A   1      40.616  29.315  29.008  1.00  0.00     0.173 A 
ATOM     82  C   UNL A   1      39.454  27.506  30.084  1.00  0.00     0.173 A 
ATOM     83  F   UNL A   1      41.165  30.538  29.039  1.00  0.00    -0.203 F 
ATOM     84  C   UNL A   1      40.609  28.605  27.810  1.00  0.00     0.198 A 
ATOM     85  C   UNL A   1      39.460  26.793  28.889  1.00  0.00     0.198 A 
ATOM     86  F   UNL A   1      38.887  26.959  31.169  1.00  0.00    -0.203 F 
ATOM     87  F   UNL A   1      41.150  29.145  26.710  1.00  0.00    -0.200 F 
ATOM     88  C   UNL A   1      40.034  27.343  27.753  1.00  0.00     0.200 A 
ATOM     89  F   UNL A   1      38.906  25.574  28.836  1.00  0.00    -0.200 F 
ATOM     90  F   UNL A   1      40.029  26.660  26.600  1.00  0.00    -0.200 F 
ENDBRANCH  56  80
BRANCH  68  91
ATOM     91  C   UNL A   1      44.356  28.864  35.608  1.00  0.00     0.064 A 
ATOM     92  C   UNL A   1      45.613  29.351  35.224  1.00  0.00     0.173 A 
ATOM     93  C   UNL A   1      44.298  27.661  36.324  1.00  0.00     0.173 A 
ATOM     94  F   UNL A   1      45.711  30.490  34.526  1.00  0.00    -0.203 F 
ATOM     95  C   UNL A   1      46.773  28.650  35.541  1.00  0.00     0.198 A 
ATOM     96  C   UNL A   1      45.462  26.968  36.647  1.00  0.00     0.198 A 
ATOM     97  F   UNL A   1      43.115  27.159  36.708  1.00  0.00    -0.203 F 
ATOM     98  F   UNL A   1      47.966  29.119  35.147  1.00  0.00    -0.200 F 
ATOM     99  C   UNL A   1      46.697  27.463  36.255  1.00  0.00     0.200 A 
ATOM    100  F   UNL A   1      45.388  25.821  37.337  1.00  0.00    -0.200 F 
ATOM    101  F   UNL A   1      47.816  26.789  36.558  1.00  0.00    -0.200 F 
ENDBRANCH  68  91
ENDBRANCH  42  43
ENDBRANCH  34  37
ENDBRANCH  32  33
ENDBRANCH  31  32
ENDBRANCH  30  31
ENDBRANCH   1  30
TORSDOF 16
ENDMDL
MODEL 2
REMARK VINA RESULT:     -11.9      6.300     10.850
REMARK SMILES C[C@H](NC(=O)c1c(C(=O)NCCCCCCNC(=O)c2ccc(-c3c4nc(c(-c5c(F)c(F)c(F)c(F)c5F)c5ccc([nH]5)c(-c5c(F)c(F)c(F)c(F)c5F)c5nc(c(-c6c(F)c(F)c(F)c(F)c6F)c6ccc3[nH]6)C=C5)C=C4)cc2)cnn1C)[C@]12C[C@H]3C[C@H](C[C@H](C3)C1)C2
REMARK SMILES IDX 13 1 12 2 11 3 10 4 8 5 9 6 7 8 6 9 85 10 83 11 84 12 86 13
REMARK SMILES IDX 4 14 3 15 5 17 2 18 1 19 87 20 88 21 95 22 96 23 89 24 93 25
REMARK SMILES IDX 91 26 90 27 94 28 92 29 14 30 15 31 16 32 17 33 18 34 19 36
REMARK SMILES IDX 20 37 21 38 82 39 22 40 81 41 23 42 24 43 25 44 75 45 26 46
REMARK SMILES IDX 80 47 74 48 76 49 27 50 79 51 73 52 72 53 28 55 60 56 40 57
REMARK SMILES IDX 59 58 41 59 44 60 58 61 77 62 42 63 43 64 57 66 78 67 45 68
REMARK SMILES IDX 29 69 30 70 38 71 31 72 32 73 36 74 39 75 33 76 34 77 37 78
REMARK SMILES IDX 35 79 61 80 62 81 70 82 63 83 64 84 68 85 71 86 65 87 66 88
REMARK SMILES IDX 69 89 67 90 46 91 47 92 55 93 48 94 49 95 53 96 56 97 50 98
REMARK SMILES IDX 51 99 54 100 52 101
REMARK H PARENT 10 7 3 16 17 35 76 54 44 65
REMARK Flexibility Score: inf
ROOT
ATOM      1  C   UNL A   1      37.188  21.861  25.103  1.00  0.00     0.002 C 
ENDROOT
BRANCH   1   2
ATOM      2  C   UNL A   1      36.753  22.779  23.960  1.00  0.00     0.021 C 
BRANCH   2   3
ATOM      3  C   UNL A   1      35.292  23.224  23.959  1.00  0.00     0.116 C 
BRANCH   3   4
ATOM      4  N   UNL A   1      34.368  22.123  23.877  1.00  0.00    -0.352 N 
ATOM      5  C   UNL A   1      33.103  21.899  24.347  1.00  0.00     0.255 C 
ATOM      6  O   UNL A   1      32.651  20.785  24.057  1.00  0.00    -0.269 OA
ATOM      7  H   UNL A   1      34.727  21.361  23.370  1.00  0.00     0.163 HD
BRANCH   5   8
ATOM      8  C   UNL A   1      32.283  22.812  25.143  1.00  0.00     0.090 A 
ATOM      9  C   UNL A   1      31.408  23.872  24.904  1.00  0.00     0.138 A 
ATOM     10  N   UNL A   1      30.871  24.204  26.129  1.00  0.00    -0.262 N 
ATOM     11  C   UNL A   1      32.249  22.695  26.566  1.00  0.00     0.149 A 
ATOM     12  N   UNL A   1      31.434  23.562  27.160  1.00  0.00    -0.180 NA
ATOM     13  C   UNL A   1      29.791  25.124  26.407  1.00  0.00     0.174 C 
BRANCH   9  14
ATOM     14  C   UNL A   1      30.948  24.508  23.710  1.00  0.00     0.270 C 
ATOM     15  N   UNL A   1      31.662  25.582  23.235  1.00  0.00    -0.348 N 
ATOM     16  H   UNL A   1      31.220  26.089  22.515  1.00  0.00     0.164 HD
ATOM     17  O   UNL A   1      29.948  24.148  23.096  1.00  0.00    -0.267 OA
BRANCH  15  18
ATOM     18  C   UNL A   1      32.987  26.091  23.634  1.00  0.00     0.085 C 
ATOM     19  C   UNL A   1      33.779  26.477  22.378  1.00  0.00     0.031 C 
BRANCH  18  20
ATOM     20  C   UNL A   1      32.876  27.248  24.693  1.00  0.00    -0.009 C 
ATOM     21  C   UNL A   1      33.237  26.746  26.124  1.00  0.00     0.012 C 
ATOM     22  C   UNL A   1      31.409  27.765  24.734  1.00  0.00     0.012 C 
ATOM     23  C   UNL A   1      33.801  28.461  24.383  1.00  0.00     0.012 C 
ATOM     24  C   UNL A   1      33.064  27.854  27.174  1.00  0.00    -0.010 C 
ATOM     25  C   UNL A   1      31.237  28.876  25.784  1.00  0.00    -0.010 C 
ATOM     26  C   UNL A   1      33.630  29.575  25.433  1.00  0.00    -0.010 C 
ATOM     27  C   UNL A   1      33.990  29.029  26.820  1.00  0.00     0.007 C 
ATOM     28  C   UNL A   1      31.606  28.329  27.172  1.00  0.00     0.007 C 
ATOM     29  C   UNL A   1      32.167  30.048  25.436  1.00  0.00     0.007 C 
ENDBRANCH  18  20
ENDBRANCH  15  18
ENDBRANCH   9  14
ENDBRANCH   5   8
ENDBRANCH   3   4
ENDBRANCH   2   3
ENDBRANCH   1   2
BRANCH   1  30
ATOM     30  C   UNL A   1      36.916  20.365  24.927  1.00  0.00     0.002 C 
BRANCH  30  31
ATOM     31  C   UNL A   1      38.125  19.427  24.966  1.00  0.00     0.021 C 
BRANCH  31  32
ATOM     32  C   UNL A   1      39.308  19.858  25.831  1.00  0.00     0.116 C 
BRANCH  32  33
ATOM     33  N   UNL A   1      40.407  18.913  25.821  1.00  0.00    -0.352 N 
ATOM     34  C   UNL A   1      41.748  19.119  26.042  1.00  0.00     0.251 C 
ATOM     35  H   UNL A   1      40.156  17.982  25.627  1.00  0.00     0.163 HD
ATOM     36  O   UNL A   1      42.535  18.185  25.916  1.00  0.00    -0.269 OA
BRANCH  34  37
ATOM     37  C   UNL A   1      42.269  20.461  26.396  1.00  0.00     0.039 A 
ATOM     38  C   UNL A   1      42.694  21.297  25.358  1.00  0.00     0.014 A 
ATOM     39  C   UNL A   1      42.383  20.890  27.722  1.00  0.00     0.014 A 
ATOM     40  C   UNL A   1      43.171  22.580  25.639  1.00  0.00     0.010 A 
ATOM     41  C   UNL A   1      42.823  22.187  28.001  1.00  0.00     0.010 A 
ATOM     42  C   UNL A   1      43.214  23.044  26.961  1.00  0.00    -0.014 A 
BRANCH  42  43
ATOM     43  C   UNL A   1      43.656  24.427  27.267  1.00  0.00     0.031 A 
ATOM     44  C   UNL A   1      42.684  25.435  27.806  1.00  0.00     0.074 A 
ATOM     45  C   UNL A   1      44.928  24.790  27.017  1.00  0.00     0.049 A 
ATOM     46  N   UNL A   1      42.866  26.708  28.052  1.00  0.00    -0.248 NA
ATOM     47  C   UNL A   1      41.325  24.954  28.093  1.00  0.00     0.031 C 
ATOM     48  C   UNL A   1      45.966  23.914  26.475  1.00  0.00     0.029 A 
ATOM     49  N   UNL A   1      45.559  25.998  27.179  1.00  0.00    -0.354 N 
ATOM     50  C   UNL A   1      41.642  27.186  28.497  1.00  0.00     0.074 A 
ATOM     51  C   UNL A   1      40.720  26.069  28.482  1.00  0.00     0.031 C 
ATOM     52  C   UNL A   1      47.109  24.609  26.360  1.00  0.00     0.029 A 
ATOM     53  C   UNL A   1      46.877  25.984  26.795  1.00  0.00     0.049 A 
ATOM     54  H   UNL A   1      45.110  26.798  27.535  1.00  0.00     0.167 HD
ATOM     55  C   UNL A   1      41.318  28.441  28.889  1.00  0.00     0.037 A 
ATOM     56  C   UNL A   1      47.794  26.969  26.788  1.00  0.00     0.037 A 
ATOM     57  C   UNL A   1      42.233  29.549  28.945  1.00  0.00     0.049 A 
ATOM     58  C   UNL A   1      47.414  28.345  27.256  1.00  0.00     0.074 A 
ATOM     59  C   UNL A   1      41.997  30.845  29.371  1.00  0.00     0.029 A 
ATOM     60  N   UNL A   1      43.566  29.487  28.571  1.00  0.00    -0.354 N 
ATOM     61  N   UNL A   1      46.257  28.779  27.685  1.00  0.00    -0.248 NA
ATOM     62  C   UNL A   1      48.471  29.368  27.232  1.00  0.00     0.031 C 
ATOM     63  C   UNL A   1      43.186  31.572  29.242  1.00  0.00     0.029 A 
ATOM     64  C   UNL A   1      44.164  30.724  28.751  1.00  0.00     0.049 A 
ATOM     65  H   UNL A   1      44.020  28.683  28.230  1.00  0.00     0.167 HD
ATOM     66  C   UNL A   1      46.443  30.119  27.991  1.00  0.00     0.074 A 
ATOM     67  C   UNL A   1      47.829  30.428  27.706  1.00  0.00     0.031 C 
ATOM     68  C   UNL A   1      45.543  31.013  28.465  1.00  0.00     0.037 A 
BRANCH  55  69
ATOM     69  C   UNL A   1      39.896  28.686  29.284  1.00  0.00     0.064 A 
ATOM     70  C   UNL A   1      39.457  28.469  30.597  1.00  0.00     0.173 A 
ATOM     71  C   UNL A   1      38.974  29.176  28.349  1.00  0.00     0.173 A 
ATOM     72  F   UNL A   1      40.304  27.989  31.521  1.00  0.00    -0.203 F 
ATOM     73  C   UNL A   1      38.137  28.722  30.958  1.00  0.00     0.198 A 
ATOM     74  C   UNL A   1      37.658  29.440  28.716  1.00  0.00     0.198 A 
ATOM     75  F   UNL A   1      39.350  29.397  27.080  1.00  0.00    -0.203 F 
ATOM     76  F   UNL A   1      37.729  28.485  32.212  1.00  0.00    -0.200 F 
ATOM     77  C   UNL A   1      37.240  29.212  30.019  1.00  0.00     0.200 A 
ATOM     78  F   UNL A   1      36.792  29.914  27.809  1.00  0.00    -0.200 F 
ATOM     79  F   UNL A   1      35.969  29.455  30.369  1.00  0.00    -0.200 F 
ENDBRANCH  55  69
BRANCH  56  80
ATOM     80  C   UNL A   1      49.172  26.682  26.330  1.00  0.00     0.064 A 
ATOM     81  C   UNL A   1      50.131  26.183  27.221  1.00  0.00     0.173 A 
ATOM     82  C   UNL A   1      49.552  26.890  24.998  1.00  0.00     0.173 A 
ATOM     83  F   UNL A   1      49.812  25.990  28.509  1.00  0.00    -0.203 F 
ATOM     84  C   UNL A   1      51.427  25.904  26.794  1.00  0.00     0.198 A 
ATOM     85  C   UNL A   1      50.844  26.600  24.570  1.00  0.00     0.198 A 
ATOM     86  F   UNL A   1      48.664  27.370  24.115  1.00  0.00    -0.203 F 
ATOM     87  F   UNL A   1      52.334  25.447  27.667  1.00  0.00    -0.200 F 
ATOM     88  C   UNL A   1      51.781  26.110  25.468  1.00  0.00     0.200 A 
ATOM     89  F   UNL A   1      51.184  26.797  23.289  1.00  0.00    -0.200 F 
ATOM     90  F   UNL A   1      53.028  25.840  25.058  1.00  0.00    -0.200 F 
ENDBRANCH  56  80
BRANCH  68  91
ATOM     91  C   UNL A   1      46.032  32.404  28.714  1.00  0.00     0.064 A 
ATOM     92  C   UNL A   1      46.592  32.765  29.947  1.00  0.00     0.173 A 
ATOM     93  C   UNL A   1      45.974  33.372  27.701  1.00  0.00     0.173 A 
ATOM     94  F   UNL A   1      46.653  31.874  30.947  1.00  0.00    -0.203 F 
ATOM     95  C   UNL A   1      47.070  34.055  30.161  1.00  0.00     0.198 A 
ATOM     96  C   UNL A   1      46.462  34.658  27.916  1.00  0.00     0.198 A 
ATOM     97  F   UNL A   1      45.443  33.069  26.507  1.00  0.00    -0.203 F 
ATOM     98  F   UNL A   1      47.582  34.388  31.355  1.00  0.00    -0.200 F 
ATOM     99  C   UNL A   1      47.008  34.997  29.145  1.00  0.00     0.200 A 
ATOM    100  F   UNL A   1      46.402  35.569  26.935  1.00  0.00    -0.200 F 
ATOM    101  F   UNL A   1      47.469  36.239  29.354  1.00  0.00    -0.200 F 
ENDBRANCH  68  91
ENDBRANCH  42  43
ENDBRANCH  34  37
ENDBRANCH  32  33
ENDBRANCH  31  32
ENDBRANCH  30  31
ENDBRANCH   1  30
TORSDOF 16
ENDMDL
MODEL 3
REMARK VINA RESULT:     -11.7      6.046     11.187
REMARK SMILES C[C@H](NC(=O)c1c(C(=O)NCCCCCCNC(=O)c2ccc(-c3c4nc(c(-c5c(F)c(F)c(F)c(F)c5F)c5ccc([nH]5)c(-c5c(F)c(F)c(F)c(F)c5F)c5nc(c(-c6c(F)c(F)c(F)c(F)c6F)c6ccc3[nH]6)C=C5)C=C4)cc2)cnn1C)[C@]12C[C@H]3C[C@H](C[C@H](C3)C1)C2
REMARK SMILES IDX 13 1 12 2 11 3 10 4 8 5 9 6 7 8 6 9 85 10 83 11 84 12 86 13
REMARK SMILES IDX 4 14 3 15 5 17 2 18 1 19 87 20 88 21 95 22 96 23 89 24 93 25
REMARK SMILES IDX 91 26 90 27 94 28 92 29 14 30 15 31 16 32 17 33 18 34 19 36
REMARK SMILES IDX 20 37 21 38 82 39 22 40 81 41 23 42 24 43 25 44 75 45 26 46
REMARK SMILES IDX 80 47 74 48 76 49 27 50 79 51 73 52 72 53 28 55 60 56 40 57
REMARK SMILES IDX 59 58 41 59 44 60 58 61 77 62 42 63 43 64 57 66 78 67 45 68
REMARK SMILES IDX 29 69 30 70 38 71 31 72 32 73 36 74 39 75 33 76 34 77 37 78
REMARK SMILES IDX 35 79 61 80 62 81 70 82 63 83 64 84 68 85 71 86 65 87 66 88
REMARK SMILES IDX 69 89 67 90 46 91 47 92 55 93 48 94 49 95 53 96 56 97 50 98
REMARK SMILES IDX 51 99 54 100 52 101
REMARK H PARENT 10 7 3 16 17 35 76 54 44 65
REMARK Flexibility Score: inf
ROOT
ATOM      1  C   UNL A   1      36.935  21.582  25.177  1.00  0.00     0.002 C 
ENDROOT
BRANCH   1   2
ATOM      2  C   UNL A   1      36.539  22.453  23.985  1.00  0.00     0.021 C 
BRANCH   2   3
ATOM      3  C   UNL A   1      35.098  22.957  23.956  1.00  0.00     0.116 C 
BRANCH   3   4
ATOM      4  N   UNL A   1      34.130  21.893  23.894  1.00  0.00    -0.352 N 
ATOM      5  C   UNL A   1      32.856  21.730  24.364  1.00  0.00     0.255 C 
ATOM      6  O   UNL A   1      32.359  20.630  24.097  1.00  0.00    -0.269 OA
ATOM      7  H   UNL A   1      34.458  21.106  23.404  1.00  0.00     0.163 HD
BRANCH   5   8
ATOM      8  C   UNL A   1      32.072  22.693  25.138  1.00  0.00     0.090 A 
ATOM      9  C   UNL A   1      31.242  23.782  24.875  1.00  0.00     0.138 A 
ATOM     10  N   UNL A   1      30.716  24.162  26.090  1.00  0.00    -0.262 N 
ATOM     11  C   UNL A   1      32.030  22.608  26.564  1.00  0.00     0.149 A 
ATOM     12  N   UNL A   1      31.249  23.519  27.137  1.00  0.00    -0.180 NA
ATOM     13  C   UNL A   1      29.674  25.132  26.345  1.00  0.00     0.174 C 
BRANCH   9  14
ATOM     14  C   UNL A   1      30.812  24.412  23.666  1.00  0.00     0.270 C 
ATOM     15  N   UNL A   1      31.572  25.444  23.169  1.00  0.00    -0.348 N 
ATOM     16  H   UNL A   1      31.154  25.954  22.438  1.00  0.00     0.164 HD
ATOM     17  O   UNL A   1      29.798  24.083  23.057  1.00  0.00    -0.267 OA
BRANCH  15  18
ATOM     18  C   UNL A   1      32.918  25.904  23.561  1.00  0.00     0.085 C 
ATOM     19  C   UNL A   1      33.724  26.236  22.299  1.00  0.00     0.031 C 
BRANCH  18  20
ATOM     20  C   UNL A   1      32.855  27.082  24.600  1.00  0.00    -0.009 C 
ATOM     21  C   UNL A   1      33.189  26.587  26.041  1.00  0.00     0.012 C 
ATOM     22  C   UNL A   1      31.412  27.664  24.628  1.00  0.00     0.012 C 
ATOM     23  C   UNL A   1      33.834  28.247  24.274  1.00  0.00     0.012 C 
ATOM     24  C   UNL A   1      33.063  27.719  27.072  1.00  0.00    -0.010 C 
ATOM     25  C   UNL A   1      31.287  28.798  25.660  1.00  0.00    -0.010 C 
ATOM     26  C   UNL A   1      33.709  29.384  25.306  1.00  0.00    -0.010 C 
ATOM     27  C   UNL A   1      34.041  28.845  26.703  1.00  0.00     0.007 C 
ATOM     28  C   UNL A   1      31.627  28.258  27.057  1.00  0.00     0.007 C 
ATOM     29  C   UNL A   1      32.268  29.922  25.296  1.00  0.00     0.007 C 
ENDBRANCH  18  20
ENDBRANCH  15  18
ENDBRANCH   9  14
ENDBRANCH   5   8
ENDBRANCH   3   4
ENDBRANCH   2   3
ENDBRANCH   1   2
BRANCH   1  30
ATOM     30  C   UNL A   1      36.830  20.066  24.988  1.00  0.00     0.002 C 
BRANCH  30  31
ATOM     31  C   UNL A   1      38.140  19.275  24.944  1.00  0.00     0.021 C 
BRANCH  31  32
ATOM     32  C   UNL A   1      39.318  19.843  25.732  1.00  0.00     0.116 C 
BRANCH  32  33
ATOM     33  N   UNL A   1      40.458  18.950  25.796  1.00  0.00    -0.352 N 
ATOM     34  C   UNL A   1      41.770  19.217  26.101  1.00  0.00     0.251 C 
ATOM     35  H   UNL A   1      40.262  18.009  25.589  1.00  0.00     0.163 HD
ATOM     36  O   UNL A   1      42.606  18.320  26.028  1.00  0.00    -0.269 OA
BRANCH  34  37
ATOM     37  C   UNL A   1      42.207  20.581  26.483  1.00  0.00     0.039 A 
ATOM     38  C   UNL A   1      42.602  21.455  25.465  1.00  0.00     0.014 A 
ATOM     39  C   UNL A   1      42.271  20.996  27.817  1.00  0.00     0.014 A 
ATOM     40  C   UNL A   1      42.999  22.759  25.773  1.00  0.00     0.010 A 
ATOM     41  C   UNL A   1      42.629  22.312  28.122  1.00  0.00     0.010 A 
ATOM     42  C   UNL A   1      42.990  23.206  27.102  1.00  0.00    -0.014 A 
BRANCH  42  43
ATOM     43  C   UNL A   1      43.345  24.607  27.435  1.00  0.00     0.031 A 
ATOM     44  C   UNL A   1      44.780  25.045  27.453  1.00  0.00     0.074 A 
ATOM     45  C   UNL A   1      42.375  25.480  27.766  1.00  0.00     0.049 A 
ATOM     46  N   UNL A   1      45.286  26.202  27.802  1.00  0.00    -0.248 NA
ATOM     47  C   UNL A   1      45.779  24.050  27.039  1.00  0.00     0.031 C 
ATOM     48  C   UNL A   1      40.944  25.177  27.808  1.00  0.00     0.029 A 
ATOM     49  N   UNL A   1      42.449  26.798  28.141  1.00  0.00    -0.354 N 
ATOM     50  C   UNL A   1      46.661  26.066  27.674  1.00  0.00     0.074 A 
ATOM     51  C   UNL A   1      46.913  24.713  27.223  1.00  0.00     0.031 C 
ATOM     52  C   UNL A   1      40.273  26.281  28.175  1.00  0.00     0.029 A 
ATOM     53  C   UNL A   1      41.228  27.359  28.419  1.00  0.00     0.049 A 
ATOM     54  H   UNL A   1      43.296  27.293  28.205  1.00  0.00     0.167 HD
ATOM     55  C   UNL A   1      47.625  26.988  27.906  1.00  0.00     0.037 A 
ATOM     56  C   UNL A   1      40.912  28.601  28.831  1.00  0.00     0.037 A 
ATOM     57  C   UNL A   1      47.385  28.345  28.317  1.00  0.00     0.049 A 
ATOM     58  C   UNL A   1      41.999  29.612  29.052  1.00  0.00     0.074 A 
ATOM     59  C   UNL A   1      48.303  29.359  28.534  1.00  0.00     0.029 A 
ATOM     60  N   UNL A   1      46.131  28.882  28.564  1.00  0.00    -0.354 N 
ATOM     61  N   UNL A   1      43.293  29.474  28.917  1.00  0.00    -0.248 NA
ATOM     62  C   UNL A   1      41.579  30.953  29.490  1.00  0.00     0.031 C 
ATOM     63  C   UNL A   1      47.605  30.507  28.926  1.00  0.00     0.029 A 
ATOM     64  C   UNL A   1      46.252  30.211  28.937  1.00  0.00     0.049 A 
ATOM     65  H   UNL A   1      45.281  28.392  28.485  1.00  0.00     0.167 HD
ATOM     66  C   UNL A   1      43.844  30.705  29.242  1.00  0.00     0.074 A 
ATOM     67  C   UNL A   1      42.742  31.584  29.575  1.00  0.00     0.031 C 
ATOM     68  C   UNL A   1      45.147  31.072  29.263  1.00  0.00     0.037 A 
BRANCH  55  69
ATOM     69  C   UNL A   1      49.044  26.551  27.727  1.00  0.00     0.064 A 
ATOM     70  C   UNL A   1      49.623  26.461  26.454  1.00  0.00     0.173 A 
ATOM     71  C   UNL A   1      49.841  26.255  28.841  1.00  0.00     0.173 A 
ATOM     72  F   UNL A   1      48.892  26.723  25.360  1.00  0.00    -0.203 F 
ATOM     73  C   UNL A   1      50.952  26.074  26.302  1.00  0.00     0.198 A 
ATOM     74  C   UNL A   1      51.173  25.882  28.686  1.00  0.00     0.198 A 
ATOM     75  F   UNL A   1      49.328  26.328  30.079  1.00  0.00    -0.203 F 
ATOM     76  F   UNL A   1      51.481  25.968  25.075  1.00  0.00    -0.200 F 
ATOM     77  C   UNL A   1      51.726  25.790  27.417  1.00  0.00     0.200 A 
ATOM     78  F   UNL A   1      51.921  25.607  29.764  1.00  0.00    -0.200 F 
ATOM     79  F   UNL A   1      53.005  25.418  27.268  1.00  0.00    -0.200 F 
ENDBRANCH  55  69
BRANCH  56  80
ATOM     80  C   UNL A   1      39.492  28.960  29.049  1.00  0.00     0.064 A 
ATOM     81  C   UNL A   1      38.902  28.803  30.310  1.00  0.00     0.173 A 
ATOM     82  C   UNL A   1      38.706  29.474  28.010  1.00  0.00     0.173 A 
ATOM     83  F   UNL A   1      39.615  28.294  31.325  1.00  0.00    -0.203 F 
ATOM     84  C   UNL A   1      37.569  29.145  30.522  1.00  0.00     0.198 A 
ATOM     85  C   UNL A   1      37.377  29.827  28.227  1.00  0.00     0.198 A 
ATOM     86  F   UNL A   1      39.233  29.636  26.788  1.00  0.00    -0.203 F 
ATOM     87  F   UNL A   1      37.018  28.968  31.730  1.00  0.00    -0.200 F 
ATOM     88  C   UNL A   1      36.808  29.661  29.482  1.00  0.00     0.200 A 
ATOM     89  F   UNL A   1      36.645  30.327  27.222  1.00  0.00    -0.200 F 
ATOM     90  F   UNL A   1      35.526  29.991  29.687  1.00  0.00    -0.200 F 
ENDBRANCH  56  80
BRANCH  68  91
ATOM     91  C   UNL A   1      45.451  32.484  29.648  1.00  0.00     0.064 A 
ATOM     92  C   UNL A   1      45.703  32.832  30.983  1.00  0.00     0.173 A 
ATOM     93  C   UNL A   1      45.525  33.489  28.673  1.00  0.00     0.173 A 
ATOM     94  F   UNL A   1      45.628  31.904  31.947  1.00  0.00    -0.203 F 
ATOM     95  C   UNL A   1      46.012  34.144  31.329  1.00  0.00     0.198 A 
ATOM     96  C   UNL A   1      45.844  34.798  29.023  1.00  0.00     0.198 A 
ATOM     97  F   UNL A   1      45.287  33.199  27.386  1.00  0.00    -0.203 F 
ATOM     98  F   UNL A   1      46.229  34.463  32.613  1.00  0.00    -0.200 F 
ATOM     99  C   UNL A   1      46.086  35.124  30.349  1.00  0.00     0.200 A 
ATOM    100  F   UNL A   1      45.915  35.745  28.077  1.00  0.00    -0.200 F 
ATOM    101  F   UNL A   1      46.383  36.387  30.686  1.00  0.00    -0.200 F 
ENDBRANCH  68  91
ENDBRANCH  42  43
ENDBRANCH  34  37
ENDBRANCH  32  33
ENDBRANCH  31  32
ENDBRANCH  30  31
ENDBRANCH   1  30
TORSDOF 16
ENDMDL
