MODEL 1
REMARK VINA RESULT:     -12.5      0.000      0.000
REMARK SMILES Cn1c(=O)c(=O)n(C)c2cc(S(=O)(=O)N3CCC[C@H]3C(=O)NCCCCCCNC(=O)c3ccc(-c4c5nc(c(-c6c(F)c(F)c(F)c(F)c6F)c6ccc([nH]6)c(-c6c(F)c(F)c(F)c(F)c6F)c6nc(c(-c7c(F)c(F)c(F)c(F)c7F)c7ccc4[nH]7)C=C6)C=C5)cc3)ccc21
REMARK SMILES IDX 25 1 24 2 23 3 22 4 20 5 21 6 19 8 15 9 16 10 17 11 18 12
REMARK SMILES IDX 12 13 13 14 14 15 11 16 1 17 2 18 3 19 97 20 4 21 5 22 9 23
REMARK SMILES IDX 96 24 6 25 7 26 10 27 95 28 8 29 26 30 27 31 28 32 29 33
REMARK SMILES IDX 30 34 31 36 32 37 33 38 94 39 34 40 93 41 35 42 36 43 37 44
REMARK SMILES IDX 87 45 38 46 92 47 86 48 88 49 39 50 91 51 85 52 84 53 40 55
REMARK SMILES IDX 72 56 52 57 71 58 53 59 56 60 70 61 89 62 54 63 55 64 69 66
REMARK SMILES IDX 90 67 57 68 41 69 42 70 50 71 43 72 44 73 48 74 51 75 45 76
REMARK SMILES IDX 46 77 49 78 47 79 73 80 74 81 82 82 75 83 76 84 80 85 83 86
REMARK SMILES IDX 77 87 78 88 81 89 79 90 58 91 59 92 67 93 60 94 61 95 65 96
REMARK SMILES IDX 68 97 62 98 63 99 66 100 64 101
REMARK H PARENT 22 7 29 35 88 54 56 65
REMARK Flexibility Score: inf
ROOT
ATOM      1  C   UNL A   1      34.640  32.114  27.662  1.00  0.00     0.002 C 
ENDROOT
BRANCH   1   2
ATOM      2  C   UNL A   1      35.165  30.715  27.995  1.00  0.00     0.021 C 
BRANCH   2   3
ATOM      3  C   UNL A   1      34.460  29.598  27.224  1.00  0.00     0.116 C 
BRANCH   3   4
ATOM      4  N   UNL A   1      33.205  30.061  26.648  1.00  0.00    -0.355 N 
ATOM      5  C   UNL A   1      32.467  29.504  25.627  1.00  0.00     0.238 C 
ATOM      6  O   UNL A   1      31.474  30.104  25.220  1.00  0.00    -0.273 OA
ATOM      7  H   UNL A   1      32.834  30.883  27.042  1.00  0.00     0.163 HD
BRANCH   5   8
ATOM      8  C   UNL A   1      32.953  28.180  25.051  1.00  0.00     0.162 C 
ATOM      9  N   UNL A   1      31.910  27.248  24.572  1.00  0.00    -0.185 NA
ATOM     10  C   UNL A   1      31.948  27.179  23.107  1.00  0.00     0.103 C 
ATOM     11  C   UNL A   1      33.408  27.417  22.779  1.00  0.00     0.019 C 
ATOM     12  C   UNL A   1      33.857  28.418  23.830  1.00  0.00     0.032 C 
BRANCH   9  13
ATOM     13  S   UNL A   1      31.525  25.890  25.483  1.00  0.00     0.243 S 
ATOM     14  O   UNL A   1      30.425  25.225  24.821  1.00  0.00    -0.207 OA
ATOM     15  O   UNL A   1      31.450  26.285  26.875  1.00  0.00    -0.207 OA
BRANCH  13  16
ATOM     16  C   UNL A   1      32.924  24.766  25.384  1.00  0.00     0.084 A 
ATOM     17  C   UNL A   1      37.496  22.468  25.617  1.00  0.00     0.154 C 
ATOM     18  N   UNL A   1      36.142  22.003  25.345  1.00  0.00    -0.305 N 
ATOM     19  C   UNL A   1      35.963  20.654  25.054  1.00  0.00     0.316 A 
ATOM     20  C   UNL A   1      35.052  22.911  25.364  1.00  0.00     0.068 A 
ATOM     21  O   UNL A   1      36.885  19.845  25.000  1.00  0.00    -0.263 OA
ATOM     22  C   UNL A   1      34.532  20.161  24.800  1.00  0.00     0.316 A 
ATOM     23  C   UNL A   1      33.751  22.485  25.042  1.00  0.00     0.069 A 
ATOM     24  C   UNL A   1      35.259  24.248  25.722  1.00  0.00     0.030 A 
ATOM     25  O   UNL A   1      34.352  18.959  24.626  1.00  0.00    -0.263 OA
ATOM     26  N   UNL A   1      33.507  21.109  24.778  1.00  0.00    -0.305 N 
ATOM     27  C   UNL A   1      32.699  23.430  25.025  1.00  0.00     0.050 A 
ATOM     28  C   UNL A   1      34.205  25.155  25.757  1.00  0.00     0.024 A 
ATOM     29  C   UNL A   1      32.153  20.633  24.540  1.00  0.00     0.154 C 
ENDBRANCH  13  16
ENDBRANCH   9  13
ENDBRANCH   5   8
ENDBRANCH   3   4
ENDBRANCH   2   3
ENDBRANCH   1   2
BRANCH   1  30
ATOM     30  C   UNL A   1      34.234  32.960  28.874  1.00  0.00     0.002 C 
BRANCH  30  31
ATOM     31  C   UNL A   1      33.258  34.101  28.583  1.00  0.00     0.021 C 
BRANCH  31  32
ATOM     32  C   UNL A   1      33.663  35.454  29.161  1.00  0.00     0.116 C 
BRANCH  32  33
ATOM     33  N   UNL A   1      32.725  35.932  30.166  1.00  0.00    -0.352 N 
ATOM     34  C   UNL A   1      32.720  35.711  31.523  1.00  0.00     0.251 C 
ATOM     35  H   UNL A   1      31.992  36.493  29.827  1.00  0.00     0.163 HD
ATOM     36  O   UNL A   1      31.760  36.049  32.207  1.00  0.00    -0.269 OA
BRANCH  34  37
ATOM     37  C   UNL A   1      33.871  35.030  32.153  1.00  0.00     0.039 A 
ATOM     38  C   UNL A   1      35.111  35.669  32.236  1.00  0.00     0.014 A 
ATOM     39  C   UNL A   1      33.713  33.730  32.641  1.00  0.00     0.014 A 
ATOM     40  C   UNL A   1      36.225  34.952  32.658  1.00  0.00     0.010 A 
ATOM     41  C   UNL A   1      34.821  33.037  33.136  1.00  0.00     0.010 A 
ATOM     42  C   UNL A   1      36.096  33.626  33.103  1.00  0.00    -0.014 A 
BRANCH  42  43
ATOM     43  C   UNL A   1      37.309  32.872  33.513  1.00  0.00     0.031 A 
ATOM     44  C   UNL A   1      37.928  31.855  32.593  1.00  0.00     0.074 A 
ATOM     45  C   UNL A   1      37.889  33.152  34.697  1.00  0.00     0.049 A 
ATOM     46  N   UNL A   1      38.994  31.116  32.778  1.00  0.00    -0.248 NA
ATOM     47  C   UNL A   1      37.269  31.635  31.296  1.00  0.00     0.031 C 
ATOM     48  C   UNL A   1      37.389  34.127  35.669  1.00  0.00     0.029 A 
ATOM     49  N   UNL A   1      39.034  32.664  35.274  1.00  0.00    -0.354 N 
ATOM     50  C   UNL A   1      39.121  30.336  31.636  1.00  0.00     0.074 A 
ATOM     51  C   UNL A   1      38.013  30.671  30.768  1.00  0.00     0.031 C 
ATOM     52  C   UNL A   1      38.246  34.199  36.698  1.00  0.00     0.029 A 
ATOM     53  C   UNL A   1      39.323  33.237  36.489  1.00  0.00     0.049 A 
ATOM     54  H   UNL A   1      39.595  31.970  34.858  1.00  0.00     0.167 HD
ATOM     55  C   UNL A   1      40.084  29.433  31.335  1.00  0.00     0.037 A 
ATOM     56  C   UNL A   1      40.335  33.005  37.346  1.00  0.00     0.037 A 
ATOM     57  C   UNL A   1      41.203  29.121  32.186  1.00  0.00     0.049 A 
ATOM     58  C   UNL A   1      41.369  31.970  36.998  1.00  0.00     0.074 A 
ATOM     59  C   UNL A   1      42.242  28.236  31.952  1.00  0.00     0.029 A 
ATOM     60  N   UNL A   1      41.433  29.688  33.429  1.00  0.00    -0.354 N 
ATOM     61  N   UNL A   1      41.480  31.248  35.910  1.00  0.00    -0.248 NA
ATOM     62  C   UNL A   1      42.412  31.713  38.000  1.00  0.00     0.031 C 
ATOM     63  C   UNL A   1      43.081  28.241  33.069  1.00  0.00     0.029 A 
ATOM     64  C   UNL A   1      42.588  29.159  33.981  1.00  0.00     0.049 A 
ATOM     65  H   UNL A   1      40.861  30.366  33.857  1.00  0.00     0.167 HD
ATOM     66  C   UNL A   1      42.605  30.457  36.092  1.00  0.00     0.074 A 
ATOM     67  C   UNL A   1      43.159  30.807  37.383  1.00  0.00     0.031 C 
ATOM     68  C   UNL A   1      43.127  29.520  35.266  1.00  0.00     0.037 A 
BRANCH  55  69
ATOM     69  C   UNL A   1      39.990  28.707  30.026  1.00  0.00     0.064 A 
ATOM     70  C   UNL A   1      40.565  29.228  28.859  1.00  0.00     0.173 A 
ATOM     71  C   UNL A   1      39.410  27.431  29.961  1.00  0.00     0.173 A 
ATOM     72  F   UNL A   1      41.120  30.450  28.868  1.00  0.00    -0.203 F 
ATOM     73  C   UNL A   1      40.565  28.498  27.673  1.00  0.00     0.198 A 
ATOM     74  C   UNL A   1      39.430  26.694  28.780  1.00  0.00     0.198 A 
ATOM     75  F   UNL A   1      38.852  26.886  31.052  1.00  0.00    -0.203 F 
ATOM     76  F   UNL A   1      41.105  29.023  26.565  1.00  0.00    -0.200 F 
ATOM     77  C   UNL A   1      40.008  27.228  27.637  1.00  0.00     0.200 A 
ATOM     78  F   UNL A   1      38.903  25.463  28.750  1.00  0.00    -0.200 F 
ATOM     79  F   UNL A   1      40.027  26.518  26.500  1.00  0.00    -0.200 F 
ENDBRANCH  55  69
BRANCH  56  80
ATOM     80  C   UNL A   1      40.414  33.764  38.619  1.00  0.00     0.064 A 
ATOM     81  C   UNL A   1      41.249  34.883  38.741  1.00  0.00     0.173 A 
ATOM     82  C   UNL A   1      39.652  33.392  39.737  1.00  0.00     0.173 A 
ATOM     83  F   UNL A   1      42.012  35.265  37.707  1.00  0.00    -0.203 F 
ATOM     84  C   UNL A   1      41.326  35.594  39.937  1.00  0.00     0.198 A 
ATOM     85  C   UNL A   1      39.709  34.120  40.922  1.00  0.00     0.198 A 
ATOM     86  F   UNL A   1      38.836  32.329  39.669  1.00  0.00    -0.203 F 
ATOM     87  F   UNL A   1      42.161  36.638  40.038  1.00  0.00    -0.200 F 
ATOM     88  C   UNL A   1      40.551  35.218  41.024  1.00  0.00     0.200 A 
ATOM     89  F   UNL A   1      38.946  33.762  41.964  1.00  0.00    -0.200 F 
ATOM     90  F   UNL A   1      40.620  35.907  42.170  1.00  0.00    -0.200 F 
ENDBRANCH  56  80
BRANCH  68  91
ATOM     91  C   UNL A   1      44.367  28.811  35.722  1.00  0.00     0.064 A 
ATOM     92  C   UNL A   1      44.294  27.620  36.459  1.00  0.00     0.173 A 
ATOM     93  C   UNL A   1      45.635  29.289  35.363  1.00  0.00     0.173 A 
ATOM     94  F   UNL A   1      43.103  27.133  36.838  1.00  0.00    -0.203 F 
ATOM     95  C   UNL A   1      45.450  26.941  36.833  1.00  0.00     0.198 A 
ATOM     96  C   UNL A   1      46.788  28.594  35.716  1.00  0.00     0.198 A 
ATOM     97  F   UNL A   1      45.755  30.420  34.652  1.00  0.00    -0.203 F 
ATOM     98  F   UNL A   1      45.359  25.823  37.565  1.00  0.00    -0.200 F 
ATOM     99  C   UNL A   1      46.694  27.422  36.454  1.00  0.00     0.200 A 
ATOM    100  F   UNL A   1      47.989  29.053  35.339  1.00  0.00    -0.200 F 
ATOM    101  F   UNL A   1      47.805  26.760  36.802  1.00  0.00    -0.200 F 
ENDBRANCH  68  91
ENDBRANCH  42  43
ENDBRANCH  34  37
ENDBRANCH  32  33
ENDBRANCH  31  32
ENDBRANCH  30  31
ENDBRANCH   1  30
TORSDOF 15
ENDMDL
MODEL 2
REMARK VINA RESULT:     -12.4      5.841     11.042
REMARK SMILES Cn1c(=O)c(=O)n(C)c2cc(S(=O)(=O)N3CCC[C@H]3C(=O)NCCCCCCNC(=O)c3ccc(-c4c5nc(c(-c6c(F)c(F)c(F)c(F)c6F)c6ccc([nH]6)c(-c6c(F)c(F)c(F)c(F)c6F)c6nc(c(-c7c(F)c(F)c(F)c(F)c7F)c7ccc4[nH]7)C=C6)C=C5)cc3)ccc21
REMARK SMILES IDX 25 1 24 2 23 3 22 4 20 5 21 6 19 8 15 9 16 10 17 11 18 12
REMARK SMILES IDX 12 13 13 14 14 15 11 16 1 17 2 18 3 19 97 20 4 21 5 22 9 23
REMARK SMILES IDX 96 24 6 25 7 26 10 27 95 28 8 29 26 30 27 31 28 32 29 33
REMARK SMILES IDX 30 34 31 36 32 37 33 38 94 39 34 40 93 41 35 42 36 43 37 44
REMARK SMILES IDX 87 45 38 46 92 47 86 48 88 49 39 50 91 51 85 52 84 53 40 55
REMARK SMILES IDX 72 56 52 57 71 58 53 59 56 60 70 61 89 62 54 63 55 64 69 66
REMARK SMILES IDX 90 67 57 68 41 69 42 70 50 71 43 72 44 73 48 74 51 75 45 76
REMARK SMILES IDX 46 77 49 78 47 79 73 80 74 81 82 82 75 83 76 84 80 85 83 86
REMARK SMILES IDX 77 87 78 88 81 89 79 90 58 91 59 92 67 93 60 94 61 95 65 96
REMARK SMILES IDX 68 97 62 98 63 99 66 100 64 101
REMARK H PARENT 22 7 29 35 88 54 56 65
REMARK Flexibility Score: inf
ROOT
ATOM      1  C   UNL A   1      37.484  22.006  24.970  1.00  0.00     0.002 C 
ENDROOT
BRANCH   1   2
ATOM      2  C   UNL A   1      36.947  22.822  23.790  1.00  0.00     0.021 C 
BRANCH   2   3
ATOM      3  C   UNL A   1      35.526  23.344  24.004  1.00  0.00     0.116 C 
BRANCH   3   4
ATOM      4  N   UNL A   1      34.538  22.448  23.420  1.00  0.00    -0.355 N 
ATOM      5  C   UNL A   1      33.184  22.644  23.260  1.00  0.00     0.238 C 
ATOM      6  O   UNL A   1      32.500  21.719  22.824  1.00  0.00    -0.273 OA
ATOM      7  H   UNL A   1      34.885  21.587  23.095  1.00  0.00     0.163 HD
BRANCH   5   8
ATOM      8  C   UNL A   1      32.617  24.000  23.662  1.00  0.00     0.162 C 
ATOM      9  N   UNL A   1      31.709  24.648  22.693  1.00  0.00    -0.185 NA
ATOM     10  C   UNL A   1      30.337  24.625  23.213  1.00  0.00     0.103 C 
ATOM     11  C   UNL A   1      30.527  24.689  24.715  1.00  0.00     0.019 C 
ATOM     12  C   UNL A   1      31.793  23.882  24.954  1.00  0.00     0.032 C 
BRANCH   9  13
ATOM     13  S   UNL A   1      32.256  25.948  21.780  1.00  0.00     0.243 S 
ATOM     14  O   UNL A   1      31.482  25.972  20.558  1.00  0.00    -0.207 OA
ATOM     15  O   UNL A   1      33.705  25.913  21.764  1.00  0.00    -0.207 OA
BRANCH  13  16
ATOM     16  C   UNL A   1      31.828  27.447  22.674  1.00  0.00     0.084 A 
ATOM     17  C   UNL A   1      29.623  31.672  24.552  1.00  0.00     0.154 C 
ATOM     18  N   UNL A   1      30.751  30.848  24.968  1.00  0.00    -0.305 N 
ATOM     19  C   UNL A   1      31.454  31.233  26.106  1.00  0.00     0.316 A 
ATOM     20  C   UNL A   1      31.119  29.701  24.219  1.00  0.00     0.068 A 
ATOM     21  O   UNL A   1      31.183  32.235  26.762  1.00  0.00    -0.263 OA
ATOM     22  C   UNL A   1      32.621  30.346  26.560  1.00  0.00     0.316 A 
ATOM     23  C   UNL A   1      32.244  28.935  24.576  1.00  0.00     0.069 A 
ATOM     24  C   UNL A   1      30.352  29.307  23.118  1.00  0.00     0.030 A 
ATOM     25  O   UNL A   1      33.195  30.629  27.608  1.00  0.00    -0.263 OA
ATOM     26  N   UNL A   1      32.972  29.262  25.753  1.00  0.00    -0.305 N 
ATOM     27  C   UNL A   1      32.607  27.827  23.776  1.00  0.00     0.050 A 
ATOM     28  C   UNL A   1      30.687  28.181  22.373  1.00  0.00     0.024 A 
ATOM     29  C   UNL A   1      34.077  28.424  26.192  1.00  0.00     0.154 C 
ENDBRANCH  13  16
ENDBRANCH   9  13
ENDBRANCH   5   8
ENDBRANCH   3   4
ENDBRANCH   2   3
ENDBRANCH   1   2
BRANCH   1  30
ATOM     30  C   UNL A   1      37.066  20.532  24.981  1.00  0.00     0.002 C 
BRANCH  30  31
ATOM     31  C   UNL A   1      38.216  19.523  24.981  1.00  0.00     0.021 C 
BRANCH  31  32
ATOM     32  C   UNL A   1      39.462  19.970  25.740  1.00  0.00     0.116 C 
BRANCH  32  33
ATOM     33  N   UNL A   1      40.453  18.912  25.855  1.00  0.00    -0.352 N 
ATOM     34  C   UNL A   1      41.806  19.011  26.082  1.00  0.00     0.251 C 
ATOM     35  H   UNL A   1      40.107  17.996  25.757  1.00  0.00     0.163 HD
ATOM     36  O   UNL A   1      42.529  18.025  25.983  1.00  0.00    -0.269 OA
BRANCH  34  37
ATOM     37  C   UNL A   1      42.393  20.326  26.415  1.00  0.00     0.039 A 
ATOM     38  C   UNL A   1      42.390  20.787  27.734  1.00  0.00     0.014 A 
ATOM     39  C   UNL A   1      42.926  21.116  25.393  1.00  0.00     0.014 A 
ATOM     40  C   UNL A   1      42.772  22.097  28.003  1.00  0.00     0.010 A 
ATOM     41  C   UNL A   1      43.381  22.405  25.680  1.00  0.00     0.010 A 
ATOM     42  C   UNL A   1      43.262  22.924  26.980  1.00  0.00    -0.014 A 
BRANCH  42  43
ATOM     43  C   UNL A   1      43.629  24.330  27.290  1.00  0.00     0.031 A 
ATOM     44  C   UNL A   1      45.021  24.836  27.024  1.00  0.00     0.074 A 
ATOM     45  C   UNL A   1      42.684  25.170  27.757  1.00  0.00     0.049 A 
ATOM     46  N   UNL A   1      45.515  26.034  27.217  1.00  0.00    -0.248 NA
ATOM     47  C   UNL A   1      45.989  23.876  26.469  1.00  0.00     0.031 C 
ATOM     48  C   UNL A   1      41.297  24.799  28.042  1.00  0.00     0.029 A 
ATOM     49  N   UNL A   1      42.737  26.509  28.050  1.00  0.00    -0.354 N 
ATOM     50  C   UNL A   1      46.845  25.967  26.827  1.00  0.00     0.074 A 
ATOM     51  C   UNL A   1      47.095  24.606  26.405  1.00  0.00     0.031 C 
ATOM     52  C   UNL A   1      40.620  25.892  28.424  1.00  0.00     0.029 A 
ATOM     53  C   UNL A   1      41.536  27.027  28.467  1.00  0.00     0.049 A 
ATOM     54  H   UNL A   1      43.558  27.046  27.969  1.00  0.00     0.167 HD
ATOM     55  C   UNL A   1      47.769  26.957  26.810  1.00  0.00     0.037 A 
ATOM     56  C   UNL A   1      41.210  28.275  28.854  1.00  0.00     0.037 A 
ATOM     57  C   UNL A   1      47.513  28.318  27.201  1.00  0.00     0.049 A 
ATOM     58  C   UNL A   1      42.268  29.343  28.856  1.00  0.00     0.074 A 
ATOM     59  C   UNL A   1      48.383  29.395  27.193  1.00  0.00     0.029 A 
ATOM     60  N   UNL A   1      46.295  28.792  27.663  1.00  0.00    -0.354 N 
ATOM     61  N   UNL A   1      43.519  29.265  28.476  1.00  0.00    -0.248 NA
ATOM     62  C   UNL A   1      41.870  30.668  29.350  1.00  0.00     0.031 C 
ATOM     63  C   UNL A   1      47.702  30.512  27.685  1.00  0.00     0.029 A 
ATOM     64  C   UNL A   1      46.397  30.141  27.960  1.00  0.00     0.049 A 
ATOM     65  H   UNL A   1      45.479  28.250  27.766  1.00  0.00     0.167 HD
ATOM     66  C   UNL A   1      44.057  30.529  28.677  1.00  0.00     0.074 A 
ATOM     67  C   UNL A   1      42.989  31.362  29.188  1.00  0.00     0.031 C 
ATOM     68  C   UNL A   1      45.323  30.956  28.464  1.00  0.00     0.037 A 
BRANCH  55  69
ATOM     69  C   UNL A   1      49.157  26.623  26.347  1.00  0.00     0.064 A 
ATOM     70  C   UNL A   1      49.558  26.844  25.022  1.00  0.00     0.173 A 
ATOM     71  C   UNL A   1      50.122  26.175  27.262  1.00  0.00     0.173 A 
ATOM     72  F   UNL A   1      48.668  27.259  24.108  1.00  0.00    -0.203 F 
ATOM     73  C   UNL A   1      50.877  26.630  24.629  1.00  0.00     0.198 A 
ATOM     74  C   UNL A   1      51.444  25.983  26.870  1.00  0.00     0.198 A 
ATOM     75  F   UNL A   1      49.789  25.954  28.542  1.00  0.00    -0.203 F 
ATOM     76  F   UNL A   1      51.234  26.831  23.353  1.00  0.00    -0.200 F 
ATOM     77  C   UNL A   1      51.821  26.210  25.555  1.00  0.00     0.200 A 
ATOM     78  F   UNL A   1      52.358  25.590  27.769  1.00  0.00    -0.200 F 
ATOM     79  F   UNL A   1      53.094  26.026  25.179  1.00  0.00    -0.200 F 
ENDBRANCH  55  69
BRANCH  56  80
ATOM     80  C   UNL A   1      39.819  28.578  29.276  1.00  0.00     0.064 A 
ATOM     81  C   UNL A   1      39.408  28.376  30.600  1.00  0.00     0.173 A 
ATOM     82  C   UNL A   1      38.876  29.080  28.368  1.00  0.00     0.173 A 
ATOM     83  F   UNL A   1      40.268  27.877  31.500  1.00  0.00    -0.203 F 
ATOM     84  C   UNL A   1      38.102  28.656  30.997  1.00  0.00     0.198 A 
ATOM     85  C   UNL A   1      37.579  29.387  28.772  1.00  0.00     0.198 A 
ATOM     86  F   UNL A   1      39.221  29.292  27.089  1.00  0.00    -0.203 F 
ATOM     87  F   UNL A   1      37.724  28.418  32.262  1.00  0.00    -0.200 F 
ATOM     88  C   UNL A   1      37.190  29.168  30.086  1.00  0.00     0.200 A 
ATOM     89  F   UNL A   1      36.707  29.896  27.892  1.00  0.00    -0.200 F 
ATOM     90  F   UNL A   1      35.938  29.445  30.471  1.00  0.00    -0.200 F 
ENDBRANCH  56  80
BRANCH  68  91
ATOM     91  C   UNL A   1      45.628  32.392  28.771  1.00  0.00     0.064 A 
ATOM     92  C   UNL A   1      45.427  33.398  27.815  1.00  0.00     0.173 A 
ATOM     93  C   UNL A   1      46.062  32.772  30.049  1.00  0.00     0.173 A 
ATOM     94  F   UNL A   1      45.027  33.080  26.574  1.00  0.00    -0.203 F 
ATOM     95  C   UNL A   1      45.663  34.735  28.125  1.00  0.00     0.198 A 
ATOM     96  C   UNL A   1      46.272  34.111  30.363  1.00  0.00     0.198 A 
ATOM     97  F   UNL A   1      46.261  31.846  30.998  1.00  0.00    -0.203 F 
ATOM     98  F   UNL A   1      45.496  35.676  27.187  1.00  0.00    -0.200 F 
ATOM     99  C   UNL A   1      46.076  35.090  29.400  1.00  0.00     0.200 A 
ATOM    100  F   UNL A   1      46.659  34.456  31.599  1.00  0.00    -0.200 F 
ATOM    101  F   UNL A   1      46.290  36.379  29.701  1.00  0.00    -0.200 F 
ENDBRANCH  68  91
ENDBRANCH  42  43
ENDBRANCH  34  37
ENDBRANCH  32  33
ENDBRANCH  31  32
ENDBRANCH  30  31
ENDBRANCH   1  30
TORSDOF 15
ENDMDL
MODEL 3
REMARK VINA RESULT:     -12.4      5.909     11.784
REMARK SMILES Cn1c(=O)c(=O)n(C)c2cc(S(=O)(=O)N3CCC[C@H]3C(=O)NCCCCCCNC(=O)c3ccc(-c4c5nc(c(-c6c(F)c(F)c(F)c(F)c6F)c6ccc([nH]6)c(-c6c(F)c(F)c(F)c(F)c6F)c6nc(c(-c7c(F)c(F)c(F)c(F)c7F)c7ccc4[nH]7)C=C6)C=C5)cc3)ccc21
REMARK SMILES IDX 25 1 24 2 23 3 22 4 20 5 21 6 19 8 15 9 16 10 17 11 18 12
REMARK SMILES IDX 12 13 13 14 14 15 11 16 1 17 2 18 3 19 97 20 4 21 5 22 9 23
REMARK SMILES IDX 96 24 6 25 7 26 10 27 95 28 8 29 26 30 27 31 28 32 29 33
REMARK SMILES IDX 30 34 31 36 32 37 33 38 94 39 34 40 93 41 35 42 36 43 37 44
REMARK SMILES IDX 87 45 38 46 92 47 86 48 88 49 39 50 91 51 85 52 84 53 40 55
REMARK SMILES IDX 72 56 52 57 71 58 53 59 56 60 70 61 89 62 54 63 55 64 69 66
REMARK SMILES IDX 90 67 57 68 41 69 42 70 50 71 43 72 44 73 48 74 51 75 45 76
REMARK SMILES IDX 46 77 49 78 47 79 73 80 74 81 82 82 75 83 76 84 80 85 83 86
REMARK SMILES IDX 77 87 78 88 81 89 79 90 58 91 59 92 67 93 60 94 61 95 65 96
REMARK SMILES IDX 68 97 62 98 63 99 66 100 64 101
REMARK H PARENT 22 7 29 35 88 54 56 65
REMARK Flexibility Score: inf
ROOT
ATOM      1  C   UNL A   1      37.468  21.950  25.028  1.00  0.00     0.002 C 
ENDROOT
BRANCH   1   2
ATOM      2  C   UNL A   1      37.010  22.809  23.846  1.00  0.00     0.021 C 
BRANCH   2   3
ATOM      3  C   UNL A   1      35.592  23.359  24.003  1.00  0.00     0.116 C 
BRANCH   3   4
ATOM      4  N   UNL A   1      34.609  22.469  23.400  1.00  0.00    -0.355 N 
ATOM      5  C   UNL A   1      33.255  22.666  23.233  1.00  0.00     0.238 C 
ATOM      6  O   UNL A   1      32.576  21.746  22.782  1.00  0.00    -0.273 OA
ATOM      7  H   UNL A   1      34.958  21.611  23.068  1.00  0.00     0.163 HD
BRANCH   5   8
ATOM      8  C   UNL A   1      32.686  24.017  23.647  1.00  0.00     0.162 C 
ATOM      9  N   UNL A   1      31.758  24.660  22.694  1.00  0.00    -0.185 NA
ATOM     10  C   UNL A   1      30.394  24.626  23.235  1.00  0.00     0.103 C 
ATOM     11  C   UNL A   1      30.607  24.688  24.734  1.00  0.00     0.019 C 
ATOM     12  C   UNL A   1      31.882  23.890  24.952  1.00  0.00     0.032 C 
BRANCH   9  13
ATOM     13  S   UNL A   1      32.281  25.967  21.775  1.00  0.00     0.243 S 
ATOM     14  O   UNL A   1      31.493  25.984  20.563  1.00  0.00    -0.207 OA
ATOM     15  O   UNL A   1      33.730  25.946  21.742  1.00  0.00    -0.207 OA
BRANCH  13  16
ATOM     16  C   UNL A   1      31.848  27.461  22.676  1.00  0.00     0.084 A 
ATOM     17  C   UNL A   1      29.630  31.669  24.573  1.00  0.00     0.154 C 
ATOM     18  N   UNL A   1      30.762  30.849  24.984  1.00  0.00    -0.305 N 
ATOM     19  C   UNL A   1      31.465  31.233  26.121  1.00  0.00     0.316 A 
ATOM     20  C   UNL A   1      31.133  29.706  24.230  1.00  0.00     0.068 A 
ATOM     21  O   UNL A   1      31.191  32.232  26.782  1.00  0.00    -0.263 OA
ATOM     22  C   UNL A   1      32.637  30.350  26.570  1.00  0.00     0.316 A 
ATOM     23  C   UNL A   1      32.261  28.944  24.582  1.00  0.00     0.069 A 
ATOM     24  C   UNL A   1      30.365  29.313  23.128  1.00  0.00     0.030 A 
ATOM     25  O   UNL A   1      33.211  30.631  27.618  1.00  0.00    -0.263 OA
ATOM     26  N   UNL A   1      32.990  29.269  25.759  1.00  0.00    -0.305 N 
ATOM     27  C   UNL A   1      32.627  27.840  23.778  1.00  0.00     0.050 A 
ATOM     28  C   UNL A   1      30.704  28.191  22.379  1.00  0.00     0.024 A 
ATOM     29  C   UNL A   1      34.100  28.435  26.193  1.00  0.00     0.154 C 
ENDBRANCH  13  16
ENDBRANCH   9  13
ENDBRANCH   5   8
ENDBRANCH   3   4
ENDBRANCH   2   3
ENDBRANCH   1   2
BRANCH   1  30
ATOM     30  C   UNL A   1      37.057  20.475  24.955  1.00  0.00     0.002 C 
BRANCH  30  31
ATOM     31  C   UNL A   1      38.209  19.469  24.988  1.00  0.00     0.021 C 
BRANCH  31  32
ATOM     32  C   UNL A   1      39.450  19.940  25.738  1.00  0.00     0.116 C 
BRANCH  32  33
ATOM     33  N   UNL A   1      40.443  18.887  25.887  1.00  0.00    -0.352 N 
ATOM     34  C   UNL A   1      41.798  18.996  26.093  1.00  0.00     0.251 C 
ATOM     35  H   UNL A   1      40.097  17.968  25.833  1.00  0.00     0.163 HD
ATOM     36  O   UNL A   1      42.520  18.006  26.028  1.00  0.00    -0.269 OA
BRANCH  34  37
ATOM     37  C   UNL A   1      42.389  20.324  26.363  1.00  0.00     0.039 A 
ATOM     38  C   UNL A   1      42.313  20.884  27.640  1.00  0.00     0.014 A 
ATOM     39  C   UNL A   1      43.000  21.025  25.320  1.00  0.00     0.014 A 
ATOM     40  C   UNL A   1      42.703  22.205  27.834  1.00  0.00     0.010 A 
ATOM     41  C   UNL A   1      43.460  22.326  25.537  1.00  0.00     0.010 A 
ATOM     42  C   UNL A   1      43.271  22.944  26.784  1.00  0.00    -0.014 A 
BRANCH  42  43
ATOM     43  C   UNL A   1      43.645  24.365  27.010  1.00  0.00     0.031 A 
ATOM     44  C   UNL A   1      42.645  25.341  27.568  1.00  0.00     0.074 A 
ATOM     45  C   UNL A   1      44.911  24.760  26.767  1.00  0.00     0.049 A 
ATOM     46  N   UNL A   1      42.800  26.613  27.845  1.00  0.00    -0.248 NA
ATOM     47  C   UNL A   1      41.296  24.830  27.855  1.00  0.00     0.031 C 
ATOM     48  C   UNL A   1      45.972  23.901  26.237  1.00  0.00     0.029 A 
ATOM     49  N   UNL A   1      45.526  25.971  26.955  1.00  0.00    -0.354 N 
ATOM     50  C   UNL A   1      41.571  27.053  28.318  1.00  0.00     0.074 A 
ATOM     51  C   UNL A   1      40.670  25.923  28.273  1.00  0.00     0.031 C 
ATOM     52  C   UNL A   1      47.116  24.599  26.186  1.00  0.00     0.029 A 
ATOM     53  C   UNL A   1      46.859  25.967  26.624  1.00  0.00     0.049 A 
ATOM     54  H   UNL A   1      45.057  26.767  27.295  1.00  0.00     0.167 HD
ATOM     55  C   UNL A   1      41.232  28.286  28.763  1.00  0.00     0.037 A 
ATOM     56  C   UNL A   1      47.770  26.957  26.656  1.00  0.00     0.037 A 
ATOM     57  C   UNL A   1      42.138  29.404  28.837  1.00  0.00     0.049 A 
ATOM     58  C   UNL A   1      47.353  28.325  27.123  1.00  0.00     0.074 A 
ATOM     59  C   UNL A   1      41.888  30.685  29.297  1.00  0.00     0.029 A 
ATOM     60  N   UNL A   1      43.467  29.371  28.446  1.00  0.00    -0.354 N 
ATOM     61  N   UNL A   1      46.189  28.722  27.575  1.00  0.00    -0.248 NA
ATOM     62  C   UNL A   1      48.372  29.381  27.074  1.00  0.00     0.031 C 
ATOM     63  C   UNL A   1      43.056  31.438  29.151  1.00  0.00     0.029 A 
ATOM     64  C   UNL A   1      44.045  30.615  28.639  1.00  0.00     0.049 A 
ATOM     65  H   UNL A   1      43.932  28.581  28.084  1.00  0.00     0.167 HD
ATOM     66  C   UNL A   1      46.337  30.070  27.871  1.00  0.00     0.074 A 
ATOM     67  C   UNL A   1      47.711  30.417  27.573  1.00  0.00     0.031 C 
ATOM     68  C   UNL A   1      45.414  30.942  28.340  1.00  0.00     0.037 A 
BRANCH  55  69
ATOM     69  C   UNL A   1      39.821  28.512  29.217  1.00  0.00     0.064 A 
ATOM     70  C   UNL A   1      39.438  28.288  30.547  1.00  0.00     0.173 A 
ATOM     71  C   UNL A   1      38.870  29.056  28.341  1.00  0.00     0.173 A 
ATOM     72  F   UNL A   1      40.308  27.758  31.421  1.00  0.00    -0.203 F 
ATOM     73  C   UNL A   1      38.152  28.601  30.984  1.00  0.00     0.198 A 
ATOM     74  C   UNL A   1      37.593  29.387  28.785  1.00  0.00     0.198 A 
ATOM     75  F   UNL A   1      39.190  29.293  27.060  1.00  0.00    -0.203 F 
ATOM     76  F   UNL A   1      37.802  28.363  32.255  1.00  0.00    -0.200 F 
ATOM     77  C   UNL A   1      37.235  29.160  30.106  1.00  0.00     0.200 A 
ATOM     78  F   UNL A   1      36.712  29.939  27.939  1.00  0.00    -0.200 F 
ATOM     79  F   UNL A   1      36.006  29.481  30.533  1.00  0.00    -0.200 F 
ENDBRANCH  55  69
BRANCH  56  80
ATOM     80  C   UNL A   1      49.167  26.690  26.228  1.00  0.00     0.064 A 
ATOM     81  C   UNL A   1      50.118  26.205  27.134  1.00  0.00     0.173 A 
ATOM     82  C   UNL A   1      49.575  26.909  24.904  1.00  0.00     0.173 A 
ATOM     83  F   UNL A   1      49.780  26.000  28.415  1.00  0.00    -0.203 F 
ATOM     84  C   UNL A   1      51.430  25.957  26.734  1.00  0.00     0.198 A 
ATOM     85  C   UNL A   1      50.879  26.634  24.499  1.00  0.00     0.198 A 
ATOM     86  F   UNL A   1      48.701  27.372  23.998  1.00  0.00    -0.203 F 
ATOM     87  F   UNL A   1      52.330  25.528  27.630  1.00  0.00    -0.200 F 
ATOM     88  C   UNL A   1      51.808  26.165  25.416  1.00  0.00     0.200 A 
ATOM     89  F   UNL A   1      51.235  26.821  23.221  1.00  0.00    -0.200 F 
ATOM     90  F   UNL A   1      53.067  25.918  25.030  1.00  0.00    -0.200 F 
ENDBRANCH  56  80
BRANCH  68  91
ATOM     91  C   UNL A   1      45.856  32.356  28.574  1.00  0.00     0.064 A 
ATOM     92  C   UNL A   1      45.704  33.338  27.585  1.00  0.00     0.173 A 
ATOM     93  C   UNL A   1      46.374  32.745  29.817  1.00  0.00     0.173 A 
ATOM     94  F   UNL A   1      45.227  33.010  26.375  1.00  0.00    -0.203 F 
ATOM     95  C   UNL A   1      46.069  34.659  27.830  1.00  0.00     0.198 A 
ATOM     96  C   UNL A   1      46.713  34.071  30.067  1.00  0.00     0.198 A 
ATOM     97  F   UNL A   1      46.531  31.841  30.797  1.00  0.00    -0.203 F 
ATOM     98  F   UNL A   1      45.946  35.575  26.860  1.00  0.00    -0.200 F 
ATOM     99  C   UNL A   1      46.564  35.026  29.072  1.00  0.00     0.200 A 
ATOM    100  F   UNL A   1      47.180  34.427  31.272  1.00  0.00    -0.200 F 
ATOM    101  F   UNL A   1      46.901  36.300  29.310  1.00  0.00    -0.200 F 
ENDBRANCH  68  91
ENDBRANCH  42  43
ENDBRANCH  34  37
ENDBRANCH  32  33
ENDBRANCH  31  32
ENDBRANCH  30  31
ENDBRANCH   1  30
TORSDOF 15
ENDMDL
