MODEL 1
REMARK VINA RESULT:     -11.6      0.000      0.000
REMARK SMILES [NH3+]C[C@H]1CC[C@@H](C(=O)N[C@H](C(=O)NCCCCCCNC(=O)c2ccc(-c3c4nc(c(-c5c(F)c(F)c(F)c(F)c5F)c5ccc([nH]5)c(-c5c(F)c(F)c(F)c(F)c5F)c5nc(c(-c6c(F)c(F)c(F)c(F)c6F)c6ccc3[nH]6)C=C5)C=C4)cc2)C2CCCCC2)O1
REMARK SMILES IDX 15 1 14 2 13 3 11 4 12 5 10 7 9 8 7 9 8 10 6 12 3 13 4 14
REMARK SMILES IDX 92 15 5 16 2 17 1 18 86 22 87 23 91 24 88 25 90 26 89 27
REMARK SMILES IDX 16 28 17 29 18 30 19 31 20 32 21 33 22 35 23 36 24 37 85 38
REMARK SMILES IDX 25 39 84 40 26 41 27 42 28 43 78 44 29 45 83 46 77 47 79 48
REMARK SMILES IDX 30 49 82 50 76 51 75 52 31 54 63 55 43 56 62 57 44 58 47 59
REMARK SMILES IDX 61 60 80 61 45 62 46 63 60 65 81 66 48 67 32 68 33 69 41 70
REMARK SMILES IDX 34 71 35 72 39 73 42 74 36 75 37 76 40 77 38 78 64 79 65 80
REMARK SMILES IDX 73 81 66 82 67 83 71 84 74 85 68 86 69 87 72 88 70 89 49 90
REMARK SMILES IDX 50 91 58 92 51 93 52 94 56 95 59 96 53 97 54 98 57 99 55 100
REMARK H PARENT 13 6 9 11 1 19 1 20 1 21 20 34 79 53 47 64
REMARK Flexibility Score: inf
ROOT
ATOM      1  C   UNL A   1      39.013  23.061  26.480  1.00  0.00     0.021 C 
ENDROOT
BRANCH   1   2
ATOM      2  C   UNL A   1      37.654  23.571  26.015  1.00  0.00     0.116 C 
BRANCH   2   3
ATOM      3  N   UNL A   1      37.439  23.318  24.611  1.00  0.00    -0.354 N 
ATOM      4  C   UNL A   1      36.348  23.212  23.817  1.00  0.00     0.242 C 
ATOM      5  O   UNL A   1      36.629  22.911  22.649  1.00  0.00    -0.273 OA
ATOM      6  H   UNL A   1      38.281  23.195  24.115  1.00  0.00     0.163 HD
BRANCH   4   7
ATOM      7  C   UNL A   1      34.866  23.571  24.208  1.00  0.00     0.174 C 
BRANCH   7   8
ATOM      8  N   UNL A   1      34.559  22.743  25.392  1.00  0.00    -0.342 N 
ATOM      9  C   UNL A   1      34.096  21.473  25.554  1.00  0.00     0.249 C 
ATOM     10  O   UNL A   1      33.926  21.114  26.724  1.00  0.00    -0.272 OA
ATOM     11  H   UNL A   1      34.724  23.208  26.244  1.00  0.00     0.164 HD
BRANCH   9  12
ATOM     12  C   UNL A   1      33.857  20.524  24.365  1.00  0.00     0.207 C 
ATOM     13  C   UNL A   1      33.323  18.241  24.127  1.00  0.00     0.174 C 
ATOM     14  C   UNL A   1      32.382  19.057  23.258  1.00  0.00     0.041 C 
ATOM     15  O   UNL A   1      34.250  19.175  24.698  1.00  0.00    -0.359 OA
ATOM     16  C   UNL A   1      32.418  20.422  23.903  1.00  0.00     0.045 C 
BRANCH  13  17
ATOM     17  C   UNL A   1      32.620  17.460  25.255  1.00  0.00     0.291 C 
BRANCH  17  18
ATOM     18  N   UNL A   1      32.715  18.103  26.568  1.00  0.00    -0.355 N 
ATOM     19  H   UNL A   1      32.515  19.099  26.475  1.00  0.00     0.344 HD
ATOM     20  H   UNL A   1      33.656  17.979  26.941  1.00  0.00     0.344 HD
ATOM     21  H   UNL A   1      32.038  17.679  27.204  1.00  0.00     0.344 HD
ENDBRANCH  17  18
ENDBRANCH  13  17
ENDBRANCH   9  12
ENDBRANCH   7   8
BRANCH   7  22
ATOM     22  C   UNL A   1      34.542  25.070  24.501  1.00  0.00     0.021 C 
ATOM     23  C   UNL A   1      33.672  25.701  23.382  1.00  0.00     0.006 C 
ATOM     24  C   UNL A   1      33.783  25.377  25.817  1.00  0.00     0.006 C 
ATOM     25  C   UNL A   1      33.679  27.225  23.533  1.00  0.00     0.000 C 
ATOM     26  C   UNL A   1      33.647  26.887  26.047  1.00  0.00     0.000 C 
ATOM     27  C   UNL A   1      33.052  27.638  24.859  1.00  0.00     0.000 C 
ENDBRANCH   7  22
ENDBRANCH   4   7
ENDBRANCH   2   3
ENDBRANCH   1   2
BRANCH   1  28
ATOM     28  C   UNL A   1      39.325  21.629  26.036  1.00  0.00     0.002 C 
BRANCH  28  29
ATOM     29  C   UNL A   1      40.715  21.114  26.426  1.00  0.00     0.002 C 
BRANCH  29  30
ATOM     30  C   UNL A   1      41.020  19.667  26.024  1.00  0.00     0.021 C 
BRANCH  30  31
ATOM     31  C   UNL A   1      42.356  19.130  26.529  1.00  0.00     0.116 C 
BRANCH  31  32
ATOM     32  N   UNL A   1      43.246  18.771  25.438  1.00  0.00    -0.352 N 
ATOM     33  C   UNL A   1      44.058  19.564  24.676  1.00  0.00     0.251 C 
ATOM     34  H   UNL A   1      43.268  17.812  25.213  1.00  0.00     0.163 HD
ATOM     35  O   UNL A   1      44.583  19.111  23.655  1.00  0.00    -0.269 OA
BRANCH  33  36
ATOM     36  C   UNL A   1      44.304  20.969  25.059  1.00  0.00     0.039 A 
ATOM     37  C   UNL A   1      43.747  21.988  24.283  1.00  0.00     0.014 A 
ATOM     38  C   UNL A   1      45.106  21.282  26.160  1.00  0.00     0.014 A 
ATOM     39  C   UNL A   1      43.955  23.322  24.637  1.00  0.00     0.010 A 
ATOM     40  C   UNL A   1      45.258  22.609  26.552  1.00  0.00     0.010 A 
ATOM     41  C   UNL A   1      44.689  23.642  25.791  1.00  0.00    -0.014 A 
BRANCH  41  42
ATOM     42  C   UNL A   1      44.879  25.053  26.210  1.00  0.00     0.031 A 
ATOM     43  C   UNL A   1      46.241  25.685  26.131  1.00  0.00     0.074 A 
ATOM     44  C   UNL A   1      43.840  25.742  26.717  1.00  0.00     0.049 A 
ATOM     45  N   UNL A   1      46.626  26.873  26.523  1.00  0.00    -0.248 NA
ATOM     46  C   UNL A   1      47.318  24.865  25.554  1.00  0.00     0.031 C 
ATOM     47  C   UNL A   1      42.482  25.221  26.885  1.00  0.00     0.029 A 
ATOM     48  N   UNL A   1      43.765  27.025  27.197  1.00  0.00    -0.354 N 
ATOM     49  C   UNL A   1      47.986  26.939  26.249  1.00  0.00     0.074 A 
ATOM     50  C   UNL A   1      48.372  25.654  25.709  1.00  0.00     0.031 C 
ATOM     51  C   UNL A   1      41.706  26.179  27.418  1.00  0.00     0.029 A 
ATOM     52  C   UNL A   1      42.519  27.366  27.663  1.00  0.00     0.049 A 
ATOM     53  H   UNL A   1      44.532  27.642  27.208  1.00  0.00     0.167 HD
ATOM     54  C   UNL A   1      48.830  27.986  26.411  1.00  0.00     0.037 A 
ATOM     55  C   UNL A   1      42.085  28.506  28.235  1.00  0.00     0.037 A 
ATOM     56  C   UNL A   1      48.437  29.269  26.930  1.00  0.00     0.049 A 
ATOM     57  C   UNL A   1      43.046  29.651  28.408  1.00  0.00     0.074 A 
ATOM     58  C   UNL A   1      49.209  30.406  27.097  1.00  0.00     0.029 A 
ATOM     59  N   UNL A   1      47.158  29.587  27.363  1.00  0.00    -0.354 N 
ATOM     60  N   UNL A   1      44.317  29.719  28.096  1.00  0.00    -0.248 NA
ATOM     61  C   UNL A   1      42.510  30.882  29.005  1.00  0.00     0.031 C 
ATOM     62  C   UNL A   1      48.406  31.400  27.667  1.00  0.00     0.029 A 
ATOM     63  C   UNL A   1      47.123  30.899  27.810  1.00  0.00     0.049 A 
ATOM     64  H   UNL A   1      46.389  28.972  27.354  1.00  0.00     0.167 HD
ATOM     65  C   UNL A   1      44.724  31.003  28.429  1.00  0.00     0.074 A 
ATOM     66  C   UNL A   1      43.560  31.687  28.954  1.00  0.00     0.031 C 
ATOM     67  C   UNL A   1      45.952  31.566  28.316  1.00  0.00     0.037 A 
BRANCH  54  68
ATOM     68  C   UNL A   1      50.263  27.793  26.009  1.00  0.00     0.064 A 
ATOM     69  C   UNL A   1      51.254  27.498  26.957  1.00  0.00     0.173 A 
ATOM     70  C   UNL A   1      50.642  27.853  24.660  1.00  0.00     0.173 A 
ATOM     71  F   UNL A   1      50.946  27.442  28.261  1.00  0.00    -0.203 F 
ATOM     72  C   UNL A   1      52.576  27.292  26.571  1.00  0.00     0.198 A 
ATOM     73  C   UNL A   1      51.960  27.617  24.274  1.00  0.00     0.198 A 
ATOM     74  F   UNL A   1      49.733  28.126  23.713  1.00  0.00    -0.203 F 
ATOM     75  F   UNL A   1      53.514  27.053  27.499  1.00  0.00    -0.200 F 
ATOM     76  C   UNL A   1      52.926  27.343  25.230  1.00  0.00     0.200 A 
ATOM     77  F   UNL A   1      52.294  27.654  22.977  1.00  0.00    -0.200 F 
ATOM     78  F   UNL A   1      54.197  27.133  24.859  1.00  0.00    -0.200 F 
ENDBRANCH  54  68
BRANCH  55  79
ATOM     79  C   UNL A   1      40.670  28.627  28.677  1.00  0.00     0.064 A 
ATOM     80  C   UNL A   1      39.673  29.066  27.795  1.00  0.00     0.173 A 
ATOM     81  C   UNL A   1      40.289  28.323  29.993  1.00  0.00     0.173 A 
ATOM     82  F   UNL A   1      39.991  29.387  26.532  1.00  0.00    -0.203 F 
ATOM     83  C   UNL A   1      38.355  29.225  28.220  1.00  0.00     0.198 A 
ATOM     84  C   UNL A   1      38.967  28.453  30.407  1.00  0.00     0.198 A 
ATOM     85  F   UNL A   1      41.204  27.890  30.874  1.00  0.00    -0.203 F 
ATOM     86  F   UNL A   1      37.433  29.699  27.370  1.00  0.00    -0.200 F 
ATOM     87  C   UNL A   1      38.002  28.914  29.524  1.00  0.00     0.200 A 
ATOM     88  F   UNL A   1      38.626  28.136  31.664  1.00  0.00    -0.200 F 
ATOM     89  F   UNL A   1      36.735  29.068  29.932  1.00  0.00    -0.200 F 
ENDBRANCH  55  79
BRANCH  67  90
ATOM     90  C   UNL A   1      46.091  33.001  28.730  1.00  0.00     0.064 A 
ATOM     91  C   UNL A   1      46.455  33.358  30.036  1.00  0.00     0.173 A 
ATOM     92  C   UNL A   1      45.895  34.031  27.796  1.00  0.00     0.173 A 
ATOM     93  F   UNL A   1      46.637  32.412  30.969  1.00  0.00    -0.203 F 
ATOM     94  C   UNL A   1      46.592  34.696  30.399  1.00  0.00     0.198 A 
ATOM     95  C   UNL A   1      46.063  35.364  28.154  1.00  0.00     0.198 A 
ATOM     96  F   UNL A   1      45.552  33.740  26.531  1.00  0.00    -0.203 F 
ATOM     97  F   UNL A   1      46.894  35.016  31.665  1.00  0.00    -0.200 F 
ATOM     98  C   UNL A   1      46.404  35.696  29.457  1.00  0.00     0.200 A 
ATOM     99  F   UNL A   1      45.894  36.329  27.240  1.00  0.00    -0.200 F 
ATOM    100  F   UNL A   1      46.543  36.982  29.807  1.00  0.00    -0.200 F 
ENDBRANCH  67  90
ENDBRANCH  41  42
ENDBRANCH  33  36
ENDBRANCH  31  32
ENDBRANCH  30  31
ENDBRANCH  29  30
ENDBRANCH  28  29
ENDBRANCH   1  28
TORSDOF 18
ENDMDL
MODEL 2
REMARK VINA RESULT:     -11.4      6.042     10.605
REMARK SMILES [NH3+]C[C@H]1CC[C@@H](C(=O)N[C@H](C(=O)NCCCCCCNC(=O)c2ccc(-c3c4nc(c(-c5c(F)c(F)c(F)c(F)c5F)c5ccc([nH]5)c(-c5c(F)c(F)c(F)c(F)c5F)c5nc(c(-c6c(F)c(F)c(F)c(F)c6F)c6ccc3[nH]6)C=C5)C=C4)cc2)C2CCCCC2)O1
REMARK SMILES IDX 15 1 14 2 13 3 11 4 12 5 10 7 9 8 7 9 8 10 6 12 3 13 4 14
REMARK SMILES IDX 92 15 5 16 2 17 1 18 86 22 87 23 91 24 88 25 90 26 89 27
REMARK SMILES IDX 16 28 17 29 18 30 19 31 20 32 21 33 22 35 23 36 24 37 85 38
REMARK SMILES IDX 25 39 84 40 26 41 27 42 28 43 78 44 29 45 83 46 77 47 79 48
REMARK SMILES IDX 30 49 82 50 76 51 75 52 31 54 63 55 43 56 62 57 44 58 47 59
REMARK SMILES IDX 61 60 80 61 45 62 46 63 60 65 81 66 48 67 32 68 33 69 41 70
REMARK SMILES IDX 34 71 35 72 39 73 42 74 36 75 37 76 40 77 38 78 64 79 65 80
REMARK SMILES IDX 73 81 66 82 67 83 71 84 74 85 68 86 69 87 72 88 70 89 49 90
REMARK SMILES IDX 50 91 58 92 51 93 52 94 56 95 59 96 53 97 54 98 57 99 55 100
REMARK H PARENT 13 6 9 11 1 19 1 20 1 21 20 34 79 53 47 64
REMARK Flexibility Score: inf
ROOT
ATOM      1  C   UNL A   1      33.225  29.178  27.133  1.00  0.00     0.021 C 
ENDROOT
BRANCH   1   2
ATOM      2  C   UNL A   1      33.341  27.809  26.472  1.00  0.00     0.116 C 
BRANCH   2   3
ATOM      3  N   UNL A   1      32.156  27.013  26.679  1.00  0.00    -0.354 N 
ATOM      4  C   UNL A   1      31.105  26.650  25.907  1.00  0.00     0.242 C 
ATOM      5  O   UNL A   1      30.253  25.997  26.527  1.00  0.00    -0.273 OA
ATOM      6  H   UNL A   1      32.097  26.649  27.592  1.00  0.00     0.163 HD
BRANCH   4   7
ATOM      7  C   UNL A   1      30.971  26.849  24.351  1.00  0.00     0.174 C 
BRANCH   7   8
ATOM      8  N   UNL A   1      30.629  25.518  23.811  1.00  0.00    -0.342 N 
ATOM      9  C   UNL A   1      31.372  24.468  23.365  1.00  0.00     0.249 C 
ATOM     10  O   UNL A   1      30.727  23.500  22.946  1.00  0.00    -0.272 OA
ATOM     11  H   UNL A   1      29.659  25.356  23.763  1.00  0.00     0.164 HD
BRANCH   9  12
ATOM     12  C   UNL A   1      32.910  24.458  23.432  1.00  0.00     0.207 C 
ATOM     13  C   UNL A   1      34.511  23.755  25.013  1.00  0.00     0.174 C 
ATOM     14  C   UNL A   1      34.881  23.186  23.654  1.00  0.00     0.041 C 
ATOM     15  O   UNL A   1      33.364  24.590  24.796  1.00  0.00    -0.359 OA
ATOM     16  C   UNL A   1      33.568  23.198  22.908  1.00  0.00     0.045 C 
BRANCH  13  17
ATOM     17  C   UNL A   1      34.176  22.686  26.072  1.00  0.00     0.291 C 
BRANCH  17  18
ATOM     18  N   UNL A   1      35.346  21.947  26.557  1.00  0.00    -0.355 N 
ATOM     19  H   UNL A   1      36.096  22.007  25.868  1.00  0.00     0.344 HD
ATOM     20  H   UNL A   1      35.095  20.970  26.702  1.00  0.00     0.344 HD
ATOM     21  H   UNL A   1      35.662  22.352  27.439  1.00  0.00     0.344 HD
ENDBRANCH  17  18
ENDBRANCH  13  17
ENDBRANCH   9  12
ENDBRANCH   7   8
BRANCH   7  22
ATOM     22  C   UNL A   1      29.945  27.914  23.848  1.00  0.00     0.021 C 
ATOM     23  C   UNL A   1      30.440  28.629  22.563  1.00  0.00     0.006 C 
ATOM     24  C   UNL A   1      28.524  27.403  23.497  1.00  0.00     0.006 C 
ATOM     25  C   UNL A   1      29.588  29.877  22.318  1.00  0.00     0.000 C 
ATOM     26  C   UNL A   1      27.582  28.563  23.147  1.00  0.00     0.000 C 
ATOM     27  C   UNL A   1      28.132  29.496  22.073  1.00  0.00     0.000 C 
ENDBRANCH   7  22
ENDBRANCH   4   7
ENDBRANCH   2   3
ENDBRANCH   1   2
BRANCH   1  28
ATOM     28  C   UNL A   1      31.804  29.748  27.135  1.00  0.00     0.002 C 
BRANCH  28  29
ATOM     29  C   UNL A   1      31.525  30.805  26.060  1.00  0.00     0.002 C 
BRANCH  29  30
ATOM     30  C   UNL A   1      31.382  32.244  26.568  1.00  0.00     0.021 C 
BRANCH  30  31
ATOM     31  C   UNL A   1      32.630  32.813  27.235  1.00  0.00     0.116 C 
BRANCH  31  32
ATOM     32  N   UNL A   1      32.448  34.197  27.640  1.00  0.00    -0.352 N 
ATOM     33  C   UNL A   1      33.048  34.897  28.649  1.00  0.00     0.251 C 
ATOM     34  H   UNL A   1      31.794  34.707  27.109  1.00  0.00     0.163 HD
ATOM     35  O   UNL A   1      32.612  36.004  28.977  1.00  0.00    -0.269 OA
BRANCH  33  36
ATOM     36  C   UNL A   1      34.211  34.333  29.362  1.00  0.00     0.039 A 
ATOM     37  C   UNL A   1      33.993  33.558  30.504  1.00  0.00     0.014 A 
ATOM     38  C   UNL A   1      35.514  34.592  28.926  1.00  0.00     0.014 A 
ATOM     39  C   UNL A   1      35.079  33.003  31.182  1.00  0.00     0.010 A 
ATOM     40  C   UNL A   1      36.592  33.984  29.564  1.00  0.00     0.010 A 
ATOM     41  C   UNL A   1      36.386  33.189  30.702  1.00  0.00    -0.014 A 
BRANCH  41  42
ATOM     42  C   UNL A   1      37.548  32.566  31.382  1.00  0.00     0.031 A 
ATOM     43  C   UNL A   1      38.280  31.425  30.731  1.00  0.00     0.074 A 
ATOM     44  C   UNL A   1      37.904  32.987  32.610  1.00  0.00     0.049 A 
ATOM     45  N   UNL A   1      39.264  30.698  31.197  1.00  0.00    -0.248 NA
ATOM     46  C   UNL A   1      37.832  31.036  29.384  1.00  0.00     0.031 C 
ATOM     47  C   UNL A   1      37.242  34.055  33.362  1.00  0.00     0.029 A 
ATOM     48  N   UNL A   1      38.902  32.560  33.449  1.00  0.00    -0.354 N 
ATOM     49  C   UNL A   1      39.545  29.765  30.209  1.00  0.00     0.074 A 
ATOM     50  C   UNL A   1      38.594  29.978  29.140  1.00  0.00     0.031 C 
ATOM     51  C   UNL A   1      37.860  34.207  34.545  1.00  0.00     0.029 A 
ATOM     52  C   UNL A   1      38.935  33.226  34.650  1.00  0.00     0.049 A 
ATOM     53  H   UNL A   1      39.536  31.844  33.213  1.00  0.00     0.167 HD
ATOM     54  C   UNL A   1      40.524  28.829  30.186  1.00  0.00     0.037 A 
ATOM     55  C   UNL A   1      39.735  33.055  35.719  1.00  0.00     0.037 A 
ATOM     56  C   UNL A   1      41.481  28.633  31.242  1.00  0.00     0.049 A 
ATOM     57  C   UNL A   1      40.811  32.004  35.668  1.00  0.00     0.074 A 
ATOM     58  C   UNL A   1      42.535  27.737  31.297  1.00  0.00     0.029 A 
ATOM     59  N   UNL A   1      41.502  29.348  32.431  1.00  0.00    -0.354 N 
ATOM     60  N   UNL A   1      41.102  31.163  34.706  1.00  0.00    -0.248 NA
ATOM     61  C   UNL A   1      41.679  31.885  36.849  1.00  0.00     0.031 C 
ATOM     62  C   UNL A   1      43.170  27.884  32.535  1.00  0.00     0.029 A 
ATOM     63  C   UNL A   1      42.542  28.904  33.231  1.00  0.00     0.049 A 
ATOM     64  H   UNL A   1      40.870  30.064  32.670  1.00  0.00     0.167 HD
ATOM     65  C   UNL A   1      42.198  30.438  35.151  1.00  0.00     0.074 A 
ATOM     66  C   UNL A   1      42.532  30.948  36.464  1.00  0.00     0.031 C 
ATOM     67  C   UNL A   1      42.867  29.435  34.530  1.00  0.00     0.037 A 
BRANCH  54  68
ATOM     68  C   UNL A   1      40.621  27.953  28.971  1.00  0.00     0.064 A 
ATOM     69  C   UNL A   1      39.845  26.791  28.845  1.00  0.00     0.173 A 
ATOM     70  C   UNL A   1      41.458  28.303  27.901  1.00  0.00     0.173 A 
ATOM     71  F   UNL A   1      39.038  26.406  29.844  1.00  0.00    -0.203 F 
ATOM     72  C   UNL A   1      39.921  26.000  27.701  1.00  0.00     0.198 A 
ATOM     73  C   UNL A   1      41.509  27.525  26.747  1.00  0.00     0.198 A 
ATOM     74  F   UNL A   1      42.217  29.406  27.968  1.00  0.00    -0.203 F 
ATOM     75  F   UNL A   1      39.201  24.871  27.620  1.00  0.00    -0.200 F 
ATOM     76  C   UNL A   1      40.745  26.372  26.650  1.00  0.00     0.200 A 
ATOM     77  F   UNL A   1      42.297  27.893  25.726  1.00  0.00    -0.200 F 
ATOM     78  F   UNL A   1      40.808  25.615  25.545  1.00  0.00    -0.200 F 
ENDBRANCH  54  68
BRANCH  55  79
ATOM     79  C   UNL A   1      39.559  33.904  36.927  1.00  0.00     0.064 A 
ATOM     80  C   UNL A   1      38.841  33.440  38.037  1.00  0.00     0.173 A 
ATOM     81  C   UNL A   1      40.088  35.202  36.989  1.00  0.00     0.173 A 
ATOM     82  F   UNL A   1      38.299  32.213  38.018  1.00  0.00    -0.203 F 
ATOM     83  C   UNL A   1      38.633  34.251  39.151  1.00  0.00     0.198 A 
ATOM     84  C   UNL A   1      39.907  36.000  38.115  1.00  0.00     0.198 A 
ATOM     85  F   UNL A   1      40.791  35.691  35.955  1.00  0.00    -0.203 F 
ATOM     86  F   UNL A   1      37.897  33.801  40.176  1.00  0.00    -0.200 F 
ATOM     87  C   UNL A   1      39.171  35.529  39.191  1.00  0.00     0.200 A 
ATOM     88  F   UNL A   1      40.441  37.229  38.156  1.00  0.00    -0.200 F 
ATOM     89  F   UNL A   1      38.971  36.309  40.263  1.00  0.00    -0.200 F 
ENDBRANCH  55  79
BRANCH  67  90
ATOM     90  C   UNL A   1      44.050  28.851  35.246  1.00  0.00     0.064 A 
ATOM     91  C   UNL A   1      45.346  29.349  35.053  1.00  0.00     0.173 A 
ATOM     92  C   UNL A   1      43.875  27.805  36.166  1.00  0.00     0.173 A 
ATOM     93  F   UNL A   1      45.566  30.337  34.173  1.00  0.00    -0.203 F 
ATOM     94  C   UNL A   1      46.430  28.804  35.736  1.00  0.00     0.198 A 
ATOM     95  C   UNL A   1      44.956  27.284  36.870  1.00  0.00     0.198 A 
ATOM     96  F   UNL A   1      42.653  27.299  36.391  1.00  0.00    -0.203 F 
ATOM     97  F   UNL A   1      47.667  29.263  35.501  1.00  0.00    -0.200 F 
ATOM     98  C   UNL A   1      46.233  27.778  36.649  1.00  0.00     0.200 A 
ATOM     99  F   UNL A   1      44.764  26.302  37.761  1.00  0.00    -0.200 F 
ATOM    100  F   UNL A   1      47.277  27.259  37.311  1.00  0.00    -0.200 F 
ENDBRANCH  67  90
ENDBRANCH  41  42
ENDBRANCH  33  36
ENDBRANCH  31  32
ENDBRANCH  30  31
ENDBRANCH  29  30
ENDBRANCH  28  29
ENDBRANCH   1  28
TORSDOF 18
ENDMDL
MODEL 3
REMARK VINA RESULT:     -11.4      0.356      7.117
REMARK SMILES [NH3+]C[C@H]1CC[C@@H](C(=O)N[C@H](C(=O)NCCCCCCNC(=O)c2ccc(-c3c4nc(c(-c5c(F)c(F)c(F)c(F)c5F)c5ccc([nH]5)c(-c5c(F)c(F)c(F)c(F)c5F)c5nc(c(-c6c(F)c(F)c(F)c(F)c6F)c6ccc3[nH]6)C=C5)C=C4)cc2)C2CCCCC2)O1
REMARK SMILES IDX 15 1 14 2 13 3 11 4 12 5 10 7 9 8 7 9 8 10 6 12 3 13 4 14
REMARK SMILES IDX 92 15 5 16 2 17 1 18 86 22 87 23 91 24 88 25 90 26 89 27
REMARK SMILES IDX 16 28 17 29 18 30 19 31 20 32 21 33 22 35 23 36 24 37 85 38
REMARK SMILES IDX 25 39 84 40 26 41 27 42 28 43 78 44 29 45 83 46 77 47 79 48
REMARK SMILES IDX 30 49 82 50 76 51 75 52 31 54 63 55 43 56 62 57 44 58 47 59
REMARK SMILES IDX 61 60 80 61 45 62 46 63 60 65 81 66 48 67 32 68 33 69 41 70
REMARK SMILES IDX 34 71 35 72 39 73 42 74 36 75 37 76 40 77 38 78 64 79 65 80
REMARK SMILES IDX 73 81 66 82 67 83 71 84 74 85 68 86 69 87 72 88 70 89 49 90
REMARK SMILES IDX 50 91 58 92 51 93 52 94 56 95 59 96 53 97 54 98 57 99 55 100
REMARK H PARENT 13 6 9 11 1 19 1 20 1 21 20 34 79 53 47 64
REMARK Flexibility Score: inf
ROOT
ATOM      1  C   UNL A   1      38.981  23.320  26.587  1.00  0.00     0.021 C 
ENDROOT
BRANCH   1   2
ATOM      2  C   UNL A   1      37.620  23.794  26.091  1.00  0.00     0.116 C 
BRANCH   2   3
ATOM      3  N   UNL A   1      37.413  23.464  24.701  1.00  0.00    -0.354 N 
ATOM      4  C   UNL A   1      36.326  23.287  23.915  1.00  0.00     0.242 C 
ATOM      5  O   UNL A   1      36.616  22.935  22.763  1.00  0.00    -0.273 OA
ATOM      6  H   UNL A   1      38.258  23.340  24.211  1.00  0.00     0.163 HD
BRANCH   4   7
ATOM      7  C   UNL A   1      34.834  23.621  24.289  1.00  0.00     0.174 C 
BRANCH   7   8
ATOM      8  N   UNL A   1      34.522  22.777  25.460  1.00  0.00    -0.342 N 
ATOM      9  C   UNL A   1      34.065  21.502  25.602  1.00  0.00     0.249 C 
ATOM     10  O   UNL A   1      33.887  21.128  26.767  1.00  0.00    -0.272 OA
ATOM     11  H   UNL A   1      34.677  23.232  26.319  1.00  0.00     0.164 HD
BRANCH   9  12
ATOM     12  C   UNL A   1      33.842  20.567  24.399  1.00  0.00     0.207 C 
ATOM     13  C   UNL A   1      33.396  18.269  24.127  1.00  0.00     0.174 C 
ATOM     14  C   UNL A   1      32.407  19.063  23.291  1.00  0.00     0.041 C 
ATOM     15  O   UNL A   1      34.295  19.230  24.699  1.00  0.00    -0.359 OA
ATOM     16  C   UNL A   1      32.400  20.416  23.961  1.00  0.00     0.045 C 
BRANCH  13  17
ATOM     17  C   UNL A   1      32.745  17.440  25.252  1.00  0.00     0.291 C 
BRANCH  17  18
ATOM     18  N   UNL A   1      32.723  18.118  26.550  1.00  0.00    -0.355 N 
ATOM     19  H   UNL A   1      32.268  17.519  27.240  1.00  0.00     0.344 HD
ATOM     20  H   UNL A   1      32.208  18.994  26.469  1.00  0.00     0.344 HD
ATOM     21  H   UNL A   1      33.679  18.312  26.849  1.00  0.00     0.344 HD
ENDBRANCH  17  18
ENDBRANCH  13  17
ENDBRANCH   9  12
ENDBRANCH   7   8
BRANCH   7  22
ATOM     22  C   UNL A   1      34.487  25.113  24.594  1.00  0.00     0.021 C 
ATOM     23  C   UNL A   1      33.691  25.768  23.433  1.00  0.00     0.006 C 
ATOM     24  C   UNL A   1      33.639  25.389  25.862  1.00  0.00     0.006 C 
ATOM     25  C   UNL A   1      33.684  27.288  23.618  1.00  0.00     0.000 C 
ATOM     26  C   UNL A   1      33.483  26.894  26.117  1.00  0.00     0.000 C 
ATOM     27  C   UNL A   1      32.968  27.670  24.908  1.00  0.00     0.000 C 
ENDBRANCH   7  22
ENDBRANCH   4   7
ENDBRANCH   2   3
ENDBRANCH   1   2
BRANCH   1  28
ATOM     28  C   UNL A   1      39.429  21.983  25.991  1.00  0.00     0.002 C 
BRANCH  28  29
ATOM     29  C   UNL A   1      40.528  21.255  26.774  1.00  0.00     0.002 C 
BRANCH  29  30
ATOM     30  C   UNL A   1      40.848  19.833  26.299  1.00  0.00     0.021 C 
BRANCH  30  31
ATOM     31  C   UNL A   1      42.211  19.305  26.733  1.00  0.00     0.116 C 
BRANCH  31  32
ATOM     32  N   UNL A   1      43.036  18.928  25.597  1.00  0.00    -0.352 N 
ATOM     33  C   UNL A   1      43.857  19.699  24.821  1.00  0.00     0.251 C 
ATOM     34  H   UNL A   1      42.999  17.976  25.349  1.00  0.00     0.163 HD
ATOM     35  O   UNL A   1      44.315  19.245  23.768  1.00  0.00    -0.269 OA
BRANCH  33  36
ATOM     36  C   UNL A   1      44.190  21.079  25.226  1.00  0.00     0.039 A 
ATOM     37  C   UNL A   1      43.476  22.139  24.664  1.00  0.00     0.014 A 
ATOM     38  C   UNL A   1      45.225  21.329  26.132  1.00  0.00     0.014 A 
ATOM     39  C   UNL A   1      43.767  23.450  25.046  1.00  0.00     0.010 A 
ATOM     40  C   UNL A   1      45.470  22.631  26.562  1.00  0.00     0.010 A 
ATOM     41  C   UNL A   1      44.747  23.704  26.019  1.00  0.00    -0.014 A 
BRANCH  41  42
ATOM     42  C   UNL A   1      45.035  25.087  26.472  1.00  0.00     0.031 A 
ATOM     43  C   UNL A   1      43.935  25.936  27.047  1.00  0.00     0.074 A 
ATOM     44  C   UNL A   1      46.271  25.596  26.312  1.00  0.00     0.049 A 
ATOM     45  N   UNL A   1      43.966  27.189  27.423  1.00  0.00    -0.248 NA
ATOM     46  C   UNL A   1      42.618  25.297  27.197  1.00  0.00     0.031 C 
ATOM     47  C   UNL A   1      47.408  24.884  25.726  1.00  0.00     0.029 A 
ATOM     48  N   UNL A   1      46.775  26.836  26.613  1.00  0.00    -0.354 N 
ATOM     49  C   UNL A   1      42.679  27.490  27.845  1.00  0.00     0.074 A 
ATOM     50  C   UNL A   1      41.874  26.308  27.627  1.00  0.00     0.031 C 
ATOM     51  C   UNL A   1      48.479  25.694  25.723  1.00  0.00     0.029 A 
ATOM     52  C   UNL A   1      48.096  26.992  26.270  1.00  0.00     0.049 A 
ATOM     53  H   UNL A   1      46.240  27.547  27.035  1.00  0.00     0.167 HD
ATOM     54  C   UNL A   1      42.215  28.641  28.387  1.00  0.00     0.037 A 
ATOM     55  C   UNL A   1      48.902  28.065  26.375  1.00  0.00     0.037 A 
ATOM     56  C   UNL A   1      43.023  29.809  28.620  1.00  0.00     0.049 A 
ATOM     57  C   UNL A   1      48.359  29.333  26.976  1.00  0.00     0.074 A 
ATOM     58  C   UNL A   1      42.656  31.011  29.199  1.00  0.00     0.029 A 
ATOM     59  N   UNL A   1      44.366  29.919  28.288  1.00  0.00    -0.354 N 
ATOM     60  N   UNL A   1      47.153  29.588  27.421  1.00  0.00    -0.248 NA
ATOM     61  C   UNL A   1      49.293  30.462  27.099  1.00  0.00     0.031 C 
ATOM     62  C   UNL A   1      43.767  31.862  29.182  1.00  0.00     0.029 A 
ATOM     63  C   UNL A   1      44.838  31.173  28.637  1.00  0.00     0.049 A 
ATOM     64  H   UNL A   1      44.903  29.210  27.866  1.00  0.00     0.167 HD
ATOM     65  C   UNL A   1      47.190  30.890  27.902  1.00  0.00     0.074 A 
ATOM     66  C   UNL A   1      48.543  31.368  27.709  1.00  0.00     0.031 C 
ATOM     67  C   UNL A   1      46.192  31.626  28.450  1.00  0.00     0.037 A 
BRANCH  54  68
ATOM     68  C   UNL A   1      40.768  28.692  28.782  1.00  0.00     0.064 A 
ATOM     69  C   UNL A   1      40.354  28.378  30.085  1.00  0.00     0.173 A 
ATOM     70  C   UNL A   1      39.791  29.106  27.865  1.00  0.00     0.173 A 
ATOM     71  F   UNL A   1      41.247  27.965  30.996  1.00  0.00    -0.203 F 
ATOM     72  C   UNL A   1      39.012  28.456  30.449  1.00  0.00     0.198 A 
ATOM     73  C   UNL A   1      38.453  29.211  28.241  1.00  0.00     0.198 A 
ATOM     74  F   UNL A   1      40.133  29.422  26.607  1.00  0.00    -0.203 F 
ATOM     75  F   UNL A   1      38.635  28.111  31.689  1.00  0.00    -0.200 F 
ATOM     76  C   UNL A   1      38.065  28.880  29.530  1.00  0.00     0.200 A 
ATOM     77  F   UNL A   1      37.541  29.634  27.355  1.00  0.00    -0.200 F 
ATOM     78  F   UNL A   1      36.775  28.966  29.886  1.00  0.00    -0.200 F 
ENDBRANCH  54  68
BRANCH  55  79
ATOM     79  C   UNL A   1      50.313  27.987  25.911  1.00  0.00     0.064 A 
ATOM     80  C   UNL A   1      50.625  28.013  24.544  1.00  0.00     0.173 A 
ATOM     81  C   UNL A   1      51.374  27.867  26.820  1.00  0.00     0.173 A 
ATOM     82  F   UNL A   1      49.644  28.107  23.635  1.00  0.00    -0.203 F 
ATOM     83  C   UNL A   1      51.942  27.893  24.104  1.00  0.00     0.198 A 
ATOM     84  C   UNL A   1      52.692  27.778  26.381  1.00  0.00     0.198 A 
ATOM     85  F   UNL A   1      51.129  27.846  28.139  1.00  0.00    -0.203 F 
ATOM     86  F   UNL A   1      52.207  27.866  22.791  1.00  0.00    -0.200 F 
ATOM     87  C   UNL A   1      52.975  27.780  25.023  1.00  0.00     0.200 A 
ATOM     88  F   UNL A   1      53.689  27.685  27.272  1.00  0.00    -0.200 F 
ATOM     89  F   UNL A   1      54.241  27.664  24.600  1.00  0.00    -0.200 F 
ENDBRANCH  55  79
BRANCH  67  90
ATOM     90  C   UNL A   1      46.536  33.010  28.915  1.00  0.00     0.064 A 
ATOM     91  C   UNL A   1      47.009  33.254  30.212  1.00  0.00     0.173 A 
ATOM     92  C   UNL A   1      46.426  34.101  28.038  1.00  0.00     0.173 A 
ATOM     93  F   UNL A   1      47.116  32.248  31.092  1.00  0.00    -0.203 F 
ATOM     94  C   UNL A   1      47.336  34.545  30.623  1.00  0.00     0.198 A 
ATOM     95  C   UNL A   1      46.783  35.383  28.442  1.00  0.00     0.198 A 
ATOM     96  F   UNL A   1      45.985  33.918  26.784  1.00  0.00    -0.203 F 
ATOM     97  F   UNL A   1      47.741  34.762  31.882  1.00  0.00    -0.200 F 
ATOM     98  C   UNL A   1      47.230  35.605  29.735  1.00  0.00     0.200 A 
ATOM     99  F   UNL A   1      46.693  36.406  27.581  1.00  0.00    -0.200 F 
ATOM    100  F   UNL A   1      47.551  36.845  30.131  1.00  0.00    -0.200 F 
ENDBRANCH  67  90
ENDBRANCH  41  42
ENDBRANCH  33  36
ENDBRANCH  31  32
ENDBRANCH  30  31
ENDBRANCH  29  30
ENDBRANCH  28  29
ENDBRANCH   1  28
TORSDOF 18
ENDMDL
