MODEL 1
REMARK VINA RESULT:     -10.8      0.000      0.000
REMARK SMILES CC(C)C[C@H](NC(=O)CNC(=O)[C@@H](NC(=O)OCc1ccccc1)C(C)C)C(=O)NCCCCCCNC(=O)c1ccc(-c2c3nc(c(-c4c(F)c(F)c(F)c(F)c4F)c4ccc([nH]4)c(-c4c(F)c(F)c(F)c(F)c4F)c4nc(c(-c5c(F)c(F)c(F)c(F)c5F)c5ccc2[nH]5)C=C4)C=C3)cc1
REMARK SMILES IDX 28 1 29 2 30 3 5 5 4 6 2 7 1 8 3 9 6 10 7 11 8 13 9 14 10 15
REMARK SMILES IDX 11 16 12 18 13 19 14 20 15 21 16 23 17 24 18 25 19 26 20 27
REMARK SMILES IDX 24 28 21 29 23 30 22 31 25 32 26 33 27 34 31 35 32 36 33 37
REMARK SMILES IDX 34 38 35 39 36 40 37 41 38 42 39 44 40 45 41 46 102 47 42 48
REMARK SMILES IDX 101 49 43 50 44 51 45 52 95 53 46 54 100 55 94 56 96 57
REMARK SMILES IDX 47 58 99 59 93 60 92 61 48 63 80 64 60 65 79 66 61 67 64 68
REMARK SMILES IDX 78 69 97 70 62 71 63 72 77 74 98 75 65 76 49 77 50 78 58 79
REMARK SMILES IDX 51 80 52 81 56 82 59 83 53 84 54 85 57 86 55 87 81 88 82 89
REMARK SMILES IDX 90 90 83 91 84 92 88 93 91 94 85 95 86 96 89 97 87 98 66 99
REMARK SMILES IDX 67 100 75 101 68 102 69 103 73 104 76 105 70 106 71 107
REMARK SMILES IDX 74 108 72 109
REMARK H PARENT 30 4 6 12 10 17 14 22 37 43 96 62 64 73
REMARK Flexibility Score: inf
ROOT
ATOM      1  C   UNL A   1      32.280  30.904  26.401  1.00  0.00     0.242 C 
ATOM      2  O   UNL A   1      31.242  31.575  26.457  1.00  0.00    -0.273 OA
ATOM      3  N   UNL A   1      33.210  31.162  27.345  1.00  0.00    -0.354 N 
ATOM      4  H   UNL A   1      32.939  31.801  28.045  1.00  0.00     0.163 HD
ENDROOT
BRANCH   1   5
ATOM      5  C   UNL A   1      32.360  29.672  25.466  1.00  0.00     0.171 C 
BRANCH   5   6
ATOM      6  C   UNL A   1      31.120  29.769  24.582  1.00  0.00     0.038 C 
BRANCH   6   7
ATOM      7  C   UNL A   1      31.271  28.763  23.476  1.00  0.00    -0.015 C 
ATOM      8  C   UNL A   1      30.032  28.609  22.608  1.00  0.00     0.007 C 
ATOM      9  C   UNL A   1      32.617  29.112  22.873  1.00  0.00     0.007 C 
ENDBRANCH   6   7
ENDBRANCH   5   6
BRANCH   5  10
ATOM     10  N   UNL A   1      32.801  28.284  25.909  1.00  0.00    -0.343 N 
ATOM     11  C   UNL A   1      32.457  27.037  26.334  1.00  0.00     0.240 C 
ATOM     12  H   UNL A   1      33.784  28.291  25.870  1.00  0.00     0.164 HD
ATOM     13  O   UNL A   1      33.486  26.343  26.491  1.00  0.00    -0.273 OA
BRANCH  11  14
ATOM     14  C   UNL A   1      31.061  26.210  26.520  1.00  0.00     0.216 C 
BRANCH  14  15
ATOM     15  N   UNL A   1      30.582  24.898  25.987  1.00  0.00    -0.345 N 
ATOM     16  C   UNL A   1      30.980  23.869  25.184  1.00  0.00     0.243 C 
ATOM     17  H   UNL A   1      29.677  24.717  26.330  1.00  0.00     0.164 HD
ATOM     18  O   UNL A   1      30.479  22.796  25.589  1.00  0.00    -0.273 OA
BRANCH  16  19
ATOM     19  C   UNL A   1      31.871  23.742  23.823  1.00  0.00     0.177 C 
BRANCH  19  20
ATOM     20  N   UNL A   1      31.592  22.693  22.817  1.00  0.00    -0.309 N 
ATOM     21  C   UNL A   1      32.075  21.432  22.589  1.00  0.00     0.408 C 
ATOM     22  H   UNL A   1      30.906  22.962  22.164  1.00  0.00     0.167 HD
ATOM     23  O   UNL A   1      31.764  20.847  21.562  1.00  0.00    -0.225 OA
BRANCH  21  24
ATOM     24  O   UNL A   1      32.954  20.974  23.515  1.00  0.00    -0.445 OA
BRANCH  24  25
ATOM     25  C   UNL A   1      32.458  20.108  24.560  1.00  0.00     0.270 C 
BRANCH  25  26
ATOM     26  C   UNL A   1      32.904  18.666  24.658  1.00  0.00    -0.011 A 
ATOM     27  C   UNL A   1      32.629  17.837  25.748  1.00  0.00     0.007 A 
ATOM     28  C   UNL A   1      33.509  18.091  23.522  1.00  0.00     0.007 A 
ATOM     29  C   UNL A   1      32.923  16.471  25.699  1.00  0.00     0.000 A 
ATOM     30  C   UNL A   1      33.819  16.730  23.479  1.00  0.00     0.000 A 
ATOM     31  C   UNL A   1      33.516  15.918  24.566  1.00  0.00     0.000 A 
ENDBRANCH  25  26
ENDBRANCH  24  25
ENDBRANCH  21  24
ENDBRANCH  19  20
BRANCH  19  32
ATOM     32  C   UNL A   1      32.612  24.981  23.258  1.00  0.00     0.015 C 
ATOM     33  C   UNL A   1      34.124  24.750  23.203  1.00  0.00     0.010 C 
ATOM     34  C   UNL A   1      32.168  25.287  21.801  1.00  0.00     0.010 C 
ENDBRANCH  19  32
ENDBRANCH  16  19
ENDBRANCH  14  15
ENDBRANCH  11  14
ENDBRANCH   5  10
ENDBRANCH   1   5
BRANCH   3  35
ATOM     35  C   UNL A   1      34.535  30.638  27.469  1.00  0.00     0.116 C 
BRANCH  35  36
ATOM     36  C   UNL A   1      35.470  31.706  28.019  1.00  0.00     0.021 C 
BRANCH  36  37
ATOM     37  C   UNL A   1      34.706  32.765  28.809  1.00  0.00     0.002 C 
BRANCH  37  38
ATOM     38  C   UNL A   1      35.233  34.193  28.612  1.00  0.00     0.002 C 
BRANCH  38  39
ATOM     39  C   UNL A   1      34.202  35.300  28.847  1.00  0.00     0.021 C 
BRANCH  39  40
ATOM     40  C   UNL A   1      32.899  34.829  29.483  1.00  0.00     0.116 C 
BRANCH  40  41
ATOM     41  N   UNL A   1      32.514  35.650  30.619  1.00  0.00    -0.352 N 
ATOM     42  C   UNL A   1      33.002  35.665  31.895  1.00  0.00     0.251 C 
ATOM     43  H   UNL A   1      31.790  36.294  30.440  1.00  0.00     0.163 HD
ATOM     44  O   UNL A   1      32.442  36.326  32.763  1.00  0.00    -0.269 OA
BRANCH  42  45
ATOM     45  C   UNL A   1      34.197  34.870  32.230  1.00  0.00     0.039 A 
ATOM     46  C   UNL A   1      35.446  35.491  32.177  1.00  0.00     0.014 A 
ATOM     47  C   UNL A   1      34.088  33.518  32.569  1.00  0.00     0.014 A 
ATOM     48  C   UNL A   1      36.591  34.764  32.503  1.00  0.00     0.010 A 
ATOM     49  C   UNL A   1      35.221  32.812  32.955  1.00  0.00     0.010 A 
ATOM     50  C   UNL A   1      36.482  33.426  32.913  1.00  0.00    -0.014 A 
BRANCH  50  51
ATOM     51  C   UNL A   1      37.683  32.637  33.270  1.00  0.00     0.031 A 
ATOM     52  C   UNL A   1      38.385  32.901  34.571  1.00  0.00     0.074 A 
ATOM     53  C   UNL A   1      38.172  31.736  32.398  1.00  0.00     0.049 A 
ATOM     54  N   UNL A   1      39.503  32.396  35.027  1.00  0.00    -0.248 NA
ATOM     55  C   UNL A   1      37.761  33.887  35.470  1.00  0.00     0.031 C 
ATOM     56  C   UNL A   1      37.595  31.425  31.090  1.00  0.00     0.029 A 
ATOM     57  N   UNL A   1      39.278  30.928  32.476  1.00  0.00    -0.354 N 
ATOM     58  C   UNL A   1      39.726  33.019  36.248  1.00  0.00     0.074 A 
ATOM     59  C   UNL A   1      38.652  33.967  36.446  1.00  0.00     0.031 C 
ATOM     60  C   UNL A   1      38.345  30.484  30.492  1.00  0.00     0.029 A 
ATOM     61  C   UNL A   1      39.472  30.153  31.359  1.00  0.00     0.049 A 
ATOM     62  H   UNL A   1      39.875  30.906  33.258  1.00  0.00     0.167 HD
ATOM     63  C   UNL A   1      40.730  32.804  37.130  1.00  0.00     0.037 A 
ATOM     64  C   UNL A   1      40.456  29.282  31.068  1.00  0.00     0.037 A 
ATOM     65  C   UNL A   1      41.770  31.829  36.945  1.00  0.00     0.049 A 
ATOM     66  C   UNL A   1      41.546  29.048  32.077  1.00  0.00     0.074 A 
ATOM     67  C   UNL A   1      42.799  31.489  37.806  1.00  0.00     0.029 A 
ATOM     68  N   UNL A   1      41.909  31.031  35.818  1.00  0.00    -0.354 N 
ATOM     69  N   UNL A   1      41.718  29.600  33.254  1.00  0.00    -0.248 NA
ATOM     70  C   UNL A   1      42.577  28.061  31.723  1.00  0.00     0.031 C 
ATOM     71  C   UNL A   1      43.580  30.508  37.188  1.00  0.00     0.029 A 
ATOM     72  C   UNL A   1      43.013  30.207  35.960  1.00  0.00     0.049 A 
ATOM     73  H   UNL A   1      41.311  31.047  35.037  1.00  0.00     0.167 HD
ATOM     74  C   UNL A   1      42.851  29.008  33.791  1.00  0.00     0.074 A 
ATOM     75  C   UNL A   1      43.324  28.047  32.818  1.00  0.00     0.031 C 
ATOM     76  C   UNL A   1      43.449  29.239  34.986  1.00  0.00     0.037 A 
BRANCH  63  77
ATOM     77  C   UNL A   1      40.747  33.630  38.381  1.00  0.00     0.064 A 
ATOM     78  C   UNL A   1      41.576  34.755  38.508  1.00  0.00     0.173 A 
ATOM     79  C   UNL A   1      39.891  33.321  39.449  1.00  0.00     0.173 A 
ATOM     80  F   UNL A   1      42.423  35.083  37.521  1.00  0.00    -0.203 F 
ATOM     81  C   UNL A   1      41.562  35.527  39.666  1.00  0.00     0.198 A 
ATOM     82  C   UNL A   1      39.860  34.112  40.594  1.00  0.00     0.198 A 
ATOM     83  F   UNL A   1      39.076  32.259  39.376  1.00  0.00    -0.203 F 
ATOM     84  F   UNL A   1      42.391  36.574  39.780  1.00  0.00    -0.200 F 
ATOM     85  C   UNL A   1      40.698  35.211  40.704  1.00  0.00     0.200 A 
ATOM     86  F   UNL A   1      39.017  33.812  41.592  1.00  0.00    -0.200 F 
ATOM     87  F   UNL A   1      40.679  35.963  41.813  1.00  0.00    -0.200 F 
ENDBRANCH  63  77
BRANCH  64  88
ATOM     88  C   UNL A   1      40.444  28.551  29.776  1.00  0.00     0.064 A 
ATOM     89  C   UNL A   1      41.164  29.030  28.673  1.00  0.00     0.173 A 
ATOM     90  C   UNL A   1      39.704  27.371  29.611  1.00  0.00     0.173 A 
ATOM     91  F   UNL A   1      41.870  30.165  28.776  1.00  0.00    -0.203 F 
ATOM     92  C   UNL A   1      41.125  28.370  27.446  1.00  0.00     0.198 A 
ATOM     93  C   UNL A   1      39.688  26.697  28.391  1.00  0.00     0.198 A 
ATOM     94  F   UNL A   1      39.003  26.868  30.637  1.00  0.00    -0.203 F 
ATOM     95  F   UNL A   1      41.783  28.876  26.395  1.00  0.00    -0.200 F 
ATOM     96  C   UNL A   1      40.390  27.202  27.308  1.00  0.00     0.200 A 
ATOM     97  F   UNL A   1      38.986  25.562  28.264  1.00  0.00    -0.200 F 
ATOM     98  F   UNL A   1      40.351  26.568  26.127  1.00  0.00    -0.200 F 
ENDBRANCH  64  88
BRANCH  76  99
ATOM     99  C   UNL A   1      44.649  28.408  35.327  1.00  0.00     0.064 A 
ATOM    100  C   UNL A   1      45.948  28.832  35.018  1.00  0.00     0.173 A 
ATOM    101  C   UNL A   1      44.494  27.196  36.017  1.00  0.00     0.173 A 
ATOM    102  F   UNL A   1      46.144  29.975  34.346  1.00  0.00    -0.203 F 
ATOM    103  C   UNL A   1      47.052  28.061  35.374  1.00  0.00     0.198 A 
ATOM    104  C   UNL A   1      45.601  26.442  36.394  1.00  0.00     0.198 A 
ATOM    105  F   UNL A   1      43.269  26.753  36.340  1.00  0.00    -0.203 F 
ATOM    106  F   UNL A   1      48.284  28.465  35.036  1.00  0.00    -0.200 F 
ATOM    107  C   UNL A   1      46.878  26.872  36.066  1.00  0.00     0.200 A 
ATOM    108  F   UNL A   1      45.432  25.300  37.074  1.00  0.00    -0.200 F 
ATOM    109  F   UNL A   1      47.943  26.138  36.416  1.00  0.00    -0.200 F 
ENDBRANCH  76  99
ENDBRANCH  50  51
ENDBRANCH  42  45
ENDBRANCH  40  41
ENDBRANCH  39  40
ENDBRANCH  38  39
ENDBRANCH  37  38
ENDBRANCH  36  37
ENDBRANCH  35  36
ENDBRANCH   3  35
TORSDOF 24
ENDMDL
MODEL 2
REMARK VINA RESULT:     -10.6      2.424      7.694
REMARK SMILES CC(C)C[C@H](NC(=O)CNC(=O)[C@@H](NC(=O)OCc1ccccc1)C(C)C)C(=O)NCCCCCCNC(=O)c1ccc(-c2c3nc(c(-c4c(F)c(F)c(F)c(F)c4F)c4ccc([nH]4)c(-c4c(F)c(F)c(F)c(F)c4F)c4nc(c(-c5c(F)c(F)c(F)c(F)c5F)c5ccc2[nH]5)C=C4)C=C3)cc1
REMARK SMILES IDX 28 1 29 2 30 3 5 5 4 6 2 7 1 8 3 9 6 10 7 11 8 13 9 14 10 15
REMARK SMILES IDX 11 16 12 18 13 19 14 20 15 21 16 23 17 24 18 25 19 26 20 27
REMARK SMILES IDX 24 28 21 29 23 30 22 31 25 32 26 33 27 34 31 35 32 36 33 37
REMARK SMILES IDX 34 38 35 39 36 40 37 41 38 42 39 44 40 45 41 46 102 47 42 48
REMARK SMILES IDX 101 49 43 50 44 51 45 52 95 53 46 54 100 55 94 56 96 57
REMARK SMILES IDX 47 58 99 59 93 60 92 61 48 63 80 64 60 65 79 66 61 67 64 68
REMARK SMILES IDX 78 69 97 70 62 71 63 72 77 74 98 75 65 76 49 77 50 78 58 79
REMARK SMILES IDX 51 80 52 81 56 82 59 83 53 84 54 85 57 86 55 87 81 88 82 89
REMARK SMILES IDX 90 90 83 91 84 92 88 93 91 94 85 95 86 96 89 97 87 98 66 99
REMARK SMILES IDX 67 100 75 101 68 102 69 103 73 104 76 105 70 106 71 107
REMARK SMILES IDX 74 108 72 109
REMARK H PARENT 30 4 6 12 10 17 14 22 37 43 96 62 64 73
REMARK Flexibility Score: inf
ROOT
ATOM      1  C   UNL A   1      31.816  27.371  26.381  1.00  0.00     0.242 C 
ATOM      2  O   UNL A   1      31.000  26.890  27.177  1.00  0.00    -0.273 OA
ATOM      3  N   UNL A   1      32.970  27.830  26.912  1.00  0.00    -0.354 N 
ATOM      4  H   UNL A   1      33.092  27.657  27.874  1.00  0.00     0.163 HD
ENDROOT
BRANCH   1   5
ATOM      5  C   UNL A   1      31.611  27.197  24.856  1.00  0.00     0.171 C 
BRANCH   5   6
ATOM      6  C   UNL A   1      30.870  28.456  24.413  1.00  0.00     0.038 C 
BRANCH   6   7
ATOM      7  C   UNL A   1      30.155  28.135  23.131  1.00  0.00    -0.015 C 
ATOM      8  C   UNL A   1      28.687  27.785  23.314  1.00  0.00     0.007 C 
ATOM      9  C   UNL A   1      30.590  29.254  22.204  1.00  0.00     0.007 C 
ENDBRANCH   6   7
ENDBRANCH   5   6
BRANCH   5  10
ATOM     10  N   UNL A   1      31.232  25.885  24.184  1.00  0.00    -0.343 N 
ATOM     11  C   UNL A   1      31.555  24.893  23.309  1.00  0.00     0.240 C 
ATOM     12  H   UNL A   1      30.350  25.643  24.549  1.00  0.00     0.164 HD
ATOM     13  O   UNL A   1      30.654  24.025  23.300  1.00  0.00    -0.273 OA
BRANCH  11  14
ATOM     14  C   UNL A   1      32.870  24.497  22.426  1.00  0.00     0.216 C 
BRANCH  14  15
ATOM     15  N   UNL A   1      34.297  24.246  22.791  1.00  0.00    -0.345 N 
ATOM     16  C   UNL A   1      35.077  23.367  23.486  1.00  0.00     0.243 C 
ATOM     17  H   UNL A   1      34.864  24.950  22.400  1.00  0.00     0.164 HD
ATOM     18  O   UNL A   1      36.202  23.279  22.946  1.00  0.00    -0.273 OA
BRANCH  16  19
ATOM     19  C   UNL A   1      34.899  22.494  24.853  1.00  0.00     0.177 C 
BRANCH  19  20
ATOM     20  N   UNL A   1      35.448  21.125  24.967  1.00  0.00    -0.309 N 
ATOM     21  C   UNL A   1      36.708  20.591  24.908  1.00  0.00     0.408 C 
ATOM     22  H   UNL A   1      34.753  20.445  25.117  1.00  0.00     0.167 HD
ATOM     23  O   UNL A   1      36.844  19.376  24.875  1.00  0.00    -0.225 OA
BRANCH  21  24
ATOM     24  O   UNL A   1      37.714  21.494  24.798  1.00  0.00    -0.445 OA
BRANCH  24  25
ATOM     25  C   UNL A   1      38.480  21.812  25.980  1.00  0.00     0.270 C 
BRANCH  25  26
ATOM     26  C   UNL A   1      39.887  21.287  26.166  1.00  0.00    -0.011 A 
ATOM     27  C   UNL A   1      40.226  19.932  26.117  1.00  0.00     0.007 A 
ATOM     28  C   UNL A   1      40.930  22.230  26.253  1.00  0.00     0.007 A 
ATOM     29  C   UNL A   1      41.565  19.530  26.127  1.00  0.00     0.000 A 
ATOM     30  C   UNL A   1      42.267  21.829  26.281  1.00  0.00     0.000 A 
ATOM     31  C   UNL A   1      42.585  20.476  26.208  1.00  0.00     0.000 A 
ENDBRANCH  25  26
ENDBRANCH  24  25
ENDBRANCH  21  24
ENDBRANCH  19  20
BRANCH  19  32
ATOM     32  C   UNL A   1      34.693  23.209  26.213  1.00  0.00     0.015 C 
ATOM     33  C   UNL A   1      33.359  23.962  26.250  1.00  0.00     0.010 C 
ATOM     34  C   UNL A   1      34.646  22.190  27.385  1.00  0.00     0.010 C 
ENDBRANCH  19  32
ENDBRANCH  16  19
ENDBRANCH  14  15
ENDBRANCH  11  14
ENDBRANCH   5  10
ENDBRANCH   1   5
BRANCH   3  35
ATOM     35  C   UNL A   1      34.039  28.532  26.271  1.00  0.00     0.116 C 
BRANCH  35  36
ATOM     36  C   UNL A   1      34.912  29.218  27.312  1.00  0.00     0.021 C 
BRANCH  36  37
ATOM     37  C   UNL A   1      34.369  30.597  27.677  1.00  0.00     0.002 C 
BRANCH  37  38
ATOM     38  C   UNL A   1      32.996  30.911  27.069  1.00  0.00     0.002 C 
BRANCH  38  39
ATOM     39  C   UNL A   1      32.342  32.197  27.580  1.00  0.00     0.021 C 
BRANCH  39  40
ATOM     40  C   UNL A   1      33.017  33.481  27.111  1.00  0.00     0.116 C 
BRANCH  40  41
ATOM     41  N   UNL A   1      32.603  34.636  27.890  1.00  0.00    -0.352 N 
ATOM     42  C   UNL A   1      33.060  35.088  29.096  1.00  0.00     0.251 C 
ATOM     43  H   UNL A   1      31.883  35.173  27.488  1.00  0.00     0.163 HD
ATOM     44  O   UNL A   1      32.478  35.999  29.675  1.00  0.00    -0.269 OA
BRANCH  42  45
ATOM     45  C   UNL A   1      34.247  34.465  29.709  1.00  0.00     0.039 A 
ATOM     46  C   UNL A   1      34.075  33.697  30.862  1.00  0.00     0.014 A 
ATOM     47  C   UNL A   1      35.520  34.659  29.166  1.00  0.00     0.014 A 
ATOM     48  C   UNL A   1      35.181  33.086  31.453  1.00  0.00     0.010 A 
ATOM     49  C   UNL A   1      36.612  33.999  29.718  1.00  0.00     0.010 A 
ATOM     50  C   UNL A   1      36.452  33.218  30.872  1.00  0.00    -0.014 A 
BRANCH  50  51
ATOM     51  C   UNL A   1      37.639  32.572  31.479  1.00  0.00     0.031 A 
ATOM     52  C   UNL A   1      38.323  31.448  30.756  1.00  0.00     0.074 A 
ATOM     53  C   UNL A   1      38.054  32.954  32.701  1.00  0.00     0.049 A 
ATOM     54  N   UNL A   1      39.309  30.686  31.154  1.00  0.00    -0.248 NA
ATOM     55  C   UNL A   1      37.812  31.118  29.414  1.00  0.00     0.031 C 
ATOM     56  C   UNL A   1      37.442  34.008  33.511  1.00  0.00     0.029 A 
ATOM     57  N   UNL A   1      39.080  32.487  33.481  1.00  0.00    -0.354 N 
ATOM     58  C   UNL A   1      39.518  29.775  30.127  1.00  0.00     0.074 A 
ATOM     59  C   UNL A   1      38.534  30.051  29.105  1.00  0.00     0.031 C 
ATOM     60  C   UNL A   1      38.111  34.116  34.670  1.00  0.00     0.029 A 
ATOM     61  C   UNL A   1      39.176  33.117  34.698  1.00  0.00     0.049 A 
ATOM     62  H   UNL A   1      39.690  31.770  33.196  1.00  0.00     0.167 HD
ATOM     63  C   UNL A   1      40.460  28.807  30.041  1.00  0.00     0.037 A 
ATOM     64  C   UNL A   1      40.024  32.902  35.721  1.00  0.00     0.037 A 
ATOM     65  C   UNL A   1      41.463  28.566  31.043  1.00  0.00     0.049 A 
ATOM     66  C   UNL A   1      41.074  31.834  35.588  1.00  0.00     0.074 A 
ATOM     67  C   UNL A   1      42.501  27.651  31.024  1.00  0.00     0.029 A 
ATOM     68  N   UNL A   1      41.555  29.254  32.245  1.00  0.00    -0.354 N 
ATOM     69  N   UNL A   1      41.300  31.014  34.589  1.00  0.00    -0.248 NA
ATOM     70  C   UNL A   1      41.995  31.664  36.722  1.00  0.00     0.031 C 
ATOM     71  C   UNL A   1      43.203  27.763  32.229  1.00  0.00     0.029 A 
ATOM     72  C   UNL A   1      42.627  28.776  32.979  1.00  0.00     0.049 A 
ATOM     73  H   UNL A   1      40.950  29.975  32.531  1.00  0.00     0.167 HD
ATOM     74  C   UNL A   1      42.402  30.258  34.958  1.00  0.00     0.074 A 
ATOM     75  C   UNL A   1      42.808  30.720  36.269  1.00  0.00     0.031 C 
ATOM     76  C   UNL A   1      43.026  29.269  34.272  1.00  0.00     0.037 A 
BRANCH  63  77
ATOM     77  C   UNL A   1      40.459  27.940  28.818  1.00  0.00     0.064 A 
ATOM     78  C   UNL A   1      41.192  28.283  27.672  1.00  0.00     0.173 A 
ATOM     79  C   UNL A   1      39.754  26.726  28.807  1.00  0.00     0.173 A 
ATOM     80  F   UNL A   1      41.871  29.440  27.628  1.00  0.00    -0.203 F 
ATOM     81  C   UNL A   1      41.203  27.455  26.554  1.00  0.00     0.198 A 
ATOM     82  C   UNL A   1      39.789  25.888  27.696  1.00  0.00     0.198 A 
ATOM     83  F   UNL A   1      39.040  26.350  29.878  1.00  0.00    -0.203 F 
ATOM     84  F   UNL A   1      41.878  27.823  25.457  1.00  0.00    -0.200 F 
ATOM     85  C   UNL A   1      40.509  26.254  26.570  1.00  0.00     0.200 A 
ATOM     86  F   UNL A   1      39.126  24.722  27.718  1.00  0.00    -0.200 F 
ATOM     87  F   UNL A   1      40.529  25.453  25.496  1.00  0.00    -0.200 F 
ENDBRANCH  63  77
BRANCH  64  88
ATOM     88  C   UNL A   1      39.929  33.728  36.951  1.00  0.00     0.064 A 
ATOM     89  C   UNL A   1      39.071  33.363  37.997  1.00  0.00     0.173 A 
ATOM     90  C   UNL A   1      40.680  34.903  37.101  1.00  0.00     0.173 A 
ATOM     91  F   UNL A   1      38.317  32.260  37.891  1.00  0.00    -0.203 F 
ATOM     92  C   UNL A   1      38.948  34.156  39.138  1.00  0.00     0.198 A 
ATOM     93  C   UNL A   1      40.577  35.680  38.254  1.00  0.00     0.198 A 
ATOM     94  F   UNL A   1      41.521  35.292  36.132  1.00  0.00    -0.203 F 
ATOM     95  F   UNL A   1      38.083  33.810  40.100  1.00  0.00    -0.200 F 
ATOM     96  C   UNL A   1      39.704  35.311  39.266  1.00  0.00     0.200 A 
ATOM     97  F   UNL A   1      41.318  36.790  38.380  1.00  0.00    -0.200 F 
ATOM     98  F   UNL A   1      39.585  36.074  40.362  1.00  0.00    -0.200 F 
ENDBRANCH  64  88
BRANCH  76  99
ATOM     99  C   UNL A   1      44.238  28.653  34.903  1.00  0.00     0.064 A 
ATOM    100  C   UNL A   1      44.139  27.540  35.750  1.00  0.00     0.173 A 
ATOM    101  C   UNL A   1      45.516  29.153  34.614  1.00  0.00     0.173 A 
ATOM    102  F   UNL A   1      42.938  27.037  36.068  1.00  0.00    -0.203 F 
ATOM    103  C   UNL A   1      45.280  26.961  36.301  1.00  0.00     0.198 A 
ATOM    104  C   UNL A   1      46.655  28.555  35.144  1.00  0.00     0.198 A 
ATOM    105  F   UNL A   1      45.659  30.212  33.803  1.00  0.00    -0.203 F 
ATOM    106  F   UNL A   1      45.162  25.922  37.138  1.00  0.00    -0.200 F 
ATOM    107  C   UNL A   1      46.535  27.463  35.992  1.00  0.00     0.200 A 
ATOM    108  F   UNL A   1      47.867  29.033  34.835  1.00  0.00    -0.200 F 
ATOM    109  F   UNL A   1      47.631  26.897  36.514  1.00  0.00    -0.200 F 
ENDBRANCH  76  99
ENDBRANCH  50  51
ENDBRANCH  42  45
ENDBRANCH  40  41
ENDBRANCH  39  40
ENDBRANCH  38  39
ENDBRANCH  37  38
ENDBRANCH  36  37
ENDBRANCH  35  36
ENDBRANCH   3  35
TORSDOF 24
ENDMDL
MODEL 3
REMARK VINA RESULT:     -10.5      2.422      3.513
REMARK SMILES CC(C)C[C@H](NC(=O)CNC(=O)[C@@H](NC(=O)OCc1ccccc1)C(C)C)C(=O)NCCCCCCNC(=O)c1ccc(-c2c3nc(c(-c4c(F)c(F)c(F)c(F)c4F)c4ccc([nH]4)c(-c4c(F)c(F)c(F)c(F)c4F)c4nc(c(-c5c(F)c(F)c(F)c(F)c5F)c5ccc2[nH]5)C=C4)C=C3)cc1
REMARK SMILES IDX 28 1 29 2 30 3 5 5 4 6 2 7 1 8 3 9 6 10 7 11 8 13 9 14 10 15
REMARK SMILES IDX 11 16 12 18 13 19 14 20 15 21 16 23 17 24 18 25 19 26 20 27
REMARK SMILES IDX 24 28 21 29 23 30 22 31 25 32 26 33 27 34 31 35 32 36 33 37
REMARK SMILES IDX 34 38 35 39 36 40 37 41 38 42 39 44 40 45 41 46 102 47 42 48
REMARK SMILES IDX 101 49 43 50 44 51 45 52 95 53 46 54 100 55 94 56 96 57
REMARK SMILES IDX 47 58 99 59 93 60 92 61 48 63 80 64 60 65 79 66 61 67 64 68
REMARK SMILES IDX 78 69 97 70 62 71 63 72 77 74 98 75 65 76 49 77 50 78 58 79
REMARK SMILES IDX 51 80 52 81 56 82 59 83 53 84 54 85 57 86 55 87 81 88 82 89
REMARK SMILES IDX 90 90 83 91 84 92 88 93 91 94 85 95 86 96 89 97 87 98 66 99
REMARK SMILES IDX 67 100 75 101 68 102 69 103 73 104 76 105 70 106 71 107
REMARK SMILES IDX 74 108 72 109
REMARK H PARENT 30 4 6 12 10 17 14 22 37 43 96 62 64 73
REMARK Flexibility Score: inf
ROOT
ATOM      1  C   UNL A   1      31.834  27.465  26.553  1.00  0.00     0.242 C 
ATOM      2  O   UNL A   1      31.026  26.992  27.362  1.00  0.00    -0.273 OA
ATOM      3  N   UNL A   1      32.939  28.037  27.077  1.00  0.00    -0.354 N 
ATOM      4  H   UNL A   1      33.042  27.946  28.053  1.00  0.00     0.163 HD
ENDROOT
BRANCH   1   5
ATOM      5  C   UNL A   1      31.688  27.164  25.041  1.00  0.00     0.171 C 
BRANCH   5   6
ATOM      6  C   UNL A   1      31.033  28.410  24.454  1.00  0.00     0.038 C 
BRANCH   6   7
ATOM      7  C   UNL A   1      31.238  28.374  22.966  1.00  0.00    -0.015 C 
ATOM      8  C   UNL A   1      30.112  29.015  22.171  1.00  0.00     0.007 C 
ATOM      9  C   UNL A   1      32.676  28.830  22.805  1.00  0.00     0.007 C 
ENDBRANCH   6   7
ENDBRANCH   5   6
BRANCH   5  10
ATOM     10  N   UNL A   1      31.272  25.815  24.470  1.00  0.00    -0.343 N 
ATOM     11  C   UNL A   1      31.511  24.803  23.592  1.00  0.00     0.240 C 
ATOM     12  H   UNL A   1      30.457  25.559  24.958  1.00  0.00     0.164 HD
ATOM     13  O   UNL A   1      30.651  23.905  23.734  1.00  0.00    -0.273 OA
BRANCH  11  14
ATOM     14  C   UNL A   1      32.710  24.418  22.551  1.00  0.00     0.216 C 
BRANCH  14  15
ATOM     15  N   UNL A   1      34.157  24.101  22.745  1.00  0.00    -0.345 N 
ATOM     16  C   UNL A   1      34.973  23.220  23.394  1.00  0.00     0.243 C 
ATOM     17  H   UNL A   1      34.704  24.742  22.236  1.00  0.00     0.164 HD
ATOM     18  O   UNL A   1      36.010  23.028  22.721  1.00  0.00    -0.273 OA
BRANCH  16  19
ATOM     19  C   UNL A   1      34.931  22.446  24.831  1.00  0.00     0.177 C 
BRANCH  19  20
ATOM     20  N   UNL A   1      35.530  21.104  24.998  1.00  0.00    -0.309 N 
ATOM     21  C   UNL A   1      36.810  20.616  24.968  1.00  0.00     0.408 C 
ATOM     22  H   UNL A   1      34.859  20.404  25.166  1.00  0.00     0.167 HD
ATOM     23  O   UNL A   1      36.991  19.407  24.980  1.00  0.00    -0.225 OA
BRANCH  21  24
ATOM     24  O   UNL A   1      37.782  21.552  24.834  1.00  0.00    -0.445 OA
BRANCH  24  25
ATOM     25  C   UNL A   1      38.597  21.863  25.986  1.00  0.00     0.270 C 
BRANCH  25  26
ATOM     26  C   UNL A   1      39.987  21.286  26.140  1.00  0.00    -0.011 A 
ATOM     27  C   UNL A   1      40.268  19.917  26.135  1.00  0.00     0.007 A 
ATOM     28  C   UNL A   1      41.071  22.186  26.146  1.00  0.00     0.007 A 
ATOM     29  C   UNL A   1      41.589  19.459  26.112  1.00  0.00     0.000 A 
ATOM     30  C   UNL A   1      42.390  21.730  26.140  1.00  0.00     0.000 A 
ATOM     31  C   UNL A   1      42.649  20.364  26.114  1.00  0.00     0.000 A 
ENDBRANCH  25  26
ENDBRANCH  24  25
ENDBRANCH  21  24
ENDBRANCH  19  20
BRANCH  19  32
ATOM     32  C   UNL A   1      34.811  23.255  26.147  1.00  0.00     0.015 C 
ATOM     33  C   UNL A   1      35.651  24.534  26.094  1.00  0.00     0.010 C 
ATOM     34  C   UNL A   1      33.346  23.711  26.397  1.00  0.00     0.010 C 
ENDBRANCH  19  32
ENDBRANCH  16  19
ENDBRANCH  14  15
ENDBRANCH  11  14
ENDBRANCH   5  10
ENDBRANCH   1   5
BRANCH   3  35
ATOM     35  C   UNL A   1      33.980  28.758  26.412  1.00  0.00     0.116 C 
BRANCH  35  36
ATOM     36  C   UNL A   1      35.013  29.236  27.423  1.00  0.00     0.021 C 
BRANCH  36  37
ATOM     37  C   UNL A   1      34.681  30.632  27.945  1.00  0.00     0.002 C 
BRANCH  37  38
ATOM     38  C   UNL A   1      33.498  31.301  27.234  1.00  0.00     0.002 C 
BRANCH  38  39
ATOM     39  C   UNL A   1      32.886  32.491  27.978  1.00  0.00     0.021 C 
BRANCH  39  40
ATOM     40  C   UNL A   1      32.977  33.819  27.235  1.00  0.00     0.116 C 
BRANCH  40  41
ATOM     41  N   UNL A   1      32.712  34.954  28.102  1.00  0.00    -0.352 N 
ATOM     42  C   UNL A   1      33.232  35.260  29.329  1.00  0.00     0.251 C 
ATOM     43  H   UNL A   1      32.057  35.601  27.753  1.00  0.00     0.163 HD
ATOM     44  O   UNL A   1      32.768  36.188  29.982  1.00  0.00    -0.269 OA
BRANCH  42  45
ATOM     45  C   UNL A   1      34.342  34.458  29.873  1.00  0.00     0.039 A 
ATOM     46  C   UNL A   1      35.597  34.562  29.270  1.00  0.00     0.014 A 
ATOM     47  C   UNL A   1      34.141  33.592  30.952  1.00  0.00     0.014 A 
ATOM     48  C   UNL A   1      36.667  33.824  29.775  1.00  0.00     0.010 A 
ATOM     49  C   UNL A   1      35.221  32.905  31.494  1.00  0.00     0.010 A 
ATOM     50  C   UNL A   1      36.488  33.007  30.902  1.00  0.00    -0.014 A 
BRANCH  50  51
ATOM     51  C   UNL A   1      37.612  32.219  31.459  1.00  0.00     0.031 A 
ATOM     52  C   UNL A   1      38.127  32.531  32.835  1.00  0.00     0.074 A 
ATOM     53  C   UNL A   1      38.204  31.276  30.703  1.00  0.00     0.049 A 
ATOM     54  N   UNL A   1      39.159  32.033  33.466  1.00  0.00    -0.248 NA
ATOM     55  C   UNL A   1      37.400  33.563  33.594  1.00  0.00     0.031 C 
ATOM     56  C   UNL A   1      37.813  30.915  29.340  1.00  0.00     0.029 A 
ATOM     57  N   UNL A   1      39.272  30.459  30.972  1.00  0.00    -0.354 N 
ATOM     58  C   UNL A   1      39.219  32.706  34.679  1.00  0.00     0.074 A 
ATOM     59  C   UNL A   1      38.145  33.674  34.683  1.00  0.00     0.031 C 
ATOM     60  C   UNL A   1      38.622  29.940  28.895  1.00  0.00     0.029 A 
ATOM     61  C   UNL A   1      39.608  29.633  29.926  1.00  0.00     0.049 A 
ATOM     62  H   UNL A   1      39.752  30.463  31.831  1.00  0.00     0.167 HD
ATOM     63  C   UNL A   1      40.083  32.517  35.703  1.00  0.00     0.037 A 
ATOM     64  C   UNL A   1      40.608  28.738  29.815  1.00  0.00     0.037 A 
ATOM     65  C   UNL A   1      41.121  31.522  35.709  1.00  0.00     0.049 A 
ATOM     66  C   UNL A   1      41.539  28.535  30.978  1.00  0.00     0.074 A 
ATOM     67  C   UNL A   1      42.010  31.208  36.722  1.00  0.00     0.029 A 
ATOM     68  N   UNL A   1      41.404  30.674  34.648  1.00  0.00    -0.354 N 
ATOM     69  N   UNL A   1      41.553  29.136  32.143  1.00  0.00    -0.248 NA
ATOM     70  C   UNL A   1      42.592  27.521  30.815  1.00  0.00     0.031 C 
ATOM     71  C   UNL A   1      42.853  30.190  36.262  1.00  0.00     0.029 A 
ATOM     72  C   UNL A   1      42.461  29.843  34.979  1.00  0.00     0.049 A 
ATOM     73  H   UNL A   1      40.924  30.664  33.790  1.00  0.00     0.167 HD
ATOM     74  C   UNL A   1      42.587  28.554  32.861  1.00  0.00     0.074 A 
ATOM     75  C   UNL A   1      43.175  27.545  32.005  1.00  0.00     0.031 C 
ATOM     76  C   UNL A   1      43.013  28.830  34.118  1.00  0.00     0.037 A 
BRANCH  63  77
ATOM     77  C   UNL A   1      39.938  33.396  36.909  1.00  0.00     0.064 A 
ATOM     78  C   UNL A   1      39.080  33.060  37.966  1.00  0.00     0.173 A 
ATOM     79  C   UNL A   1      40.702  34.568  37.030  1.00  0.00     0.173 A 
ATOM     80  F   UNL A   1      38.318  31.957  37.891  1.00  0.00    -0.203 F 
ATOM     81  C   UNL A   1      38.976  33.873  39.091  1.00  0.00     0.198 A 
ATOM     82  C   UNL A   1      40.615  35.364  38.169  1.00  0.00     0.198 A 
ATOM     83  F   UNL A   1      41.540  34.933  36.049  1.00  0.00    -0.203 F 
ATOM     84  F   UNL A   1      38.120  33.551  40.071  1.00  0.00    -0.200 F 
ATOM     85  C   UNL A   1      39.750  35.019  39.196  1.00  0.00     0.200 A 
ATOM     86  F   UNL A   1      41.372  36.466  38.273  1.00  0.00    -0.200 F 
ATOM     87  F   UNL A   1      39.656  35.795  40.284  1.00  0.00    -0.200 F 
ENDBRANCH  63  77
BRANCH  64  88
ATOM     88  C   UNL A   1      40.766  27.952  28.566  1.00  0.00     0.064 A 
ATOM     89  C   UNL A   1      41.608  28.398  27.538  1.00  0.00     0.173 A 
ATOM     90  C   UNL A   1      40.071  26.751  28.366  1.00  0.00     0.173 A 
ATOM     91  F   UNL A   1      42.277  29.552  27.674  1.00  0.00    -0.203 F 
ATOM     92  C   UNL A   1      41.731  27.685  26.347  1.00  0.00     0.198 A 
ATOM     93  C   UNL A   1      40.215  26.025  27.185  1.00  0.00     0.198 A 
ATOM     94  F   UNL A   1      39.258  26.277  29.321  1.00  0.00    -0.203 F 
ATOM     95  F   UNL A   1      42.504  28.160  25.361  1.00  0.00    -0.200 F 
ATOM     96  C   UNL A   1      41.037  26.497  26.173  1.00  0.00     0.200 A 
ATOM     97  F   UNL A   1      39.553  24.870  27.026  1.00  0.00    -0.200 F 
ATOM     98  F   UNL A   1      41.153  25.812  25.027  1.00  0.00    -0.200 F 
ENDBRANCH  64  88
BRANCH  76  99
ATOM     99  C   UNL A   1      44.137  27.999  34.661  1.00  0.00     0.064 A 
ATOM    100  C   UNL A   1      45.473  28.408  34.550  1.00  0.00     0.173 A 
ATOM    101  C   UNL A   1      43.865  26.805  35.345  1.00  0.00     0.173 A 
ATOM    102  F   UNL A   1      45.782  29.534  33.891  1.00  0.00    -0.203 F 
ATOM    103  C   UNL A   1      46.501  27.639  35.090  1.00  0.00     0.198 A 
ATOM    104  C   UNL A   1      44.892  26.053  35.907  1.00  0.00     0.198 A 
ATOM    105  F   UNL A   1      42.601  26.377  35.482  1.00  0.00    -0.203 F 
ATOM    106  F   UNL A   1      47.774  28.027  34.940  1.00  0.00    -0.200 F 
ATOM    107  C   UNL A   1      46.209  26.467  35.773  1.00  0.00     0.200 A 
ATOM    108  F   UNL A   1      44.609  24.928  36.577  1.00  0.00    -0.200 F 
ATOM    109  F   UNL A   1      47.199  25.735  36.301  1.00  0.00    -0.200 F 
ENDBRANCH  76  99
ENDBRANCH  50  51
ENDBRANCH  42  45
ENDBRANCH  40  41
ENDBRANCH  39  40
ENDBRANCH  38  39
ENDBRANCH  37  38
ENDBRANCH  36  37
ENDBRANCH  35  36
ENDBRANCH   3  35
TORSDOF 24
ENDMDL
