MODEL 1
REMARK VINA RESULT:     -11.9      0.000      0.000
REMARK SMILES COCC[C@@]1(C(=O)NCCCCCCNC(=O)c2ccc(-c3c4nc(c(-c5c(F)c(F)c(F)c(F)c5F)c5ccc([nH]5)c(-c5c(F)c(F)c(F)c(F)c5F)c5nc(c(-c6c(F)c(F)c(F)c(F)c6F)c6ccc3[nH]6)C=C5)C=C4)cc2)CCCN(C(=O)NCc2ccc(OC)cc2)C1
REMARK SMILES IDX 10 1 9 2 8 3 6 4 7 5 5 7 81 8 97 9 82 10 84 11 83 12 4 13
REMARK SMILES IDX 3 14 2 15 1 16 85 17 86 18 87 19 88 21 89 22 90 23 96 24
REMARK SMILES IDX 91 25 95 26 92 27 93 28 94 29 11 30 12 31 13 32 14 33 15 34
REMARK SMILES IDX 16 35 17 37 18 38 19 39 80 40 20 41 79 42 21 43 22 44 23 45
REMARK SMILES IDX 73 46 24 47 78 48 72 49 74 50 25 51 77 52 71 53 70 54 26 56
REMARK SMILES IDX 58 57 38 58 57 59 39 60 42 61 56 62 75 63 40 64 41 65 55 67
REMARK SMILES IDX 76 68 43 69 27 70 28 71 36 72 29 73 30 74 34 75 37 76 31 77
REMARK SMILES IDX 32 78 35 79 33 80 59 81 60 82 68 83 61 84 62 85 66 86 69 87
REMARK SMILES IDX 63 88 64 89 67 90 65 91 44 92 45 93 53 94 46 95 47 96 51 97
REMARK SMILES IDX 54 98 48 99 49 100 52 101 50 102
REMARK H PARENT 8 6 87 20 15 36 74 55 42 66
REMARK Flexibility Score: inf
ROOT
ATOM      1  C   UNL A   1      33.021  29.294  24.695  1.00  0.00     0.021 C 
ENDROOT
BRANCH   1   2
ATOM      2  C   UNL A   1      33.029  27.784  24.895  1.00  0.00     0.116 C 
BRANCH   2   3
ATOM      3  N   UNL A   1      33.621  27.036  23.816  1.00  0.00    -0.356 N 
ATOM      4  C   UNL A   1      33.740  25.704  23.598  1.00  0.00     0.228 C 
ATOM      5  O   UNL A   1      34.063  25.426  22.431  1.00  0.00    -0.274 OA
ATOM      6  H   UNL A   1      34.012  27.595  23.106  1.00  0.00     0.163 HD
BRANCH   4   7
ATOM      7  C   UNL A   1      33.643  24.548  24.651  1.00  0.00     0.069 C 
ATOM      8  C   UNL A   1      33.531  23.228  23.826  1.00  0.00     0.021 C 
ATOM      9  C   UNL A   1      32.517  24.542  25.710  1.00  0.00     0.138 C 
ATOM     10  C   UNL A   1      32.105  22.994  23.308  1.00  0.00     0.023 C 
ATOM     11  N   UNL A   1      31.176  24.253  25.186  1.00  0.00    -0.324 N 
ATOM     12  C   UNL A   1      31.115  22.988  24.465  1.00  0.00     0.121 C 
BRANCH   7  13
ATOM     13  C   UNL A   1      35.036  24.632  25.381  1.00  0.00     0.047 C 
BRANCH  13  14
ATOM     14  C   UNL A   1      35.665  23.339  25.914  1.00  0.00     0.161 C 
BRANCH  14  15
ATOM     15  O   UNL A   1      37.067  23.493  26.094  1.00  0.00    -0.385 OA
ATOM     16  C   UNL A   1      37.829  22.385  25.633  1.00  0.00     0.194 C 
ENDBRANCH  14  15
ENDBRANCH  13  14
ENDBRANCH   7  13
BRANCH  11  17
ATOM     17  C   UNL A   1      30.146  25.031  25.622  1.00  0.00     0.317 C 
ATOM     18  O   UNL A   1      29.754  24.998  26.796  1.00  0.00    -0.249 OA
ATOM     19  N   UNL A   1      29.540  25.961  24.881  1.00  0.00    -0.334 N 
ATOM     20  H   UNL A   1      29.024  26.579  25.447  1.00  0.00     0.165 HD
BRANCH  19  21
ATOM     21  C   UNL A   1      29.426  26.323  23.485  1.00  0.00     0.153 C 
BRANCH  21  22
ATOM     22  C   UNL A   1      28.994  27.767  23.325  1.00  0.00    -0.028 A 
ATOM     23  C   UNL A   1      29.913  28.785  23.013  1.00  0.00     0.009 A 
ATOM     24  C   UNL A   1      27.637  28.107  23.395  1.00  0.00     0.009 A 
ATOM     25  C   UNL A   1      29.489  30.092  22.779  1.00  0.00     0.047 A 
ATOM     26  C   UNL A   1      27.213  29.424  23.157  1.00  0.00     0.047 A 
ATOM     27  C   UNL A   1      28.138  30.418  22.837  1.00  0.00     0.118 A 
BRANCH  27  28
ATOM     28  O   UNL A   1      27.865  31.728  22.566  1.00  0.00    -0.497 OA
ATOM     29  C   UNL A   1      28.747  32.695  23.115  1.00  0.00     0.278 C 
ENDBRANCH  27  28
ENDBRANCH  21  22
ENDBRANCH  19  21
ENDBRANCH  11  17
ENDBRANCH   4   7
ENDBRANCH   2   3
ENDBRANCH   1   2
BRANCH   1  30
ATOM     30  C   UNL A   1      32.742  30.134  25.940  1.00  0.00     0.002 C 
BRANCH  30  31
ATOM     31  C   UNL A   1      31.356  30.781  26.046  1.00  0.00     0.002 C 
BRANCH  31  32
ATOM     32  C   UNL A   1      31.299  32.246  26.490  1.00  0.00     0.021 C 
BRANCH  32  33
ATOM     33  C   UNL A   1      32.581  32.829  27.079  1.00  0.00     0.116 C 
BRANCH  33  34
ATOM     34  N   UNL A   1      32.397  34.174  27.591  1.00  0.00    -0.352 N 
ATOM     35  C   UNL A   1      33.002  34.826  28.629  1.00  0.00     0.251 C 
ATOM     36  H   UNL A   1      31.722  34.707  27.111  1.00  0.00     0.163 HD
ATOM     37  O   UNL A   1      32.570  35.929  28.976  1.00  0.00    -0.269 OA
BRANCH  35  38
ATOM     38  C   UNL A   1      34.160  34.250  29.348  1.00  0.00     0.039 A 
ATOM     39  C   UNL A   1      35.441  34.508  28.845  1.00  0.00     0.014 A 
ATOM     40  C   UNL A   1      34.008  33.385  30.436  1.00  0.00     0.014 A 
ATOM     41  C   UNL A   1      36.561  33.911  29.428  1.00  0.00     0.010 A 
ATOM     42  C   UNL A   1      35.131  32.836  31.058  1.00  0.00     0.010 A 
ATOM     43  C   UNL A   1      36.413  33.068  30.540  1.00  0.00    -0.014 A 
BRANCH  43  44
ATOM     44  C   UNL A   1      37.588  32.365  31.112  1.00  0.00     0.031 A 
ATOM     45  C   UNL A   1      38.077  32.724  32.489  1.00  0.00     0.074 A 
ATOM     46  C   UNL A   1      38.225  31.422  30.394  1.00  0.00     0.049 A 
ATOM     47  N   UNL A   1      39.091  32.242  33.163  1.00  0.00    -0.248 NA
ATOM     48  C   UNL A   1      37.339  33.784  33.195  1.00  0.00     0.031 C 
ATOM     49  C   UNL A   1      37.871  31.012  29.035  1.00  0.00     0.029 A 
ATOM     50  N   UNL A   1      39.304  30.636  30.710  1.00  0.00    -0.354 N 
ATOM     51  C   UNL A   1      39.125  32.953  34.354  1.00  0.00     0.074 A 
ATOM     52  C   UNL A   1      38.058  33.927  34.299  1.00  0.00     0.031 C 
ATOM     53  C   UNL A   1      38.706  30.038  28.640  1.00  0.00     0.029 A 
ATOM     54  C   UNL A   1      39.663  29.767  29.710  1.00  0.00     0.049 A 
ATOM     55  H   UNL A   1      39.778  30.692  31.571  1.00  0.00     0.167 HD
ATOM     56  C   UNL A   1      39.958  32.793  35.412  1.00  0.00     0.037 A 
ATOM     57  C   UNL A   1      40.647  28.849  29.667  1.00  0.00     0.037 A 
ATOM     58  C   UNL A   1      40.993  31.798  35.483  1.00  0.00     0.049 A 
ATOM     59  C   UNL A   1      41.528  28.658  30.872  1.00  0.00     0.074 A 
ATOM     60  C   UNL A   1      41.861  31.525  36.527  1.00  0.00     0.029 A 
ATOM     61  N   UNL A   1      41.293  30.901  34.468  1.00  0.00    -0.354 N 
ATOM     62  N   UNL A   1      41.516  29.299  32.015  1.00  0.00    -0.248 NA
ATOM     63  C   UNL A   1      42.547  27.603  30.787  1.00  0.00     0.031 C 
ATOM     64  C   UNL A   1      42.702  30.477  36.133  1.00  0.00     0.029 A 
ATOM     65  C   UNL A   1      42.334  30.076  34.859  1.00  0.00     0.049 A 
ATOM     66  H   UNL A   1      40.833  30.859  33.598  1.00  0.00     0.167 HD
ATOM     67  C   UNL A   1      42.501  28.708  32.794  1.00  0.00     0.074 A 
ATOM     68  C   UNL A   1      43.086  27.650  31.997  1.00  0.00     0.031 C 
ATOM     69  C   UNL A   1      42.887  29.015  34.057  1.00  0.00     0.037 A 
BRANCH  56  70
ATOM     70  C   UNL A   1      39.777  33.718  36.579  1.00  0.00     0.064 A 
ATOM     71  C   UNL A   1      38.931  33.390  37.650  1.00  0.00     0.173 A 
ATOM     72  C   UNL A   1      40.470  34.935  36.639  1.00  0.00     0.173 A 
ATOM     73  F   UNL A   1      38.234  32.244  37.633  1.00  0.00    -0.203 F 
ATOM     74  C   UNL A   1      38.765  34.261  38.724  1.00  0.00     0.198 A 
ATOM     75  C   UNL A   1      40.323  35.791  37.727  1.00  0.00     0.198 A 
ATOM     76  F   UNL A   1      41.295  35.294  35.644  1.00  0.00    -0.203 F 
ATOM     77  F   UNL A   1      37.916  33.949  39.712  1.00  0.00    -0.200 F 
ATOM     78  C   UNL A   1      39.464  35.457  38.764  1.00  0.00     0.200 A 
ATOM     79  F   UNL A   1      41.006  36.943  37.771  1.00  0.00    -0.200 F 
ATOM     80  F   UNL A   1      39.306  36.293  39.800  1.00  0.00    -0.200 F 
ENDBRANCH  56  70
BRANCH  57  81
ATOM     81  C   UNL A   1      40.818  28.005  28.459  1.00  0.00     0.064 A 
ATOM     82  C   UNL A   1      41.616  28.436  27.390  1.00  0.00     0.173 A 
ATOM     83  C   UNL A   1      40.195  26.754  28.348  1.00  0.00     0.173 A 
ATOM     84  F   UNL A   1      42.216  29.635  27.444  1.00  0.00    -0.203 F 
ATOM     85  C   UNL A   1      41.773  27.655  26.249  1.00  0.00     0.198 A 
ATOM     86  C   UNL A   1      40.370  25.963  27.214  1.00  0.00     0.198 A 
ATOM     87  F   UNL A   1      39.425  26.297  29.346  1.00  0.00    -0.203 F 
ATOM     88  F   UNL A   1      42.511  28.107  25.225  1.00  0.00    -0.200 F 
ATOM     89  C   UNL A   1      41.153  26.416  26.163  1.00  0.00     0.200 A 
ATOM     90  F   UNL A   1      39.779  24.763  27.139  1.00  0.00    -0.200 F 
ATOM     91  F   UNL A   1      41.306  25.664  25.066  1.00  0.00    -0.200 F 
ENDBRANCH  57  81
BRANCH  69  92
ATOM     92  C   UNL A   1      43.961  28.168  34.670  1.00  0.00     0.064 A 
ATOM     93  C   UNL A   1      43.659  26.986  35.361  1.00  0.00     0.173 A 
ATOM     94  C   UNL A   1      45.310  28.527  34.531  1.00  0.00     0.173 A 
ATOM     95  F   UNL A   1      42.383  26.612  35.532  1.00  0.00    -0.203 F 
ATOM     96  C   UNL A   1      44.671  26.204  35.910  1.00  0.00     0.198 A 
ATOM     97  C   UNL A   1      46.320  27.731  35.061  1.00  0.00     0.198 A 
ATOM     98  F   UNL A   1      45.648  29.647  33.873  1.00  0.00    -0.203 F 
ATOM     99  F   UNL A   1      44.360  25.099  36.601  1.00  0.00    -0.200 F 
ATOM    100  C   UNL A   1      46.000  26.573  35.755  1.00  0.00     0.200 A 
ATOM    101  F   UNL A   1      47.603  28.083  34.903  1.00  0.00    -0.200 F 
ATOM    102  F   UNL A   1      46.972  25.816  36.282  1.00  0.00    -0.200 F 
ENDBRANCH  69  92
ENDBRANCH  43  44
ENDBRANCH  35  38
ENDBRANCH  33  34
ENDBRANCH  32  33
ENDBRANCH  31  32
ENDBRANCH  30  31
ENDBRANCH   1  30
TORSDOF 20
ENDMDL
MODEL 2
REMARK VINA RESULT:     -11.7      0.716      7.051
REMARK SMILES COCC[C@@]1(C(=O)NCCCCCCNC(=O)c2ccc(-c3c4nc(c(-c5c(F)c(F)c(F)c(F)c5F)c5ccc([nH]5)c(-c5c(F)c(F)c(F)c(F)c5F)c5nc(c(-c6c(F)c(F)c(F)c(F)c6F)c6ccc3[nH]6)C=C5)C=C4)cc2)CCCN(C(=O)NCc2ccc(OC)cc2)C1
REMARK SMILES IDX 10 1 9 2 8 3 6 4 7 5 5 7 81 8 97 9 82 10 84 11 83 12 4 13
REMARK SMILES IDX 3 14 2 15 1 16 85 17 86 18 87 19 88 21 89 22 90 23 96 24
REMARK SMILES IDX 91 25 95 26 92 27 93 28 94 29 11 30 12 31 13 32 14 33 15 34
REMARK SMILES IDX 16 35 17 37 18 38 19 39 80 40 20 41 79 42 21 43 22 44 23 45
REMARK SMILES IDX 73 46 24 47 78 48 72 49 74 50 25 51 77 52 71 53 70 54 26 56
REMARK SMILES IDX 58 57 38 58 57 59 39 60 42 61 56 62 75 63 40 64 41 65 55 67
REMARK SMILES IDX 76 68 43 69 27 70 28 71 36 72 29 73 30 74 34 75 37 76 31 77
REMARK SMILES IDX 32 78 35 79 33 80 59 81 60 82 68 83 61 84 62 85 66 86 69 87
REMARK SMILES IDX 63 88 64 89 67 90 65 91 44 92 45 93 53 94 46 95 47 96 51 97
REMARK SMILES IDX 54 98 48 99 49 100 52 101 50 102
REMARK H PARENT 8 6 87 20 15 36 74 55 42 66
REMARK Flexibility Score: inf
ROOT
ATOM      1  C   UNL A   1      33.247  29.333  24.618  1.00  0.00     0.021 C 
ENDROOT
BRANCH   1   2
ATOM      2  C   UNL A   1      33.141  27.814  24.614  1.00  0.00     0.116 C 
BRANCH   2   3
ATOM      3  N   UNL A   1      33.649  27.178  23.426  1.00  0.00    -0.356 N 
ATOM      4  C   UNL A   1      33.707  25.878  23.050  1.00  0.00     0.228 C 
ATOM      5  O   UNL A   1      33.960  25.727  21.844  1.00  0.00    -0.274 OA
ATOM      6  H   UNL A   1      34.024  27.804  22.764  1.00  0.00     0.163 HD
BRANCH   4   7
ATOM      7  C   UNL A   1      33.622  24.611  23.969  1.00  0.00     0.069 C 
ATOM      8  C   UNL A   1      33.204  23.434  23.034  1.00  0.00     0.021 C 
ATOM      9  C   UNL A   1      32.687  24.594  25.199  1.00  0.00     0.138 C 
ATOM     10  C   UNL A   1      31.696  23.436  22.747  1.00  0.00     0.023 C 
ATOM     11  N   UNL A   1      31.253  24.534  24.886  1.00  0.00    -0.324 N 
ATOM     12  C   UNL A   1      30.908  23.390  24.051  1.00  0.00     0.121 C 
BRANCH   7  13
ATOM     13  C   UNL A   1      35.111  24.436  24.451  1.00  0.00     0.047 C 
BRANCH  13  14
ATOM     14  C   UNL A   1      35.382  23.597  25.706  1.00  0.00     0.161 C 
BRANCH  14  15
ATOM     15  O   UNL A   1      36.425  22.658  25.473  1.00  0.00    -0.385 OA
ATOM     16  C   UNL A   1      36.744  22.485  24.098  1.00  0.00     0.194 C 
ENDBRANCH  14  15
ENDBRANCH  13  14
ENDBRANCH   7  13
BRANCH  11  17
ATOM     17  C   UNL A   1      30.420  25.359  25.579  1.00  0.00     0.317 C 
ATOM     18  O   UNL A   1      30.531  25.525  26.801  1.00  0.00    -0.249 OA
ATOM     19  N   UNL A   1      29.494  26.137  25.014  1.00  0.00    -0.334 N 
ATOM     20  H   UNL A   1      29.194  26.837  25.639  1.00  0.00     0.165 HD
BRANCH  19  21
ATOM     21  C   UNL A   1      28.804  26.249  23.748  1.00  0.00     0.153 C 
BRANCH  21  22
ATOM     22  C   UNL A   1      28.878  27.662  23.204  1.00  0.00    -0.028 A 
ATOM     23  C   UNL A   1      27.751  28.503  23.174  1.00  0.00     0.009 A 
ATOM     24  C   UNL A   1      30.107  28.198  22.800  1.00  0.00     0.009 A 
ATOM     25  C   UNL A   1      27.852  29.829  22.756  1.00  0.00     0.047 A 
ATOM     26  C   UNL A   1      30.207  29.534  22.381  1.00  0.00     0.047 A 
ATOM     27  C   UNL A   1      29.080  30.356  22.369  1.00  0.00     0.118 A 
BRANCH  27  28
ATOM     28  O   UNL A   1      29.036  31.672  22.004  1.00  0.00    -0.497 OA
ATOM     29  C   UNL A   1      28.160  32.014  20.940  1.00  0.00     0.278 C 
ENDBRANCH  27  28
ENDBRANCH  21  22
ENDBRANCH  19  21
ENDBRANCH  11  17
ENDBRANCH   4   7
ENDBRANCH   2   3
ENDBRANCH   1   2
BRANCH   1  30
ATOM     30  C   UNL A   1      32.853  30.029  25.920  1.00  0.00     0.002 C 
BRANCH  30  31
ATOM     31  C   UNL A   1      31.450  30.644  25.983  1.00  0.00     0.002 C 
BRANCH  31  32
ATOM     32  C   UNL A   1      31.334  32.068  26.538  1.00  0.00     0.021 C 
BRANCH  32  33
ATOM     33  C   UNL A   1      32.569  32.629  27.237  1.00  0.00     0.116 C 
BRANCH  33  34
ATOM     34  N   UNL A   1      32.433  34.036  27.563  1.00  0.00    -0.352 N 
ATOM     35  C   UNL A   1      33.050  34.795  28.518  1.00  0.00     0.251 C 
ATOM     36  H   UNL A   1      31.789  34.527  27.003  1.00  0.00     0.163 HD
ATOM     37  O   UNL A   1      32.658  35.951  28.707  1.00  0.00    -0.269 OA
BRANCH  35  38
ATOM     38  C   UNL A   1      34.173  34.275  29.330  1.00  0.00     0.039 A 
ATOM     39  C   UNL A   1      35.473  34.441  28.837  1.00  0.00     0.014 A 
ATOM     40  C   UNL A   1      33.967  33.544  30.505  1.00  0.00     0.014 A 
ATOM     41  C   UNL A   1      36.559  33.884  29.516  1.00  0.00     0.010 A 
ATOM     42  C   UNL A   1      35.058  33.041  31.216  1.00  0.00     0.010 A 
ATOM     43  C   UNL A   1      36.359  33.179  30.711  1.00  0.00    -0.014 A 
BRANCH  43  44
ATOM     44  C   UNL A   1      37.499  32.514  31.393  1.00  0.00     0.031 A 
ATOM     45  C   UNL A   1      38.229  31.392  30.706  1.00  0.00     0.074 A 
ATOM     46  C   UNL A   1      37.864  32.903  32.627  1.00  0.00     0.049 A 
ATOM     47  N   UNL A   1      39.236  30.673  31.133  1.00  0.00    -0.248 NA
ATOM     48  C   UNL A   1      37.748  31.013  29.368  1.00  0.00     0.031 C 
ATOM     49  C   UNL A   1      37.211  33.951  33.411  1.00  0.00     0.029 A 
ATOM     50  N   UNL A   1      38.878  32.460  33.439  1.00  0.00    -0.354 N 
ATOM     51  C   UNL A   1      39.492  29.748  30.131  1.00  0.00     0.074 A 
ATOM     52  C   UNL A   1      38.511  29.966  29.090  1.00  0.00     0.031 C 
ATOM     53  C   UNL A   1      37.852  34.084  34.584  1.00  0.00     0.029 A 
ATOM     54  C   UNL A   1      38.948  33.120  34.641  1.00  0.00     0.049 A 
ATOM     55  H   UNL A   1      39.496  31.737  33.185  1.00  0.00     0.167 HD
ATOM     56  C   UNL A   1      40.471  28.812  30.071  1.00  0.00     0.037 A 
ATOM     57  C   UNL A   1      39.807  32.968  35.667  1.00  0.00     0.037 A 
ATOM     58  C   UNL A   1      41.471  28.623  31.087  1.00  0.00     0.049 A 
ATOM     59  C   UNL A   1      40.915  31.956  35.556  1.00  0.00     0.074 A 
ATOM     60  C   UNL A   1      42.532  27.734  31.101  1.00  0.00     0.029 A 
ATOM     61  N   UNL A   1      41.538  29.346  32.268  1.00  0.00    -0.354 N 
ATOM     62  N   UNL A   1      41.179  31.123  34.580  1.00  0.00    -0.248 NA
ATOM     63  C   UNL A   1      41.854  31.877  36.684  1.00  0.00     0.031 C 
ATOM     64  C   UNL A   1      43.228  27.903  32.304  1.00  0.00     0.029 A 
ATOM     65  C   UNL A   1      42.621  28.922  33.020  1.00  0.00     0.049 A 
ATOM     66  H   UNL A   1      40.908  30.055  32.533  1.00  0.00     0.167 HD
ATOM     67  C   UNL A   1      42.328  30.444  34.959  1.00  0.00     0.074 A 
ATOM     68  C   UNL A   1      42.717  30.968  36.251  1.00  0.00     0.031 C 
ATOM     69  C   UNL A   1      43.002  29.472  34.296  1.00  0.00     0.037 A 
BRANCH  56  70
ATOM     70  C   UNL A   1      40.507  27.926  28.860  1.00  0.00     0.064 A 
ATOM     71  C   UNL A   1      41.257  28.267  27.725  1.00  0.00     0.173 A 
ATOM     72  C   UNL A   1      39.801  26.715  28.843  1.00  0.00     0.173 A 
ATOM     73  F   UNL A   1      41.938  29.422  27.687  1.00  0.00    -0.203 F 
ATOM     74  C   UNL A   1      41.276  27.439  26.604  1.00  0.00     0.198 A 
ATOM     75  C   UNL A   1      39.843  25.877  27.731  1.00  0.00     0.198 A 
ATOM     76  F   UNL A   1      39.072  26.341  29.905  1.00  0.00    -0.203 F 
ATOM     77  F   UNL A   1      41.960  27.807  25.513  1.00  0.00    -0.200 F 
ATOM     78  C   UNL A   1      40.573  26.244  26.611  1.00  0.00     0.200 A 
ATOM     79  F   UNL A   1      39.172  24.717  27.741  1.00  0.00    -0.200 F 
ATOM     80  F   UNL A   1      40.595  25.447  25.533  1.00  0.00    -0.200 F 
ENDBRANCH  56  70
BRANCH  57  81
ATOM     81  C   UNL A   1      39.683  33.833  36.867  1.00  0.00     0.064 A 
ATOM     82  C   UNL A   1      40.329  35.076  36.923  1.00  0.00     0.173 A 
ATOM     83  C   UNL A   1      38.916  33.442  37.973  1.00  0.00     0.173 A 
ATOM     84  F   UNL A   1      41.089  35.483  35.896  1.00  0.00    -0.203 F 
ATOM     85  C   UNL A   1      40.225  35.889  38.050  1.00  0.00     0.198 A 
ATOM     86  C   UNL A   1      38.796  34.266  39.090  1.00  0.00     0.198 A 
ATOM     87  F   UNL A   1      38.276  32.264  37.963  1.00  0.00    -0.203 F 
ATOM     88  F   UNL A   1      40.884  37.055  38.094  1.00  0.00    -0.200 F 
ATOM     89  C   UNL A   1      39.455  35.485  39.130  1.00  0.00     0.200 A 
ATOM     90  F   UNL A   1      38.043  33.878  40.128  1.00  0.00    -0.200 F 
ATOM     91  F   UNL A   1      39.354  36.268  40.212  1.00  0.00    -0.200 F 
ENDBRANCH  57  81
BRANCH  69  92
ATOM     92  C   UNL A   1      44.250  28.944  34.935  1.00  0.00     0.064 A 
ATOM     93  C   UNL A   1      44.224  27.839  35.796  1.00  0.00     0.173 A 
ATOM     94  C   UNL A   1      45.492  29.532  34.650  1.00  0.00     0.173 A 
ATOM     95  F   UNL A   1      43.057  27.255  36.108  1.00  0.00    -0.203 F 
ATOM     96  C   UNL A   1      45.396  27.352  36.368  1.00  0.00     0.198 A 
ATOM     97  C   UNL A   1      46.665  29.028  35.206  1.00  0.00     0.198 A 
ATOM     98  F   UNL A   1      45.569  30.589  33.827  1.00  0.00    -0.203 F 
ATOM     99  F   UNL A   1      45.344  26.319  37.220  1.00  0.00    -0.200 F 
ATOM    100  C   UNL A   1      46.615  27.943  36.068  1.00  0.00     0.200 A 
ATOM    101  F   UNL A   1      47.843  29.593  34.908  1.00  0.00    -0.200 F 
ATOM    102  F   UNL A   1      47.742  27.471  36.617  1.00  0.00    -0.200 F 
ENDBRANCH  69  92
ENDBRANCH  43  44
ENDBRANCH  35  38
ENDBRANCH  33  34
ENDBRANCH  32  33
ENDBRANCH  31  32
ENDBRANCH  30  31
ENDBRANCH   1  30
TORSDOF 20
ENDMDL
MODEL 3
REMARK VINA RESULT:     -11.7      1.718      3.023
REMARK SMILES COCC[C@@]1(C(=O)NCCCCCCNC(=O)c2ccc(-c3c4nc(c(-c5c(F)c(F)c(F)c(F)c5F)c5ccc([nH]5)c(-c5c(F)c(F)c(F)c(F)c5F)c5nc(c(-c6c(F)c(F)c(F)c(F)c6F)c6ccc3[nH]6)C=C5)C=C4)cc2)CCCN(C(=O)NCc2ccc(OC)cc2)C1
REMARK SMILES IDX 10 1 9 2 8 3 6 4 7 5 5 7 81 8 97 9 82 10 84 11 83 12 4 13
REMARK SMILES IDX 3 14 2 15 1 16 85 17 86 18 87 19 88 21 89 22 90 23 96 24
REMARK SMILES IDX 91 25 95 26 92 27 93 28 94 29 11 30 12 31 13 32 14 33 15 34
REMARK SMILES IDX 16 35 17 37 18 38 19 39 80 40 20 41 79 42 21 43 22 44 23 45
REMARK SMILES IDX 73 46 24 47 78 48 72 49 74 50 25 51 77 52 71 53 70 54 26 56
REMARK SMILES IDX 58 57 38 58 57 59 39 60 42 61 56 62 75 63 40 64 41 65 55 67
REMARK SMILES IDX 76 68 43 69 27 70 28 71 36 72 29 73 30 74 34 75 37 76 31 77
REMARK SMILES IDX 32 78 35 79 33 80 59 81 60 82 68 83 61 84 62 85 66 86 69 87
REMARK SMILES IDX 63 88 64 89 67 90 65 91 44 92 45 93 53 94 46 95 47 96 51 97
REMARK SMILES IDX 54 98 48 99 49 100 52 101 50 102
REMARK H PARENT 8 6 87 20 15 36 74 55 42 66
REMARK Flexibility Score: inf
ROOT
ATOM      1  C   UNL A   1      33.409  26.706  22.495  1.00  0.00     0.021 C 
ENDROOT
BRANCH   1   2
ATOM      2  C   UNL A   1      33.964  25.659  23.451  1.00  0.00     0.116 C 
BRANCH   2   3
ATOM      3  N   UNL A   1      33.648  24.297  23.104  1.00  0.00    -0.356 N 
ATOM      4  C   UNL A   1      33.173  23.264  23.839  1.00  0.00     0.228 C 
ATOM      5  O   UNL A   1      32.762  22.318  23.147  1.00  0.00    -0.274 OA
ATOM      6  H   UNL A   1      33.807  24.077  22.157  1.00  0.00     0.163 HD
BRANCH   4   7
ATOM      7  C   UNL A   1      33.210  23.099  25.397  1.00  0.00     0.069 C 
ATOM      8  C   UNL A   1      32.182  21.975  25.732  1.00  0.00     0.021 C 
ATOM      9  C   UNL A   1      32.916  24.302  26.321  1.00  0.00     0.138 C 
ATOM     10  C   UNL A   1      30.739  22.498  25.734  1.00  0.00     0.023 C 
ATOM     11  N   UNL A   1      31.512  24.736  26.344  1.00  0.00    -0.324 N 
ATOM     12  C   UNL A   1      30.598  23.661  26.709  1.00  0.00     0.121 C 
BRANCH   7  13
ATOM     13  C   UNL A   1      34.682  22.602  25.654  1.00  0.00     0.047 C 
BRANCH  13  14
ATOM     14  C   UNL A   1      35.136  21.287  25.007  1.00  0.00     0.161 C 
BRANCH  14  15
ATOM     15  O   UNL A   1      36.505  21.354  24.628  1.00  0.00    -0.385 OA
ATOM     16  C   UNL A   1      37.257  20.204  24.992  1.00  0.00     0.194 C 
ENDBRANCH  14  15
ENDBRANCH  13  14
ENDBRANCH   7  13
BRANCH  11  17
ATOM     17  C   UNL A   1      31.263  26.073  26.274  1.00  0.00     0.317 C 
ATOM     18  O   UNL A   1      31.772  26.876  27.067  1.00  0.00    -0.249 OA
ATOM     19  N   UNL A   1      30.552  26.655  25.305  1.00  0.00    -0.334 N 
ATOM     20  H   UNL A   1      30.713  27.626  25.286  1.00  0.00     0.165 HD
BRANCH  19  21
ATOM     21  C   UNL A   1      29.614  26.268  24.274  1.00  0.00     0.153 C 
BRANCH  21  22
ATOM     22  C   UNL A   1      29.116  27.474  23.503  1.00  0.00    -0.028 A 
ATOM     23  C   UNL A   1      27.756  27.830  23.483  1.00  0.00     0.009 A 
ATOM     24  C   UNL A   1      30.025  28.323  22.860  1.00  0.00     0.009 A 
ATOM     25  C   UNL A   1      27.324  28.991  22.845  1.00  0.00     0.047 A 
ATOM     26  C   UNL A   1      29.588  29.494  22.220  1.00  0.00     0.047 A 
ATOM     27  C   UNL A   1      28.236  29.836  22.221  1.00  0.00     0.118 A 
BRANCH  27  28
ATOM     28  O   UNL A   1      27.677  30.947  21.656  1.00  0.00    -0.497 OA
ATOM     29  C   UNL A   1      28.104  32.205  22.156  1.00  0.00     0.278 C 
ENDBRANCH  27  28
ENDBRANCH  21  22
ENDBRANCH  19  21
ENDBRANCH  11  17
ENDBRANCH   4   7
ENDBRANCH   2   3
ENDBRANCH   1   2
BRANCH   1  30
ATOM     30  C   UNL A   1      33.639  28.164  22.890  1.00  0.00     0.002 C 
BRANCH  30  31
ATOM     31  C   UNL A   1      33.596  28.494  24.387  1.00  0.00     0.002 C 
BRANCH  31  32
ATOM     32  C   UNL A   1      32.740  29.691  24.815  1.00  0.00     0.021 C 
BRANCH  32  33
ATOM     33  C   UNL A   1      32.641  29.956  26.315  1.00  0.00     0.116 C 
BRANCH  33  34
ATOM     34  N   UNL A   1      32.599  31.372  26.629  1.00  0.00    -0.352 N 
ATOM     35  C   UNL A   1      33.427  32.142  27.396  1.00  0.00     0.251 C 
ATOM     36  H   UNL A   1      31.847  31.860  26.221  1.00  0.00     0.163 HD
ATOM     37  O   UNL A   1      33.102  33.307  27.642  1.00  0.00    -0.269 OA
BRANCH  35  38
ATOM     38  C   UNL A   1      34.703  31.622  27.939  1.00  0.00     0.039 A 
ATOM     39  C   UNL A   1      34.708  30.332  28.482  1.00  0.00     0.014 A 
ATOM     40  C   UNL A   1      35.856  32.410  28.017  1.00  0.00     0.014 A 
ATOM     41  C   UNL A   1      35.859  29.830  29.094  1.00  0.00     0.010 A 
ATOM     42  C   UNL A   1      37.024  31.886  28.574  1.00  0.00     0.010 A 
ATOM     43  C   UNL A   1      37.027  30.605  29.145  1.00  0.00    -0.014 A 
BRANCH  43  44
ATOM     44  C   UNL A   1      38.226  30.112  29.867  1.00  0.00     0.031 A 
ATOM     45  C   UNL A   1      38.483  30.556  31.282  1.00  0.00     0.074 A 
ATOM     46  C   UNL A   1      39.090  29.285  29.251  1.00  0.00     0.049 A 
ATOM     47  N   UNL A   1      39.476  30.254  32.079  1.00  0.00    -0.248 NA
ATOM     48  C   UNL A   1      37.502  31.481  31.871  1.00  0.00     0.031 C 
ATOM     49  C   UNL A   1      38.971  28.814  27.871  1.00  0.00     0.029 A 
ATOM     50  N   UNL A   1      40.240  28.693  29.709  1.00  0.00    -0.354 N 
ATOM     51  C   UNL A   1      39.252  30.967  33.249  1.00  0.00     0.074 A 
ATOM     52  C   UNL A   1      38.052  31.748  33.046  1.00  0.00     0.031 C 
ATOM     53  C   UNL A   1      39.997  27.991  27.600  1.00  0.00     0.029 A 
ATOM     54  C   UNL A   1      40.852  27.890  28.779  1.00  0.00     0.049 A 
ATOM     55  H   UNL A   1      40.593  28.831  30.617  1.00  0.00     0.167 HD
ATOM     56  C   UNL A   1      39.969  30.955  34.399  1.00  0.00     0.037 A 
ATOM     57  C   UNL A   1      41.974  27.150  28.873  1.00  0.00     0.037 A 
ATOM     58  C   UNL A   1      41.139  30.147  34.614  1.00  0.00     0.049 A 
ATOM     59  C   UNL A   1      42.726  27.115  30.176  1.00  0.00     0.074 A 
ATOM     60  C   UNL A   1      41.911  30.029  35.757  1.00  0.00     0.029 A 
ATOM     61  N   UNL A   1      41.701  29.308  33.662  1.00  0.00    -0.354 N 
ATOM     62  N   UNL A   1      42.473  27.752  31.294  1.00  0.00    -0.248 NA
ATOM     63  C   UNL A   1      43.909  26.246  30.235  1.00  0.00     0.031 C 
ATOM     64  C   UNL A   1      42.955  29.135  35.489  1.00  0.00     0.029 A 
ATOM     65  C   UNL A   1      42.810  28.670  34.192  1.00  0.00     0.049 A 
ATOM     66  H   UNL A   1      41.360  29.185  32.747  1.00  0.00     0.167 HD
ATOM     67  C   UNL A   1      43.443  27.339  32.195  1.00  0.00     0.074 A 
ATOM     68  C   UNL A   1      44.285  26.389  31.498  1.00  0.00     0.031 C 
ATOM     69  C   UNL A   1      43.622  27.713  33.486  1.00  0.00     0.037 A 
BRANCH  56  70
ATOM     70  C   UNL A   1      39.501  31.843  35.514  1.00  0.00     0.064 A 
ATOM     71  C   UNL A   1      39.980  33.154  35.658  1.00  0.00     0.173 A 
ATOM     72  C   UNL A   1      38.549  31.386  36.436  1.00  0.00     0.173 A 
ATOM     73  F   UNL A   1      40.902  33.633  34.810  1.00  0.00    -0.203 F 
ATOM     74  C   UNL A   1      39.543  33.965  36.702  1.00  0.00     0.198 A 
ATOM     75  C   UNL A   1      38.095  32.209  37.464  1.00  0.00     0.198 A 
ATOM     76  F   UNL A   1      38.056  30.142  36.340  1.00  0.00    -0.203 F 
ATOM     77  F   UNL A   1      40.049  35.197  36.848  1.00  0.00    -0.200 F 
ATOM     78  C   UNL A   1      38.598  33.494  37.600  1.00  0.00     0.200 A 
ATOM     79  F   UNL A   1      37.173  31.757  38.326  1.00  0.00    -0.200 F 
ATOM     80  F   UNL A   1      38.176  34.277  38.603  1.00  0.00    -0.200 F 
ENDBRANCH  56  70
BRANCH  57  81
ATOM     81  C   UNL A   1      42.422  26.339  27.714  1.00  0.00     0.064 A 
ATOM     82  C   UNL A   1      41.890  25.063  27.483  1.00  0.00     0.173 A 
ATOM     83  C   UNL A   1      43.382  26.822  26.813  1.00  0.00     0.173 A 
ATOM     84  F   UNL A   1      40.983  24.553  28.329  1.00  0.00    -0.203 F 
ATOM     85  C   UNL A   1      42.313  24.293  26.403  1.00  0.00     0.198 A 
ATOM     86  C   UNL A   1      43.788  26.058  25.721  1.00  0.00     0.198 A 
ATOM     87  F   UNL A   1      43.916  28.039  26.990  1.00  0.00    -0.203 F 
ATOM     88  F   UNL A   1      41.817  23.060  26.226  1.00  0.00    -0.200 F 
ATOM     89  C   UNL A   1      43.259  24.793  25.520  1.00  0.00     0.200 A 
ATOM     90  F   UNL A   1      44.694  26.548  24.864  1.00  0.00    -0.200 F 
ATOM     91  F   UNL A   1      43.664  24.052  24.480  1.00  0.00    -0.200 F 
ENDBRANCH  57  81
BRANCH  69  92
ATOM     92  C   UNL A   1      44.741  27.061  34.240  1.00  0.00     0.064 A 
ATOM     93  C   UNL A   1      46.020  27.633  34.295  1.00  0.00     0.173 A 
ATOM     94  C   UNL A   1      44.519  25.870  34.947  1.00  0.00     0.173 A 
ATOM     95  F   UNL A   1      46.283  28.763  33.622  1.00  0.00    -0.203 F 
ATOM     96  C   UNL A   1      47.044  27.022  35.014  1.00  0.00     0.198 A 
ATOM     97  C   UNL A   1      45.538  25.275  35.684  1.00  0.00     0.198 A 
ATOM     98  F   UNL A   1      43.309  25.288  34.929  1.00  0.00    -0.203 F 
ATOM     99  F   UNL A   1      48.270  27.563  35.020  1.00  0.00    -0.200 F 
ATOM    100  C   UNL A   1      46.800  25.848  35.711  1.00  0.00     0.200 A 
ATOM    101  F   UNL A   1      45.300  24.146  36.365  1.00  0.00    -0.200 F 
ATOM    102  F   UNL A   1      47.787  25.264  36.406  1.00  0.00    -0.200 F 
ENDBRANCH  69  92
ENDBRANCH  43  44
ENDBRANCH  35  38
ENDBRANCH  33  34
ENDBRANCH  32  33
ENDBRANCH  31  32
ENDBRANCH  30  31
ENDBRANCH   1  30
TORSDOF 20
ENDMDL
