MODEL 1
REMARK VINA RESULT:     -12.5      0.000      0.000
REMARK SMILES CCCSc1nc2n(n1)[C@@H](c1ccccc1C(=O)NCCCCCCNC(=O)c1ccc(-c3c4nc(c(-c5c(F)c(F)c(F)c(F)c5F)c5ccc([nH]5)c(-c5c(F)c(F)c(F)c(F)c5F)c5nc(c(-c6c(F)c(F)c(F)c(F)c6F)c6ccc3[nH]6)C=C5)C=C4)cc1)C(C(=O)Nc1cccc(C)c1C)=C(C)N2
REMARK SMILES IDX 21 1 20 2 19 3 17 4 18 5 16 7 11 8 12 9 13 10 15 11 14 12
REMARK SMILES IDX 10 13 5 14 6 15 9 16 7 17 8 18 106 19 104 20 92 22 105 23
REMARK SMILES IDX 4 24 3 25 2 26 1 27 93 28 94 29 95 30 96 32 97 33 102 34
REMARK SMILES IDX 98 35 100 36 103 37 99 38 101 39 22 40 23 41 24 42 25 43
REMARK SMILES IDX 26 44 27 45 28 47 29 48 30 49 91 50 31 51 90 52 32 53 33 54
REMARK SMILES IDX 34 55 84 56 35 57 89 58 83 59 85 60 36 61 88 62 82 63 81 64
REMARK SMILES IDX 37 66 69 67 49 68 68 69 50 70 53 71 67 72 86 73 51 74 52 75
REMARK SMILES IDX 66 77 87 78 54 79 38 80 39 81 47 82 40 83 41 84 45 85 48 86
REMARK SMILES IDX 42 87 43 88 46 89 44 90 70 91 71 92 79 93 72 94 73 95 77 96
REMARK SMILES IDX 80 97 74 98 75 99 78 100 76 101 55 102 56 103 64 104 57 105
REMARK SMILES IDX 58 106 62 107 65 108 59 109 60 110 63 111 61 112
REMARK H PARENT 19 6 106 21 95 31 26 46 85 65 53 76
REMARK Flexibility Score: inf
ROOT
ATOM      1  C   UNL A   1      31.364  29.686  26.262  1.00  0.00     0.021 C 
ENDROOT
BRANCH   1   2
ATOM      2  C   UNL A   1      31.803  28.613  27.244  1.00  0.00     0.116 C 
BRANCH   2   3
ATOM      3  N   UNL A   1      31.759  27.232  26.874  1.00  0.00    -0.352 N 
ATOM      4  C   UNL A   1      32.319  26.570  25.798  1.00  0.00     0.251 C 
ATOM      5  O   UNL A   1      32.140  25.345  25.826  1.00  0.00    -0.269 OA
ATOM      6  H   UNL A   1      31.246  26.659  27.487  1.00  0.00     0.163 HD
BRANCH   4   7
ATOM      7  C   UNL A   1      33.024  27.179  24.577  1.00  0.00     0.045 A 
ATOM      8  C   UNL A   1      32.874  26.987  23.169  1.00  0.00    -0.006 A 
ATOM      9  C   UNL A   1      33.747  27.720  22.299  1.00  0.00     0.007 A 
ATOM     10  C   UNL A   1      34.651  28.675  22.748  1.00  0.00     0.000 A 
ATOM     11  C   UNL A   1      33.926  28.210  24.982  1.00  0.00     0.014 A 
ATOM     12  C   UNL A   1      34.708  28.955  24.093  1.00  0.00     0.001 A 
BRANCH   8  13
ATOM     13  C   UNL A   1      31.743  26.234  22.449  1.00  0.00     0.180 C 
ATOM     14  C   UNL A   1      28.760  27.969  23.153  1.00  0.00     0.210 A 
ATOM     15  N   UNL A   1      28.426  26.770  23.735  1.00  0.00    -0.185 NA
ATOM     16  N   UNL A   1      29.962  27.999  22.559  1.00  0.00    -0.141 NA
ATOM     17  C   UNL A   1      29.463  26.017  23.480  1.00  0.00     0.227 A 
ATOM     18  N   UNL A   1      30.413  26.758  22.841  1.00  0.00    -0.218 N 
ATOM     19  N   UNL A   1      29.704  24.716  23.718  1.00  0.00    -0.328 N 
ATOM     20  C   UNL A   1      30.838  24.042  23.270  1.00  0.00     0.026 C 
ATOM     21  H   UNL A   1      29.039  24.209  24.240  1.00  0.00     0.169 HD
ATOM     22  C   UNL A   1      31.801  24.706  22.585  1.00  0.00     0.065 C 
ATOM     23  C   UNL A   1      30.873  22.574  23.590  1.00  0.00     0.065 C 
BRANCH  14  24
ATOM     24  S   UNL A   1      27.704  29.355  23.096  1.00  0.00    -0.084 SA
BRANCH  24  25
ATOM     25  C   UNL A   1      28.870  30.749  23.020  1.00  0.00     0.078 C 
BRANCH  25  26
ATOM     26  C   UNL A   1      28.235  32.073  22.588  1.00  0.00     0.008 C 
ATOM     27  C   UNL A   1      28.976  33.317  23.053  1.00  0.00     0.005 C 
ENDBRANCH  25  26
ENDBRANCH  24  25
ENDBRANCH  14  24
BRANCH  22  28
ATOM     28  C   UNL A   1      32.988  24.091  21.934  1.00  0.00     0.255 C 
ATOM     29  O   UNL A   1      33.144  24.246  20.723  1.00  0.00    -0.269 OA
ATOM     30  N   UNL A   1      33.946  23.342  22.548  1.00  0.00    -0.322 N 
ATOM     31  H   UNL A   1      34.433  22.748  21.933  1.00  0.00     0.170 HD
BRANCH  30  32
ATOM     32  C   UNL A   1      34.379  23.245  23.879  1.00  0.00     0.044 A 
ATOM     33  C   UNL A   1      35.145  24.344  24.299  1.00  0.00     0.026 A 
ATOM     34  C   UNL A   1      34.074  22.224  24.794  1.00  0.00    -0.025 A 
ATOM     35  C   UNL A   1      35.469  24.517  25.637  1.00  0.00     0.002 A 
ATOM     36  C   UNL A   1      34.402  22.401  26.159  1.00  0.00    -0.046 A 
ATOM     37  C   UNL A   1      33.474  20.928  24.357  1.00  0.00     0.047 C 
ATOM     38  C   UNL A   1      35.073  23.565  26.566  1.00  0.00     0.004 A 
ATOM     39  C   UNL A   1      34.032  21.409  27.233  1.00  0.00     0.044 C 
ENDBRANCH  30  32
ENDBRANCH  22  28
ENDBRANCH   8  13
ENDBRANCH   4   7
ENDBRANCH   2   3
ENDBRANCH   1   2
BRANCH   1  40
ATOM     40  C   UNL A   1      32.015  31.071  26.357  1.00  0.00     0.002 C 
BRANCH  40  41
ATOM     41  C   UNL A   1      32.826  31.442  27.610  1.00  0.00     0.002 C 
BRANCH  41  42
ATOM     42  C   UNL A   1      34.340  31.624  27.495  1.00  0.00     0.021 C 
BRANCH  42  43
ATOM     43  C   UNL A   1      34.970  32.833  28.138  1.00  0.00     0.116 C 
BRANCH  43  44
ATOM     44  N   UNL A   1      34.792  32.902  29.594  1.00  0.00    -0.352 N 
ATOM     45  C   UNL A   1      35.480  32.181  30.560  1.00  0.00     0.251 C 
ATOM     46  H   UNL A   1      34.108  33.529  29.922  1.00  0.00     0.163 HD
ATOM     47  O   UNL A   1      35.025  32.014  31.691  1.00  0.00    -0.269 OA
BRANCH  45  48
ATOM     48  C   UNL A   1      36.783  31.610  30.188  1.00  0.00     0.039 A 
ATOM     49  C   UNL A   1      37.974  32.339  30.147  1.00  0.00     0.014 A 
ATOM     50  C   UNL A   1      36.791  30.238  30.010  1.00  0.00     0.014 A 
ATOM     51  C   UNL A   1      39.169  31.632  30.026  1.00  0.00     0.010 A 
ATOM     52  C   UNL A   1      37.939  29.565  30.276  1.00  0.00     0.010 A 
ATOM     53  C   UNL A   1      39.136  30.231  30.122  1.00  0.00    -0.014 A 
BRANCH  53  54
ATOM     54  C   UNL A   1      40.328  29.401  30.114  1.00  0.00     0.031 A 
ATOM     55  C   UNL A   1      40.911  29.156  31.452  1.00  0.00     0.074 A 
ATOM     56  C   UNL A   1      40.745  28.738  29.011  1.00  0.00     0.049 A 
ATOM     57  N   UNL A   1      42.014  29.637  31.916  1.00  0.00    -0.248 NA
ATOM     58  C   UNL A   1      40.107  28.427  32.445  1.00  0.00     0.031 C 
ATOM     59  C   UNL A   1      40.103  28.614  27.693  1.00  0.00     0.029 A 
ATOM     60  N   UNL A   1      41.835  27.940  28.871  1.00  0.00    -0.354 N 
ATOM     61  C   UNL A   1      42.153  29.102  33.190  1.00  0.00     0.074 A 
ATOM     62  C   UNL A   1      40.874  28.537  33.533  1.00  0.00     0.031 C 
ATOM     63  C   UNL A   1      40.677  27.615  26.990  1.00  0.00     0.029 A 
ATOM     64  C   UNL A   1      41.847  27.167  27.716  1.00  0.00     0.049 A 
ATOM     65  H   UNL A   1      42.560  27.912  29.536  1.00  0.00     0.167 HD
ATOM     66  C   UNL A   1      43.387  28.950  33.745  1.00  0.00     0.037 A 
ATOM     67  C   UNL A   1      42.757  26.215  27.398  1.00  0.00     0.037 A 
ATOM     68  C   UNL A   1      44.373  29.740  33.044  1.00  0.00     0.049 A 
ATOM     69  C   UNL A   1      43.964  26.486  28.223  1.00  0.00     0.074 A 
ATOM     70  C   UNL A   1      44.498  31.090  32.771  1.00  0.00     0.029 A 
ATOM     71  N   UNL A   1      45.187  29.107  32.134  1.00  0.00    -0.354 N 
ATOM     72  N   UNL A   1      44.718  27.542  28.073  1.00  0.00    -0.248 NA
ATOM     73  C   UNL A   1      44.034  25.850  29.532  1.00  0.00     0.031 C 
ATOM     74  C   UNL A   1      44.944  31.150  31.416  1.00  0.00     0.029 A 
ATOM     75  C   UNL A   1      45.157  29.844  30.975  1.00  0.00     0.049 A 
ATOM     76  H   UNL A   1      45.697  28.277  32.285  1.00  0.00     0.167 HD
ATOM     77  C   UNL A   1      45.012  27.954  29.365  1.00  0.00     0.074 A 
ATOM     78  C   UNL A   1      44.622  26.834  30.220  1.00  0.00     0.031 C 
ATOM     79  C   UNL A   1      45.260  29.267  29.652  1.00  0.00     0.037 A 
BRANCH  66  80
ATOM     80  C   UNL A   1      43.756  27.827  34.676  1.00  0.00     0.064 A 
ATOM     81  C   UNL A   1      43.594  26.495  34.251  1.00  0.00     0.173 A 
ATOM     82  C   UNL A   1      44.000  28.000  36.057  1.00  0.00     0.173 A 
ATOM     83  F   UNL A   1      43.326  26.217  32.967  1.00  0.00    -0.203 F 
ATOM     84  C   UNL A   1      43.618  25.426  35.151  1.00  0.00     0.198 A 
ATOM     85  C   UNL A   1      44.082  26.927  36.942  1.00  0.00     0.198 A 
ATOM     86  F   UNL A   1      44.059  29.210  36.626  1.00  0.00    -0.203 F 
ATOM     87  F   UNL A   1      43.342  24.188  34.720  1.00  0.00    -0.200 F 
ATOM     88  C   UNL A   1      43.861  25.643  36.495  1.00  0.00     0.200 A 
ATOM     89  F   UNL A   1      44.298  27.164  38.243  1.00  0.00    -0.200 F 
ATOM     90  F   UNL A   1      43.833  24.627  37.367  1.00  0.00    -0.200 F 
ENDBRANCH  66  80
BRANCH  67  91
ATOM     91  C   UNL A   1      42.529  24.932  26.693  1.00  0.00     0.064 A 
ATOM     92  C   UNL A   1      43.299  24.573  25.576  1.00  0.00     0.173 A 
ATOM     93  C   UNL A   1      41.743  23.910  27.265  1.00  0.00     0.173 A 
ATOM     94  F   UNL A   1      44.105  25.475  24.996  1.00  0.00    -0.203 F 
ATOM     95  C   UNL A   1      43.308  23.265  25.080  1.00  0.00     0.198 A 
ATOM     96  C   UNL A   1      41.749  22.607  26.767  1.00  0.00     0.198 A 
ATOM     97  F   UNL A   1      41.026  24.134  28.375  1.00  0.00    -0.203 F 
ATOM     98  F   UNL A   1      44.106  22.946  24.050  1.00  0.00    -0.200 F 
ATOM     99  C   UNL A   1      42.543  22.280  25.684  1.00  0.00     0.200 A 
ATOM    100  F   UNL A   1      41.030  21.656  27.381  1.00  0.00    -0.200 F 
ATOM    101  F   UNL A   1      42.601  21.014  25.248  1.00  0.00    -0.200 F 
ENDBRANCH  67  91
BRANCH  79 102
ATOM    102  C   UNL A   1      45.428  30.227  28.502  1.00  0.00     0.064 A 
ATOM    103  C   UNL A   1      44.368  30.897  27.865  1.00  0.00     0.173 A 
ATOM    104  C   UNL A   1      46.727  30.599  28.130  1.00  0.00     0.173 A 
ATOM    105  F   UNL A   1      43.099  30.682  28.226  1.00  0.00    -0.203 F 
ATOM    106  C   UNL A   1      44.598  31.857  26.879  1.00  0.00     0.198 A 
ATOM    107  C   UNL A   1      46.956  31.583  27.172  1.00  0.00     0.198 A 
ATOM    108  F   UNL A   1      47.785  30.039  28.739  1.00  0.00    -0.203 F 
ATOM    109  F   UNL A   1      43.564  32.471  26.282  1.00  0.00    -0.200 F 
ATOM    110  C   UNL A   1      45.893  32.204  26.538  1.00  0.00     0.200 A 
ATOM    111  F   UNL A   1      48.213  31.951  26.883  1.00  0.00    -0.200 F 
ATOM    112  F   UNL A   1      46.117  33.155  25.620  1.00  0.00    -0.200 F 
ENDBRANCH  79 102
ENDBRANCH  53  54
ENDBRANCH  45  48
ENDBRANCH  43  44
ENDBRANCH  42  43
ENDBRANCH  41  42
ENDBRANCH  40  41
ENDBRANCH   1  40
TORSDOF 19
ENDMDL
MODEL 2
REMARK VINA RESULT:     -12.3      2.385      3.499
REMARK SMILES CCCSc1nc2n(n1)[C@@H](c1ccccc1C(=O)NCCCCCCNC(=O)c1ccc(-c3c4nc(c(-c5c(F)c(F)c(F)c(F)c5F)c5ccc([nH]5)c(-c5c(F)c(F)c(F)c(F)c5F)c5nc(c(-c6c(F)c(F)c(F)c(F)c6F)c6ccc3[nH]6)C=C5)C=C4)cc1)C(C(=O)Nc1cccc(C)c1C)=C(C)N2
REMARK SMILES IDX 21 1 20 2 19 3 17 4 18 5 16 7 11 8 12 9 13 10 15 11 14 12
REMARK SMILES IDX 10 13 5 14 6 15 9 16 7 17 8 18 106 19 104 20 92 22 105 23
REMARK SMILES IDX 4 24 3 25 2 26 1 27 93 28 94 29 95 30 96 32 97 33 102 34
REMARK SMILES IDX 98 35 100 36 103 37 99 38 101 39 22 40 23 41 24 42 25 43
REMARK SMILES IDX 26 44 27 45 28 47 29 48 30 49 91 50 31 51 90 52 32 53 33 54
REMARK SMILES IDX 34 55 84 56 35 57 89 58 83 59 85 60 36 61 88 62 82 63 81 64
REMARK SMILES IDX 37 66 69 67 49 68 68 69 50 70 53 71 67 72 86 73 51 74 52 75
REMARK SMILES IDX 66 77 87 78 54 79 38 80 39 81 47 82 40 83 41 84 45 85 48 86
REMARK SMILES IDX 42 87 43 88 46 89 44 90 70 91 71 92 79 93 72 94 73 95 77 96
REMARK SMILES IDX 80 97 74 98 75 99 78 100 76 101 55 102 56 103 64 104 57 105
REMARK SMILES IDX 58 106 62 107 65 108 59 109 60 110 63 111 61 112
REMARK H PARENT 19 6 106 21 95 31 26 46 85 65 53 76
REMARK Flexibility Score: inf
ROOT
ATOM      1  C   UNL A   1      35.042  30.382  27.918  1.00  0.00     0.021 C 
ENDROOT
BRANCH   1   2
ATOM      2  C   UNL A   1      34.587  28.964  27.614  1.00  0.00     0.116 C 
BRANCH   2   3
ATOM      3  N   UNL A   1      33.196  28.670  27.454  1.00  0.00    -0.352 N 
ATOM      4  C   UNL A   1      32.495  28.197  26.361  1.00  0.00     0.251 C 
ATOM      5  O   UNL A   1      31.299  27.984  26.599  1.00  0.00    -0.269 OA
ATOM      6  H   UNL A   1      32.649  28.830  28.255  1.00  0.00     0.163 HD
BRANCH   4   7
ATOM      7  C   UNL A   1      33.001  28.009  24.924  1.00  0.00     0.045 A 
ATOM      8  C   UNL A   1      32.944  26.916  24.006  1.00  0.00    -0.006 A 
ATOM      9  C   UNL A   1      33.563  27.087  22.725  1.00  0.00     0.007 A 
ATOM     10  C   UNL A   1      34.120  28.286  22.297  1.00  0.00     0.000 A 
ATOM     11  C   UNL A   1      33.532  29.234  24.415  1.00  0.00     0.014 A 
ATOM     12  C   UNL A   1      34.063  29.379  23.129  1.00  0.00     0.001 A 
BRANCH   8  13
ATOM     13  C   UNL A   1      32.114  25.628  24.145  1.00  0.00     0.180 C 
ATOM     14  C   UNL A   1      28.733  26.608  24.268  1.00  0.00     0.210 A 
ATOM     15  N   UNL A   1      28.808  26.024  25.509  1.00  0.00    -0.185 NA
ATOM     16  N   UNL A   1      29.858  26.546  23.540  1.00  0.00    -0.141 NA
ATOM     17  C   UNL A   1      30.032  25.568  25.549  1.00  0.00     0.227 A 
ATOM     18  N   UNL A   1      30.688  25.933  24.410  1.00  0.00    -0.218 N 
ATOM     19  N   UNL A   1      30.682  24.831  26.467  1.00  0.00    -0.328 N 
ATOM     20  C   UNL A   1      31.972  24.333  26.290  1.00  0.00     0.026 C 
ATOM     21  H   UNL A   1      30.221  24.632  27.314  1.00  0.00     0.169 HD
ATOM     22  C   UNL A   1      32.664  24.616  25.160  1.00  0.00     0.065 C 
ATOM     23  C   UNL A   1      32.482  23.477  27.414  1.00  0.00     0.065 C 
BRANCH  14  24
ATOM     24  S   UNL A   1      27.285  27.322  23.610  1.00  0.00    -0.084 SA
BRANCH  24  25
ATOM     25  C   UNL A   1      27.922  28.760  22.697  1.00  0.00     0.078 C 
BRANCH  25  26
ATOM     26  C   UNL A   1      27.483  30.110  23.271  1.00  0.00     0.008 C 
ATOM     27  C   UNL A   1      28.619  31.074  23.571  1.00  0.00     0.005 C 
ENDBRANCH  25  26
ENDBRANCH  24  25
ENDBRANCH  14  24
BRANCH  22  28
ATOM     28  C   UNL A   1      33.984  24.044  24.781  1.00  0.00     0.255 C 
ATOM     29  O   UNL A   1      35.005  24.628  25.142  1.00  0.00    -0.269 OA
ATOM     30  N   UNL A   1      34.192  22.917  24.046  1.00  0.00    -0.322 N 
ATOM     31  H   UNL A   1      35.074  22.890  23.610  1.00  0.00     0.170 HD
BRANCH  30  32
ATOM     32  C   UNL A   1      33.405  21.785  23.784  1.00  0.00     0.044 A 
ATOM     33  C   UNL A   1      32.642  21.894  22.611  1.00  0.00     0.026 A 
ATOM     34  C   UNL A   1      33.367  20.594  24.526  1.00  0.00    -0.025 A 
ATOM     35  C   UNL A   1      31.979  20.793  22.087  1.00  0.00     0.002 A 
ATOM     36  C   UNL A   1      32.693  19.469  23.992  1.00  0.00    -0.046 A 
ATOM     37  C   UNL A   1      33.959  20.497  25.894  1.00  0.00     0.047 C 
ATOM     38  C   UNL A   1      32.030  19.580  22.759  1.00  0.00     0.004 A 
ATOM     39  C   UNL A   1      32.677  18.120  24.663  1.00  0.00     0.044 C 
ENDBRANCH  30  32
ENDBRANCH  22  28
ENDBRANCH   8  13
ENDBRANCH   4   7
ENDBRANCH   2   3
ENDBRANCH   1   2
BRANCH   1  40
ATOM     40  C   UNL A   1      34.007  31.510  27.850  1.00  0.00     0.002 C 
BRANCH  40  41
ATOM     41  C   UNL A   1      34.463  32.968  28.035  1.00  0.00     0.002 C 
BRANCH  41  42
ATOM     42  C   UNL A   1      33.552  33.948  28.776  1.00  0.00     0.021 C 
BRANCH  42  43
ATOM     43  C   UNL A   1      34.147  35.234  29.290  1.00  0.00     0.116 C 
BRANCH  43  44
ATOM     44  N   UNL A   1      33.588  35.687  30.570  1.00  0.00    -0.352 N 
ATOM     45  C   UNL A   1      33.692  35.058  31.803  1.00  0.00     0.251 C 
ATOM     46  H   UNL A   1      33.082  36.531  30.552  1.00  0.00     0.163 HD
ATOM     47  O   UNL A   1      32.901  35.287  32.716  1.00  0.00    -0.269 OA
BRANCH  45  48
ATOM     48  C   UNL A   1      34.787  34.092  31.987  1.00  0.00     0.039 A 
ATOM     49  C   UNL A   1      34.632  32.708  31.895  1.00  0.00     0.014 A 
ATOM     50  C   UNL A   1      36.044  34.653  32.122  1.00  0.00     0.014 A 
ATOM     51  C   UNL A   1      35.783  31.924  31.839  1.00  0.00     0.010 A 
ATOM     52  C   UNL A   1      37.113  33.938  31.690  1.00  0.00     0.010 A 
ATOM     53  C   UNL A   1      37.027  32.561  31.707  1.00  0.00    -0.014 A 
BRANCH  53  54
ATOM     54  C   UNL A   1      38.278  31.845  31.536  1.00  0.00     0.031 A 
ATOM     55  C   UNL A   1      39.009  31.582  32.797  1.00  0.00     0.074 A 
ATOM     56  C   UNL A   1      38.641  31.284  30.360  1.00  0.00     0.049 A 
ATOM     57  N   UNL A   1      40.107  32.135  33.186  1.00  0.00    -0.248 NA
ATOM     58  C   UNL A   1      38.371  30.730  33.812  1.00  0.00     0.031 C 
ATOM     59  C   UNL A   1      37.886  31.173  29.101  1.00  0.00     0.029 A 
ATOM     60  N   UNL A   1      39.776  30.598  30.070  1.00  0.00    -0.354 N 
ATOM     61  C   UNL A   1      40.414  31.547  34.405  1.00  0.00     0.074 A 
ATOM     62  C   UNL A   1      39.228  30.850  34.829  1.00  0.00     0.031 C 
ATOM     63  C   UNL A   1      38.473  30.270  28.287  1.00  0.00     0.029 A 
ATOM     64  C   UNL A   1      39.742  29.892  28.873  1.00  0.00     0.049 A 
ATOM     65  H   UNL A   1      40.562  30.599  30.662  1.00  0.00     0.167 HD
ATOM     66  C   UNL A   1      41.705  31.478  34.833  1.00  0.00     0.037 A 
ATOM     67  C   UNL A   1      40.695  29.046  28.413  1.00  0.00     0.037 A 
ATOM     68  C   UNL A   1      42.546  32.392  34.095  1.00  0.00     0.049 A 
ATOM     69  C   UNL A   1      41.949  29.381  29.138  1.00  0.00     0.074 A 
ATOM     70  C   UNL A   1      42.528  33.760  33.896  1.00  0.00     0.029 A 
ATOM     71  N   UNL A   1      43.319  31.886  33.075  1.00  0.00    -0.354 N 
ATOM     72  N   UNL A   1      42.591  30.508  28.985  1.00  0.00    -0.248 NA
ATOM     73  C   UNL A   1      42.200  28.684  30.392  1.00  0.00     0.031 C 
ATOM     74  C   UNL A   1      42.833  33.935  32.513  1.00  0.00     0.029 A 
ATOM     75  C   UNL A   1      43.113  32.680  31.972  1.00  0.00     0.049 A 
ATOM     76  H   UNL A   1      43.910  31.099  33.127  1.00  0.00     0.167 HD
ATOM     77  C   UNL A   1      42.974  30.874  30.267  1.00  0.00     0.074 A 
ATOM     78  C   UNL A   1      42.766  29.678  31.083  1.00  0.00     0.031 C 
ATOM     79  C   UNL A   1      43.135  32.186  30.613  1.00  0.00     0.037 A 
BRANCH  66  80
ATOM     80  C   UNL A   1      42.258  30.344  35.654  1.00  0.00     0.064 A 
ATOM     81  C   UNL A   1      43.122  30.627  36.729  1.00  0.00     0.173 A 
ATOM     82  C   UNL A   1      42.197  28.989  35.262  1.00  0.00     0.173 A 
ATOM     83  F   UNL A   1      43.281  31.887  37.162  1.00  0.00    -0.203 F 
ATOM     84  C   UNL A   1      43.905  29.636  37.325  1.00  0.00     0.198 A 
ATOM     85  C   UNL A   1      42.935  27.993  35.898  1.00  0.00     0.198 A 
ATOM     86  F   UNL A   1      41.512  28.586  34.185  1.00  0.00    -0.203 F 
ATOM     87  F   UNL A   1      44.798  29.971  38.266  1.00  0.00    -0.200 F 
ATOM     88  C   UNL A   1      43.812  28.320  36.909  1.00  0.00     0.200 A 
ATOM     89  F   UNL A   1      42.844  26.728  35.464  1.00  0.00    -0.200 F 
ATOM     90  F   UNL A   1      44.598  27.377  37.444  1.00  0.00    -0.200 F 
ENDBRANCH  66  80
BRANCH  67  91
ATOM     91  C   UNL A   1      40.510  27.788  27.652  1.00  0.00     0.064 A 
ATOM     92  C   UNL A   1      41.289  27.505  26.520  1.00  0.00     0.173 A 
ATOM     93  C   UNL A   1      39.760  26.716  28.180  1.00  0.00     0.173 A 
ATOM     94  F   UNL A   1      42.061  28.458  25.979  1.00  0.00    -0.203 F 
ATOM     95  C   UNL A   1      41.342  26.220  25.967  1.00  0.00     0.198 A 
ATOM     96  C   UNL A   1      39.811  25.436  27.625  1.00  0.00     0.198 A 
ATOM     97  F   UNL A   1      39.039  26.865  29.300  1.00  0.00    -0.203 F 
ATOM     98  F   UNL A   1      42.147  25.974  24.924  1.00  0.00    -0.200 F 
ATOM     99  C   UNL A   1      40.613  25.184  26.528  1.00  0.00     0.200 A 
ATOM    100  F   UNL A   1      39.127  24.435  28.198  1.00  0.00    -0.200 F 
ATOM    101  F   UNL A   1      40.713  23.941  26.038  1.00  0.00    -0.200 F 
ENDBRANCH  67  91
BRANCH  79 102
ATOM    102  C   UNL A   1      43.108  33.219  29.514  1.00  0.00     0.064 A 
ATOM    103  C   UNL A   1      41.994  34.023  29.208  1.00  0.00     0.173 A 
ATOM    104  C   UNL A   1      44.304  33.512  28.846  1.00  0.00     0.173 A 
ATOM    105  F   UNL A   1      40.840  33.885  29.868  1.00  0.00    -0.203 F 
ATOM    106  C   UNL A   1      42.067  35.037  28.252  1.00  0.00     0.198 A 
ATOM    107  C   UNL A   1      44.384  34.548  27.919  1.00  0.00     0.198 A 
ATOM    108  F   UNL A   1      45.419  32.819  29.131  1.00  0.00    -0.203 F 
ATOM    109  F   UNL A   1      40.984  35.780  27.975  1.00  0.00    -0.200 F 
ATOM    110  C   UNL A   1      43.265  35.303  27.614  1.00  0.00     0.200 A 
ATOM    111  F   UNL A   1      45.561  34.833  27.341  1.00  0.00    -0.200 F 
ATOM    112  F   UNL A   1      43.347  36.303  26.725  1.00  0.00    -0.200 F 
ENDBRANCH  79 102
ENDBRANCH  53  54
ENDBRANCH  45  48
ENDBRANCH  43  44
ENDBRANCH  42  43
ENDBRANCH  41  42
ENDBRANCH  40  41
ENDBRANCH   1  40
TORSDOF 19
ENDMDL
MODEL 3
REMARK VINA RESULT:     -12.2      2.787      7.731
REMARK SMILES CCCSc1nc2n(n1)[C@@H](c1ccccc1C(=O)NCCCCCCNC(=O)c1ccc(-c3c4nc(c(-c5c(F)c(F)c(F)c(F)c5F)c5ccc([nH]5)c(-c5c(F)c(F)c(F)c(F)c5F)c5nc(c(-c6c(F)c(F)c(F)c(F)c6F)c6ccc3[nH]6)C=C5)C=C4)cc1)C(C(=O)Nc1cccc(C)c1C)=C(C)N2
REMARK SMILES IDX 21 1 20 2 19 3 17 4 18 5 16 7 11 8 12 9 13 10 15 11 14 12
REMARK SMILES IDX 10 13 5 14 6 15 9 16 7 17 8 18 106 19 104 20 92 22 105 23
REMARK SMILES IDX 4 24 3 25 2 26 1 27 93 28 94 29 95 30 96 32 97 33 102 34
REMARK SMILES IDX 98 35 100 36 103 37 99 38 101 39 22 40 23 41 24 42 25 43
REMARK SMILES IDX 26 44 27 45 28 47 29 48 30 49 91 50 31 51 90 52 32 53 33 54
REMARK SMILES IDX 34 55 84 56 35 57 89 58 83 59 85 60 36 61 88 62 82 63 81 64
REMARK SMILES IDX 37 66 69 67 49 68 68 69 50 70 53 71 67 72 86 73 51 74 52 75
REMARK SMILES IDX 66 77 87 78 54 79 38 80 39 81 47 82 40 83 41 84 45 85 48 86
REMARK SMILES IDX 42 87 43 88 46 89 44 90 70 91 71 92 79 93 72 94 73 95 77 96
REMARK SMILES IDX 80 97 74 98 75 99 78 100 76 101 55 102 56 103 64 104 57 105
REMARK SMILES IDX 58 106 62 107 65 108 59 109 60 110 63 111 61 112
REMARK H PARENT 19 6 106 21 95 31 26 46 85 65 53 76
REMARK Flexibility Score: inf
ROOT
ATOM      1  C   UNL A   1      31.863  27.060  26.679  1.00  0.00     0.021 C 
ENDROOT
BRANCH   1   2
ATOM      2  C   UNL A   1      30.578  26.326  26.332  1.00  0.00     0.116 C 
BRANCH   2   3
ATOM      3  N   UNL A   1      30.515  24.900  26.410  1.00  0.00    -0.352 N 
ATOM      4  C   UNL A   1      31.064  23.928  25.595  1.00  0.00     0.251 C 
ATOM      5  O   UNL A   1      30.869  22.776  26.004  1.00  0.00    -0.269 OA
ATOM      6  H   UNL A   1      29.996  24.553  27.170  1.00  0.00     0.163 HD
BRANCH   4   7
ATOM      7  C   UNL A   1      31.775  24.116  24.247  1.00  0.00     0.045 A 
ATOM      8  C   UNL A   1      33.046  23.696  23.748  1.00  0.00    -0.006 A 
ATOM      9  C   UNL A   1      33.403  24.087  22.416  1.00  0.00     0.007 A 
ATOM     10  C   UNL A   1      32.542  24.761  21.559  1.00  0.00     0.000 A 
ATOM     11  C   UNL A   1      30.907  24.755  23.308  1.00  0.00     0.014 A 
ATOM     12  C   UNL A   1      31.269  25.055  21.991  1.00  0.00     0.001 A 
BRANCH   8  13
ATOM     13  C   UNL A   1      34.011  22.690  24.396  1.00  0.00     0.180 C 
ATOM     14  C   UNL A   1      32.645  19.486  23.867  1.00  0.00     0.210 A 
ATOM     15  N   UNL A   1      32.613  19.483  25.241  1.00  0.00    -0.185 NA
ATOM     16  N   UNL A   1      33.175  20.586  23.312  1.00  0.00    -0.141 NA
ATOM     17  C   UNL A   1      33.159  20.629  25.553  1.00  0.00     0.227 A 
ATOM     18  N   UNL A   1      33.435  21.324  24.412  1.00  0.00    -0.218 N 
ATOM     19  N   UNL A   1      33.483  21.171  26.740  1.00  0.00    -0.328 N 
ATOM     20  C   UNL A   1      34.172  22.374  26.881  1.00  0.00     0.026 C 
ATOM     21  H   UNL A   1      33.217  20.690  27.557  1.00  0.00     0.169 HD
ATOM     22  C   UNL A   1      34.522  23.094  25.787  1.00  0.00     0.065 C 
ATOM     23  C   UNL A   1      34.491  22.761  28.298  1.00  0.00     0.065 C 
BRANCH  14  24
ATOM     24  S   UNL A   1      32.120  18.153  22.874  1.00  0.00    -0.084 SA
BRANCH  24  25
ATOM     25  C   UNL A   1      32.886  16.717  23.688  1.00  0.00     0.078 C 
BRANCH  25  26
ATOM     26  C   UNL A   1      34.417  16.742  23.689  1.00  0.00     0.008 C 
ATOM     27  C   UNL A   1      35.060  16.285  24.988  1.00  0.00     0.005 C 
ENDBRANCH  25  26
ENDBRANCH  24  25
ENDBRANCH  14  24
BRANCH  22  28
ATOM     28  C   UNL A   1      35.371  24.314  25.782  1.00  0.00     0.255 C 
ATOM     29  O   UNL A   1      34.830  25.410  25.931  1.00  0.00    -0.269 OA
ATOM     30  N   UNL A   1      36.722  24.355  25.616  1.00  0.00    -0.322 N 
ATOM     31  H   UNL A   1      37.051  25.226  25.296  1.00  0.00     0.170 HD
BRANCH  30  32
ATOM     32  C   UNL A   1      37.740  23.408  25.807  1.00  0.00     0.044 A 
ATOM     33  C   UNL A   1      38.712  23.812  26.735  1.00  0.00     0.026 A 
ATOM     34  C   UNL A   1      37.827  22.134  25.222  1.00  0.00    -0.025 A 
ATOM     35  C   UNL A   1      39.663  22.918  27.205  1.00  0.00     0.002 A 
ATOM     36  C   UNL A   1      38.796  21.221  25.702  1.00  0.00    -0.046 A 
ATOM     37  C   UNL A   1      36.973  21.738  24.063  1.00  0.00     0.047 C 
ATOM     38  C   UNL A   1      39.685  21.621  26.713  1.00  0.00     0.004 A 
ATOM     39  C   UNL A   1      38.907  19.800  25.210  1.00  0.00     0.044 C 
ENDBRANCH  30  32
ENDBRANCH  22  28
ENDBRANCH   8  13
ENDBRANCH   4   7
ENDBRANCH   2   3
ENDBRANCH   1   2
BRANCH   1  40
ATOM     40  C   UNL A   1      31.760  28.466  27.280  1.00  0.00     0.002 C 
BRANCH  40  41
ATOM     41  C   UNL A   1      32.982  29.399  27.238  1.00  0.00     0.002 C 
BRANCH  41  42
ATOM     42  C   UNL A   1      34.384  28.792  27.164  1.00  0.00     0.021 C 
BRANCH  42  43
ATOM     43  C   UNL A   1      35.557  29.641  27.585  1.00  0.00     0.116 C 
BRANCH  43  44
ATOM     44  N   UNL A   1      35.616  29.914  29.026  1.00  0.00    -0.352 N 
ATOM     45  C   UNL A   1      36.579  29.476  29.926  1.00  0.00     0.251 C 
ATOM     46  H   UNL A   1      34.893  30.469  29.396  1.00  0.00     0.163 HD
ATOM     47  O   UNL A   1      36.358  29.424  31.135  1.00  0.00    -0.269 OA
BRANCH  45  48
ATOM     48  C   UNL A   1      37.884  29.067  29.386  1.00  0.00     0.039 A 
ATOM     49  C   UNL A   1      38.604  29.800  28.440  1.00  0.00     0.014 A 
ATOM     50  C   UNL A   1      38.442  27.953  29.988  1.00  0.00     0.014 A 
ATOM     51  C   UNL A   1      39.928  29.436  28.201  1.00  0.00     0.010 A 
ATOM     52  C   UNL A   1      39.795  27.860  30.030  1.00  0.00     0.010 A 
ATOM     53  C   UNL A   1      40.523  28.475  29.033  1.00  0.00    -0.014 A 
BRANCH  53  54
ATOM     54  C   UNL A   1      41.922  28.095  28.942  1.00  0.00     0.031 A 
ATOM     55  C   UNL A   1      42.171  26.861  28.163  1.00  0.00     0.074 A 
ATOM     56  C   UNL A   1      42.924  28.907  29.352  1.00  0.00     0.049 A 
ATOM     57  N   UNL A   1      42.542  25.715  28.624  1.00  0.00    -0.248 NA
ATOM     58  C   UNL A   1      41.818  26.850  26.735  1.00  0.00     0.031 C 
ATOM     59  C   UNL A   1      42.866  30.292  29.847  1.00  0.00     0.029 A 
ATOM     60  N   UNL A   1      44.261  28.671  29.326  1.00  0.00    -0.354 N 
ATOM     61  C   UNL A   1      42.673  24.888  27.518  1.00  0.00     0.074 A 
ATOM     62  C   UNL A   1      42.032  25.569  26.423  1.00  0.00     0.031 C 
ATOM     63  C   UNL A   1      44.100  30.838  29.839  1.00  0.00     0.029 A 
ATOM     64  C   UNL A   1      45.055  29.792  29.536  1.00  0.00     0.049 A 
ATOM     65  H   UNL A   1      44.638  27.776  29.171  1.00  0.00     0.167 HD
ATOM     66  C   UNL A   1      43.525  23.826  27.546  1.00  0.00     0.037 A 
ATOM     67  C   UNL A   1      46.406  29.846  29.448  1.00  0.00     0.037 A 
ATOM     68  C   UNL A   1      43.898  23.496  28.902  1.00  0.00     0.049 A 
ATOM     69  C   UNL A   1      46.898  28.449  29.582  1.00  0.00     0.074 A 
ATOM     70  C   UNL A   1      43.183  23.143  30.032  1.00  0.00     0.029 A 
ATOM     71  N   UNL A   1      45.120  23.927  29.365  1.00  0.00    -0.354 N 
ATOM     72  N   UNL A   1      46.796  27.751  30.681  1.00  0.00    -0.248 NA
ATOM     73  C   UNL A   1      47.037  27.671  28.359  1.00  0.00     0.031 C 
ATOM     74  C   UNL A   1      43.800  23.865  31.098  1.00  0.00     0.029 A 
ATOM     75  C   UNL A   1      44.907  24.536  30.579  1.00  0.00     0.049 A 
ATOM     76  H   UNL A   1      45.987  23.820  28.909  1.00  0.00     0.167 HD
ATOM     77  C   UNL A   1      46.423  26.482  30.261  1.00  0.00     0.074 A 
ATOM     78  C   UNL A   1      46.655  26.475  28.817  1.00  0.00     0.031 C 
ATOM     79  C   UNL A   1      45.681  25.659  31.061  1.00  0.00     0.037 A 
BRANCH  66  80
ATOM     80  C   UNL A   1      44.289  23.329  26.348  1.00  0.00     0.064 A 
ATOM     81  C   UNL A   1      44.196  21.973  25.984  1.00  0.00     0.173 A 
ATOM     82  C   UNL A   1      45.316  24.062  25.712  1.00  0.00     0.173 A 
ATOM     83  F   UNL A   1      43.277  21.177  26.550  1.00  0.00    -0.203 F 
ATOM     84  C   UNL A   1      45.099  21.385  25.095  1.00  0.00     0.198 A 
ATOM     85  C   UNL A   1      46.178  23.486  24.782  1.00  0.00     0.198 A 
ATOM     86  F   UNL A   1      45.601  25.327  26.042  1.00  0.00    -0.203 F 
ATOM     87  F   UNL A   1      45.045  20.066  24.867  1.00  0.00    -0.200 F 
ATOM     88  C   UNL A   1      46.090  22.142  24.495  1.00  0.00     0.200 A 
ATOM     89  F   UNL A   1      47.143  24.234  24.228  1.00  0.00    -0.200 F 
ATOM     90  F   UNL A   1      46.988  21.570  23.683  1.00  0.00    -0.200 F 
ENDBRANCH  66  80
BRANCH  67  91
ATOM     91  C   UNL A   1      47.245  30.955  28.940  1.00  0.00     0.064 A 
ATOM     92  C   UNL A   1      46.998  31.534  27.685  1.00  0.00     0.173 A 
ATOM     93  C   UNL A   1      48.128  31.655  29.789  1.00  0.00     0.173 A 
ATOM     94  F   UNL A   1      46.141  30.953  26.834  1.00  0.00    -0.203 F 
ATOM     95  C   UNL A   1      47.574  32.754  27.313  1.00  0.00     0.198 A 
ATOM     96  C   UNL A   1      48.705  32.870  29.414  1.00  0.00     0.198 A 
ATOM     97  F   UNL A   1      48.375  31.223  31.032  1.00  0.00    -0.203 F 
ATOM     98  F   UNL A   1      47.263  33.307  26.132  1.00  0.00    -0.200 F 
ATOM     99  C   UNL A   1      48.416  33.428  28.183  1.00  0.00     0.200 A 
ATOM    100  F   UNL A   1      49.491  33.527  30.279  1.00  0.00    -0.200 F 
ATOM    101  F   UNL A   1      48.915  34.627  27.852  1.00  0.00    -0.200 F 
ENDBRANCH  67  91
BRANCH  79 102
ATOM    102  C   UNL A   1      45.465  26.067  32.496  1.00  0.00     0.064 A 
ATOM    103  C   UNL A   1      44.407  26.881  32.939  1.00  0.00     0.173 A 
ATOM    104  C   UNL A   1      46.274  25.487  33.482  1.00  0.00     0.173 A 
ATOM    105  F   UNL A   1      43.522  27.394  32.078  1.00  0.00    -0.203 F 
ATOM    106  C   UNL A   1      44.198  27.133  34.296  1.00  0.00     0.198 A 
ATOM    107  C   UNL A   1      46.043  25.710  34.837  1.00  0.00     0.198 A 
ATOM    108  F   UNL A   1      47.268  24.655  33.130  1.00  0.00    -0.203 F 
ATOM    109  F   UNL A   1      43.185  27.923  34.686  1.00  0.00    -0.200 F 
ATOM    110  C   UNL A   1      45.013  26.541  35.244  1.00  0.00     0.200 A 
ATOM    111  F   UNL A   1      46.805  25.093  35.753  1.00  0.00    -0.200 F 
ATOM    112  F   UNL A   1      44.790  26.749  36.549  1.00  0.00    -0.200 F 
ENDBRANCH  79 102
ENDBRANCH  53  54
ENDBRANCH  45  48
ENDBRANCH  43  44
ENDBRANCH  42  43
ENDBRANCH  41  42
ENDBRANCH  40  41
ENDBRANCH   1  40
TORSDOF 19
ENDMDL
