MODEL 1
REMARK VINA RESULT:     -12.7      0.000      0.000
REMARK SMILES CC[C@@H](C(=O)NCCCCCCNC(=O)c1ccc(-c2c3nc(c(-c4c(F)c(F)c(F)c(F)c4F)c4ccc([nH]4)c(-c4c(F)c(F)c(F)c(F)c4F)c4nc(c(-c5c(F)c(F)c(F)c(F)c5F)c5ccc2[nH]5)C=C4)C=C3)cc1)N1C(=O)/C(=C/c2ccccc2[N+](=O)[O-])SC1=S
REMARK SMILES IDX 9 1 8 2 7 3 6 4 4 5 5 6 3 8 2 9 1 10 79 11 80 12 94 13 81 14
REMARK SMILES IDX 82 15 93 16 95 17 83 18 84 19 85 20 89 21 86 22 88 23 87 24
REMARK SMILES IDX 90 25 91 26 92 27 10 28 11 29 12 30 13 31 14 32 15 34 16 35
REMARK SMILES IDX 17 36 78 37 18 38 77 39 19 40 20 41 21 42 71 43 22 44 76 45
REMARK SMILES IDX 70 46 72 47 23 48 75 49 69 50 68 51 24 53 56 54 36 55 55 56
REMARK SMILES IDX 37 57 40 58 54 59 73 60 38 61 39 62 53 64 74 65 41 66 25 67
REMARK SMILES IDX 26 68 34 69 27 70 28 71 32 72 35 73 29 74 30 75 33 76 31 77
REMARK SMILES IDX 57 78 58 79 66 80 59 81 60 82 64 83 67 84 61 85 62 86 65 87
REMARK SMILES IDX 63 88 42 89 43 90 51 91 44 92 45 93 49 94 52 95 46 96 47 97
REMARK SMILES IDX 50 98 48 99
REMARK H PARENT 6 7 13 33 72 52 40 63
REMARK Flexibility Score: inf
ROOT
ATOM      1  C   UNL A   1      32.323  29.581  26.926  1.00  0.00     0.002 C 
ENDROOT
BRANCH   1   2
ATOM      2  C   UNL A   1      33.650  28.979  26.456  1.00  0.00     0.021 C 
BRANCH   2   3
ATOM      3  C   UNL A   1      33.518  27.586  25.834  1.00  0.00     0.116 C 
BRANCH   3   4
ATOM      4  N   UNL A   1      32.396  26.888  26.433  1.00  0.00    -0.354 N 
ATOM      5  C   UNL A   1      31.272  26.367  25.861  1.00  0.00     0.243 C 
ATOM      6  O   UNL A   1      30.338  26.065  26.610  1.00  0.00    -0.273 OA
ATOM      7  H   UNL A   1      32.455  26.772  27.408  1.00  0.00     0.163 HD
BRANCH   5   8
ATOM      8  C   UNL A   1      31.177  26.167  24.330  1.00  0.00     0.181 C 
BRANCH   8   9
ATOM      9  C   UNL A   1      29.657  25.957  24.043  1.00  0.00     0.032 C 
ATOM     10  C   UNL A   1      28.923  27.190  23.544  1.00  0.00     0.006 C 
ENDBRANCH   8   9
BRANCH   8  11
ATOM     11  N   UNL A   1      31.988  24.968  23.946  1.00  0.00    -0.280 N 
ATOM     12  C   UNL A   1      31.723  23.750  24.530  1.00  0.00     0.266 C 
ATOM     13  C   UNL A   1      32.719  24.811  22.782  1.00  0.00     0.149 C 
ATOM     14  O   UNL A   1      30.684  23.414  25.102  1.00  0.00    -0.268 OA
ATOM     15  C   UNL A   1      32.807  22.790  24.246  1.00  0.00     0.081 C 
ATOM     16  S   UNL A   1      33.708  23.342  22.906  1.00  0.00    -0.054 SA
ATOM     17  S   UNL A   1      32.703  25.725  21.384  1.00  0.00    -0.052 S 
ATOM     18  C   UNL A   1      32.983  21.711  25.018  1.00  0.00     0.036 C 
BRANCH  18  19
ATOM     19  C   UNL A   1      34.084  20.746  24.938  1.00  0.00     0.054 A 
ATOM     20  C   UNL A   1      35.379  21.242  25.147  1.00  0.00     0.015 A 
ATOM     21  C   UNL A   1      33.937  19.382  24.625  1.00  0.00     0.276 A 
ATOM     22  C   UNL A   1      36.491  20.399  25.054  1.00  0.00     0.001 A 
ATOM     23  C   UNL A   1      35.051  18.531  24.539  1.00  0.00     0.086 A 
ATOM     24  C   UNL A   1      36.328  19.047  24.753  1.00  0.00     0.007 A 
BRANCH  21  25
ATOM     25  N   UNL A   1      32.627  18.801  24.336  1.00  0.00     0.063 N 
ATOM     26  O   UNL A   1      32.028  18.262  25.276  1.00  0.00    -0.258 OA
ATOM     27  O   UNL A   1      32.216  18.849  23.168  1.00  0.00    -0.258 OA
ENDBRANCH  21  25
ENDBRANCH  18  19
ENDBRANCH   8  11
ENDBRANCH   5   8
ENDBRANCH   3   4
ENDBRANCH   2   3
ENDBRANCH   1   2
BRANCH   1  28
ATOM     28  C   UNL A   1      31.723  30.630  25.985  1.00  0.00     0.002 C 
BRANCH  28  29
ATOM     29  C   UNL A   1      31.425  31.993  26.619  1.00  0.00     0.021 C 
BRANCH  29  30
ATOM     30  C   UNL A   1      32.610  32.674  27.298  1.00  0.00     0.116 C 
BRANCH  30  31
ATOM     31  N   UNL A   1      32.348  34.070  27.607  1.00  0.00    -0.352 N 
ATOM     32  C   UNL A   1      32.945  34.885  28.536  1.00  0.00     0.251 C 
ATOM     33  H   UNL A   1      31.637  34.492  27.072  1.00  0.00     0.163 HD
ATOM     34  O   UNL A   1      32.482  35.999  28.775  1.00  0.00    -0.269 OA
BRANCH  32  35
ATOM     35  C   UNL A   1      34.136  34.417  29.274  1.00  0.00     0.039 A 
ATOM     36  C   UNL A   1      33.959  33.787  30.508  1.00  0.00     0.014 A 
ATOM     37  C   UNL A   1      35.420  34.595  28.751  1.00  0.00     0.014 A 
ATOM     38  C   UNL A   1      35.065  33.267  31.185  1.00  0.00     0.010 A 
ATOM     39  C   UNL A   1      36.516  34.030  29.400  1.00  0.00     0.010 A 
ATOM     40  C   UNL A   1      36.346  33.351  30.617  1.00  0.00    -0.014 A 
BRANCH  40  41
ATOM     41  C   UNL A   1      37.514  32.698  31.261  1.00  0.00     0.031 A 
ATOM     42  C   UNL A   1      38.212  31.553  30.587  1.00  0.00     0.074 A 
ATOM     43  C   UNL A   1      37.892  33.089  32.493  1.00  0.00     0.049 A 
ATOM     44  N   UNL A   1      39.189  30.805  31.033  1.00  0.00    -0.248 NA
ATOM     45  C   UNL A   1      37.736  31.187  29.244  1.00  0.00     0.031 C 
ATOM     46  C   UNL A   1      37.261  34.158  33.269  1.00  0.00     0.029 A 
ATOM     47  N   UNL A   1      38.885  32.622  33.316  1.00  0.00    -0.354 N 
ATOM     48  C   UNL A   1      39.435  29.871  30.034  1.00  0.00     0.074 A 
ATOM     49  C   UNL A   1      38.482  30.124  28.975  1.00  0.00     0.031 C 
ATOM     50  C   UNL A   1      37.887  34.269  34.453  1.00  0.00     0.029 A 
ATOM     51  C   UNL A   1      38.940  33.259  34.530  1.00  0.00     0.049 A 
ATOM     52  H   UNL A   1      39.501  31.897  33.060  1.00  0.00     0.167 HD
ATOM     53  C   UNL A   1      40.381  28.904  30.000  1.00  0.00     0.037 A 
ATOM     54  C   UNL A   1      39.738  33.047  35.593  1.00  0.00     0.037 A 
ATOM     55  C   UNL A   1      41.349  28.673  31.041  1.00  0.00     0.049 A 
ATOM     56  C   UNL A   1      40.780  31.966  35.527  1.00  0.00     0.074 A 
ATOM     57  C   UNL A   1      42.398  27.770  31.061  1.00  0.00     0.029 A 
ATOM     58  N   UNL A   1      41.383  29.350  32.250  1.00  0.00    -0.354 N 
ATOM     59  N   UNL A   1      41.048  31.135  34.550  1.00  0.00    -0.248 NA
ATOM     60  C   UNL A   1      41.631  31.791  36.713  1.00  0.00     0.031 C 
ATOM     61  C   UNL A   1      43.044  27.874  32.297  1.00  0.00     0.029 A 
ATOM     62  C   UNL A   1      42.419  28.868  33.033  1.00  0.00     0.049 A 
ATOM     63  H   UNL A   1      40.763  30.069  32.514  1.00  0.00     0.167 HD
ATOM     64  C   UNL A   1      42.105  30.354  34.993  1.00  0.00     0.074 A 
ATOM     65  C   UNL A   1      42.443  30.819  36.322  1.00  0.00     0.031 C 
ATOM     66  C   UNL A   1      42.739  29.339  34.355  1.00  0.00     0.037 A 
BRANCH  53  67
ATOM     67  C   UNL A   1      40.426  28.018  28.791  1.00  0.00     0.064 A 
ATOM     68  C   UNL A   1      41.186  28.358  27.662  1.00  0.00     0.173 A 
ATOM     69  C   UNL A   1      39.746  26.792  28.782  1.00  0.00     0.173 A 
ATOM     70  F   UNL A   1      41.847  29.525  27.619  1.00  0.00    -0.203 F 
ATOM     71  C   UNL A   1      41.246  27.511  26.559  1.00  0.00     0.198 A 
ATOM     72  C   UNL A   1      39.826  25.936  27.686  1.00  0.00     0.198 A 
ATOM     73  F   UNL A   1      39.009  26.419  29.839  1.00  0.00    -0.203 F 
ATOM     74  F   UNL A   1      41.950  27.871  25.477  1.00  0.00    -0.200 F 
ATOM     75  C   UNL A   1      40.573  26.298  26.574  1.00  0.00     0.200 A 
ATOM     76  F   UNL A   1      39.184  24.761  27.706  1.00  0.00    -0.200 F 
ATOM     77  F   UNL A   1      40.639  25.480  25.515  1.00  0.00    -0.200 F 
ENDBRANCH  53  67
BRANCH  54  78
ATOM     78  C   UNL A   1      39.589  33.886  36.809  1.00  0.00     0.064 A 
ATOM     79  C   UNL A   1      38.787  33.464  37.879  1.00  0.00     0.173 A 
ATOM     80  C   UNL A   1      40.241  35.121  36.926  1.00  0.00     0.173 A 
ATOM     81  F   UNL A   1      38.128  32.300  37.801  1.00  0.00    -0.203 F 
ATOM     82  C   UNL A   1      38.631  34.256  39.015  1.00  0.00     0.198 A 
ATOM     83  C   UNL A   1      40.102  35.901  38.072  1.00  0.00     0.198 A 
ATOM     84  F   UNL A   1      41.021  35.565  35.930  1.00  0.00    -0.203 F 
ATOM     85  F   UNL A   1      37.829  33.847  40.007  1.00  0.00    -0.200 F 
ATOM     86  C   UNL A   1      39.293  35.471  39.112  1.00  0.00     0.200 A 
ATOM     87  F   UNL A   1      40.753  37.068  38.168  1.00  0.00    -0.200 F 
ATOM     88  F   UNL A   1      39.145  36.229  40.206  1.00  0.00    -0.200 F 
ENDBRANCH  54  78
BRANCH  66  89
ATOM     89  C   UNL A   1      43.867  28.673  35.083  1.00  0.00     0.064 A 
ATOM     90  C   UNL A   1      43.651  27.548  35.892  1.00  0.00     0.173 A 
ATOM     91  C   UNL A   1      45.181  29.142  34.942  1.00  0.00     0.173 A 
ATOM     92  F   UNL A   1      42.409  27.075  36.071  1.00  0.00    -0.203 F 
ATOM     93  C   UNL A   1      44.709  26.926  36.547  1.00  0.00     0.198 A 
ATOM     94  C   UNL A   1      46.241  28.503  35.581  1.00  0.00     0.198 A 
ATOM     95  F   UNL A   1      45.439  30.213  34.177  1.00  0.00    -0.203 F 
ATOM     96  F   UNL A   1      44.475  25.875  37.347  1.00  0.00    -0.200 F 
ATOM     97  C   UNL A   1      46.004  27.399  36.387  1.00  0.00     0.200 A 
ATOM     98  F   UNL A   1      47.491  28.957  35.418  1.00  0.00    -0.200 F 
ATOM     99  F   UNL A   1      47.022  26.797  37.015  1.00  0.00    -0.200 F 
ENDBRANCH  66  89
ENDBRANCH  40  41
ENDBRANCH  32  35
ENDBRANCH  30  31
ENDBRANCH  29  30
ENDBRANCH  28  29
ENDBRANCH   1  28
TORSDOF 17
ENDMDL
MODEL 2
REMARK VINA RESULT:     -12.6      0.929      2.203
REMARK SMILES CC[C@@H](C(=O)NCCCCCCNC(=O)c1ccc(-c2c3nc(c(-c4c(F)c(F)c(F)c(F)c4F)c4ccc([nH]4)c(-c4c(F)c(F)c(F)c(F)c4F)c4nc(c(-c5c(F)c(F)c(F)c(F)c5F)c5ccc2[nH]5)C=C4)C=C3)cc1)N1C(=O)/C(=C/c2ccccc2[N+](=O)[O-])SC1=S
REMARK SMILES IDX 9 1 8 2 7 3 6 4 4 5 5 6 3 8 2 9 1 10 79 11 80 12 94 13 81 14
REMARK SMILES IDX 82 15 93 16 95 17 83 18 84 19 85 20 89 21 86 22 88 23 87 24
REMARK SMILES IDX 90 25 91 26 92 27 10 28 11 29 12 30 13 31 14 32 15 34 16 35
REMARK SMILES IDX 17 36 78 37 18 38 77 39 19 40 20 41 21 42 71 43 22 44 76 45
REMARK SMILES IDX 70 46 72 47 23 48 75 49 69 50 68 51 24 53 56 54 36 55 55 56
REMARK SMILES IDX 37 57 40 58 54 59 73 60 38 61 39 62 53 64 74 65 41 66 25 67
REMARK SMILES IDX 26 68 34 69 27 70 28 71 32 72 35 73 29 74 30 75 33 76 31 77
REMARK SMILES IDX 57 78 58 79 66 80 59 81 60 82 64 83 67 84 61 85 62 86 65 87
REMARK SMILES IDX 63 88 42 89 43 90 51 91 44 92 45 93 49 94 52 95 46 96 47 97
REMARK SMILES IDX 50 98 48 99
REMARK H PARENT 6 7 13 33 72 52 40 63
REMARK Flexibility Score: inf
ROOT
ATOM      1  C   UNL A   1      33.069  30.011  26.279  1.00  0.00     0.002 C 
ENDROOT
BRANCH   1   2
ATOM      2  C   UNL A   1      33.311  29.347  24.920  1.00  0.00     0.021 C 
BRANCH   2   3
ATOM      3  C   UNL A   1      33.906  27.939  25.010  1.00  0.00     0.116 C 
BRANCH   3   4
ATOM      4  N   UNL A   1      33.175  27.161  25.992  1.00  0.00    -0.354 N 
ATOM      5  C   UNL A   1      31.981  26.509  25.892  1.00  0.00     0.243 C 
ATOM      6  O   UNL A   1      31.436  26.150  26.941  1.00  0.00    -0.273 OA
ATOM      7  H   UNL A   1      33.609  27.094  26.873  1.00  0.00     0.163 HD
BRANCH   5   8
ATOM      8  C   UNL A   1      31.337  26.234  24.512  1.00  0.00     0.181 C 
BRANCH   8   9
ATOM      9  C   UNL A   1      29.799  26.210  24.781  1.00  0.00     0.032 C 
ATOM     10  C   UNL A   1      28.952  26.875  23.710  1.00  0.00     0.006 C 
ENDBRANCH   8   9
BRANCH   8  11
ATOM     11  N   UNL A   1      31.833  24.918  23.999  1.00  0.00    -0.280 N 
ATOM     12  C   UNL A   1      31.349  23.748  24.539  1.00  0.00     0.266 C 
ATOM     13  C   UNL A   1      32.426  24.688  22.770  1.00  0.00     0.149 C 
ATOM     14  O   UNL A   1      30.306  23.605  25.179  1.00  0.00    -0.268 OA
ATOM     15  C   UNL A   1      32.171  22.599  24.114  1.00  0.00     0.081 C 
ATOM     16  S   UNL A   1      33.073  23.036  22.732  1.00  0.00    -0.054 SA
ATOM     17  S   UNL A   1      32.511  25.679  21.427  1.00  0.00    -0.052 S 
ATOM     18  C   UNL A   1      32.160  21.457  24.811  1.00  0.00     0.036 C 
BRANCH  18  19
ATOM     19  C   UNL A   1      33.013  20.285  24.586  1.00  0.00     0.054 A 
ATOM     20  C   UNL A   1      32.423  19.183  23.949  1.00  0.00     0.015 A 
ATOM     21  C   UNL A   1      34.353  20.174  25.000  1.00  0.00     0.276 A 
ATOM     22  C   UNL A   1      33.151  18.012  23.726  1.00  0.00     0.001 A 
ATOM     23  C   UNL A   1      35.091  19.001  24.769  1.00  0.00     0.086 A 
ATOM     24  C   UNL A   1      34.482  17.920  24.133  1.00  0.00     0.007 A 
BRANCH  21  25
ATOM     25  N   UNL A   1      35.022  21.254  25.721  1.00  0.00     0.063 N 
ATOM     26  O   UNL A   1      35.864  21.915  25.096  1.00  0.00    -0.258 OA
ATOM     27  O   UNL A   1      34.738  21.418  26.916  1.00  0.00    -0.258 OA
ENDBRANCH  21  25
ENDBRANCH  18  19
ENDBRANCH   8  11
ENDBRANCH   5   8
ENDBRANCH   3   4
ENDBRANCH   2   3
ENDBRANCH   1   2
BRANCH   1  28
ATOM     28  C   UNL A   1      31.635  30.492  26.514  1.00  0.00     0.002 C 
BRANCH  28  29
ATOM     29  C   UNL A   1      31.471  32.000  26.732  1.00  0.00     0.021 C 
BRANCH  29  30
ATOM     30  C   UNL A   1      32.684  32.713  27.324  1.00  0.00     0.116 C 
BRANCH  30  31
ATOM     31  N   UNL A   1      32.414  34.107  27.634  1.00  0.00    -0.352 N 
ATOM     32  C   UNL A   1      33.005  34.925  28.565  1.00  0.00     0.251 C 
ATOM     33  H   UNL A   1      31.702  34.527  27.098  1.00  0.00     0.163 HD
ATOM     34  O   UNL A   1      32.535  36.035  28.805  1.00  0.00    -0.269 OA
BRANCH  32  35
ATOM     35  C   UNL A   1      34.197  34.462  29.304  1.00  0.00     0.039 A 
ATOM     36  C   UNL A   1      34.033  33.953  30.595  1.00  0.00     0.014 A 
ATOM     37  C   UNL A   1      35.469  34.527  28.728  1.00  0.00     0.014 A 
ATOM     38  C   UNL A   1      35.136  33.438  31.281  1.00  0.00     0.010 A 
ATOM     39  C   UNL A   1      36.558  33.965  29.391  1.00  0.00     0.010 A 
ATOM     40  C   UNL A   1      36.398  33.404  30.669  1.00  0.00    -0.014 A 
BRANCH  40  41
ATOM     41  C   UNL A   1      37.555  32.751  31.331  1.00  0.00     0.031 A 
ATOM     42  C   UNL A   1      38.257  31.598  30.674  1.00  0.00     0.074 A 
ATOM     43  C   UNL A   1      37.919  33.149  32.565  1.00  0.00     0.049 A 
ATOM     44  N   UNL A   1      39.225  30.849  31.137  1.00  0.00    -0.248 NA
ATOM     45  C   UNL A   1      37.796  31.226  29.328  1.00  0.00     0.031 C 
ATOM     46  C   UNL A   1      37.284  34.226  33.326  1.00  0.00     0.029 A 
ATOM     47  N   UNL A   1      38.900  32.683  33.404  1.00  0.00    -0.354 N 
ATOM     48  C   UNL A   1      39.479  29.907  30.149  1.00  0.00     0.074 A 
ATOM     49  C   UNL A   1      38.541  30.157  29.075  1.00  0.00     0.031 C 
ATOM     50  C   UNL A   1      37.895  34.342  34.517  1.00  0.00     0.029 A 
ATOM     51  C   UNL A   1      38.942  33.328  34.615  1.00  0.00     0.049 A 
ATOM     52  H   UNL A   1      39.515  31.954  33.161  1.00  0.00     0.167 HD
ATOM     53  C   UNL A   1      40.422  28.936  30.133  1.00  0.00     0.037 A 
ATOM     54  C   UNL A   1      39.726  33.120  35.689  1.00  0.00     0.037 A 
ATOM     55  C   UNL A   1      41.375  28.707  31.188  1.00  0.00     0.049 A 
ATOM     56  C   UNL A   1      40.763  32.034  35.644  1.00  0.00     0.074 A 
ATOM     57  C   UNL A   1      42.419  27.800  31.226  1.00  0.00     0.029 A 
ATOM     58  N   UNL A   1      41.396  29.393  32.392  1.00  0.00    -0.354 N 
ATOM     59  N   UNL A   1      41.040  31.195  34.676  1.00  0.00    -0.248 NA
ATOM     60  C   UNL A   1      41.599  31.864  36.842  1.00  0.00     0.031 C 
ATOM     61  C   UNL A   1      43.050  27.910  32.470  1.00  0.00     0.029 A 
ATOM     62  C   UNL A   1      42.421  28.911  33.192  1.00  0.00     0.049 A 
ATOM     63  H   UNL A   1      40.776  30.116  32.643  1.00  0.00     0.167 HD
ATOM     64  C   UNL A   1      42.089  30.412  35.137  1.00  0.00     0.074 A 
ATOM     65  C   UNL A   1      42.412  30.885  36.467  1.00  0.00     0.031 C 
ATOM     66  C   UNL A   1      42.725  29.390  34.514  1.00  0.00     0.037 A 
BRANCH  53  67
ATOM     67  C   UNL A   1      40.478  28.041  28.931  1.00  0.00     0.064 A 
ATOM     68  C   UNL A   1      39.748  26.844  28.874  1.00  0.00     0.173 A 
ATOM     69  C   UNL A   1      41.225  28.410  27.803  1.00  0.00     0.173 A 
ATOM     70  F   UNL A   1      39.026  26.443  29.931  1.00  0.00    -0.203 F 
ATOM     71  C   UNL A   1      39.783  26.039  27.739  1.00  0.00     0.198 A 
ATOM     72  C   UNL A   1      41.240  27.614  26.661  1.00  0.00     0.198 A 
ATOM     73  F   UNL A   1      41.936  29.548  27.805  1.00  0.00    -0.203 F 
ATOM     74  F   UNL A   1      39.107  24.881  27.720  1.00  0.00    -0.200 F 
ATOM     75  C   UNL A   1      40.522  26.427  26.632  1.00  0.00     0.200 A 
ATOM     76  F   UNL A   1      41.946  27.995  25.588  1.00  0.00    -0.200 F 
ATOM     77  F   UNL A   1      40.547  25.655  25.537  1.00  0.00    -0.200 F 
ENDBRANCH  53  67
BRANCH  54  78
ATOM     78  C   UNL A   1      39.566  33.967  36.897  1.00  0.00     0.064 A 
ATOM     79  C   UNL A   1      40.191  35.219  36.984  1.00  0.00     0.173 A 
ATOM     80  C   UNL A   1      38.790  33.546  37.986  1.00  0.00     0.173 A 
ATOM     81  F   UNL A   1      40.961  35.653  35.976  1.00  0.00    -0.203 F 
ATOM     82  C   UNL A   1      40.057  36.011  38.123  1.00  0.00     0.198 A 
ATOM     83  C   UNL A   1      38.639  34.348  39.114  1.00  0.00     0.198 A 
ATOM     84  F   UNL A   1      38.170  32.357  37.948  1.00  0.00    -0.203 F 
ATOM     85  F   UNL A   1      40.696  37.186  38.196  1.00  0.00    -0.200 F 
ATOM     86  C   UNL A   1      39.277  35.577  39.184  1.00  0.00     0.200 A 
ATOM     87  F   UNL A   1      37.874  33.931  40.132  1.00  0.00    -0.200 F 
ATOM     88  F   UNL A   1      39.146  36.340  40.277  1.00  0.00    -0.200 F 
ENDBRANCH  54  78
BRANCH  66  89
ATOM     89  C   UNL A   1      43.841  28.724  35.261  1.00  0.00     0.064 A 
ATOM     90  C   UNL A   1      45.156  29.209  35.193  1.00  0.00     0.173 A 
ATOM     91  C   UNL A   1      43.588  27.615  36.081  1.00  0.00     0.173 A 
ATOM     92  F   UNL A   1      45.449  30.256  34.409  1.00  0.00    -0.203 F 
ATOM     93  C   UNL A   1      46.180  28.593  35.907  1.00  0.00     0.198 A 
ATOM     94  C   UNL A   1      44.612  27.016  36.811  1.00  0.00     0.198 A 
ATOM     95  F   UNL A   1      42.346  27.116  36.180  1.00  0.00    -0.203 F 
ATOM     96  F   UNL A   1      47.437  29.049  35.797  1.00  0.00    -0.200 F 
ATOM     97  C   UNL A   1      45.907  27.503  36.720  1.00  0.00     0.200 A 
ATOM     98  F   UNL A   1      44.344  25.968  37.602  1.00  0.00    -0.200 F 
ATOM     99  F   UNL A   1      46.894  26.916  37.409  1.00  0.00    -0.200 F 
ENDBRANCH  66  89
ENDBRANCH  40  41
ENDBRANCH  32  35
ENDBRANCH  30  31
ENDBRANCH  29  30
ENDBRANCH  28  29
ENDBRANCH   1  28
TORSDOF 17
ENDMDL
MODEL 3
REMARK VINA RESULT:     -12.5      0.897      1.523
REMARK SMILES CC[C@@H](C(=O)NCCCCCCNC(=O)c1ccc(-c2c3nc(c(-c4c(F)c(F)c(F)c(F)c4F)c4ccc([nH]4)c(-c4c(F)c(F)c(F)c(F)c4F)c4nc(c(-c5c(F)c(F)c(F)c(F)c5F)c5ccc2[nH]5)C=C4)C=C3)cc1)N1C(=O)/C(=C/c2ccccc2[N+](=O)[O-])SC1=S
REMARK SMILES IDX 9 1 8 2 7 3 6 4 4 5 5 6 3 8 2 9 1 10 79 11 80 12 94 13 81 14
REMARK SMILES IDX 82 15 93 16 95 17 83 18 84 19 85 20 89 21 86 22 88 23 87 24
REMARK SMILES IDX 90 25 91 26 92 27 10 28 11 29 12 30 13 31 14 32 15 34 16 35
REMARK SMILES IDX 17 36 78 37 18 38 77 39 19 40 20 41 21 42 71 43 22 44 76 45
REMARK SMILES IDX 70 46 72 47 23 48 75 49 69 50 68 51 24 53 56 54 36 55 55 56
REMARK SMILES IDX 37 57 40 58 54 59 73 60 38 61 39 62 53 64 74 65 41 66 25 67
REMARK SMILES IDX 26 68 34 69 27 70 28 71 32 72 35 73 29 74 30 75 33 76 31 77
REMARK SMILES IDX 57 78 58 79 66 80 59 81 60 82 64 83 67 84 61 85 62 86 65 87
REMARK SMILES IDX 63 88 42 89 43 90 51 91 44 92 45 93 49 94 52 95 46 96 47 97
REMARK SMILES IDX 50 98 48 99
REMARK H PARENT 6 7 13 33 72 52 40 63
REMARK Flexibility Score: inf
ROOT
ATOM      1  C   UNL A   1      32.336  29.749  25.522  1.00  0.00     0.002 C 
ENDROOT
BRANCH   1   2
ATOM      2  C   UNL A   1      33.683  29.157  25.948  1.00  0.00     0.021 C 
BRANCH   2   3
ATOM      3  C   UNL A   1      33.835  27.665  25.639  1.00  0.00     0.116 C 
BRANCH   3   4
ATOM      4  N   UNL A   1      32.821  26.913  26.354  1.00  0.00    -0.354 N 
ATOM      5  C   UNL A   1      31.637  26.391  25.920  1.00  0.00     0.243 C 
ATOM      6  O   UNL A   1      30.823  26.032  26.776  1.00  0.00    -0.273 OA
ATOM      7  H   UNL A   1      33.018  26.753  27.305  1.00  0.00     0.163 HD
BRANCH   5   8
ATOM      8  C   UNL A   1      31.332  26.259  24.409  1.00  0.00     0.181 C 
BRANCH   8   9
ATOM      9  C   UNL A   1      29.776  26.337  24.303  1.00  0.00     0.032 C 
ATOM     10  C   UNL A   1      29.250  27.461  23.427  1.00  0.00     0.006 C 
ENDBRANCH   8   9
BRANCH   8  11
ATOM     11  N   UNL A   1      31.857  24.945  23.921  1.00  0.00    -0.280 N 
ATOM     12  C   UNL A   1      31.364  23.773  24.449  1.00  0.00     0.266 C 
ATOM     13  C   UNL A   1      32.497  24.714  22.716  1.00  0.00     0.149 C 
ATOM     14  O   UNL A   1      30.298  23.624  25.051  1.00  0.00    -0.268 OA
ATOM     15  C   UNL A   1      32.211  22.629  24.060  1.00  0.00     0.081 C 
ATOM     16  S   UNL A   1      33.159  23.067  22.711  1.00  0.00    -0.054 SA
ATOM     17  S   UNL A   1      32.624  25.699  21.373  1.00  0.00    -0.052 S 
ATOM     18  C   UNL A   1      32.183  21.490  24.762  1.00  0.00     0.036 C 
BRANCH  18  19
ATOM     19  C   UNL A   1      33.053  20.325  24.574  1.00  0.00     0.054 A 
ATOM     20  C   UNL A   1      32.485  19.201  23.957  1.00  0.00     0.015 A 
ATOM     21  C   UNL A   1      34.390  20.241  25.006  1.00  0.00     0.276 A 
ATOM     22  C   UNL A   1      33.231  18.034  23.770  1.00  0.00     0.001 A 
ATOM     23  C   UNL A   1      35.145  19.072  24.812  1.00  0.00     0.086 A 
ATOM     24  C   UNL A   1      34.558  17.969  24.194  1.00  0.00     0.007 A 
BRANCH  21  25
ATOM     25  N   UNL A   1      35.037  21.346  25.709  1.00  0.00     0.063 N 
ATOM     26  O   UNL A   1      34.777  21.482  26.912  1.00  0.00    -0.258 OA
ATOM     27  O   UNL A   1      35.771  22.100  25.053  1.00  0.00    -0.258 OA
ENDBRANCH  21  25
ENDBRANCH  18  19
ENDBRANCH   8  11
ENDBRANCH   5   8
ENDBRANCH   3   4
ENDBRANCH   2   3
ENDBRANCH   1   2
BRANCH   1  28
ATOM     28  C   UNL A   1      31.543  30.420  26.647  1.00  0.00     0.002 C 
BRANCH  28  29
ATOM     29  C   UNL A   1      31.507  31.951  26.609  1.00  0.00     0.021 C 
BRANCH  29  30
ATOM     30  C   UNL A   1      32.693  32.651  27.269  1.00  0.00     0.116 C 
BRANCH  30  31
ATOM     31  N   UNL A   1      32.409  34.039  27.595  1.00  0.00    -0.352 N 
ATOM     32  C   UNL A   1      32.986  34.850  28.540  1.00  0.00     0.251 C 
ATOM     33  H   UNL A   1      31.698  34.459  27.058  1.00  0.00     0.163 HD
ATOM     34  O   UNL A   1      32.506  35.953  28.790  1.00  0.00    -0.269 OA
BRANCH  32  35
ATOM     35  C   UNL A   1      34.176  34.387  29.283  1.00  0.00     0.039 A 
ATOM     36  C   UNL A   1      33.994  33.713  30.493  1.00  0.00     0.014 A 
ATOM     37  C   UNL A   1      35.464  34.615  28.789  1.00  0.00     0.014 A 
ATOM     38  C   UNL A   1      35.101  33.198  31.172  1.00  0.00     0.010 A 
ATOM     39  C   UNL A   1      36.562  34.056  29.439  1.00  0.00     0.010 A 
ATOM     40  C   UNL A   1      36.389  33.332  30.630  1.00  0.00    -0.014 A 
BRANCH  40  41
ATOM     41  C   UNL A   1      37.563  32.688  31.272  1.00  0.00     0.031 A 
ATOM     42  C   UNL A   1      38.255  31.534  30.608  1.00  0.00     0.074 A 
ATOM     43  C   UNL A   1      37.951  33.097  32.495  1.00  0.00     0.049 A 
ATOM     44  N   UNL A   1      39.236  30.792  31.055  1.00  0.00    -0.248 NA
ATOM     45  C   UNL A   1      37.768  31.150  29.274  1.00  0.00     0.031 C 
ATOM     46  C   UNL A   1      37.328  34.176  33.262  1.00  0.00     0.029 A 
ATOM     47  N   UNL A   1      38.952  32.640  33.316  1.00  0.00    -0.354 N 
ATOM     48  C   UNL A   1      39.473  29.844  30.068  1.00  0.00     0.074 A 
ATOM     49  C   UNL A   1      38.511  30.083  29.014  1.00  0.00     0.031 C 
ATOM     50  C   UNL A   1      37.964  34.303  34.439  1.00  0.00     0.029 A 
ATOM     51  C   UNL A   1      39.017  33.294  34.521  1.00  0.00     0.049 A 
ATOM     52  H   UNL A   1      39.565  31.912  33.065  1.00  0.00     0.167 HD
ATOM     53  C   UNL A   1      40.419  28.877  30.039  1.00  0.00     0.037 A 
ATOM     54  C   UNL A   1      39.824  33.096  35.580  1.00  0.00     0.037 A 
ATOM     55  C   UNL A   1      41.396  28.659  31.075  1.00  0.00     0.049 A 
ATOM     56  C   UNL A   1      40.865  32.014  35.520  1.00  0.00     0.074 A 
ATOM     57  C   UNL A   1      42.444  27.756  31.098  1.00  0.00     0.029 A 
ATOM     58  N   UNL A   1      41.439  29.353  32.274  1.00  0.00    -0.354 N 
ATOM     59  N   UNL A   1      41.125  31.169  34.552  1.00  0.00    -0.248 NA
ATOM     60  C   UNL A   1      41.727  31.856  36.701  1.00  0.00     0.031 C 
ATOM     61  C   UNL A   1      43.101  27.877  32.326  1.00  0.00     0.029 A 
ATOM     62  C   UNL A   1      42.483  28.881  33.055  1.00  0.00     0.049 A 
ATOM     63  H   UNL A   1      40.822  30.075  32.533  1.00  0.00     0.167 HD
ATOM     64  C   UNL A   1      42.186  30.394  34.997  1.00  0.00     0.074 A 
ATOM     65  C   UNL A   1      42.535  30.877  36.316  1.00  0.00     0.031 C 
ATOM     66  C   UNL A   1      42.814  29.370  34.367  1.00  0.00     0.037 A 
BRANCH  53  67
ATOM     67  C   UNL A   1      40.453  27.974  28.842  1.00  0.00     0.064 A 
ATOM     68  C   UNL A   1      41.213  28.292  27.706  1.00  0.00     0.173 A 
ATOM     69  C   UNL A   1      39.762  26.754  28.851  1.00  0.00     0.173 A 
ATOM     70  F   UNL A   1      41.884  29.453  27.647  1.00  0.00    -0.203 F 
ATOM     71  C   UNL A   1      41.263  27.430  26.615  1.00  0.00     0.198 A 
ATOM     72  C   UNL A   1      39.833  25.883  27.766  1.00  0.00     0.198 A 
ATOM     73  F   UNL A   1      39.025  26.401  29.915  1.00  0.00    -0.203 F 
ATOM     74  F   UNL A   1      41.967  27.770  25.526  1.00  0.00    -0.200 F 
ATOM     75  C   UNL A   1      40.579  26.223  26.648  1.00  0.00     0.200 A 
ATOM     76  F   UNL A   1      39.180  24.714  27.804  1.00  0.00    -0.200 F 
ATOM     77  F   UNL A   1      40.636  25.391  25.600  1.00  0.00    -0.200 F 
ENDBRANCH  53  67
BRANCH  54  78
ATOM     78  C   UNL A   1      39.686  33.951  36.785  1.00  0.00     0.064 A 
ATOM     79  C   UNL A   1      40.352  35.182  36.873  1.00  0.00     0.173 A 
ATOM     80  C   UNL A   1      38.892  33.558  37.871  1.00  0.00     0.173 A 
ATOM     81  F   UNL A   1      41.140  35.588  35.867  1.00  0.00    -0.203 F 
ATOM     82  C   UNL A   1      40.238  35.980  38.009  1.00  0.00     0.198 A 
ATOM     83  C   UNL A   1      38.762  34.367  38.997  1.00  0.00     0.198 A 
ATOM     84  F   UNL A   1      38.234  32.389  37.833  1.00  0.00    -0.203 F 
ATOM     85  F   UNL A   1      40.915  37.135  38.083  1.00  0.00    -0.200 F 
ATOM     86  C   UNL A   1      39.440  35.575  39.068  1.00  0.00     0.200 A 
ATOM     87  F   UNL A   1      37.979  33.978  40.013  1.00  0.00    -0.200 F 
ATOM     88  F   UNL A   1      39.329  36.345  40.158  1.00  0.00    -0.200 F 
ENDBRANCH  54  78
BRANCH  66  89
ATOM     89  C   UNL A   1      43.948  28.714  35.095  1.00  0.00     0.064 A 
ATOM     90  C   UNL A   1      43.739  27.598  35.916  1.00  0.00     0.173 A 
ATOM     91  C   UNL A   1      45.260  29.184  34.940  1.00  0.00     0.173 A 
ATOM     92  F   UNL A   1      42.499  27.124  36.109  1.00  0.00    -0.203 F 
ATOM     93  C   UNL A   1      44.803  26.985  36.572  1.00  0.00     0.198 A 
ATOM     94  C   UNL A   1      46.326  28.554  35.578  1.00  0.00     0.198 A 
ATOM     95  F   UNL A   1      45.511  30.248  34.162  1.00  0.00    -0.203 F 
ATOM     96  F   UNL A   1      44.577  25.942  37.384  1.00  0.00    -0.200 F 
ATOM     97  C   UNL A   1      46.095  27.458  36.397  1.00  0.00     0.200 A 
ATOM     98  F   UNL A   1      47.574  29.008  35.402  1.00  0.00    -0.200 F 
ATOM     99  F   UNL A   1      47.119  26.864  37.025  1.00  0.00    -0.200 F 
ENDBRANCH  66  89
ENDBRANCH  40  41
ENDBRANCH  32  35
ENDBRANCH  30  31
ENDBRANCH  29  30
ENDBRANCH  28  29
ENDBRANCH   1  28
TORSDOF 17
ENDMDL
