MODEL 1
REMARK VINA RESULT:     -12.8      0.000      0.000
REMARK SMILES O=C(NCCCCCCNC(=O)c1cn(C2CC2)c2cc(N3CC[NH2+]CC3)ccc2c1=O)c1ccc(-c2c3nc(c(-c4c(F)c(F)c(F)c(F)c4F)c4ccc([nH]4)c(-c4c(F)c(F)c(F)c(F)c4F)c4nc(c(-c5c(F)c(F)c(F)c(F)c5F)c5ccc2[nH]5)C=C4)C=C3)cc1
REMARK SMILES IDX 6 1 5 2 4 3 3 4 1 5 2 6 33 8 34 9 95 10 35 11 94 12 36 13
REMARK SMILES IDX 37 14 38 15 88 16 39 17 93 18 87 19 89 20 40 21 92 22 86 23
REMARK SMILES IDX 85 24 41 26 73 27 53 28 72 29 54 30 57 31 71 32 90 33 55 34
REMARK SMILES IDX 56 35 70 37 91 38 58 39 42 40 43 41 51 42 44 43 45 44 49 45
REMARK SMILES IDX 52 46 46 47 47 48 50 49 48 50 74 51 75 52 83 53 76 54 77 55
REMARK SMILES IDX 81 56 84 57 78 58 79 59 82 60 80 61 59 62 60 63 68 64 61 65
REMARK SMILES IDX 62 66 66 67 69 68 63 69 64 70 67 71 65 72 7 73 8 74 9 75
REMARK SMILES IDX 10 76 11 77 12 79 13 80 14 81 31 82 15 83 30 84 32 85 19 86
REMARK SMILES IDX 29 87 20 88 28 89 21 90 16 91 17 92 18 93 22 94 23 95 27 96
REMARK SMILES IDX 24 97 26 98 25 99
REMARK H PARENT 3 7 89 25 57 36 10 78 25 100 25 101
REMARK Flexibility Score: inf
ROOT
ATOM      1  C   UNL A   1      31.436  30.472  25.892  1.00  0.00     0.002 C 
ENDROOT
BRANCH   1   2
ATOM      2  C   UNL A   1      31.304  31.870  26.501  1.00  0.00     0.021 C 
BRANCH   2   3
ATOM      3  C   UNL A   1      32.581  32.444  27.105  1.00  0.00     0.116 C 
BRANCH   3   4
ATOM      4  N   UNL A   1      32.429  33.830  27.509  1.00  0.00    -0.352 N 
ATOM      5  O   UNL A   1      32.693  35.668  28.777  1.00  0.00    -0.269 OA
ATOM      6  C   UNL A   1      33.084  34.540  28.480  1.00  0.00     0.251 C 
ATOM      7  H   UNL A   1      31.750  34.338  27.009  1.00  0.00     0.163 HD
BRANCH   6   8
ATOM      8  C   UNL A   1      34.255  33.969  29.184  1.00  0.00     0.039 A 
ATOM      9  C   UNL A   1      35.533  34.390  28.800  1.00  0.00     0.014 A 
ATOM     10  C   UNL A   1      34.115  32.975  30.157  1.00  0.00     0.014 A 
ATOM     11  C   UNL A   1      36.663  33.824  29.392  1.00  0.00     0.010 A 
ATOM     12  C   UNL A   1      35.241  32.460  30.798  1.00  0.00     0.010 A 
ATOM     13  C   UNL A   1      36.526  32.856  30.399  1.00  0.00    -0.014 A 
BRANCH  13  14
ATOM     14  C   UNL A   1      37.717  32.181  30.974  1.00  0.00     0.031 A 
ATOM     15  C   UNL A   1      38.184  32.550  32.356  1.00  0.00     0.074 A 
ATOM     16  C   UNL A   1      38.383  31.252  30.262  1.00  0.00     0.049 A 
ATOM     17  N   UNL A   1      39.225  32.120  33.023  1.00  0.00    -0.248 NA
ATOM     18  C   UNL A   1      37.385  33.553  33.079  1.00  0.00     0.031 C 
ATOM     19  C   UNL A   1      38.038  30.818  28.909  1.00  0.00     0.029 A 
ATOM     20  N   UNL A   1      39.488  30.504  30.583  1.00  0.00    -0.354 N 
ATOM     21  C   UNL A   1      39.212  32.809  34.229  1.00  0.00     0.074 A 
ATOM     22  C   UNL A   1      38.093  33.724  34.185  1.00  0.00     0.031 C 
ATOM     23  C   UNL A   1      38.895  29.857  28.527  1.00  0.00     0.029 A 
ATOM     24  C   UNL A   1      39.868  29.632  29.593  1.00  0.00     0.049 A 
ATOM     25  H   UNL A   1      39.964  30.585  31.441  1.00  0.00     0.167 HD
ATOM     26  C   UNL A   1      40.039  32.669  35.292  1.00  0.00     0.037 A 
ATOM     27  C   UNL A   1      40.886  28.751  29.553  1.00  0.00     0.037 A 
ATOM     28  C   UNL A   1      41.124  31.727  35.354  1.00  0.00     0.049 A 
ATOM     29  C   UNL A   1      41.804  28.627  30.739  1.00  0.00     0.074 A 
ATOM     30  C   UNL A   1      41.988  31.478  36.404  1.00  0.00     0.029 A 
ATOM     31  N   UNL A   1      41.485  30.873  34.323  1.00  0.00    -0.354 N 
ATOM     32  N   UNL A   1      41.762  29.262  31.885  1.00  0.00    -0.248 NA
ATOM     33  C   UNL A   1      42.910  27.664  30.627  1.00  0.00     0.031 C 
ATOM     34  C   UNL A   1      42.896  30.496  35.998  1.00  0.00     0.029 A 
ATOM     35  C   UNL A   1      42.572  30.106  34.708  1.00  0.00     0.049 A 
ATOM     36  H   UNL A   1      41.037  30.819  33.449  1.00  0.00     0.167 HD
ATOM     37  C   UNL A   1      42.819  28.765  32.636  1.00  0.00     0.074 A 
ATOM     38  C   UNL A   1      43.477  27.764  31.822  1.00  0.00     0.031 C 
ATOM     39  C   UNL A   1      43.210  29.111  33.886  1.00  0.00     0.037 A 
BRANCH  26  40
ATOM     40  C   UNL A   1      39.792  33.542  36.485  1.00  0.00     0.064 A 
ATOM     41  C   UNL A   1      40.430  34.784  36.627  1.00  0.00     0.173 A 
ATOM     42  C   UNL A   1      38.871  33.159  37.472  1.00  0.00     0.173 A 
ATOM     43  F   UNL A   1      41.327  35.189  35.717  1.00  0.00    -0.203 F 
ATOM     44  C   UNL A   1      40.169  35.601  37.724  1.00  0.00     0.198 A 
ATOM     45  C   UNL A   1      38.593  33.992  38.553  1.00  0.00     0.198 A 
ATOM     46  F   UNL A   1      38.231  31.984  37.380  1.00  0.00    -0.203 F 
ATOM     47  F   UNL A   1      40.820  36.765  37.859  1.00  0.00    -0.200 F 
ATOM     48  C   UNL A   1      39.245  35.209  38.681  1.00  0.00     0.200 A 
ATOM     49  F   UNL A   1      37.691  33.617  39.470  1.00  0.00    -0.200 F 
ATOM     50  F   UNL A   1      38.988  36.002  39.729  1.00  0.00    -0.200 F 
ENDBRANCH  26  40
BRANCH  27  51
ATOM     51  C   UNL A   1      41.068  27.891  28.356  1.00  0.00     0.064 A 
ATOM     52  C   UNL A   1      40.520  26.601  28.311  1.00  0.00     0.173 A 
ATOM     53  C   UNL A   1      41.771  28.340  27.228  1.00  0.00     0.173 A 
ATOM     54  F   UNL A   1      39.859  26.119  29.374  1.00  0.00    -0.203 F 
ATOM     55  C   UNL A   1      40.675  25.791  27.189  1.00  0.00     0.198 A 
ATOM     56  C   UNL A   1      41.905  27.538  26.097  1.00  0.00     0.198 A 
ATOM     57  F   UNL A   1      42.313  29.568  27.221  1.00  0.00    -0.203 F 
ATOM     58  F   UNL A   1      40.168  24.551  27.184  1.00  0.00    -0.200 F 
ATOM     59  C   UNL A   1      41.361  26.263  26.080  1.00  0.00     0.200 A 
ATOM     60  F   UNL A   1      42.558  28.003  25.023  1.00  0.00    -0.200 F 
ATOM     61  F   UNL A   1      41.501  25.488  24.996  1.00  0.00    -0.200 F 
ENDBRANCH  27  51
BRANCH  39  62
ATOM     62  C   UNL A   1      44.397  28.399  34.466  1.00  0.00     0.064 A 
ATOM     63  C   UNL A   1      44.256  27.177  35.139  1.00  0.00     0.173 A 
ATOM     64  C   UNL A   1      45.693  28.899  34.269  1.00  0.00     0.173 A 
ATOM     65  F   UNL A   1      43.035  26.667  35.361  1.00  0.00    -0.203 F 
ATOM     66  C   UNL A   1      45.371  26.485  35.600  1.00  0.00     0.198 A 
ATOM     67  C   UNL A   1      46.806  28.191  34.710  1.00  0.00     0.198 A 
ATOM     68  F   UNL A   1      45.879  30.060  33.624  1.00  0.00    -0.203 F 
ATOM     69  F   UNL A   1      45.212  25.330  36.262  1.00  0.00    -0.200 F 
ATOM     70  C   UNL A   1      46.645  26.986  35.377  1.00  0.00     0.200 A 
ATOM     71  F   UNL A   1      48.037  28.670  34.481  1.00  0.00    -0.200 F 
ATOM     72  F   UNL A   1      47.718  26.307  35.805  1.00  0.00    -0.200 F 
ENDBRANCH  39  62
ENDBRANCH  13  14
ENDBRANCH   6   8
ENDBRANCH   3   4
ENDBRANCH   2   3
ENDBRANCH   1   2
BRANCH   1  73
ATOM     73  C   UNL A   1      32.313  29.486  26.670  1.00  0.00     0.002 C 
BRANCH  73  74
ATOM     74  C   UNL A   1      31.682  28.125  26.965  1.00  0.00     0.021 C 
BRANCH  74  75
ATOM     75  C   UNL A   1      32.292  26.945  26.216  1.00  0.00     0.116 C 
BRANCH  75  76
ATOM     76  N   UNL A   1      32.858  27.323  24.931  1.00  0.00    -0.352 N 
ATOM     77  C   UNL A   1      33.472  26.530  23.998  1.00  0.00     0.256 C 
ATOM     78  H   UNL A   1      32.789  28.278  24.699  1.00  0.00     0.163 HD
ATOM     79  O   UNL A   1      33.874  27.013  22.941  1.00  0.00    -0.269 OA
BRANCH  77  80
ATOM     80  C   UNL A   1      33.582  25.090  24.284  1.00  0.00     0.104 A 
ATOM     81  C   UNL A   1      34.538  24.678  25.128  1.00  0.00     0.104 A 
ATOM     82  C   UNL A   1      32.737  24.075  23.628  1.00  0.00     0.202 A 
ATOM     83  N   UNL A   1      34.868  23.366  25.402  1.00  0.00    -0.343 N 
ATOM     84  C   UNL A   1      32.977  22.659  24.002  1.00  0.00     0.047 A 
ATOM     85  O   UNL A   1      31.902  24.369  22.779  1.00  0.00    -0.288 OA
ATOM     86  C   UNL A   1      34.023  22.333  24.886  1.00  0.00     0.054 A 
ATOM     87  C   UNL A   1      32.178  21.663  23.429  1.00  0.00     0.016 A 
ATOM     88  C   UNL A   1      34.204  20.976  25.204  1.00  0.00     0.053 A 
ATOM     89  C   UNL A   1      32.424  20.322  23.722  1.00  0.00     0.027 A 
ATOM     90  C   UNL A   1      33.438  19.957  24.611  1.00  0.00     0.039 A 
BRANCH  83  91
ATOM     91  C   UNL A   1      36.169  23.045  26.043  1.00  0.00     0.087 C 
ATOM     92  C   UNL A   1      37.426  22.621  25.323  1.00  0.00     0.027 C 
ATOM     93  C   UNL A   1      37.341  23.984  25.946  1.00  0.00     0.027 C 
ENDBRANCH  83  91
BRANCH  90  94
ATOM     94  N   UNL A   1      33.710  18.638  24.904  1.00  0.00    -0.360 N 
ATOM     95  C   UNL A   1      32.873  17.926  25.877  1.00  0.00     0.178 C 
ATOM     96  C   UNL A   1      34.558  17.817  24.033  1.00  0.00     0.178 C 
ATOM     97  C   UNL A   1      32.128  16.760  25.187  1.00  0.00     0.282 C 
ATOM     98  C   UNL A   1      33.762  16.641  23.427  1.00  0.00     0.282 C 
ATOM     99  N   UNL A   1      33.018  15.850  24.433  1.00  0.00    -0.343 N 
ATOM    100  H   UNL A   1      32.462  15.135  23.963  1.00  0.00     0.346 HD
ATOM    101  H   UNL A   1      33.672  15.394  25.069  1.00  0.00     0.346 HD
ENDBRANCH  90  94
ENDBRANCH  77  80
ENDBRANCH  75  76
ENDBRANCH  74  75
ENDBRANCH  73  74
ENDBRANCH   1  73
TORSDOF 15
ENDMDL
MODEL 2
REMARK VINA RESULT:     -12.8      5.208     10.066
REMARK SMILES O=C(NCCCCCCNC(=O)c1cn(C2CC2)c2cc(N3CC[NH2+]CC3)ccc2c1=O)c1ccc(-c2c3nc(c(-c4c(F)c(F)c(F)c(F)c4F)c4ccc([nH]4)c(-c4c(F)c(F)c(F)c(F)c4F)c4nc(c(-c5c(F)c(F)c(F)c(F)c5F)c5ccc2[nH]5)C=C4)C=C3)cc1
REMARK SMILES IDX 6 1 5 2 4 3 3 4 1 5 2 6 33 8 34 9 95 10 35 11 94 12 36 13
REMARK SMILES IDX 37 14 38 15 88 16 39 17 93 18 87 19 89 20 40 21 92 22 86 23
REMARK SMILES IDX 85 24 41 26 73 27 53 28 72 29 54 30 57 31 71 32 90 33 55 34
REMARK SMILES IDX 56 35 70 37 91 38 58 39 42 40 43 41 51 42 44 43 45 44 49 45
REMARK SMILES IDX 52 46 46 47 47 48 50 49 48 50 74 51 75 52 83 53 76 54 77 55
REMARK SMILES IDX 81 56 84 57 78 58 79 59 82 60 80 61 59 62 60 63 68 64 61 65
REMARK SMILES IDX 62 66 66 67 69 68 63 69 64 70 67 71 65 72 7 73 8 74 9 75
REMARK SMILES IDX 10 76 11 77 12 79 13 80 14 81 31 82 15 83 30 84 32 85 19 86
REMARK SMILES IDX 29 87 20 88 28 89 21 90 16 91 17 92 18 93 22 94 23 95 27 96
REMARK SMILES IDX 24 97 26 98 25 99
REMARK H PARENT 3 7 89 25 57 36 10 78 25 100 25 101
REMARK Flexibility Score: inf
ROOT
ATOM      1  C   UNL A   1      36.747  20.483  24.999  1.00  0.00     0.002 C 
ENDROOT
BRANCH   1   2
ATOM      2  C   UNL A   1      38.076  19.741  24.839  1.00  0.00     0.021 C 
BRANCH   2   3
ATOM      3  C   UNL A   1      39.182  20.166  25.798  1.00  0.00     0.116 C 
BRANCH   3   4
ATOM      4  N   UNL A   1      40.205  19.147  25.951  1.00  0.00    -0.352 N 
ATOM      5  O   UNL A   1      42.277  18.280  26.064  1.00  0.00    -0.269 OA
ATOM      6  C   UNL A   1      41.559  19.278  26.115  1.00  0.00     0.251 C 
ATOM      7  H   UNL A   1      39.876  18.220  25.935  1.00  0.00     0.163 HD
BRANCH   6   8
ATOM      8  C   UNL A   1      42.176  20.604  26.348  1.00  0.00     0.039 A 
ATOM      9  C   UNL A   1      42.316  21.052  27.666  1.00  0.00     0.014 A 
ATOM     10  C   UNL A   1      42.542  21.440  25.288  1.00  0.00     0.014 A 
ATOM     11  C   UNL A   1      42.829  22.325  27.922  1.00  0.00     0.010 A 
ATOM     12  C   UNL A   1      43.119  22.683  25.545  1.00  0.00     0.010 A 
ATOM     13  C   UNL A   1      43.237  23.149  26.863  1.00  0.00    -0.014 A 
BRANCH  13  14
ATOM     14  C   UNL A   1      43.700  24.538  27.114  1.00  0.00     0.031 A 
ATOM     15  C   UNL A   1      42.732  25.555  27.657  1.00  0.00     0.074 A 
ATOM     16  C   UNL A   1      44.971  24.891  26.849  1.00  0.00     0.049 A 
ATOM     17  N   UNL A   1      42.916  26.829  27.900  1.00  0.00    -0.248 NA
ATOM     18  C   UNL A   1      41.369  25.082  27.947  1.00  0.00     0.031 C 
ATOM     19  C   UNL A   1      45.999  24.001  26.309  1.00  0.00     0.029 A 
ATOM     20  N   UNL A   1      45.616  26.093  27.002  1.00  0.00    -0.354 N 
ATOM     21  C   UNL A   1      41.693  27.306  28.354  1.00  0.00     0.074 A 
ATOM     22  C   UNL A   1      40.760  26.204  28.303  1.00  0.00     0.031 C 
ATOM     23  C   UNL A   1      47.154  24.680  26.205  1.00  0.00     0.029 A 
ATOM     24  C   UNL A   1      46.939  26.058  26.639  1.00  0.00     0.049 A 
ATOM     25  H   UNL A   1      45.171  26.904  27.341  1.00  0.00     0.167 HD
ATOM     26  C   UNL A   1      41.384  28.545  28.802  1.00  0.00     0.037 A 
ATOM     27  C   UNL A   1      47.873  27.029  26.657  1.00  0.00     0.037 A 
ATOM     28  C   UNL A   1      42.323  29.630  28.895  1.00  0.00     0.049 A 
ATOM     29  C   UNL A   1      47.500  28.405  27.142  1.00  0.00     0.074 A 
ATOM     30  C   UNL A   1      42.117  30.909  29.380  1.00  0.00     0.029 A 
ATOM     31  N   UNL A   1      43.651  29.558  28.502  1.00  0.00    -0.354 N 
ATOM     32  N   UNL A   1      46.348  28.836  27.597  1.00  0.00    -0.248 NA
ATOM     33  C   UNL A   1      48.555  29.428  27.116  1.00  0.00     0.031 C 
ATOM     34  C   UNL A   1      43.311  31.623  29.249  1.00  0.00     0.029 A 
ATOM     35  C   UNL A   1      44.272  30.776  28.719  1.00  0.00     0.049 A 
ATOM     36  H   UNL A   1      44.087  28.761  28.125  1.00  0.00     0.167 HD
ATOM     37  C   UNL A   1      46.544  30.170  27.929  1.00  0.00     0.074 A 
ATOM     38  C   UNL A   1      47.929  30.475  27.637  1.00  0.00     0.031 C 
ATOM     39  C   UNL A   1      45.653  31.061  28.427  1.00  0.00     0.037 A 
BRANCH  26  40
ATOM     40  C   UNL A   1      39.973  28.793  29.247  1.00  0.00     0.064 A 
ATOM     41  C   UNL A   1      39.000  29.275  28.358  1.00  0.00     0.173 A 
ATOM     42  C   UNL A   1      39.576  28.496  30.559  1.00  0.00     0.173 A 
ATOM     43  F   UNL A   1      39.334  29.585  27.097  1.00  0.00    -0.203 F 
ATOM     44  C   UNL A   1      37.686  29.471  28.773  1.00  0.00     0.198 A 
ATOM     45  C   UNL A   1      38.254  28.666  30.963  1.00  0.00     0.198 A 
ATOM     46  F   UNL A   1      40.467  28.027  31.446  1.00  0.00    -0.203 F 
ATOM     47  F   UNL A   1      36.783  29.971  27.919  1.00  0.00    -0.200 F 
ATOM     48  C   UNL A   1      37.312  29.158  30.072  1.00  0.00     0.200 A 
ATOM     49  F   UNL A   1      37.892  28.353  32.214  1.00  0.00    -0.200 F 
ATOM     50  F   UNL A   1      36.044  29.337  30.466  1.00  0.00    -0.200 F 
ENDBRANCH  26  40
BRANCH  27  51
ATOM     51  C   UNL A   1      49.262  26.722  26.231  1.00  0.00     0.064 A 
ATOM     52  C   UNL A   1      49.675  26.958  24.912  1.00  0.00     0.173 A 
ATOM     53  C   UNL A   1      50.208  26.208  27.130  1.00  0.00     0.173 A 
ATOM     54  F   UNL A   1      48.799  27.427  24.011  1.00  0.00    -0.203 F 
ATOM     55  C   UNL A   1      50.979  26.684  24.506  1.00  0.00     0.198 A 
ATOM     56  C   UNL A   1      51.519  25.957  26.729  1.00  0.00     0.198 A 
ATOM     57  F   UNL A   1      49.863  25.967  28.403  1.00  0.00    -0.203 F 
ATOM     58  F   UNL A   1      51.339  26.889  23.232  1.00  0.00    -0.200 F 
ATOM     59  C   UNL A   1      51.901  26.191  25.417  1.00  0.00     0.200 A 
ATOM     60  F   UNL A   1      52.411  25.493  27.614  1.00  0.00    -0.200 F 
ATOM     61  F   UNL A   1      53.159  25.938  25.029  1.00  0.00    -0.200 F 
ENDBRANCH  27  51
BRANCH  39  62
ATOM     62  C   UNL A   1      46.141  32.452  28.704  1.00  0.00     0.064 A 
ATOM     63  C   UNL A   1      46.042  33.464  27.738  1.00  0.00     0.173 A 
ATOM     64  C   UNL A   1      46.629  32.796  29.973  1.00  0.00     0.173 A 
ATOM     65  F   UNL A   1      45.593  33.179  26.506  1.00  0.00    -0.203 F 
ATOM     66  C   UNL A   1      46.422  34.770  28.033  1.00  0.00     0.198 A 
ATOM     67  C   UNL A   1      46.984  34.108  30.271  1.00  0.00     0.198 A 
ATOM     68  F   UNL A   1      46.734  31.864  30.932  1.00  0.00    -0.203 F 
ATOM     69  F   UNL A   1      46.341  35.717  27.087  1.00  0.00    -0.200 F 
ATOM     70  C   UNL A   1      46.882  35.094  29.301  1.00  0.00     0.200 A 
ATOM     71  F   UNL A   1      47.415  34.422  31.501  1.00  0.00    -0.200 F 
ATOM     72  F   UNL A   1      47.228  36.356  29.587  1.00  0.00    -0.200 F 
ENDBRANCH  39  62
ENDBRANCH  13  14
ENDBRANCH   6   8
ENDBRANCH   3   4
ENDBRANCH   2   3
ENDBRANCH   1   2
BRANCH   1  73
ATOM     73  C   UNL A   1      36.705  21.904  24.429  1.00  0.00     0.002 C 
BRANCH  73  74
ATOM     74  C   UNL A   1      35.322  22.416  24.023  1.00  0.00     0.021 C 
BRANCH  74  75
ATOM     75  C   UNL A   1      34.819  23.627  24.801  1.00  0.00     0.116 C 
BRANCH  75  76
ATOM     76  N   UNL A   1      34.042  23.262  25.975  1.00  0.00    -0.352 N 
ATOM     77  C   UNL A   1      32.965  23.906  26.525  1.00  0.00     0.256 C 
ATOM     78  H   UNL A   1      34.328  22.441  26.437  1.00  0.00     0.163 HD
ATOM     79  O   UNL A   1      32.403  23.442  27.514  1.00  0.00    -0.269 OA
BRANCH  77  80
ATOM     80  C   UNL A   1      32.481  25.128  25.861  1.00  0.00     0.104 A 
ATOM     81  C   UNL A   1      33.177  26.262  26.025  1.00  0.00     0.104 A 
ATOM     82  C   UNL A   1      31.228  25.177  25.084  1.00  0.00     0.202 A 
ATOM     83  N   UNL A   1      32.798  27.516  25.591  1.00  0.00    -0.343 N 
ATOM     84  C   UNL A   1      30.859  26.486  24.489  1.00  0.00     0.047 A 
ATOM     85  O   UNL A   1      30.495  24.202  24.964  1.00  0.00    -0.288 OA
ATOM     86  C   UNL A   1      31.652  27.622  24.742  1.00  0.00     0.054 A 
ATOM     87  C   UNL A   1      29.695  26.573  23.717  1.00  0.00     0.016 A 
ATOM     88  C   UNL A   1      31.254  28.834  24.153  1.00  0.00     0.053 A 
ATOM     89  C   UNL A   1      29.299  27.805  23.197  1.00  0.00     0.027 A 
ATOM     90  C   UNL A   1      30.068  28.953  23.406  1.00  0.00     0.039 A 
BRANCH  83  91
ATOM     91  C   UNL A   1      33.448  28.726  26.158  1.00  0.00     0.087 C 
ATOM     92  C   UNL A   1      32.844  29.653  27.184  1.00  0.00     0.027 C 
ATOM     93  C   UNL A   1      33.975  28.743  27.567  1.00  0.00     0.027 C 
ENDBRANCH  83  91
BRANCH  90  94
ATOM     94  N   UNL A   1      29.689  30.184  22.916  1.00  0.00    -0.360 N 
ATOM     95  C   UNL A   1      29.504  30.360  21.471  1.00  0.00     0.178 C 
ATOM     96  C   UNL A   1      29.116  31.214  23.788  1.00  0.00     0.178 C 
ATOM     97  C   UNL A   1      28.028  30.702  21.160  1.00  0.00     0.282 C 
ATOM     98  C   UNL A   1      27.664  31.545  23.382  1.00  0.00     0.282 C 
ATOM     99  N   UNL A   1      27.506  31.846  21.941  1.00  0.00    -0.343 N 
ATOM    100  H   UNL A   1      26.519  31.986  21.726  1.00  0.00     0.346 HD
ATOM    101  H   UNL A   1      28.020  32.694  21.704  1.00  0.00     0.346 HD
ENDBRANCH  90  94
ENDBRANCH  77  80
ENDBRANCH  75  76
ENDBRANCH  74  75
ENDBRANCH  73  74
ENDBRANCH   1  73
TORSDOF 15
ENDMDL
MODEL 3
REMARK VINA RESULT:     -12.8      0.775      7.027
REMARK SMILES O=C(NCCCCCCNC(=O)c1cn(C2CC2)c2cc(N3CC[NH2+]CC3)ccc2c1=O)c1ccc(-c2c3nc(c(-c4c(F)c(F)c(F)c(F)c4F)c4ccc([nH]4)c(-c4c(F)c(F)c(F)c(F)c4F)c4nc(c(-c5c(F)c(F)c(F)c(F)c5F)c5ccc2[nH]5)C=C4)C=C3)cc1
REMARK SMILES IDX 6 1 5 2 4 3 3 4 1 5 2 6 33 8 34 9 95 10 35 11 94 12 36 13
REMARK SMILES IDX 37 14 38 15 88 16 39 17 93 18 87 19 89 20 40 21 92 22 86 23
REMARK SMILES IDX 85 24 41 26 73 27 53 28 72 29 54 30 57 31 71 32 90 33 55 34
REMARK SMILES IDX 56 35 70 37 91 38 58 39 42 40 43 41 51 42 44 43 45 44 49 45
REMARK SMILES IDX 52 46 46 47 47 48 50 49 48 50 74 51 75 52 83 53 76 54 77 55
REMARK SMILES IDX 81 56 84 57 78 58 79 59 82 60 80 61 59 62 60 63 68 64 61 65
REMARK SMILES IDX 62 66 66 67 69 68 63 69 64 70 67 71 65 72 7 73 8 74 9 75
REMARK SMILES IDX 10 76 11 77 12 79 13 80 14 81 31 82 15 83 30 84 32 85 19 86
REMARK SMILES IDX 29 87 20 88 28 89 21 90 16 91 17 92 18 93 22 94 23 95 27 96
REMARK SMILES IDX 24 97 26 98 25 99
REMARK H PARENT 3 7 89 25 57 36 10 78 25 100 25 101
REMARK Flexibility Score: inf
ROOT
ATOM      1  C   UNL A   1      31.548  30.674  25.979  1.00  0.00     0.002 C 
ENDROOT
BRANCH   1   2
ATOM      2  C   UNL A   1      31.356  32.095  26.516  1.00  0.00     0.021 C 
BRANCH   2   3
ATOM      3  C   UNL A   1      32.552  32.683  27.256  1.00  0.00     0.116 C 
BRANCH   3   4
ATOM      4  N   UNL A   1      32.365  34.083  27.589  1.00  0.00    -0.352 N 
ATOM      5  O   UNL A   1      32.527  35.974  28.795  1.00  0.00    -0.269 OA
ATOM      6  C   UNL A   1      32.944  34.837  28.575  1.00  0.00     0.251 C 
ATOM      7  H   UNL A   1      31.723  34.565  27.020  1.00  0.00     0.163 HD
BRANCH   6   8
ATOM      8  C   UNL A   1      34.062  34.305  29.387  1.00  0.00     0.039 A 
ATOM      9  C   UNL A   1      35.366  34.456  28.904  1.00  0.00     0.014 A 
ATOM     10  C   UNL A   1      33.838  33.596  30.571  1.00  0.00     0.014 A 
ATOM     11  C   UNL A   1      36.441  33.907  29.606  1.00  0.00     0.010 A 
ATOM     12  C   UNL A   1      34.916  33.108  31.309  1.00  0.00     0.010 A 
ATOM     13  C   UNL A   1      36.224  33.231  30.816  1.00  0.00    -0.014 A 
BRANCH  13  14
ATOM     14  C   UNL A   1      37.344  32.564  31.528  1.00  0.00     0.031 A 
ATOM     15  C   UNL A   1      38.072  31.426  30.864  1.00  0.00     0.074 A 
ATOM     16  C   UNL A   1      37.702  32.966  32.762  1.00  0.00     0.049 A 
ATOM     17  N   UNL A   1      39.041  30.678  31.327  1.00  0.00    -0.248 NA
ATOM     18  C   UNL A   1      37.639  31.068  29.504  1.00  0.00     0.031 C 
ATOM     19  C   UNL A   1      37.067  34.046  33.515  1.00  0.00     0.029 A 
ATOM     20  N   UNL A   1      38.691  32.511  33.597  1.00  0.00    -0.354 N 
ATOM     21  C   UNL A   1      39.319  29.757  30.326  1.00  0.00     0.074 A 
ATOM     22  C   UNL A   1      38.383  30.002  29.251  1.00  0.00     0.031 C 
ATOM     23  C   UNL A   1      37.702  34.193  34.690  1.00  0.00     0.029 A 
ATOM     24  C   UNL A   1      38.767  33.196  34.785  1.00  0.00     0.049 A 
ATOM     25  H   UNL A   1      39.291  31.765  33.367  1.00  0.00     0.167 HD
ATOM     26  C   UNL A   1      40.287  28.812  30.292  1.00  0.00     0.037 A 
ATOM     27  C   UNL A   1      39.601  33.037  35.831  1.00  0.00     0.037 A 
ATOM     28  C   UNL A   1      41.246  28.597  31.341  1.00  0.00     0.049 A 
ATOM     29  C   UNL A   1      40.658  31.966  35.777  1.00  0.00     0.074 A 
ATOM     30  C   UNL A   1      42.294  27.696  31.379  1.00  0.00     0.029 A 
ATOM     31  N   UNL A   1      41.277  29.302  32.535  1.00  0.00    -0.354 N 
ATOM     32  N   UNL A   1      40.929  31.122  34.812  1.00  0.00    -0.248 NA
ATOM     33  C   UNL A   1      41.522  31.826  36.957  1.00  0.00     0.031 C 
ATOM     34  C   UNL A   1      42.941  27.830  32.611  1.00  0.00     0.029 A 
ATOM     35  C   UNL A   1      42.319  28.843  33.324  1.00  0.00     0.049 A 
ATOM     36  H   UNL A   1      40.654  30.020  32.784  1.00  0.00     0.167 HD
ATOM     37  C   UNL A   1      42.005  30.366  35.258  1.00  0.00     0.074 A 
ATOM     38  C   UNL A   1      42.347  30.859  36.575  1.00  0.00     0.031 C 
ATOM     39  C   UNL A   1      42.647  29.350  34.631  1.00  0.00     0.037 A 
BRANCH  26  40
ATOM     40  C   UNL A   1      40.372  27.946  29.069  1.00  0.00     0.064 A 
ATOM     41  C   UNL A   1      41.175  28.303  27.976  1.00  0.00     0.173 A 
ATOM     42  C   UNL A   1      39.685  26.724  29.011  1.00  0.00     0.173 A 
ATOM     43  F   UNL A   1      41.841  29.467  27.979  1.00  0.00    -0.203 F 
ATOM     44  C   UNL A   1      41.272  27.476  26.859  1.00  0.00     0.198 A 
ATOM     45  C   UNL A   1      39.806  25.888  27.905  1.00  0.00     0.198 A 
ATOM     46  F   UNL A   1      38.908  26.336  30.033  1.00  0.00    -0.203 F 
ATOM     47  F   UNL A   1      42.013  27.856  25.810  1.00  0.00    -0.200 F 
ATOM     48  C   UNL A   1      40.594  26.266  26.828  1.00  0.00     0.200 A 
ATOM     49  F   UNL A   1      39.161  24.714  27.880  1.00  0.00    -0.200 F 
ATOM     50  F   UNL A   1      40.697  25.468  25.758  1.00  0.00    -0.200 F 
ENDBRANCH  26  40
BRANCH  27  51
ATOM     51  C   UNL A   1      39.490  33.940  37.004  1.00  0.00     0.064 A 
ATOM     52  C   UNL A   1      38.774  33.547  38.144  1.00  0.00     0.173 A 
ATOM     53  C   UNL A   1      40.108  35.199  37.023  1.00  0.00     0.173 A 
ATOM     54  F   UNL A   1      38.147  32.361  38.164  1.00  0.00    -0.203 F 
ATOM     55  C   UNL A   1      38.674  34.382  39.255  1.00  0.00     0.198 A 
ATOM     56  C   UNL A   1      40.026  36.023  38.143  1.00  0.00     0.198 A 
ATOM     57  F   UNL A   1      40.806  35.620  35.958  1.00  0.00    -0.203 F 
ATOM     58  F   UNL A   1      37.958  33.995  40.319  1.00  0.00    -0.200 F 
ATOM     59  C   UNL A   1      39.306  35.616  39.256  1.00  0.00     0.200 A 
ATOM     60  F   UNL A   1      40.650  37.210  38.146  1.00  0.00    -0.200 F 
ATOM     61  F   UNL A   1      39.219  36.415  40.329  1.00  0.00    -0.200 F 
ENDBRANCH  27  51
BRANCH  39  62
ATOM     62  C   UNL A   1      43.796  28.706  35.349  1.00  0.00     0.064 A 
ATOM     63  C   UNL A   1      43.602  27.599  36.187  1.00  0.00     0.173 A 
ATOM     64  C   UNL A   1      45.110  29.143  35.126  1.00  0.00     0.173 A 
ATOM     65  F   UNL A   1      42.362  27.152  36.439  1.00  0.00    -0.203 F 
ATOM     66  C   UNL A   1      44.684  26.957  36.783  1.00  0.00     0.198 A 
ATOM     67  C   UNL A   1      46.191  28.484  35.704  1.00  0.00     0.198 A 
ATOM     68  F   UNL A   1      45.347  30.193  34.326  1.00  0.00    -0.203 F 
ATOM     69  F   UNL A   1      44.474  25.915  37.600  1.00  0.00    -0.200 F 
ATOM     70  C   UNL A   1      45.977  27.393  36.533  1.00  0.00     0.200 A 
ATOM     71  F   UNL A   1      47.440  28.897  35.450  1.00  0.00    -0.200 F 
ATOM     72  F   UNL A   1      47.018  26.761  37.093  1.00  0.00    -0.200 F 
ENDBRANCH  39  62
ENDBRANCH  13  14
ENDBRANCH   6   8
ENDBRANCH   3   4
ENDBRANCH   2   3
ENDBRANCH   1   2
BRANCH   1  73
ATOM     73  C   UNL A   1      32.196  29.680  26.947  1.00  0.00     0.002 C 
BRANCH  73  74
ATOM     74  C   UNL A   1      31.695  28.237  26.851  1.00  0.00     0.021 C 
BRANCH  74  75
ATOM     75  C   UNL A   1      32.699  27.233  26.295  1.00  0.00     0.116 C 
BRANCH  75  76
ATOM     76  N   UNL A   1      33.152  27.567  24.954  1.00  0.00    -0.352 N 
ATOM     77  C   UNL A   1      33.646  26.737  23.984  1.00  0.00     0.256 C 
ATOM     78  H   UNL A   1      33.094  28.520  24.711  1.00  0.00     0.163 HD
ATOM     79  O   UNL A   1      33.961  27.186  22.884  1.00  0.00    -0.269 OA
BRANCH  77  80
ATOM     80  C   UNL A   1      33.732  25.299  24.287  1.00  0.00     0.104 A 
ATOM     81  C   UNL A   1      34.710  24.876  25.101  1.00  0.00     0.104 A 
ATOM     82  C   UNL A   1      32.839  24.295  23.680  1.00  0.00     0.202 A 
ATOM     83  N   UNL A   1      35.019  23.560  25.382  1.00  0.00    -0.343 N 
ATOM     84  C   UNL A   1      33.059  22.879  24.066  1.00  0.00     0.047 A 
ATOM     85  O   UNL A   1      31.979  24.597  22.859  1.00  0.00    -0.288 OA
ATOM     86  C   UNL A   1      34.132  22.541  24.915  1.00  0.00     0.054 A 
ATOM     87  C   UNL A   1      32.215  21.895  23.540  1.00  0.00     0.016 A 
ATOM     88  C   UNL A   1      34.292  21.185  25.246  1.00  0.00     0.053 A 
ATOM     89  C   UNL A   1      32.441  20.553  23.844  1.00  0.00     0.027 A 
ATOM     90  C   UNL A   1      33.480  20.176  24.699  1.00  0.00     0.039 A 
BRANCH  83  91
ATOM     91  C   UNL A   1      36.337  23.218  25.978  1.00  0.00     0.087 C 
ATOM     92  C   UNL A   1      37.345  22.257  25.395  1.00  0.00     0.027 C 
ATOM     93  C   UNL A   1      37.620  23.733  25.386  1.00  0.00     0.027 C 
ENDBRANCH  83  91
BRANCH  90  94
ATOM     94  N   UNL A   1      33.732  18.855  25.001  1.00  0.00    -0.360 N 
ATOM     95  C   UNL A   1      32.775  18.108  25.826  1.00  0.00     0.178 C 
ATOM     96  C   UNL A   1      34.714  18.069  24.248  1.00  0.00     0.178 C 
ATOM     97  C   UNL A   1      32.162  16.946  25.009  1.00  0.00     0.282 C 
ATOM     98  C   UNL A   1      34.039  16.894  23.508  1.00  0.00     0.282 C 
ATOM     99  N   UNL A   1      33.171  16.068  24.376  1.00  0.00    -0.343 N 
ATOM    100  H   UNL A   1      32.703  15.356  23.815  1.00  0.00     0.346 HD
ATOM    101  H   UNL A   1      33.732  15.608  25.093  1.00  0.00     0.346 HD
ENDBRANCH  90  94
ENDBRANCH  77  80
ENDBRANCH  75  76
ENDBRANCH  74  75
ENDBRANCH  73  74
ENDBRANCH   1  73
TORSDOF 15
ENDMDL
