MODEL 1
REMARK VINA RESULT:     -11.3      0.000      0.000
REMARK SMILES C[C@@H](NC(=O)[C@@H](C)NC(=O)C(C)(C)C)C(=O)NCCCCCCNC(=O)c1ccc(-c2c3nc(c(-c4c(F)c(F)c(F)c(F)c4F)c4ccc([nH]4)c(-c4c(F)c(F)c(F)c(F)c4F)c4nc(c(-c5c(F)c(F)c(F)c(F)c5F)c5ccc2[nH]5)C=C4)C=C3)cc1
REMARK SMILES IDX 19 1 18 2 17 3 15 4 16 5 2 7 1 8 3 9 4 10 5 12 6 13 7 14
REMARK SMILES IDX 8 15 9 16 10 18 11 19 12 20 13 21 14 22 20 23 21 24 22 25
REMARK SMILES IDX 23 26 24 27 25 28 26 30 27 31 28 32 89 33 29 34 88 35 30 36
REMARK SMILES IDX 31 37 32 38 82 39 33 40 87 41 81 42 83 43 34 44 86 45 80 46
REMARK SMILES IDX 79 47 35 49 67 50 47 51 66 52 48 53 51 54 65 55 84 56 49 57
REMARK SMILES IDX 50 58 64 60 85 61 52 62 36 63 37 64 45 65 38 66 39 67 43 68
REMARK SMILES IDX 46 69 40 70 41 71 44 72 42 73 68 74 69 75 77 76 70 77 71 78
REMARK SMILES IDX 75 79 78 80 72 81 73 82 76 83 74 84 53 85 54 86 62 87 55 88
REMARK SMILES IDX 56 89 60 90 63 91 57 92 58 93 61 94 59 95
REMARK H PARENT 17 6 3 11 8 17 24 29 83 48 51 59
REMARK Flexibility Score: inf
ROOT
ATOM      1  C   UNL A   1      33.601  29.165  27.203  1.00  0.00     0.021 C 
ENDROOT
BRANCH   1   2
ATOM      2  C   UNL A   1      34.038  28.031  26.272  1.00  0.00     0.116 C 
BRANCH   2   3
ATOM      3  N   UNL A   1      34.335  28.504  24.932  1.00  0.00    -0.354 N 
ATOM      4  C   UNL A   1      33.789  28.199  23.726  1.00  0.00     0.242 C 
ATOM      5  O   UNL A   1      34.231  28.800  22.741  1.00  0.00    -0.273 OA
ATOM      6  H   UNL A   1      35.063  29.165  24.890  1.00  0.00     0.163 HD
BRANCH   4   7
ATOM      7  C   UNL A   1      32.751  27.085  23.527  1.00  0.00     0.168 C 
ATOM      8  C   UNL A   1      31.471  27.695  22.937  1.00  0.00     0.041 C 
BRANCH   7   9
ATOM      9  N   UNL A   1      33.136  25.914  22.744  1.00  0.00    -0.343 N 
ATOM     10  C   UNL A   1      33.204  24.597  23.083  1.00  0.00     0.242 C 
ATOM     11  H   UNL A   1      33.389  26.109  21.813  1.00  0.00     0.164 HD
ATOM     12  O   UNL A   1      33.056  23.800  22.147  1.00  0.00    -0.273 OA
BRANCH  10  13
ATOM     13  C   UNL A   1      33.660  24.066  24.467  1.00  0.00     0.168 C 
ATOM     14  C   UNL A   1      32.752  24.636  25.538  1.00  0.00     0.041 C 
BRANCH  13  15
ATOM     15  N   UNL A   1      33.856  22.641  24.664  1.00  0.00    -0.344 N 
ATOM     16  C   UNL A   1      35.014  21.912  24.692  1.00  0.00     0.226 C 
ATOM     17  H   UNL A   1      33.032  22.120  24.798  1.00  0.00     0.164 HD
ATOM     18  O   UNL A   1      34.870  20.706  24.921  1.00  0.00    -0.275 OA
BRANCH  16  19
ATOM     19  C   UNL A   1      36.445  22.512  24.475  1.00  0.00     0.041 C 
ATOM     20  C   UNL A   1      36.704  22.967  23.031  1.00  0.00     0.021 C 
ATOM     21  C   UNL A   1      36.769  23.648  25.457  1.00  0.00     0.021 C 
ATOM     22  C   UNL A   1      37.474  21.389  24.771  1.00  0.00     0.021 C 
ENDBRANCH  16  19
ENDBRANCH  13  15
ENDBRANCH  10  13
ENDBRANCH   7   9
ENDBRANCH   4   7
ENDBRANCH   2   3
ENDBRANCH   1   2
BRANCH   1  23
ATOM     23  C   UNL A   1      32.136  29.624  27.121  1.00  0.00     0.002 C 
BRANCH  23  24
ATOM     24  C   UNL A   1      31.791  30.741  26.135  1.00  0.00     0.002 C 
BRANCH  24  25
ATOM     25  C   UNL A   1      31.468  32.105  26.732  1.00  0.00     0.021 C 
BRANCH  25  26
ATOM     26  C   UNL A   1      32.661  32.846  27.316  1.00  0.00     0.116 C 
BRANCH  26  27
ATOM     27  N   UNL A   1      32.372  34.228  27.654  1.00  0.00    -0.352 N 
ATOM     28  C   UNL A   1      32.975  35.035  28.589  1.00  0.00     0.251 C 
ATOM     29  H   UNL A   1      31.642  34.645  27.143  1.00  0.00     0.163 HD
ATOM     30  O   UNL A   1      32.539  36.154  28.816  1.00  0.00    -0.269 OA
BRANCH  28  31
ATOM     31  C   UNL A   1      34.133  34.521  29.354  1.00  0.00     0.039 A 
ATOM     32  C   UNL A   1      33.896  33.922  30.593  1.00  0.00     0.014 A 
ATOM     33  C   UNL A   1      35.433  34.602  28.850  1.00  0.00     0.014 A 
ATOM     34  C   UNL A   1      34.955  33.343  31.292  1.00  0.00     0.010 A 
ATOM     35  C   UNL A   1      36.472  33.949  29.504  1.00  0.00     0.010 A 
ATOM     36  C   UNL A   1      36.245  33.315  30.734  1.00  0.00    -0.014 A 
BRANCH  36  37
ATOM     37  C   UNL A   1      37.352  32.605  31.423  1.00  0.00     0.031 A 
ATOM     38  C   UNL A   1      38.041  31.443  30.766  1.00  0.00     0.074 A 
ATOM     39  C   UNL A   1      37.708  32.989  32.664  1.00  0.00     0.049 A 
ATOM     40  N   UNL A   1      39.036  30.714  31.207  1.00  0.00    -0.248 NA
ATOM     41  C   UNL A   1      37.528  31.025  29.453  1.00  0.00     0.031 C 
ATOM     42  C   UNL A   1      37.071  34.062  33.430  1.00  0.00     0.029 A 
ATOM     43  N   UNL A   1      38.693  32.524  33.498  1.00  0.00    -0.354 N 
ATOM     44  C   UNL A   1      39.261  29.752  30.232  1.00  0.00     0.074 A 
ATOM     45  C   UNL A   1      38.258  29.947  29.207  1.00  0.00     0.031 C 
ATOM     46  C   UNL A   1      37.711  34.205  34.600  1.00  0.00     0.029 A 
ATOM     47  C   UNL A   1      38.775  33.210  34.686  1.00  0.00     0.049 A 
ATOM     48  H   UNL A   1      39.283  31.771  33.268  1.00  0.00     0.167 HD
ATOM     49  C   UNL A   1      40.230  28.807  30.185  1.00  0.00     0.037 A 
ATOM     50  C   UNL A   1      39.619  33.057  35.724  1.00  0.00     0.037 A 
ATOM     51  C   UNL A   1      41.233  28.628  31.204  1.00  0.00     0.049 A 
ATOM     52  C   UNL A   1      40.681  31.994  35.650  1.00  0.00     0.074 A 
ATOM     53  C   UNL A   1      42.303  27.750  31.218  1.00  0.00     0.029 A 
ATOM     54  N   UNL A   1      41.279  29.334  32.398  1.00  0.00    -0.354 N 
ATOM     55  N   UNL A   1      40.944  31.150  34.682  1.00  0.00    -0.248 NA
ATOM     56  C   UNL A   1      41.569  31.871  36.814  1.00  0.00     0.031 C 
ATOM     57  C   UNL A   1      42.958  27.880  32.448  1.00  0.00     0.029 A 
ATOM     58  C   UNL A   1      42.337  28.884  33.174  1.00  0.00     0.049 A 
ATOM     59  H   UNL A   1      40.655  30.049  32.657  1.00  0.00     0.167 HD
ATOM     60  C   UNL A   1      42.039  30.411  35.107  1.00  0.00     0.074 A 
ATOM     61  C   UNL A   1      42.406  30.925  36.412  1.00  0.00     0.031 C 
ATOM     62  C   UNL A   1      42.683  29.397  34.477  1.00  0.00     0.037 A 
BRANCH  49  63
ATOM     63  C   UNL A   1      40.246  27.889  28.995  1.00  0.00     0.064 A 
ATOM     64  C   UNL A   1      40.958  28.200  27.825  1.00  0.00     0.173 A 
ATOM     65  C   UNL A   1      39.550  26.670  29.028  1.00  0.00     0.173 A 
ATOM     66  F   UNL A   1      41.632  29.357  27.733  1.00  0.00    -0.203 F 
ATOM     67  C   UNL A   1      40.939  27.349  26.723  1.00  0.00     0.198 A 
ATOM     68  C   UNL A   1      39.564  25.804  27.938  1.00  0.00     0.198 A 
ATOM     69  F   UNL A   1      38.857  26.317  30.120  1.00  0.00    -0.203 F 
ATOM     70  F   UNL A   1      41.574  27.701  25.596  1.00  0.00    -0.200 F 
ATOM     71  C   UNL A   1      40.248  26.149  26.782  1.00  0.00     0.200 A 
ATOM     72  F   UNL A   1      38.906  24.638  28.002  1.00  0.00    -0.200 F 
ATOM     73  F   UNL A   1      40.233  25.330  25.722  1.00  0.00    -0.200 F 
ENDBRANCH  49  63
BRANCH  50  74
ATOM     74  C   UNL A   1      39.515  33.958  36.901  1.00  0.00     0.064 A 
ATOM     75  C   UNL A   1      38.774  33.583  38.030  1.00  0.00     0.173 A 
ATOM     76  C   UNL A   1      40.158  35.204  36.928  1.00  0.00     0.173 A 
ATOM     77  F   UNL A   1      38.125  32.409  38.045  1.00  0.00    -0.203 F 
ATOM     78  C   UNL A   1      38.666  34.426  39.134  1.00  0.00     0.198 A 
ATOM     79  C   UNL A   1      40.073  36.033  38.044  1.00  0.00     0.198 A 
ATOM     80  F   UNL A   1      40.884  35.608  35.875  1.00  0.00    -0.203 F 
ATOM     81  F   UNL A   1      37.915  34.061  40.182  1.00  0.00    -0.200 F 
ATOM     82  C   UNL A   1      39.321  35.648  39.143  1.00  0.00     0.200 A 
ATOM     83  F   UNL A   1      40.723  37.206  38.055  1.00  0.00    -0.200 F 
ATOM     84  F   UNL A   1      39.224  36.454  40.208  1.00  0.00    -0.200 F 
ENDBRANCH  50  74
BRANCH  62  85
ATOM     85  C   UNL A   1      43.863  28.792  35.185  1.00  0.00     0.064 A 
ATOM     86  C   UNL A   1      43.721  27.695  36.048  1.00  0.00     0.173 A 
ATOM     87  C   UNL A   1      45.154  29.305  34.985  1.00  0.00     0.173 A 
ATOM     88  F   UNL A   1      42.508  27.174  36.285  1.00  0.00    -0.203 F 
ATOM     89  C   UNL A   1      44.821  27.161  36.715  1.00  0.00     0.198 A 
ATOM     90  C   UNL A   1      46.255  28.745  35.625  1.00  0.00     0.198 A 
ATOM     91  F   UNL A   1      45.348  30.348  34.164  1.00  0.00    -0.203 F 
ATOM     92  F   UNL A   1      44.651  26.155  37.584  1.00  0.00    -0.200 F 
ATOM     93  C   UNL A   1      46.087  27.681  36.498  1.00  0.00     0.200 A 
ATOM     94  F   UNL A   1      47.481  29.239  35.400  1.00  0.00    -0.200 F 
ATOM     95  F   UNL A   1      47.145  27.164  37.138  1.00  0.00    -0.200 F 
ENDBRANCH  62  85
ENDBRANCH  36  37
ENDBRANCH  28  31
ENDBRANCH  26  27
ENDBRANCH  25  26
ENDBRANCH  24  25
ENDBRANCH  23  24
ENDBRANCH   1  23
TORSDOF 17
ENDMDL
MODEL 2
REMARK VINA RESULT:     -11.3      1.030      7.417
REMARK SMILES C[C@@H](NC(=O)[C@@H](C)NC(=O)C(C)(C)C)C(=O)NCCCCCCNC(=O)c1ccc(-c2c3nc(c(-c4c(F)c(F)c(F)c(F)c4F)c4ccc([nH]4)c(-c4c(F)c(F)c(F)c(F)c4F)c4nc(c(-c5c(F)c(F)c(F)c(F)c5F)c5ccc2[nH]5)C=C4)C=C3)cc1
REMARK SMILES IDX 19 1 18 2 17 3 15 4 16 5 2 7 1 8 3 9 4 10 5 12 6 13 7 14
REMARK SMILES IDX 8 15 9 16 10 18 11 19 12 20 13 21 14 22 20 23 21 24 22 25
REMARK SMILES IDX 23 26 24 27 25 28 26 30 27 31 28 32 89 33 29 34 88 35 30 36
REMARK SMILES IDX 31 37 32 38 82 39 33 40 87 41 81 42 83 43 34 44 86 45 80 46
REMARK SMILES IDX 79 47 35 49 67 50 47 51 66 52 48 53 51 54 65 55 84 56 49 57
REMARK SMILES IDX 50 58 64 60 85 61 52 62 36 63 37 64 45 65 38 66 39 67 43 68
REMARK SMILES IDX 46 69 40 70 41 71 44 72 42 73 68 74 69 75 77 76 70 77 71 78
REMARK SMILES IDX 75 79 78 80 72 81 73 82 76 83 74 84 53 85 54 86 62 87 55 88
REMARK SMILES IDX 56 89 60 90 63 91 57 92 58 93 61 94 59 95
REMARK H PARENT 17 6 3 11 8 17 24 29 83 48 51 59
REMARK Flexibility Score: inf
ROOT
ATOM      1  C   UNL A   1      33.683  29.178  26.952  1.00  0.00     0.021 C 
ENDROOT
BRANCH   1   2
ATOM      2  C   UNL A   1      33.787  28.026  25.947  1.00  0.00     0.116 C 
BRANCH   2   3
ATOM      3  N   UNL A   1      34.142  28.489  24.618  1.00  0.00    -0.354 N 
ATOM      4  C   UNL A   1      33.735  28.091  23.385  1.00  0.00     0.242 C 
ATOM      5  O   UNL A   1      34.191  28.707  22.416  1.00  0.00    -0.273 OA
ATOM      6  H   UNL A   1      34.798  29.223  24.608  1.00  0.00     0.163 HD
BRANCH   4   7
ATOM      7  C   UNL A   1      32.841  26.865  23.147  1.00  0.00     0.168 C 
ATOM      8  C   UNL A   1      31.594  27.301  22.364  1.00  0.00     0.041 C 
BRANCH   7   9
ATOM      9  N   UNL A   1      33.431  25.693  22.505  1.00  0.00    -0.343 N 
ATOM     10  C   UNL A   1      33.004  24.402  22.441  1.00  0.00     0.242 C 
ATOM     11  H   UNL A   1      34.281  25.865  22.040  1.00  0.00     0.164 HD
ATOM     12  O   UNL A   1      33.391  23.764  21.452  1.00  0.00    -0.273 OA
BRANCH  10  13
ATOM     13  C   UNL A   1      32.283  23.653  23.592  1.00  0.00     0.168 C 
ATOM     14  C   UNL A   1      30.793  23.645  23.319  1.00  0.00     0.041 C 
BRANCH  13  15
ATOM     15  N   UNL A   1      32.741  22.335  23.994  1.00  0.00    -0.344 N 
ATOM     16  C   UNL A   1      33.215  21.903  25.203  1.00  0.00     0.226 C 
ATOM     17  H   UNL A   1      32.705  21.648  23.290  1.00  0.00     0.164 HD
ATOM     18  O   UNL A   1      33.496  20.700  25.258  1.00  0.00    -0.275 OA
BRANCH  16  19
ATOM     19  C   UNL A   1      33.392  22.816  26.463  1.00  0.00     0.041 C 
ATOM     20  C   UNL A   1      34.014  22.086  27.664  1.00  0.00     0.021 C 
ATOM     21  C   UNL A   1      34.174  24.103  26.160  1.00  0.00     0.021 C 
ATOM     22  C   UNL A   1      31.980  23.273  26.913  1.00  0.00     0.021 C 
ENDBRANCH  16  19
ENDBRANCH  13  15
ENDBRANCH  10  13
ENDBRANCH   7   9
ENDBRANCH   4   7
ENDBRANCH   2   3
ENDBRANCH   1   2
BRANCH   1  23
ATOM     23  C   UNL A   1      32.287  29.768  27.210  1.00  0.00     0.002 C 
BRANCH  23  24
ATOM     24  C   UNL A   1      31.717  30.736  26.172  1.00  0.00     0.002 C 
BRANCH  24  25
ATOM     25  C   UNL A   1      31.448  32.161  26.641  1.00  0.00     0.021 C 
BRANCH  25  26
ATOM     26  C   UNL A   1      32.632  32.853  27.298  1.00  0.00     0.116 C 
BRANCH  26  27
ATOM     27  N   UNL A   1      32.352  34.221  27.695  1.00  0.00    -0.352 N 
ATOM     28  C   UNL A   1      32.997  35.002  28.625  1.00  0.00     0.251 C 
ATOM     29  H   UNL A   1      31.596  34.649  27.234  1.00  0.00     0.163 HD
ATOM     30  O   UNL A   1      32.566  36.110  28.909  1.00  0.00    -0.269 OA
BRANCH  28  31
ATOM     31  C   UNL A   1      34.194  34.472  29.315  1.00  0.00     0.039 A 
ATOM     32  C   UNL A   1      34.016  33.777  30.514  1.00  0.00     0.014 A 
ATOM     33  C   UNL A   1      35.474  34.629  28.778  1.00  0.00     0.014 A 
ATOM     34  C   UNL A   1      35.114  33.185  31.136  1.00  0.00     0.010 A 
ATOM     35  C   UNL A   1      36.553  33.964  29.351  1.00  0.00     0.010 A 
ATOM     36  C   UNL A   1      36.385  33.237  30.538  1.00  0.00    -0.014 A 
BRANCH  36  37
ATOM     37  C   UNL A   1      37.534  32.516  31.139  1.00  0.00     0.031 A 
ATOM     38  C   UNL A   1      38.032  32.878  32.510  1.00  0.00     0.074 A 
ATOM     39  C   UNL A   1      38.155  31.556  30.426  1.00  0.00     0.049 A 
ATOM     40  N   UNL A   1      39.010  32.349  33.201  1.00  0.00    -0.248 NA
ATOM     41  C   UNL A   1      37.364  34.003  33.182  1.00  0.00     0.031 C 
ATOM     42  C   UNL A   1      37.803  31.159  29.062  1.00  0.00     0.029 A 
ATOM     43  N   UNL A   1      39.208  30.738  30.750  1.00  0.00    -0.354 N 
ATOM     44  C   UNL A   1      39.077  33.078  34.381  1.00  0.00     0.074 A 
ATOM     45  C   UNL A   1      38.086  34.128  34.284  1.00  0.00     0.031 C 
ATOM     46  C   UNL A   1      38.593  30.142  28.683  1.00  0.00     0.029 A 
ATOM     47  C   UNL A   1      39.532  29.843  29.759  1.00  0.00     0.049 A 
ATOM     48  H   UNL A   1      39.686  30.788  31.609  1.00  0.00     0.167 HD
ATOM     49  C   UNL A   1      39.875  32.874  35.456  1.00  0.00     0.037 A 
ATOM     50  C   UNL A   1      40.477  28.885  29.726  1.00  0.00     0.037 A 
ATOM     51  C   UNL A   1      40.851  31.818  35.549  1.00  0.00     0.049 A 
ATOM     52  C   UNL A   1      41.356  28.685  30.930  1.00  0.00     0.074 A 
ATOM     53  C   UNL A   1      41.658  31.480  36.620  1.00  0.00     0.029 A 
ATOM     54  N   UNL A   1      41.160  30.936  34.522  1.00  0.00    -0.354 N 
ATOM     55  N   UNL A   1      41.349  29.319  32.077  1.00  0.00    -0.248 NA
ATOM     56  C   UNL A   1      42.372  27.628  30.834  1.00  0.00     0.031 C 
ATOM     57  C   UNL A   1      42.501  30.436  36.220  1.00  0.00     0.029 A 
ATOM     58  C   UNL A   1      42.174  30.079  34.922  1.00  0.00     0.049 A 
ATOM     59  H   UNL A   1      40.723  30.921  33.640  1.00  0.00     0.167 HD
ATOM     60  C   UNL A   1      42.339  28.726  32.848  1.00  0.00     0.074 A 
ATOM     61  C   UNL A   1      42.910  27.664  32.044  1.00  0.00     0.031 C 
ATOM     62  C   UNL A   1      42.741  29.033  34.106  1.00  0.00     0.037 A 
BRANCH  49  63
ATOM     63  C   UNL A   1      39.732  33.821  36.615  1.00  0.00     0.064 A 
ATOM     64  C   UNL A   1      38.933  33.516  37.729  1.00  0.00     0.173 A 
ATOM     65  C   UNL A   1      40.416  35.047  36.620  1.00  0.00     0.173 A 
ATOM     66  F   UNL A   1      38.248  32.363  37.773  1.00  0.00    -0.203 F 
ATOM     67  C   UNL A   1      38.792  34.418  38.781  1.00  0.00     0.198 A 
ATOM     68  C   UNL A   1      40.301  35.930  37.691  1.00  0.00     0.198 A 
ATOM     69  F   UNL A   1      41.198  35.390  35.586  1.00  0.00    -0.203 F 
ATOM     70  F   UNL A   1      37.972  34.130  39.802  1.00  0.00    -0.200 F 
ATOM     71  C   UNL A   1      39.481  35.620  38.764  1.00  0.00     0.200 A 
ATOM     72  F   UNL A   1      40.979  37.086  37.680  1.00  0.00    -0.200 F 
ATOM     73  F   UNL A   1      39.346  36.485  39.779  1.00  0.00    -0.200 F 
ENDBRANCH  49  63
BRANCH  50  74
ATOM     74  C   UNL A   1      40.610  28.018  28.526  1.00  0.00     0.064 A 
ATOM     75  C   UNL A   1      39.959  26.777  28.461  1.00  0.00     0.173 A 
ATOM     76  C   UNL A   1      41.378  28.410  27.420  1.00  0.00     0.173 A 
ATOM     77  F   UNL A   1      39.228  26.349  29.501  1.00  0.00    -0.203 F 
ATOM     78  C   UNL A   1      40.085  25.956  27.343  1.00  0.00     0.198 A 
ATOM     79  C   UNL A   1      41.478  27.600  26.291  1.00  0.00     0.198 A 
ATOM     80  F   UNL A   1      42.016  29.589  27.430  1.00  0.00    -0.203 F 
ATOM     81  F   UNL A   1      39.488  24.756  27.325  1.00  0.00    -0.200 F 
ATOM     82  C   UNL A   1      40.839  26.371  26.256  1.00  0.00     0.200 A 
ATOM     83  F   UNL A   1      42.194  28.014  25.235  1.00  0.00    -0.200 F 
ATOM     84  F   UNL A   1      40.953  25.584  25.178  1.00  0.00    -0.200 F 
ENDBRANCH  50  74
BRANCH  62  85
ATOM     85  C   UNL A   1      43.840  28.194  34.696  1.00  0.00     0.064 A 
ATOM     86  C   UNL A   1      43.571  26.988  35.362  1.00  0.00     0.173 A 
ATOM     87  C   UNL A   1      45.181  28.593  34.581  1.00  0.00     0.173 A 
ATOM     88  F   UNL A   1      42.305  26.568  35.512  1.00  0.00    -0.203 F 
ATOM     89  C   UNL A   1      44.598  26.235  35.923  1.00  0.00     0.198 A 
ATOM     90  C   UNL A   1      46.207  27.818  35.112  1.00  0.00     0.198 A 
ATOM     91  F   UNL A   1      45.496  29.733  33.947  1.00  0.00    -0.203 F 
ATOM     92  F   UNL A   1      44.310  25.120  36.611  1.00  0.00    -0.200 F 
ATOM     93  C   UNL A   1      45.915  26.646  35.793  1.00  0.00     0.200 A 
ATOM     94  F   UNL A   1      47.481  28.209  34.969  1.00  0.00    -0.200 F 
ATOM     95  F   UNL A   1      46.903  25.918  36.332  1.00  0.00    -0.200 F 
ENDBRANCH  62  85
ENDBRANCH  36  37
ENDBRANCH  28  31
ENDBRANCH  26  27
ENDBRANCH  25  26
ENDBRANCH  24  25
ENDBRANCH  23  24
ENDBRANCH   1  23
TORSDOF 17
ENDMDL
MODEL 3
REMARK VINA RESULT:     -11.2      1.009      7.414
REMARK SMILES C[C@@H](NC(=O)[C@@H](C)NC(=O)C(C)(C)C)C(=O)NCCCCCCNC(=O)c1ccc(-c2c3nc(c(-c4c(F)c(F)c(F)c(F)c4F)c4ccc([nH]4)c(-c4c(F)c(F)c(F)c(F)c4F)c4nc(c(-c5c(F)c(F)c(F)c(F)c5F)c5ccc2[nH]5)C=C4)C=C3)cc1
REMARK SMILES IDX 19 1 18 2 17 3 15 4 16 5 2 7 1 8 3 9 4 10 5 12 6 13 7 14
REMARK SMILES IDX 8 15 9 16 10 18 11 19 12 20 13 21 14 22 20 23 21 24 22 25
REMARK SMILES IDX 23 26 24 27 25 28 26 30 27 31 28 32 89 33 29 34 88 35 30 36
REMARK SMILES IDX 31 37 32 38 82 39 33 40 87 41 81 42 83 43 34 44 86 45 80 46
REMARK SMILES IDX 79 47 35 49 67 50 47 51 66 52 48 53 51 54 65 55 84 56 49 57
REMARK SMILES IDX 50 58 64 60 85 61 52 62 36 63 37 64 45 65 38 66 39 67 43 68
REMARK SMILES IDX 46 69 40 70 41 71 44 72 42 73 68 74 69 75 77 76 70 77 71 78
REMARK SMILES IDX 75 79 78 80 72 81 73 82 76 83 74 84 53 85 54 86 62 87 55 88
REMARK SMILES IDX 56 89 60 90 63 91 57 92 58 93 61 94 59 95
REMARK H PARENT 17 6 3 11 8 17 24 29 83 48 51 59
REMARK Flexibility Score: inf
ROOT
ATOM      1  C   UNL A   1      32.064  28.116  26.569  1.00  0.00     0.021 C 
ENDROOT
BRANCH   1   2
ATOM      2  C   UNL A   1      33.512  27.734  26.248  1.00  0.00     0.116 C 
BRANCH   2   3
ATOM      3  N   UNL A   1      33.977  28.336  25.012  1.00  0.00    -0.354 N 
ATOM      4  C   UNL A   1      33.649  28.102  23.714  1.00  0.00     0.242 C 
ATOM      5  O   UNL A   1      34.193  28.810  22.861  1.00  0.00    -0.273 OA
ATOM      6  H   UNL A   1      34.654  29.040  25.136  1.00  0.00     0.163 HD
BRANCH   4   7
ATOM      7  C   UNL A   1      32.738  26.949  23.269  1.00  0.00     0.168 C 
ATOM      8  C   UNL A   1      31.623  27.511  22.375  1.00  0.00     0.041 C 
BRANCH   7   9
ATOM      9  N   UNL A   1      33.351  25.797  22.614  1.00  0.00    -0.343 N 
ATOM     10  C   UNL A   1      32.930  24.507  22.499  1.00  0.00     0.242 C 
ATOM     11  H   UNL A   1      34.216  25.984  22.181  1.00  0.00     0.164 HD
ATOM     12  O   UNL A   1      33.350  23.899  21.506  1.00  0.00    -0.273 OA
BRANCH  10  13
ATOM     13  C   UNL A   1      32.175  23.725  23.605  1.00  0.00     0.168 C 
ATOM     14  C   UNL A   1      30.692  23.737  23.293  1.00  0.00     0.041 C 
BRANCH  13  15
ATOM     15  N   UNL A   1      32.613  22.391  23.973  1.00  0.00    -0.344 N 
ATOM     16  C   UNL A   1      33.173  21.942  25.138  1.00  0.00     0.226 C 
ATOM     17  H   UNL A   1      32.489  21.704  23.279  1.00  0.00     0.164 HD
ATOM     18  O   UNL A   1      33.410  20.730  25.175  1.00  0.00    -0.275 OA
BRANCH  16  19
ATOM     19  C   UNL A   1      33.495  22.850  26.374  1.00  0.00     0.041 C 
ATOM     20  C   UNL A   1      32.320  23.746  26.796  1.00  0.00     0.021 C 
ATOM     21  C   UNL A   1      34.016  22.053  27.578  1.00  0.00     0.021 C 
ATOM     22  C   UNL A   1      34.648  23.805  25.966  1.00  0.00     0.021 C 
ENDBRANCH  16  19
ENDBRANCH  13  15
ENDBRANCH  10  13
ENDBRANCH   7   9
ENDBRANCH   4   7
ENDBRANCH   2   3
ENDBRANCH   1   2
BRANCH   1  23
ATOM     23  C   UNL A   1      31.810  29.531  27.113  1.00  0.00     0.002 C 
BRANCH  23  24
ATOM     24  C   UNL A   1      31.675  30.672  26.104  1.00  0.00     0.002 C 
BRANCH  24  25
ATOM     25  C   UNL A   1      31.384  32.056  26.671  1.00  0.00     0.021 C 
BRANCH  25  26
ATOM     26  C   UNL A   1      32.591  32.776  27.252  1.00  0.00     0.116 C 
BRANCH  26  27
ATOM     27  N   UNL A   1      32.314  34.148  27.635  1.00  0.00    -0.352 N 
ATOM     28  C   UNL A   1      32.961  34.938  28.556  1.00  0.00     0.251 C 
ATOM     29  H   UNL A   1      31.556  34.573  27.171  1.00  0.00     0.163 HD
ATOM     30  O   UNL A   1      32.532  36.050  28.829  1.00  0.00    -0.269 OA
BRANCH  28  31
ATOM     31  C   UNL A   1      34.158  34.414  29.249  1.00  0.00     0.039 A 
ATOM     32  C   UNL A   1      33.977  33.680  30.424  1.00  0.00     0.014 A 
ATOM     33  C   UNL A   1      35.443  34.616  28.738  1.00  0.00     0.014 A 
ATOM     34  C   UNL A   1      35.079  33.093  31.046  1.00  0.00     0.010 A 
ATOM     35  C   UNL A   1      36.527  33.958  29.309  1.00  0.00     0.010 A 
ATOM     36  C   UNL A   1      36.358  33.192  30.471  1.00  0.00    -0.014 A 
BRANCH  36  37
ATOM     37  C   UNL A   1      37.513  32.478  31.069  1.00  0.00     0.031 A 
ATOM     38  C   UNL A   1      38.007  32.838  32.441  1.00  0.00     0.074 A 
ATOM     39  C   UNL A   1      38.143  31.528  30.351  1.00  0.00     0.049 A 
ATOM     40  N   UNL A   1      38.990  32.314  33.130  1.00  0.00    -0.248 NA
ATOM     41  C   UNL A   1      37.328  33.953  33.118  1.00  0.00     0.031 C 
ATOM     42  C   UNL A   1      37.796  31.134  28.984  1.00  0.00     0.029 A 
ATOM     43  N   UNL A   1      39.203  30.718  30.671  1.00  0.00    -0.354 N 
ATOM     44  C   UNL A   1      39.049  33.038  34.314  1.00  0.00     0.074 A 
ATOM     45  C   UNL A   1      38.048  34.079  34.222  1.00  0.00     0.031 C 
ATOM     46  C   UNL A   1      38.595  30.127  28.601  1.00  0.00     0.029 A 
ATOM     47  C   UNL A   1      39.536  29.831  29.676  1.00  0.00     0.049 A 
ATOM     48  H   UNL A   1      39.680  30.768  31.530  1.00  0.00     0.167 HD
ATOM     49  C   UNL A   1      39.849  32.836  35.388  1.00  0.00     0.037 A 
ATOM     50  C   UNL A   1      40.490  28.882  29.638  1.00  0.00     0.037 A 
ATOM     51  C   UNL A   1      40.834  31.789  35.476  1.00  0.00     0.049 A 
ATOM     52  C   UNL A   1      41.371  28.685  30.841  1.00  0.00     0.074 A 
ATOM     53  C   UNL A   1      41.644  31.452  36.546  1.00  0.00     0.029 A 
ATOM     54  N   UNL A   1      41.152  30.915  34.444  1.00  0.00    -0.354 N 
ATOM     55  N   UNL A   1      41.357  29.313  31.992  1.00  0.00    -0.248 NA
ATOM     56  C   UNL A   1      42.396  27.637  30.740  1.00  0.00     0.031 C 
ATOM     57  C   UNL A   1      42.496  30.419  36.141  1.00  0.00     0.029 A 
ATOM     58  C   UNL A   1      42.174  30.065  34.841  1.00  0.00     0.049 A 
ATOM     59  H   UNL A   1      40.716  30.900  33.563  1.00  0.00     0.167 HD
ATOM     60  C   UNL A   1      42.352  28.725  32.760  1.00  0.00     0.074 A 
ATOM     61  C   UNL A   1      42.933  27.672  31.951  1.00  0.00     0.031 C 
ATOM     62  C   UNL A   1      42.751  29.029  34.020  1.00  0.00     0.037 A 
BRANCH  49  63
ATOM     63  C   UNL A   1      39.696  33.776  36.552  1.00  0.00     0.064 A 
ATOM     64  C   UNL A   1      40.358  35.014  36.599  1.00  0.00     0.173 A 
ATOM     65  C   UNL A   1      38.863  33.441  37.631  1.00  0.00     0.173 A 
ATOM     66  F   UNL A   1      41.176  35.380  35.600  1.00  0.00    -0.203 F 
ATOM     67  C   UNL A   1      40.224  35.859  37.697  1.00  0.00     0.198 A 
ATOM     68  C   UNL A   1      38.702  34.306  38.710  1.00  0.00     0.198 A 
ATOM     69  F   UNL A   1      38.201  32.275  37.638  1.00  0.00    -0.203 F 
ATOM     70  F   UNL A   1      40.917  37.005  37.747  1.00  0.00    -0.200 F 
ATOM     71  C   UNL A   1      39.392  35.508  38.749  1.00  0.00     0.200 A 
ATOM     72  F   UNL A   1      37.886  33.971  39.720  1.00  0.00    -0.200 F 
ATOM     73  F   UNL A   1      39.262  36.324  39.804  1.00  0.00    -0.200 F 
ENDBRANCH  49  63
BRANCH  50  74
ATOM     74  C   UNL A   1      40.631  28.023  28.434  1.00  0.00     0.064 A 
ATOM     75  C   UNL A   1      39.989  26.778  28.360  1.00  0.00     0.173 A 
ATOM     76  C   UNL A   1      41.399  28.426  27.332  1.00  0.00     0.173 A 
ATOM     77  F   UNL A   1      39.259  26.339  29.396  1.00  0.00    -0.203 F 
ATOM     78  C   UNL A   1      40.123  25.963  27.238  1.00  0.00     0.198 A 
ATOM     79  C   UNL A   1      41.508  27.623  26.198  1.00  0.00     0.198 A 
ATOM     80  F   UNL A   1      42.029  29.609  27.349  1.00  0.00    -0.203 F 
ATOM     81  F   UNL A   1      39.534  24.760  27.213  1.00  0.00    -0.200 F 
ATOM     82  C   UNL A   1      40.877  26.390  26.155  1.00  0.00     0.200 A 
ATOM     83  F   UNL A   1      42.223  28.047  25.147  1.00  0.00    -0.200 F 
ATOM     84  F   UNL A   1      40.998  25.610  25.073  1.00  0.00    -0.200 F 
ENDBRANCH  50  74
BRANCH  62  85
ATOM     85  C   UNL A   1      43.857  28.197  34.606  1.00  0.00     0.064 A 
ATOM     86  C   UNL A   1      45.203  28.583  34.506  1.00  0.00     0.173 A 
ATOM     87  C   UNL A   1      43.567  27.007  35.291  1.00  0.00     0.173 A 
ATOM     88  F   UNL A   1      45.536  29.705  33.850  1.00  0.00    -0.203 F 
ATOM     89  C   UNL A   1      46.217  27.790  35.034  1.00  0.00     0.198 A 
ATOM     90  C   UNL A   1      44.582  26.235  35.850  1.00  0.00     0.198 A 
ATOM     91  F   UNL A   1      42.297  26.595  35.424  1.00  0.00    -0.203 F 
ATOM     92  F   UNL A   1      47.499  28.146  34.868  1.00  0.00    -0.200 F 
ATOM     93  C   UNL A   1      45.906  26.620  35.710  1.00  0.00     0.200 A 
ATOM     94  F   UNL A   1      44.277  25.115  36.519  1.00  0.00    -0.200 F 
ATOM     95  F   UNL A   1      46.884  25.859  36.220  1.00  0.00    -0.200 F 
ENDBRANCH  62  85
ENDBRANCH  36  37
ENDBRANCH  28  31
ENDBRANCH  26  27
ENDBRANCH  25  26
ENDBRANCH  24  25
ENDBRANCH  23  24
ENDBRANCH   1  23
TORSDOF 17
ENDMDL
