MODEL 1
REMARK VINA RESULT:     -12.2      0.000      0.000
REMARK SMILES O=C(NCCCCCCNC(=O)C1CCN(C(=O)COc2ccc(Cl)cc2Cl)CC1)c1ccc(-c2c3nc(c(-c4c(F)c(F)c(F)c(F)c4F)c4ccc([nH]4)c(-c4c(F)c(F)c(F)c(F)c4F)c4nc(c(-c5c(F)c(F)c(F)c(F)c5F)c5ccc2[nH]5)C=C4)C=C3)cc1
REMARK SMILES IDX 7 1 6 2 5 3 4 4 3 5 1 6 2 7 31 9 32 10 93 11 33 12 92 13
REMARK SMILES IDX 34 14 35 15 36 16 86 17 37 18 91 19 85 20 87 21 38 22 90 23
REMARK SMILES IDX 84 24 83 25 39 27 71 28 51 29 70 30 52 31 55 32 69 33 88 34
REMARK SMILES IDX 53 35 54 36 68 38 89 39 56 40 40 41 41 42 49 43 42 44 43 45
REMARK SMILES IDX 47 46 50 47 44 48 45 49 48 50 46 51 72 52 73 53 81 54 74 55
REMARK SMILES IDX 75 56 79 57 82 58 76 59 77 60 80 61 78 62 57 63 58 64 66 65
REMARK SMILES IDX 59 66 60 67 64 68 67 69 61 70 62 71 65 72 63 73 8 74 9 75
REMARK SMILES IDX 10 76 11 77 12 79 13 80 14 81 30 82 15 83 29 84 16 85 17 86
REMARK SMILES IDX 18 87 19 88 20 89 21 90 22 91 27 92 23 93 26 94 28 95 24 96
REMARK SMILES IDX 25 97
REMARK H PARENT 3 8 87 26 55 37 10 78
REMARK Flexibility Score: inf
ROOT
ATOM      1  C   UNL A   1      31.972  29.606  27.197  1.00  0.00     0.002 C 
ENDROOT
BRANCH   1   2
ATOM      2  C   UNL A   1      31.579  30.669  26.160  1.00  0.00     0.002 C 
BRANCH   2   3
ATOM      3  C   UNL A   1      31.431  32.096  26.701  1.00  0.00     0.021 C 
BRANCH   3   4
ATOM      4  C   UNL A   1      32.742  32.756  27.120  1.00  0.00     0.116 C 
BRANCH   4   5
ATOM      5  N   UNL A   1      32.532  34.116  27.588  1.00  0.00    -0.352 N 
ATOM      6  O   UNL A   1      32.585  35.819  29.060  1.00  0.00    -0.269 OA
ATOM      7  C   UNL A   1      33.076  34.761  28.661  1.00  0.00     0.251 C 
ATOM      8  H   UNL A   1      31.903  34.650  27.051  1.00  0.00     0.163 HD
BRANCH   7   9
ATOM      9  C   UNL A   1      34.255  34.201  29.346  1.00  0.00     0.039 A 
ATOM     10  C   UNL A   1      34.108  33.231  30.344  1.00  0.00     0.014 A 
ATOM     11  C   UNL A   1      35.528  34.603  28.936  1.00  0.00     0.014 A 
ATOM     12  C   UNL A   1      35.230  32.727  30.994  1.00  0.00     0.010 A 
ATOM     13  C   UNL A   1      36.655  34.049  29.544  1.00  0.00     0.010 A 
ATOM     14  C   UNL A   1      36.513  33.117  30.584  1.00  0.00    -0.014 A 
BRANCH  14  15
ATOM     15  C   UNL A   1      37.714  32.502  31.196  1.00  0.00     0.031 A 
ATOM     16  C   UNL A   1      38.423  31.372  30.514  1.00  0.00     0.074 A 
ATOM     17  C   UNL A   1      38.125  32.937  32.401  1.00  0.00     0.049 A 
ATOM     18  N   UNL A   1      39.415  30.637  30.945  1.00  0.00    -0.248 NA
ATOM     19  C   UNL A   1      37.945  31.013  29.171  1.00  0.00     0.031 C 
ATOM     20  C   UNL A   1      37.504  34.025  33.159  1.00  0.00     0.029 A 
ATOM     21  N   UNL A   1      39.144  32.506  33.210  1.00  0.00    -0.354 N 
ATOM     22  C   UNL A   1      39.664  29.711  29.942  1.00  0.00     0.074 A 
ATOM     23  C   UNL A   1      38.705  29.964  28.886  1.00  0.00     0.031 C 
ATOM     24  C   UNL A   1      38.152  34.174  34.322  1.00  0.00     0.029 A 
ATOM     25  C   UNL A   1      39.193  33.156  34.418  1.00  0.00     0.049 A 
ATOM     26  H   UNL A   1      39.779  31.799  32.950  1.00  0.00     0.167 HD
ATOM     27  C   UNL A   1      40.610  28.742  29.909  1.00  0.00     0.037 A 
ATOM     28  C   UNL A   1      39.964  32.933  35.498  1.00  0.00     0.037 A 
ATOM     29  C   UNL A   1      41.560  28.506  30.966  1.00  0.00     0.049 A 
ATOM     30  C   UNL A   1      40.983  31.833  35.454  1.00  0.00     0.074 A 
ATOM     31  C   UNL A   1      42.590  27.583  31.012  1.00  0.00     0.029 A 
ATOM     32  N   UNL A   1      41.586  29.195  32.171  1.00  0.00    -0.354 N 
ATOM     33  N   UNL A   1      41.242  30.989  34.484  1.00  0.00    -0.248 NA
ATOM     34  C   UNL A   1      41.817  31.651  36.649  1.00  0.00     0.031 C 
ATOM     35  C   UNL A   1      43.203  27.675  32.266  1.00  0.00     0.029 A 
ATOM     36  C   UNL A   1      42.596  28.696  32.980  1.00  0.00     0.049 A 
ATOM     37  H   UNL A   1      40.977  29.928  32.416  1.00  0.00     0.167 HD
ATOM     38  C   UNL A   1      42.283  30.193  34.939  1.00  0.00     0.074 A 
ATOM     39  C   UNL A   1      42.610  30.656  36.273  1.00  0.00     0.031 C 
ATOM     40  C   UNL A   1      42.913  29.175  34.303  1.00  0.00     0.037 A 
BRANCH  27  41
ATOM     41  C   UNL A   1      40.637  27.841  28.707  1.00  0.00     0.064 A 
ATOM     42  C   UNL A   1      41.435  28.121  27.588  1.00  0.00     0.173 A 
ATOM     43  C   UNL A   1      39.858  26.673  28.680  1.00  0.00     0.173 A 
ATOM     44  F   UNL A   1      42.192  29.228  27.557  1.00  0.00    -0.203 F 
ATOM     45  C   UNL A   1      41.423  27.287  26.472  1.00  0.00     0.198 A 
ATOM     46  C   UNL A   1      39.872  25.825  27.576  1.00  0.00     0.198 A 
ATOM     47  F   UNL A   1      39.082  26.353  29.727  1.00  0.00    -0.203 F 
ATOM     48  F   UNL A   1      42.149  27.606  25.391  1.00  0.00    -0.200 F 
ATOM     49  C   UNL A   1      40.645  26.139  26.468  1.00  0.00     0.200 A 
ATOM     50  F   UNL A   1      39.130  24.710  27.579  1.00  0.00    -0.200 F 
ATOM     51  F   UNL A   1      40.633  25.339  25.393  1.00  0.00    -0.200 F 
ENDBRANCH  27  41
BRANCH  28  52
ATOM     52  C   UNL A   1      39.773  33.776  36.705  1.00  0.00     0.064 A 
ATOM     53  C   UNL A   1      40.385  35.029  36.814  1.00  0.00     0.173 A 
ATOM     54  C   UNL A   1      38.918  33.371  37.743  1.00  0.00     0.173 A 
ATOM     55  F   UNL A   1      41.220  35.452  35.853  1.00  0.00    -0.203 F 
ATOM     56  C   UNL A   1      40.151  35.850  37.916  1.00  0.00     0.198 A 
ATOM     57  C   UNL A   1      38.665  34.202  38.831  1.00  0.00     0.198 A 
ATOM     58  F   UNL A   1      38.302  32.182  37.679  1.00  0.00    -0.203 F 
ATOM     59  F   UNL A   1      40.763  37.038  38.006  1.00  0.00    -0.200 F 
ATOM     60  C   UNL A   1      39.282  35.440  38.917  1.00  0.00     0.200 A 
ATOM     61  F   UNL A   1      37.810  33.811  39.786  1.00  0.00    -0.200 F 
ATOM     62  F   UNL A   1      39.041  36.239  39.966  1.00  0.00    -0.200 F 
ENDBRANCH  28  52
BRANCH  40  63
ATOM     63  C   UNL A   1      44.051  28.512  35.019  1.00  0.00     0.064 A 
ATOM     64  C   UNL A   1      45.363  29.000  34.930  1.00  0.00     0.173 A 
ATOM     65  C   UNL A   1      43.811  27.419  35.865  1.00  0.00     0.173 A 
ATOM     66  F   UNL A   1      45.646  30.031  34.121  1.00  0.00    -0.203 F 
ATOM     67  C   UNL A   1      46.394  28.411  35.658  1.00  0.00     0.198 A 
ATOM     68  C   UNL A   1      44.839  26.850  36.611  1.00  0.00     0.198 A 
ATOM     69  F   UNL A   1      42.572  26.918  35.987  1.00  0.00    -0.203 F 
ATOM     70  F   UNL A   1      47.646  28.875  35.538  1.00  0.00    -0.200 F 
ATOM     71  C   UNL A   1      46.129  27.345  36.505  1.00  0.00     0.200 A 
ATOM     72  F   UNL A   1      44.578  25.829  37.438  1.00  0.00    -0.200 F 
ATOM     73  F   UNL A   1      47.119  26.794  37.219  1.00  0.00    -0.200 F 
ENDBRANCH  40  63
ENDBRANCH  14  15
ENDBRANCH   7   9
ENDBRANCH   4   5
ENDBRANCH   3   4
ENDBRANCH   2   3
ENDBRANCH   1   2
BRANCH   1  74
ATOM     74  C   UNL A   1      33.414  29.111  27.101  1.00  0.00     0.021 C 
BRANCH  74  75
ATOM     75  C   UNL A   1      33.638  28.085  25.997  1.00  0.00     0.116 C 
BRANCH  75  76
ATOM     76  N   UNL A   1      33.949  28.693  24.729  1.00  0.00    -0.356 N 
ATOM     77  C   UNL A   1      33.403  28.570  23.498  1.00  0.00     0.223 C 
ATOM     78  H   UNL A   1      34.708  29.321  24.766  1.00  0.00     0.163 HD
ATOM     79  O   UNL A   1      33.887  29.295  22.620  1.00  0.00    -0.275 OA
BRANCH  77  80
ATOM     80  C   UNL A   1      32.262  27.617  23.132  1.00  0.00     0.082 C 
ATOM     81  C   UNL A   1      30.971  27.762  23.926  1.00  0.00     0.035 C 
ATOM     82  C   UNL A   1      32.650  26.166  22.880  1.00  0.00     0.035 C 
ATOM     83  C   UNL A   1      30.800  26.808  25.094  1.00  0.00     0.120 C 
ATOM     84  C   UNL A   1      32.490  25.226  24.062  1.00  0.00     0.120 C 
ATOM     85  N   UNL A   1      31.297  25.448  24.881  1.00  0.00    -0.340 N 
ATOM     86  C   UNL A   1      30.846  24.495  25.798  1.00  0.00     0.260 C 
ATOM     87  O   UNL A   1      30.211  24.822  26.806  1.00  0.00    -0.271 OA
BRANCH  86  88
ATOM     88  C   UNL A   1      31.108  23.005  25.522  1.00  0.00     0.329 C 
BRANCH  88  89
ATOM     89  O   UNL A   1      31.984  22.230  26.314  1.00  0.00    -0.482 OA
BRANCH  89  90
ATOM     90  C   UNL A   1      33.310  22.129  25.998  1.00  0.00     0.138 A 
ATOM     91  C   UNL A   1      34.303  23.033  26.385  1.00  0.00     0.049 A 
ATOM     92  C   UNL A   1      33.697  20.969  25.301  1.00  0.00     0.084 A 
ATOM     93  C   UNL A   1      35.651  22.763  26.130  1.00  0.00     0.024 A 
ATOM     94  C   UNL A   1      35.041  20.711  25.019  1.00  0.00     0.045 A 
ATOM     95  Cl  UNL A   1      32.523  19.816  24.764  1.00  0.00    -0.080 Cl
ATOM     96  C   UNL A   1      36.013  21.605  25.450  1.00  0.00     0.042 A 
ATOM     97  Cl  UNL A   1      37.675  21.279  25.150  1.00  0.00    -0.084 Cl
ENDBRANCH  89  90
ENDBRANCH  88  89
ENDBRANCH  86  88
ENDBRANCH  77  80
ENDBRANCH  75  76
ENDBRANCH  74  75
ENDBRANCH   1  74
TORSDOF 16
ENDMDL
MODEL 2
REMARK VINA RESULT:     -12.2      2.947      8.301
REMARK SMILES O=C(NCCCCCCNC(=O)C1CCN(C(=O)COc2ccc(Cl)cc2Cl)CC1)c1ccc(-c2c3nc(c(-c4c(F)c(F)c(F)c(F)c4F)c4ccc([nH]4)c(-c4c(F)c(F)c(F)c(F)c4F)c4nc(c(-c5c(F)c(F)c(F)c(F)c5F)c5ccc2[nH]5)C=C4)C=C3)cc1
REMARK SMILES IDX 7 1 6 2 5 3 4 4 3 5 1 6 2 7 31 9 32 10 93 11 33 12 92 13
REMARK SMILES IDX 34 14 35 15 36 16 86 17 37 18 91 19 85 20 87 21 38 22 90 23
REMARK SMILES IDX 84 24 83 25 39 27 71 28 51 29 70 30 52 31 55 32 69 33 88 34
REMARK SMILES IDX 53 35 54 36 68 38 89 39 56 40 40 41 41 42 49 43 42 44 43 45
REMARK SMILES IDX 47 46 50 47 44 48 45 49 48 50 46 51 72 52 73 53 81 54 74 55
REMARK SMILES IDX 75 56 79 57 82 58 76 59 77 60 80 61 78 62 57 63 58 64 66 65
REMARK SMILES IDX 59 66 60 67 64 68 67 69 61 70 62 71 65 72 63 73 8 74 9 75
REMARK SMILES IDX 10 76 11 77 12 79 13 80 14 81 30 82 15 83 29 84 16 85 17 86
REMARK SMILES IDX 18 87 19 88 20 89 21 90 22 91 27 92 23 93 26 94 28 95 24 96
REMARK SMILES IDX 25 97
REMARK H PARENT 3 8 87 26 55 37 10 78
REMARK Flexibility Score: inf
ROOT
ATOM      1  C   UNL A   1      35.349  34.172  28.811  1.00  0.00     0.002 C 
ENDROOT
BRANCH   1   2
ATOM      2  C   UNL A   1      34.778  35.390  28.071  1.00  0.00     0.002 C 
BRANCH   2   3
ATOM      3  C   UNL A   1      33.499  35.988  28.670  1.00  0.00     0.021 C 
BRANCH   3   4
ATOM      4  C   UNL A   1      32.891  35.175  29.809  1.00  0.00     0.116 C 
BRANCH   4   5
ATOM      5  N   UNL A   1      32.454  36.028  30.902  1.00  0.00    -0.352 N 
ATOM      6  O   UNL A   1      32.121  36.615  33.049  1.00  0.00    -0.269 OA
ATOM      7  C   UNL A   1      32.788  35.987  32.225  1.00  0.00     0.251 C 
ATOM      8  H   UNL A   1      31.823  36.740  30.649  1.00  0.00     0.163 HD
BRANCH   7   9
ATOM      9  C   UNL A   1      33.948  35.196  32.675  1.00  0.00     0.039 A 
ATOM     10  C   UNL A   1      33.774  33.918  33.216  1.00  0.00     0.014 A 
ATOM     11  C   UNL A   1      35.231  35.716  32.491  1.00  0.00     0.014 A 
ATOM     12  C   UNL A   1      34.879  33.193  33.653  1.00  0.00     0.010 A 
ATOM     13  C   UNL A   1      36.341  34.963  32.871  1.00  0.00     0.010 A 
ATOM     14  C   UNL A   1      36.172  33.702  33.465  1.00  0.00    -0.014 A 
BRANCH  14  15
ATOM     15  C   UNL A   1      37.356  32.889  33.827  1.00  0.00     0.031 A 
ATOM     16  C   UNL A   1      38.113  33.165  35.091  1.00  0.00     0.074 A 
ATOM     17  C   UNL A   1      37.776  31.935  32.976  1.00  0.00     0.049 A 
ATOM     18  N   UNL A   1      39.232  32.639  35.517  1.00  0.00    -0.248 NA
ATOM     19  C   UNL A   1      37.541  34.177  35.991  1.00  0.00     0.031 C 
ATOM     20  C   UNL A   1      37.119  31.588  31.714  1.00  0.00     0.029 A 
ATOM     21  N   UNL A   1      38.861  31.101  33.029  1.00  0.00    -0.354 N 
ATOM     22  C   UNL A   1      39.514  33.272  36.719  1.00  0.00     0.074 A 
ATOM     23  C   UNL A   1      38.459  34.237  36.946  1.00  0.00     0.031 C 
ATOM     24  C   UNL A   1      37.816  30.615  31.111  1.00  0.00     0.029 A 
ATOM     25  C   UNL A   1      38.998  30.313  31.912  1.00  0.00     0.049 A 
ATOM     26  H   UNL A   1      39.482  31.069  33.792  1.00  0.00     0.167 HD
ATOM     27  C   UNL A   1      40.560  33.062  37.554  1.00  0.00     0.037 A 
ATOM     28  C   UNL A   1      39.984  29.471  31.554  1.00  0.00     0.037 A 
ATOM     29  C   UNL A   1      41.601  32.093  37.315  1.00  0.00     0.049 A 
ATOM     30  C   UNL A   1      41.150  29.277  32.478  1.00  0.00     0.074 A 
ATOM     31  C   UNL A   1      42.677  31.767  38.121  1.00  0.00     0.029 A 
ATOM     32  N   UNL A   1      41.699  31.305  36.177  1.00  0.00    -0.354 N 
ATOM     33  N   UNL A   1      41.389  29.847  33.634  1.00  0.00    -0.248 NA
ATOM     34  C   UNL A   1      42.184  28.325  32.052  1.00  0.00     0.031 C 
ATOM     35  C   UNL A   1      43.457  30.821  37.445  1.00  0.00     0.029 A 
ATOM     36  C   UNL A   1      42.835  30.514  36.245  1.00  0.00     0.049 A 
ATOM     37  H   UNL A   1      41.057  31.307  35.431  1.00  0.00     0.167 HD
ATOM     38  C   UNL A   1      42.584  29.307  34.087  1.00  0.00     0.074 A 
ATOM     39  C   UNL A   1      43.022  28.362  33.081  1.00  0.00     0.031 C 
ATOM     40  C   UNL A   1      43.251  29.570  35.237  1.00  0.00     0.037 A 
BRANCH  27  41
ATOM     41  C   UNL A   1      40.648  33.920  38.783  1.00  0.00     0.064 A 
ATOM     42  C   UNL A   1      40.010  33.569  39.982  1.00  0.00     0.173 A 
ATOM     43  C   UNL A   1      41.393  35.110  38.763  1.00  0.00     0.173 A 
ATOM     44  F   UNL A   1      39.278  32.447  40.054  1.00  0.00    -0.203 F 
ATOM     45  C   UNL A   1      40.081  34.394  41.101  1.00  0.00     0.198 A 
ATOM     46  C   UNL A   1      41.488  35.918  39.894  1.00  0.00     0.198 A 
ATOM     47  F   UNL A   1      42.030  35.491  37.645  1.00  0.00    -0.203 F 
ATOM     48  F   UNL A   1      39.414  34.067  42.218  1.00  0.00    -0.200 F 
ATOM     49  C   UNL A   1      40.822  35.566  41.058  1.00  0.00     0.200 A 
ATOM     50  F   UNL A   1      42.216  37.042  39.853  1.00  0.00    -0.200 F 
ATOM     51  F   UNL A   1      40.888  36.360  42.135  1.00  0.00    -0.200 F 
ENDBRANCH  27  41
BRANCH  28  52
ATOM     52  C   UNL A   1      39.893  28.768  30.249  1.00  0.00     0.064 A 
ATOM     53  C   UNL A   1      40.427  29.335  29.087  1.00  0.00     0.173 A 
ATOM     54  C   UNL A   1      39.329  27.486  30.155  1.00  0.00     0.173 A 
ATOM     55  F   UNL A   1      40.963  30.563  29.125  1.00  0.00    -0.203 F 
ATOM     56  C   UNL A   1      40.402  28.645  27.876  1.00  0.00     0.198 A 
ATOM     57  C   UNL A   1      39.328  26.788  28.952  1.00  0.00     0.198 A 
ATOM     58  F   UNL A   1      38.813  26.899  31.245  1.00  0.00    -0.203 F 
ATOM     59  F   UNL A   1      40.904  29.216  26.772  1.00  0.00    -0.200 F 
ATOM     60  C   UNL A   1      39.863  27.368  27.812  1.00  0.00     0.200 A 
ATOM     61  F   UNL A   1      38.824  25.547  28.898  1.00  0.00    -0.200 F 
ATOM     62  F   UNL A   1      39.860  26.697  26.652  1.00  0.00    -0.200 F 
ENDBRANCH  28  52
BRANCH  40  63
ATOM     63  C   UNL A   1      44.509  28.796  35.498  1.00  0.00     0.064 A 
ATOM     64  C   UNL A   1      44.490  27.555  36.150  1.00  0.00     0.173 A 
ATOM     65  C   UNL A   1      45.740  29.272  35.021  1.00  0.00     0.173 A 
ATOM     66  F   UNL A   1      43.340  27.068  36.639  1.00  0.00    -0.203 F 
ATOM     67  C   UNL A   1      45.661  26.821  36.320  1.00  0.00     0.198 A 
ATOM     68  C   UNL A   1      46.904  28.523  35.170  1.00  0.00     0.198 A 
ATOM     69  F   UNL A   1      45.810  30.452  34.387  1.00  0.00    -0.203 F 
ATOM     70  F   UNL A   1      45.626  25.649  36.971  1.00  0.00    -0.200 F 
ATOM     71  C   UNL A   1      46.864  27.300  35.821  1.00  0.00     0.200 A 
ATOM     72  F   UNL A   1      48.062  28.981  34.676  1.00  0.00    -0.200 F 
ATOM     73  F   UNL A   1      47.985  26.582  35.969  1.00  0.00    -0.200 F 
ENDBRANCH  40  63
ENDBRANCH  14  15
ENDBRANCH   7   9
ENDBRANCH   4   5
ENDBRANCH   3   4
ENDBRANCH   2   3
ENDBRANCH   1   2
BRANCH   1  74
ATOM     74  C   UNL A   1      35.375  32.876  28.001  1.00  0.00     0.021 C 
BRANCH  74  75
ATOM     75  C   UNL A   1      34.727  31.695  28.713  1.00  0.00     0.116 C 
BRANCH  75  76
ATOM     76  N   UNL A   1      35.105  30.428  28.142  1.00  0.00    -0.356 N 
ATOM     77  C   UNL A   1      34.481  29.593  27.280  1.00  0.00     0.223 C 
ATOM     78  H   UNL A   1      35.989  30.108  28.436  1.00  0.00     0.163 HD
ATOM     79  O   UNL A   1      35.123  28.590  26.944  1.00  0.00    -0.275 OA
BRANCH  77  80
ATOM     80  C   UNL A   1      33.072  29.799  26.716  1.00  0.00     0.082 C 
ATOM     81  C   UNL A   1      31.915  29.329  27.587  1.00  0.00     0.035 C 
ATOM     82  C   UNL A   1      32.882  29.473  25.241  1.00  0.00     0.035 C 
ATOM     83  C   UNL A   1      31.360  27.953  27.268  1.00  0.00     0.120 C 
ATOM     84  C   UNL A   1      32.343  28.087  24.935  1.00  0.00     0.120 C 
ATOM     85  N   UNL A   1      31.305  27.604  25.848  1.00  0.00    -0.340 N 
ATOM     86  C   UNL A   1      30.499  26.507  25.531  1.00  0.00     0.260 C 
ATOM     87  O   UNL A   1      30.011  25.792  26.412  1.00  0.00    -0.271 OA
BRANCH  86  88
ATOM     88  C   UNL A   1      30.178  26.212  24.057  1.00  0.00     0.329 C 
BRANCH  88  89
ATOM     89  O   UNL A   1      29.034  26.733  23.412  1.00  0.00    -0.482 OA
BRANCH  89  90
ATOM     90  C   UNL A   1      28.997  28.034  22.993  1.00  0.00     0.138 A 
ATOM     91  C   UNL A   1      30.060  28.720  22.399  1.00  0.00     0.049 A 
ATOM     92  C   UNL A   1      27.755  28.686  23.096  1.00  0.00     0.084 A 
ATOM     93  C   UNL A   1      29.875  30.005  21.877  1.00  0.00     0.024 A 
ATOM     94  C   UNL A   1      27.575  29.980  22.601  1.00  0.00     0.045 A 
ATOM     95  Cl  UNL A   1      26.398  27.911  23.842  1.00  0.00    -0.080 Cl
ATOM     96  C   UNL A   1      28.636  30.627  21.979  1.00  0.00     0.042 A 
ATOM     97  Cl  UNL A   1      28.418  32.202  21.325  1.00  0.00    -0.084 Cl
ENDBRANCH  89  90
ENDBRANCH  88  89
ENDBRANCH  86  88
ENDBRANCH  77  80
ENDBRANCH  75  76
ENDBRANCH  74  75
ENDBRANCH   1  74
TORSDOF 16
ENDMDL
MODEL 3
REMARK VINA RESULT:     -12.0      1.922      7.490
REMARK SMILES O=C(NCCCCCCNC(=O)C1CCN(C(=O)COc2ccc(Cl)cc2Cl)CC1)c1ccc(-c2c3nc(c(-c4c(F)c(F)c(F)c(F)c4F)c4ccc([nH]4)c(-c4c(F)c(F)c(F)c(F)c4F)c4nc(c(-c5c(F)c(F)c(F)c(F)c5F)c5ccc2[nH]5)C=C4)C=C3)cc1
REMARK SMILES IDX 7 1 6 2 5 3 4 4 3 5 1 6 2 7 31 9 32 10 93 11 33 12 92 13
REMARK SMILES IDX 34 14 35 15 36 16 86 17 37 18 91 19 85 20 87 21 38 22 90 23
REMARK SMILES IDX 84 24 83 25 39 27 71 28 51 29 70 30 52 31 55 32 69 33 88 34
REMARK SMILES IDX 53 35 54 36 68 38 89 39 56 40 40 41 41 42 49 43 42 44 43 45
REMARK SMILES IDX 47 46 50 47 44 48 45 49 48 50 46 51 72 52 73 53 81 54 74 55
REMARK SMILES IDX 75 56 79 57 82 58 76 59 77 60 80 61 78 62 57 63 58 64 66 65
REMARK SMILES IDX 59 66 60 67 64 68 67 69 61 70 62 71 65 72 63 73 8 74 9 75
REMARK SMILES IDX 10 76 11 77 12 79 13 80 14 81 30 82 15 83 29 84 16 85 17 86
REMARK SMILES IDX 18 87 19 88 20 89 21 90 22 91 27 92 23 93 26 94 28 95 24 96
REMARK SMILES IDX 25 97
REMARK H PARENT 3 8 87 26 55 37 10 78
REMARK Flexibility Score: inf
ROOT
ATOM      1  C   UNL A   1      35.510  33.364  28.735  1.00  0.00     0.002 C 
ENDROOT
BRANCH   1   2
ATOM      2  C   UNL A   1      34.773  34.449  27.937  1.00  0.00     0.002 C 
BRANCH   2   3
ATOM      3  C   UNL A   1      34.050  35.510  28.776  1.00  0.00     0.021 C 
BRANCH   3   4
ATOM      4  C   UNL A   1      32.889  34.978  29.610  1.00  0.00     0.116 C 
BRANCH   4   5
ATOM      5  N   UNL A   1      32.507  35.913  30.655  1.00  0.00    -0.352 N 
ATOM      6  O   UNL A   1      32.250  36.650  32.767  1.00  0.00    -0.269 OA
ATOM      7  C   UNL A   1      32.875  35.948  31.970  1.00  0.00     0.251 C 
ATOM      8  H   UNL A   1      31.891  36.627  30.373  1.00  0.00     0.163 HD
BRANCH   7   9
ATOM      9  C   UNL A   1      34.024  35.153  32.442  1.00  0.00     0.039 A 
ATOM     10  C   UNL A   1      33.836  33.870  32.967  1.00  0.00     0.014 A 
ATOM     11  C   UNL A   1      35.311  35.673  32.294  1.00  0.00     0.014 A 
ATOM     12  C   UNL A   1      34.928  33.140  33.425  1.00  0.00     0.010 A 
ATOM     13  C   UNL A   1      36.411  34.915  32.695  1.00  0.00     0.010 A 
ATOM     14  C   UNL A   1      36.226  33.649  33.274  1.00  0.00    -0.014 A 
BRANCH  14  15
ATOM     15  C   UNL A   1      37.400  32.832  33.658  1.00  0.00     0.031 A 
ATOM     16  C   UNL A   1      38.145  33.117  34.927  1.00  0.00     0.074 A 
ATOM     17  C   UNL A   1      37.822  31.866  32.822  1.00  0.00     0.049 A 
ATOM     18  N   UNL A   1      39.256  32.588  35.371  1.00  0.00    -0.248 NA
ATOM     19  C   UNL A   1      37.570  34.143  35.809  1.00  0.00     0.031 C 
ATOM     20  C   UNL A   1      37.177  31.509  31.558  1.00  0.00     0.029 A 
ATOM     21  N   UNL A   1      38.901  31.024  32.897  1.00  0.00    -0.354 N 
ATOM     22  C   UNL A   1      39.529  33.233  36.569  1.00  0.00     0.074 A 
ATOM     23  C   UNL A   1      38.478  34.208  36.773  1.00  0.00     0.031 C 
ATOM     24  C   UNL A   1      37.873  30.524  30.973  1.00  0.00     0.029 A 
ATOM     25  C   UNL A   1      39.044  30.222  31.791  1.00  0.00     0.049 A 
ATOM     26  H   UNL A   1      39.513  30.996  33.668  1.00  0.00     0.167 HD
ATOM     27  C   UNL A   1      40.564  33.024  37.418  1.00  0.00     0.037 A 
ATOM     28  C   UNL A   1      40.028  29.369  31.453  1.00  0.00     0.037 A 
ATOM     29  C   UNL A   1      41.600  32.046  37.202  1.00  0.00     0.049 A 
ATOM     30  C   UNL A   1      41.182  29.177  32.392  1.00  0.00     0.074 A 
ATOM     31  C   UNL A   1      42.665  31.721  38.023  1.00  0.00     0.029 A 
ATOM     32  N   UNL A   1      41.705  31.244  36.074  1.00  0.00    -0.354 N 
ATOM     33  N   UNL A   1      41.412  29.759  33.545  1.00  0.00    -0.248 NA
ATOM     34  C   UNL A   1      42.214  28.213  31.989  1.00  0.00     0.031 C 
ATOM     35  C   UNL A   1      43.446  30.762  37.367  1.00  0.00     0.029 A 
ATOM     36  C   UNL A   1      42.834  30.445  36.164  1.00  0.00     0.049 A 
ATOM     37  H   UNL A   1      41.071  31.242  35.321  1.00  0.00     0.167 HD
ATOM     38  C   UNL A   1      42.598  29.216  34.016  1.00  0.00     0.074 A 
ATOM     39  C   UNL A   1      43.040  28.255  33.026  1.00  0.00     0.031 C 
ATOM     40  C   UNL A   1      43.255  29.487  35.171  1.00  0.00     0.037 A 
BRANCH  27  41
ATOM     41  C   UNL A   1      40.645  33.896  38.638  1.00  0.00     0.064 A 
ATOM     42  C   UNL A   1      41.386  35.088  38.651  1.00  0.00     0.173 A 
ATOM     43  C   UNL A   1      39.961  33.538  39.811  1.00  0.00     0.173 A 
ATOM     44  F   UNL A   1      42.066  35.473  37.561  1.00  0.00    -0.203 F 
ATOM     45  C   UNL A   1      41.471  35.867  39.803  1.00  0.00     0.198 A 
ATOM     46  C   UNL A   1      40.023  34.336  40.951  1.00  0.00     0.198 A 
ATOM     47  F   UNL A   1      39.232  32.413  39.852  1.00  0.00    -0.203 F 
ATOM     48  F   UNL A   1      42.232  36.970  39.809  1.00  0.00    -0.200 F 
ATOM     49  C   UNL A   1      40.787  35.492  40.950  1.00  0.00     0.200 A 
ATOM     50  F   UNL A   1      39.351  33.979  42.054  1.00  0.00    -0.200 F 
ATOM     51  F   UNL A   1      40.871  36.242  42.057  1.00  0.00    -0.200 F 
ENDBRANCH  27  41
BRANCH  28  52
ATOM     52  C   UNL A   1      39.945  28.652  30.156  1.00  0.00     0.064 A 
ATOM     53  C   UNL A   1      40.511  29.193  28.996  1.00  0.00     0.173 A 
ATOM     54  C   UNL A   1      39.358  27.380  30.068  1.00  0.00     0.173 A 
ATOM     55  F   UNL A   1      41.071  30.411  29.030  1.00  0.00    -0.203 F 
ATOM     56  C   UNL A   1      40.494  28.489  27.793  1.00  0.00     0.198 A 
ATOM     57  C   UNL A   1      39.364  26.667  28.872  1.00  0.00     0.198 A 
ATOM     58  F   UNL A   1      38.811  26.816  31.155  1.00  0.00    -0.203 F 
ATOM     59  F   UNL A   1      41.026  29.036  26.692  1.00  0.00    -0.200 F 
ATOM     60  C   UNL A   1      39.931  27.223  27.735  1.00  0.00     0.200 A 
ATOM     61  F   UNL A   1      38.837  25.436  28.825  1.00  0.00    -0.200 F 
ATOM     62  F   UNL A   1      39.935  26.538  26.584  1.00  0.00    -0.200 F 
ENDBRANCH  28  52
BRANCH  40  63
ATOM     63  C   UNL A   1      44.504  28.707  35.454  1.00  0.00     0.064 A 
ATOM     64  C   UNL A   1      45.770  29.180  35.080  1.00  0.00     0.173 A 
ATOM     65  C   UNL A   1      44.436  27.506  36.177  1.00  0.00     0.173 A 
ATOM     66  F   UNL A   1      45.885  30.313  34.373  1.00  0.00    -0.203 F 
ATOM     67  C   UNL A   1      46.923  28.473  35.415  1.00  0.00     0.198 A 
ATOM     68  C   UNL A   1      45.591  26.817  36.532  1.00  0.00     0.198 A 
ATOM     69  F   UNL A   1      43.248  27.014  36.560  1.00  0.00    -0.203 F 
ATOM     70  F   UNL A   1      48.122  28.928  35.025  1.00  0.00    -0.200 F 
ATOM     71  C   UNL A   1      46.833  27.300  36.149  1.00  0.00     0.200 A 
ATOM     72  F   UNL A   1      45.503  25.691  37.252  1.00  0.00    -0.200 F 
ATOM     73  F   UNL A   1      47.944  26.633  36.487  1.00  0.00    -0.200 F 
ENDBRANCH  40  63
ENDBRANCH  14  15
ENDBRANCH   7   9
ENDBRANCH   4   5
ENDBRANCH   3   4
ENDBRANCH   2   3
ENDBRANCH   1   2
BRANCH   1  74
ATOM     74  C   UNL A   1      34.727  32.068  28.941  1.00  0.00     0.021 C 
BRANCH  74  75
ATOM     75  C   UNL A   1      34.142  31.494  27.657  1.00  0.00     0.116 C 
BRANCH  75  76
ATOM     76  N   UNL A   1      33.304  30.346  27.893  1.00  0.00    -0.356 N 
ATOM     77  C   UNL A   1      32.672  29.491  27.059  1.00  0.00     0.223 C 
ATOM     78  H   UNL A   1      33.166  30.147  28.848  1.00  0.00     0.163 HD
ATOM     79  O   UNL A   1      32.066  28.559  27.603  1.00  0.00    -0.275 OA
BRANCH  77  80
ATOM     80  C   UNL A   1      32.652  29.600  25.531  1.00  0.00     0.082 C 
ATOM     81  C   UNL A   1      31.325  29.307  24.845  1.00  0.00     0.035 C 
ATOM     82  C   UNL A   1      33.849  29.011  24.798  1.00  0.00     0.035 C 
ATOM     83  C   UNL A   1      31.156  27.899  24.302  1.00  0.00     0.120 C 
ATOM     84  C   UNL A   1      33.673  27.597  24.275  1.00  0.00     0.120 C 
ATOM     85  N   UNL A   1      32.353  27.297  23.715  1.00  0.00    -0.340 N 
ATOM     86  C   UNL A   1      32.129  26.167  22.925  1.00  0.00     0.260 C 
ATOM     87  O   UNL A   1      31.018  25.629  22.872  1.00  0.00    -0.271 OA
BRANCH  86  88
ATOM     88  C   UNL A   1      33.278  25.609  22.069  1.00  0.00     0.329 C 
BRANCH  88  89
ATOM     89  O   UNL A   1      33.676  24.255  22.123  1.00  0.00    -0.482 OA
BRANCH  89  90
ATOM     90  C   UNL A   1      33.973  23.659  23.317  1.00  0.00     0.138 A 
ATOM     91  C   UNL A   1      34.845  24.175  24.281  1.00  0.00     0.049 A 
ATOM     92  C   UNL A   1      33.269  22.479  23.617  1.00  0.00     0.084 A 
ATOM     93  C   UNL A   1      34.971  23.557  25.530  1.00  0.00     0.024 A 
ATOM     94  C   UNL A   1      33.415  21.843  24.852  1.00  0.00     0.045 A 
ATOM     95  Cl  UNL A   1      32.192  21.764  22.464  1.00  0.00    -0.080 Cl
ATOM     96  C   UNL A   1      34.257  22.398  25.809  1.00  0.00     0.042 A 
ATOM     97  Cl  UNL A   1      34.414  21.653  27.351  1.00  0.00    -0.084 Cl
ENDBRANCH  89  90
ENDBRANCH  88  89
ENDBRANCH  86  88
ENDBRANCH  77  80
ENDBRANCH  75  76
ENDBRANCH  74  75
ENDBRANCH   1  74
TORSDOF 16
ENDMDL
