MODEL 1
REMARK VINA RESULT:     -11.2      0.000      0.000
REMARK SMILES COc1ccc(CC(=O)NCCCCCCNC(=O)c2ccc(-c3c4nc(c(-c5c(F)c(F)c(F)c(F)c5F)c5ccc([nH]5)c(-c5c(F)c(F)c(F)c(F)c5F)c5nc(c(-c6c(F)c(F)c(F)c(F)c6F)c6ccc3[nH]6)C=C5)C=C4)cc2)cc1S(=O)(=O)Nc1ccccc1Br
REMARK SMILES IDX 12 1 11 2 10 3 8 4 9 5 7 7 6 8 3 9 4 10 84 11 5 12 83 13
REMARK SMILES IDX 2 14 1 15 85 16 86 17 87 18 88 19 89 21 90 22 94 23 91 24
REMARK SMILES IDX 93 25 95 26 92 27 13 28 14 29 15 30 16 31 17 32 18 33 19 35
REMARK SMILES IDX 20 36 21 37 82 38 22 39 81 40 23 41 24 42 25 43 75 44 26 45
REMARK SMILES IDX 80 46 74 47 76 48 27 49 79 50 73 51 72 52 28 54 60 55 40 56
REMARK SMILES IDX 59 57 41 58 44 59 58 60 77 61 42 62 43 63 57 65 78 66 45 67
REMARK SMILES IDX 29 68 30 69 38 70 31 71 32 72 36 73 39 74 33 75 34 76 37 77
REMARK SMILES IDX 35 78 61 79 62 80 70 81 63 82 64 83 68 84 71 85 65 86 66 87
REMARK SMILES IDX 69 88 67 89 46 90 47 91 55 92 48 93 49 94 53 95 56 96 50 97
REMARK SMILES IDX 51 98 54 99 52 100
REMARK H PARENT 10 6 88 20 17 34 76 53 44 64
REMARK Flexibility Score: inf
ROOT
ATOM      1  C   UNL A   1      34.392  32.715  29.317  1.00  0.00     0.021 C 
ENDROOT
BRANCH   1   2
ATOM      2  C   UNL A   1      34.060  31.940  28.045  1.00  0.00     0.116 C 
BRANCH   2   3
ATOM      3  N   UNL A   1      35.236  31.259  27.548  1.00  0.00    -0.356 N 
ATOM      4  C   UNL A   1      35.418  29.919  27.364  1.00  0.00     0.224 C 
ATOM      5  O   UNL A   1      36.551  29.499  27.126  1.00  0.00    -0.275 OA
ATOM      6  H   UNL A   1      36.001  31.833  27.314  1.00  0.00     0.163 HD
BRANCH   4   7
ATOM      7  C   UNL A   1      34.218  28.998  27.391  1.00  0.00     0.135 C 
BRANCH   7   8
ATOM      8  C   UNL A   1      33.533  28.772  26.064  1.00  0.00    -0.037 A 
ATOM      9  C   UNL A   1      31.914  28.092  23.880  1.00  0.00     0.139 A 
ATOM     10  C   UNL A   1      31.777  29.336  24.505  1.00  0.00     0.048 A 
ATOM     11  C   UNL A   1      32.994  27.280  24.192  1.00  0.00     0.129 A 
ATOM     12  C   UNL A   1      32.591  29.683  25.585  1.00  0.00     0.008 A 
ATOM     13  C   UNL A   1      33.759  27.597  25.329  1.00  0.00     0.030 A 
BRANCH   9  14
ATOM     14  O   UNL A   1      30.914  27.756  23.020  1.00  0.00    -0.495 OA
ATOM     15  C   UNL A   1      30.184  28.906  22.581  1.00  0.00     0.278 C 
ENDBRANCH   9  14
BRANCH  11  16
ATOM     16  S   UNL A   1      33.491  25.827  23.307  1.00  0.00     0.265 S 
ATOM     17  O   UNL A   1      33.955  26.271  22.006  1.00  0.00    -0.201 OA
ATOM     18  O   UNL A   1      34.410  25.122  24.182  1.00  0.00    -0.201 OA
BRANCH  16  19
ATOM     19  N   UNL A   1      32.257  24.713  22.993  1.00  0.00    -0.278 N 
ATOM     20  H   UNL A   1      31.604  24.929  22.289  1.00  0.00     0.180 HD
BRANCH  19  21
ATOM     21  C   UNL A   1      32.107  23.474  23.696  1.00  0.00     0.063 A 
ATOM     22  C   UNL A   1      32.580  22.325  23.038  1.00  0.00     0.028 A 
ATOM     23  C   UNL A   1      31.528  23.339  24.963  1.00  0.00     0.042 A 
ATOM     24  C   UNL A   1      32.579  21.084  23.677  1.00  0.00     0.002 A 
ATOM     25  C   UNL A   1      31.533  22.092  25.603  1.00  0.00     0.018 A 
ATOM     26  Br  UNL A   1      30.654  24.767  25.852  1.00  0.00    -0.049 Br
ATOM     27  C   UNL A   1      32.077  20.972  24.969  1.00  0.00     0.001 A 
ENDBRANCH  19  21
ENDBRANCH  16  19
ENDBRANCH  11  16
ENDBRANCH   7   8
ENDBRANCH   4   7
ENDBRANCH   2   3
ENDBRANCH   1   2
BRANCH   1  28
ATOM     28  C   UNL A   1      35.279  33.941  29.070  1.00  0.00     0.002 C 
BRANCH  28  29
ATOM     29  C   UNL A   1      34.659  35.008  28.159  1.00  0.00     0.002 C 
BRANCH  29  30
ATOM     30  C   UNL A   1      33.724  35.990  28.868  1.00  0.00     0.021 C 
BRANCH  30  31
ATOM     31  C   UNL A   1      32.663  35.327  29.740  1.00  0.00     0.116 C 
BRANCH  31  32
ATOM     32  N   UNL A   1      32.338  36.139  30.903  1.00  0.00    -0.352 N 
ATOM     33  C   UNL A   1      32.837  36.072  32.179  1.00  0.00     0.251 C 
ATOM     34  H   UNL A   1      31.659  36.836  30.753  1.00  0.00     0.163 HD
ATOM     35  O   UNL A   1      32.294  36.692  33.088  1.00  0.00    -0.269 OA
BRANCH  33  36
ATOM     36  C   UNL A   1      34.024  35.240  32.462  1.00  0.00     0.039 A 
ATOM     37  C   UNL A   1      35.293  35.769  32.216  1.00  0.00     0.014 A 
ATOM     38  C   UNL A   1      33.888  33.937  32.950  1.00  0.00     0.014 A 
ATOM     39  C   UNL A   1      36.428  35.009  32.507  1.00  0.00     0.010 A 
ATOM     40  C   UNL A   1      35.018  33.209  33.306  1.00  0.00     0.010 A 
ATOM     41  C   UNL A   1      36.299  33.734  33.081  1.00  0.00    -0.014 A 
BRANCH  41  42
ATOM     42  C   UNL A   1      37.494  32.937  33.452  1.00  0.00     0.031 A 
ATOM     43  C   UNL A   1      38.221  33.216  34.736  1.00  0.00     0.074 A 
ATOM     44  C   UNL A   1      37.963  32.008  32.598  1.00  0.00     0.049 A 
ATOM     45  N   UNL A   1      39.316  32.671  35.204  1.00  0.00    -0.248 NA
ATOM     46  C   UNL A   1      37.661  34.269  35.597  1.00  0.00     0.031 C 
ATOM     47  C   UNL A   1      37.378  31.688  31.296  1.00  0.00     0.029 A 
ATOM     48  N   UNL A   1      39.050  31.175  32.689  1.00  0.00    -0.354 N 
ATOM     49  C   UNL A   1      39.585  33.327  36.398  1.00  0.00     0.074 A 
ATOM     50  C   UNL A   1      38.567  34.342  36.560  1.00  0.00     0.031 C 
ATOM     51  C   UNL A   1      38.103  30.718  30.715  1.00  0.00     0.029 A 
ATOM     52  C   UNL A   1      39.222  30.373  31.587  1.00  0.00     0.049 A 
ATOM     53  H   UNL A   1      39.649  31.154  33.469  1.00  0.00     0.167 HD
ATOM     54  C   UNL A   1      40.579  33.089  37.288  1.00  0.00     0.037 A 
ATOM     55  C   UNL A   1      40.180  29.470  31.307  1.00  0.00     0.037 A 
ATOM     56  C   UNL A   1      41.572  32.059  37.133  1.00  0.00     0.049 A 
ATOM     57  C   UNL A   1      41.263  29.211  32.319  1.00  0.00     0.074 A 
ATOM     58  C   UNL A   1      42.570  31.683  38.015  1.00  0.00     0.029 A 
ATOM     59  N   UNL A   1      41.697  31.243  36.016  1.00  0.00    -0.354 N 
ATOM     60  N   UNL A   1      41.458  29.778  33.485  1.00  0.00    -0.248 NA
ATOM     61  C   UNL A   1      42.254  28.182  31.978  1.00  0.00     0.031 C 
ATOM     62  C   UNL A   1      43.331  30.675  37.411  1.00  0.00     0.029 A 
ATOM     63  C   UNL A   1      42.773  30.384  36.177  1.00  0.00     0.049 A 
ATOM     64  H   UNL A   1      41.107  31.271  35.228  1.00  0.00     0.167 HD
ATOM     65  C   UNL A   1      42.576  29.160  34.027  1.00  0.00     0.074 A 
ATOM     66  C   UNL A   1      43.007  28.162  33.069  1.00  0.00     0.031 C 
ATOM     67  C   UNL A   1      43.190  29.397  35.213  1.00  0.00     0.037 A 
BRANCH  54  68
ATOM     68  C   UNL A   1      40.643  33.964  38.506  1.00  0.00     0.064 A 
ATOM     69  C   UNL A   1      41.407  35.141  38.532  1.00  0.00     0.173 A 
ATOM     70  C   UNL A   1      39.908  33.636  39.656  1.00  0.00     0.173 A 
ATOM     71  F   UNL A   1      42.136  35.496  37.464  1.00  0.00    -0.203 F 
ATOM     72  C   UNL A   1      41.458  35.938  39.674  1.00  0.00     0.198 A 
ATOM     73  C   UNL A   1      39.936  34.452  40.784  1.00  0.00     0.198 A 
ATOM     74  F   UNL A   1      39.155  32.526  39.684  1.00  0.00    -0.203 F 
ATOM     75  F   UNL A   1      42.237  37.028  39.693  1.00  0.00    -0.200 F 
ATOM     76  C   UNL A   1      40.719  35.595  40.796  1.00  0.00     0.200 A 
ATOM     77  F   UNL A   1      39.209  34.127  41.862  1.00  0.00    -0.200 F 
ATOM     78  F   UNL A   1      40.766  36.366  41.891  1.00  0.00    -0.200 F 
ENDBRANCH  54  68
BRANCH  55  79
ATOM     79  C   UNL A   1      40.137  28.727  30.021  1.00  0.00     0.064 A 
ATOM     80  C   UNL A   1      40.770  29.232  28.877  1.00  0.00     0.173 A 
ATOM     81  C   UNL A   1      39.477  27.496  29.913  1.00  0.00     0.173 A 
ATOM     82  F   UNL A   1      41.397  30.416  28.926  1.00  0.00    -0.203 F 
ATOM     83  C   UNL A   1      40.729  28.540  27.669  1.00  0.00     0.198 A 
ATOM     84  C   UNL A   1      39.462  26.790  28.712  1.00  0.00     0.198 A 
ATOM     85  F   UNL A   1      38.861  26.967  30.981  1.00  0.00    -0.203 F 
ATOM     86  F   UNL A   1      41.309  29.063  26.580  1.00  0.00    -0.200 F 
ATOM     87  C   UNL A   1      40.082  27.315  27.589  1.00  0.00     0.200 A 
ATOM     88  F   UNL A   1      38.848  25.601  28.642  1.00  0.00    -0.200 F 
ATOM     89  F   UNL A   1      40.052  26.646  26.429  1.00  0.00    -0.200 F 
ENDBRANCH  55  79
BRANCH  67  90
ATOM     90  C   UNL A   1      44.380  28.546  35.553  1.00  0.00     0.064 A 
ATOM     91  C   UNL A   1      45.684  28.932  35.211  1.00  0.00     0.173 A 
ATOM     92  C   UNL A   1      44.214  27.347  36.264  1.00  0.00     0.173 A 
ATOM     93  F   UNL A   1      45.894  30.062  34.519  1.00  0.00    -0.203 F 
ATOM     94  C   UNL A   1      46.776  28.138  35.547  1.00  0.00     0.198 A 
ATOM     95  C   UNL A   1      45.311  26.571  36.624  1.00  0.00     0.198 A 
ATOM     96  F   UNL A   1      42.988  26.936  36.621  1.00  0.00    -0.203 F 
ATOM     97  F   UNL A   1      48.009  28.502  35.169  1.00  0.00    -0.200 F 
ATOM     98  C   UNL A   1      46.590  26.962  36.260  1.00  0.00     0.200 A 
ATOM     99  F   UNL A   1      45.131  25.443  37.326  1.00  0.00    -0.200 F 
ATOM    100  F   UNL A   1      47.644  26.202  36.589  1.00  0.00    -0.200 F 
ENDBRANCH  67  90
ENDBRANCH  41  42
ENDBRANCH  33  36
ENDBRANCH  31  32
ENDBRANCH  30  31
ENDBRANCH  29  30
ENDBRANCH  28  29
ENDBRANCH   1  28
TORSDOF 18
ENDMDL
MODEL 2
REMARK VINA RESULT:     -11.2      1.409      2.457
REMARK SMILES COc1ccc(CC(=O)NCCCCCCNC(=O)c2ccc(-c3c4nc(c(-c5c(F)c(F)c(F)c(F)c5F)c5ccc([nH]5)c(-c5c(F)c(F)c(F)c(F)c5F)c5nc(c(-c6c(F)c(F)c(F)c(F)c6F)c6ccc3[nH]6)C=C5)C=C4)cc2)cc1S(=O)(=O)Nc1ccccc1Br
REMARK SMILES IDX 12 1 11 2 10 3 8 4 9 5 7 7 6 8 3 9 4 10 84 11 5 12 83 13
REMARK SMILES IDX 2 14 1 15 85 16 86 17 87 18 88 19 89 21 90 22 94 23 91 24
REMARK SMILES IDX 93 25 95 26 92 27 13 28 14 29 15 30 16 31 17 32 18 33 19 35
REMARK SMILES IDX 20 36 21 37 82 38 22 39 81 40 23 41 24 42 25 43 75 44 26 45
REMARK SMILES IDX 80 46 74 47 76 48 27 49 79 50 73 51 72 52 28 54 60 55 40 56
REMARK SMILES IDX 59 57 41 58 44 59 58 60 77 61 42 62 43 63 57 65 78 66 45 67
REMARK SMILES IDX 29 68 30 69 38 70 31 71 32 72 36 73 39 74 33 75 34 76 37 77
REMARK SMILES IDX 35 78 61 79 62 80 70 81 63 82 64 83 68 84 71 85 65 86 66 87
REMARK SMILES IDX 69 88 67 89 46 90 47 91 55 92 48 93 49 94 53 95 56 96 50 97
REMARK SMILES IDX 51 98 54 99 52 100
REMARK H PARENT 10 6 88 20 17 34 76 53 44 64
REMARK Flexibility Score: inf
ROOT
ATOM      1  C   UNL A   1      34.529  32.765  29.148  1.00  0.00     0.021 C 
ENDROOT
BRANCH   1   2
ATOM      2  C   UNL A   1      34.369  31.989  27.843  1.00  0.00     0.116 C 
BRANCH   2   3
ATOM      3  N   UNL A   1      35.511  31.126  27.625  1.00  0.00    -0.356 N 
ATOM      4  C   UNL A   1      35.542  29.763  27.601  1.00  0.00     0.224 C 
ATOM      5  O   UNL A   1      36.634  29.192  27.606  1.00  0.00    -0.275 OA
ATOM      6  H   UNL A   1      36.372  31.580  27.477  1.00  0.00     0.163 HD
BRANCH   4   7
ATOM      7  C   UNL A   1      34.243  28.993  27.502  1.00  0.00     0.135 C 
BRANCH   7   8
ATOM      8  C   UNL A   1      33.919  28.425  26.140  1.00  0.00    -0.037 A 
ATOM      9  C   UNL A   1      32.831  27.358  23.788  1.00  0.00     0.139 A 
ATOM     10  C   UNL A   1      33.053  28.734  23.908  1.00  0.00     0.048 A 
ATOM     11  C   UNL A   1      33.349  26.492  24.739  1.00  0.00     0.129 A 
ATOM     12  C   UNL A   1      33.608  29.267  25.072  1.00  0.00     0.008 A 
ATOM     13  C   UNL A   1      33.832  27.037  25.943  1.00  0.00     0.030 A 
BRANCH   9  14
ATOM     14  O   UNL A   1      32.059  26.980  22.732  1.00  0.00    -0.495 OA
ATOM     15  C   UNL A   1      30.672  27.231  22.973  1.00  0.00     0.278 C 
ENDBRANCH   9  14
BRANCH  11  16
ATOM     16  S   UNL A   1      33.424  24.727  24.605  1.00  0.00     0.265 S 
ATOM     17  O   UNL A   1      32.057  24.246  24.667  1.00  0.00    -0.201 OA
ATOM     18  O   UNL A   1      34.216  24.450  23.420  1.00  0.00    -0.201 OA
BRANCH  16  19
ATOM     19  N   UNL A   1      34.240  23.939  25.860  1.00  0.00    -0.278 N 
ATOM     20  H   UNL A   1      33.860  23.993  26.767  1.00  0.00     0.180 HD
BRANCH  19  21
ATOM     21  C   UNL A   1      35.453  23.199  25.679  1.00  0.00     0.063 A 
ATOM     22  C   UNL A   1      36.650  23.907  25.886  1.00  0.00     0.028 A 
ATOM     23  C   UNL A   1      35.519  21.850  25.312  1.00  0.00     0.042 A 
ATOM     24  C   UNL A   1      37.883  23.256  25.840  1.00  0.00     0.002 A 
ATOM     25  C   UNL A   1      36.759  21.199  25.271  1.00  0.00     0.018 A 
ATOM     26  Br  UNL A   1      33.996  20.851  24.788  1.00  0.00    -0.049 Br
ATOM     27  C   UNL A   1      37.936  21.896  25.555  1.00  0.00     0.001 A 
ENDBRANCH  19  21
ENDBRANCH  16  19
ENDBRANCH  11  16
ENDBRANCH   7   8
ENDBRANCH   4   7
ENDBRANCH   2   3
ENDBRANCH   1   2
BRANCH   1  28
ATOM     28  C   UNL A   1      35.336  34.059  28.992  1.00  0.00     0.002 C 
BRANCH  28  29
ATOM     29  C   UNL A   1      34.654  35.142  28.148  1.00  0.00     0.002 C 
BRANCH  29  30
ATOM     30  C   UNL A   1      33.714  36.065  28.927  1.00  0.00     0.021 C 
BRANCH  30  31
ATOM     31  C   UNL A   1      32.695  35.335  29.795  1.00  0.00     0.116 C 
BRANCH  31  32
ATOM     32  N   UNL A   1      32.346  36.104  30.980  1.00  0.00    -0.352 N 
ATOM     33  C   UNL A   1      32.831  36.002  32.259  1.00  0.00     0.251 C 
ATOM     34  H   UNL A   1      31.662  36.798  30.843  1.00  0.00     0.163 HD
ATOM     35  O   UNL A   1      32.270  36.586  33.181  1.00  0.00    -0.269 OA
BRANCH  33  36
ATOM     36  C   UNL A   1      34.024  35.175  32.531  1.00  0.00     0.039 A 
ATOM     37  C   UNL A   1      35.289  35.713  32.279  1.00  0.00     0.014 A 
ATOM     38  C   UNL A   1      33.898  33.869  33.011  1.00  0.00     0.014 A 
ATOM     39  C   UNL A   1      36.429  34.958  32.559  1.00  0.00     0.010 A 
ATOM     40  C   UNL A   1      35.034  33.145  33.357  1.00  0.00     0.010 A 
ATOM     41  C   UNL A   1      36.312  33.679  33.127  1.00  0.00    -0.014 A 
BRANCH  41  42
ATOM     42  C   UNL A   1      37.513  32.887  33.486  1.00  0.00     0.031 A 
ATOM     43  C   UNL A   1      38.256  33.173  34.760  1.00  0.00     0.074 A 
ATOM     44  C   UNL A   1      37.973  31.955  32.630  1.00  0.00     0.049 A 
ATOM     45  N   UNL A   1      39.358  32.633  35.216  1.00  0.00    -0.248 NA
ATOM     46  C   UNL A   1      37.703  34.228  35.623  1.00  0.00     0.031 C 
ATOM     47  C   UNL A   1      37.373  31.628  31.337  1.00  0.00     0.029 A 
ATOM     48  N   UNL A   1      39.064  31.126  32.711  1.00  0.00    -0.354 N 
ATOM     49  C   UNL A   1      39.640  33.294  36.404  1.00  0.00     0.074 A 
ATOM     50  C   UNL A   1      38.621  34.308  36.575  1.00  0.00     0.031 C 
ATOM     51  C   UNL A   1      38.093  30.658  30.751  1.00  0.00     0.029 A 
ATOM     52  C   UNL A   1      39.224  30.320  31.610  1.00  0.00     0.049 A 
ATOM     53  H   UNL A   1      39.673  31.109  33.484  1.00  0.00     0.167 HD
ATOM     54  C   UNL A   1      40.645  33.063  37.282  1.00  0.00     0.037 A 
ATOM     55  C   UNL A   1      40.181  29.417  31.322  1.00  0.00     0.037 A 
ATOM     56  C   UNL A   1      41.639  32.034  37.119  1.00  0.00     0.049 A 
ATOM     57  C   UNL A   1      41.277  29.166  32.321  1.00  0.00     0.074 A 
ATOM     58  C   UNL A   1      42.649  31.665  37.990  1.00  0.00     0.029 A 
ATOM     59  N   UNL A   1      41.752  31.214  36.005  1.00  0.00    -0.354 N 
ATOM     60  N   UNL A   1      41.485  29.738  33.483  1.00  0.00    -0.248 NA
ATOM     61  C   UNL A   1      42.266  28.138  31.973  1.00  0.00     0.031 C 
ATOM     62  C   UNL A   1      43.405  30.657  37.381  1.00  0.00     0.029 A 
ATOM     63  C   UNL A   1      42.832  30.358  36.155  1.00  0.00     0.049 A 
ATOM     64  H   UNL A   1      41.152  31.237  35.224  1.00  0.00     0.167 HD
ATOM     65  C   UNL A   1      42.612  29.125  34.013  1.00  0.00     0.074 A 
ATOM     66  C   UNL A   1      43.033  28.124  33.054  1.00  0.00     0.031 C 
ATOM     67  C   UNL A   1      43.240  29.369  35.190  1.00  0.00     0.037 A 
BRANCH  54  68
ATOM     68  C   UNL A   1      40.723  33.942  38.496  1.00  0.00     0.064 A 
ATOM     69  C   UNL A   1      40.035  33.632  39.679  1.00  0.00     0.173 A 
ATOM     70  C   UNL A   1      41.520  35.098  38.487  1.00  0.00     0.173 A 
ATOM     71  F   UNL A   1      39.252  32.545  39.739  1.00  0.00    -0.203 F 
ATOM     72  C   UNL A   1      40.115  34.463  40.795  1.00  0.00     0.198 A 
ATOM     73  C   UNL A   1      41.623  35.909  39.614  1.00  0.00     0.198 A 
ATOM     74  F   UNL A   1      42.205  35.438  37.385  1.00  0.00    -0.203 F 
ATOM     75  F   UNL A   1      39.406  34.175  41.894  1.00  0.00    -0.200 F 
ATOM     76  C   UNL A   1      40.913  35.597  40.763  1.00  0.00     0.200 A 
ATOM     77  F   UNL A   1      42.406  36.995  39.586  1.00  0.00    -0.200 F 
ATOM     78  F   UNL A   1      40.992  36.391  41.839  1.00  0.00    -0.200 F 
ENDBRANCH  54  68
BRANCH  55  79
ATOM     79  C   UNL A   1      40.124  28.670  30.040  1.00  0.00     0.064 A 
ATOM     80  C   UNL A   1      39.465  27.436  29.953  1.00  0.00     0.173 A 
ATOM     81  C   UNL A   1      40.716  29.178  28.875  1.00  0.00     0.173 A 
ATOM     82  F   UNL A   1      38.901  26.901  31.046  1.00  0.00    -0.203 F 
ATOM     83  C   UNL A   1      39.412  26.732  28.753  1.00  0.00     0.198 A 
ATOM     84  C   UNL A   1      40.638  28.486  27.668  1.00  0.00     0.198 A 
ATOM     85  F   UNL A   1      41.354  30.357  28.904  1.00  0.00    -0.203 F 
ATOM     86  F   UNL A   1      38.809  25.536  28.706  1.00  0.00    -0.200 F 
ATOM     87  C   UNL A   1      39.992  27.261  27.609  1.00  0.00     0.200 A 
ATOM     88  F   UNL A   1      41.187  29.007  26.562  1.00  0.00    -0.200 F 
ATOM     89  F   UNL A   1      39.933  26.586  26.453  1.00  0.00    -0.200 F 
ENDBRANCH  55  79
BRANCH  67  90
ATOM     90  C   UNL A   1      44.436  28.523  35.519  1.00  0.00     0.064 A 
ATOM     91  C   UNL A   1      44.305  27.269  36.132  1.00  0.00     0.173 A 
ATOM     92  C   UNL A   1      45.727  28.958  35.181  1.00  0.00     0.173 A 
ATOM     93  F   UNL A   1      43.094  26.814  36.488  1.00  0.00    -0.203 F 
ATOM     94  C   UNL A   1      45.424  26.492  36.416  1.00  0.00     0.198 A 
ATOM     95  C   UNL A   1      46.841  28.165  35.439  1.00  0.00     0.198 A 
ATOM     96  F   UNL A   1      45.907  30.147  34.586  1.00  0.00    -0.203 F 
ATOM     97  F   UNL A   1      45.280  25.317  37.046  1.00  0.00    -0.200 F 
ATOM     98  C   UNL A   1      46.690  26.936  36.063  1.00  0.00     0.200 A 
ATOM     99  F   UNL A   1      48.062  28.590  35.083  1.00  0.00    -0.200 F 
ATOM    100  F   UNL A   1      47.766  26.182  36.331  1.00  0.00    -0.200 F 
ENDBRANCH  67  90
ENDBRANCH  41  42
ENDBRANCH  33  36
ENDBRANCH  31  32
ENDBRANCH  30  31
ENDBRANCH  29  30
ENDBRANCH  28  29
ENDBRANCH   1  28
TORSDOF 18
ENDMDL
MODEL 3
REMARK VINA RESULT:     -10.9      3.913      9.326
REMARK SMILES COc1ccc(CC(=O)NCCCCCCNC(=O)c2ccc(-c3c4nc(c(-c5c(F)c(F)c(F)c(F)c5F)c5ccc([nH]5)c(-c5c(F)c(F)c(F)c(F)c5F)c5nc(c(-c6c(F)c(F)c(F)c(F)c6F)c6ccc3[nH]6)C=C5)C=C4)cc2)cc1S(=O)(=O)Nc1ccccc1Br
REMARK SMILES IDX 12 1 11 2 10 3 8 4 9 5 7 7 6 8 3 9 4 10 84 11 5 12 83 13
REMARK SMILES IDX 2 14 1 15 85 16 86 17 87 18 88 19 89 21 90 22 94 23 91 24
REMARK SMILES IDX 93 25 95 26 92 27 13 28 14 29 15 30 16 31 17 32 18 33 19 35
REMARK SMILES IDX 20 36 21 37 82 38 22 39 81 40 23 41 24 42 25 43 75 44 26 45
REMARK SMILES IDX 80 46 74 47 76 48 27 49 79 50 73 51 72 52 28 54 60 55 40 56
REMARK SMILES IDX 59 57 41 58 44 59 58 60 77 61 42 62 43 63 57 65 78 66 45 67
REMARK SMILES IDX 29 68 30 69 38 70 31 71 32 72 36 73 39 74 33 75 34 76 37 77
REMARK SMILES IDX 35 78 61 79 62 80 70 81 63 82 64 83 68 84 71 85 65 86 66 87
REMARK SMILES IDX 69 88 67 89 46 90 47 91 55 92 48 93 49 94 53 95 56 96 50 97
REMARK SMILES IDX 51 98 54 99 52 100
REMARK H PARENT 10 6 88 20 17 34 76 53 44 64
REMARK Flexibility Score: inf
ROOT
ATOM      1  C   UNL A   1      34.511  19.716  24.689  1.00  0.00     0.021 C 
ENDROOT
BRANCH   1   2
ATOM      2  C   UNL A   1      33.299  19.667  25.615  1.00  0.00     0.116 C 
BRANCH   2   3
ATOM      3  N   UNL A   1      33.351  20.751  26.573  1.00  0.00    -0.356 N 
ATOM      4  C   UNL A   1      32.670  21.932  26.544  1.00  0.00     0.224 C 
ATOM      5  O   UNL A   1      32.990  22.823  27.333  1.00  0.00    -0.275 OA
ATOM      6  H   UNL A   1      33.954  20.620  27.340  1.00  0.00     0.163 HD
BRANCH   4   7
ATOM      7  C   UNL A   1      31.502  22.091  25.595  1.00  0.00     0.135 C 
BRANCH   7   8
ATOM      8  C   UNL A   1      31.781  22.880  24.338  1.00  0.00    -0.037 A 
ATOM      9  C   UNL A   1      32.769  24.412  22.209  1.00  0.00     0.139 A 
ATOM     10  C   UNL A   1      32.778  23.014  22.143  1.00  0.00     0.048 A 
ATOM     11  C   UNL A   1      32.074  25.049  23.225  1.00  0.00     0.129 A 
ATOM     12  C   UNL A   1      32.275  22.249  23.195  1.00  0.00     0.008 A 
ATOM     13  C   UNL A   1      31.640  24.277  24.319  1.00  0.00     0.030 A 
BRANCH   9  14
ATOM     14  O   UNL A   1      33.509  25.046  21.258  1.00  0.00    -0.495 OA
ATOM     15  C   UNL A   1      32.745  25.304  20.077  1.00  0.00     0.278 C 
ENDBRANCH   9  14
BRANCH  11  16
ATOM     16  S   UNL A   1      31.707  26.780  23.306  1.00  0.00     0.265 S 
ATOM     17  O   UNL A   1      32.977  27.477  23.251  1.00  0.00    -0.201 OA
ATOM     18  O   UNL A   1      30.720  27.027  22.270  1.00  0.00    -0.201 OA
BRANCH  16  19
ATOM     19  N   UNL A   1      30.965  27.297  24.736  1.00  0.00    -0.278 N 
ATOM     20  H   UNL A   1      30.177  26.802  25.055  1.00  0.00     0.180 HD
BRANCH  19  21
ATOM     21  C   UNL A   1      31.418  28.416  25.507  1.00  0.00     0.063 A 
ATOM     22  C   UNL A   1      32.149  28.115  26.670  1.00  0.00     0.028 A 
ATOM     23  C   UNL A   1      31.180  29.757  25.186  1.00  0.00     0.042 A 
ATOM     24  C   UNL A   1      32.727  29.129  27.434  1.00  0.00     0.002 A 
ATOM     25  C   UNL A   1      31.765  30.773  25.953  1.00  0.00     0.018 A 
ATOM     26  Br  UNL A   1      30.024  30.288  23.780  1.00  0.00    -0.049 Br
ATOM     27  C   UNL A   1      32.554  30.458  27.062  1.00  0.00     0.001 A 
ENDBRANCH  19  21
ENDBRANCH  16  19
ENDBRANCH  11  16
ENDBRANCH   7   8
ENDBRANCH   4   7
ENDBRANCH   2   3
ENDBRANCH   1   2
BRANCH   1  28
ATOM     28  C   UNL A   1      35.603  20.679  25.166  1.00  0.00     0.002 C 
BRANCH  28  29
ATOM     29  C   UNL A   1      35.767  21.939  24.308  1.00  0.00     0.002 C 
BRANCH  29  30
ATOM     30  C   UNL A   1      35.716  23.255  25.086  1.00  0.00     0.021 C 
BRANCH  30  31
ATOM     31  C   UNL A   1      37.074  23.916  25.292  1.00  0.00     0.116 C 
BRANCH  31  32
ATOM     32  N   UNL A   1      38.113  22.937  25.574  1.00  0.00    -0.352 N 
ATOM     33  C   UNL A   1      39.332  23.109  26.178  1.00  0.00     0.251 C 
ATOM     34  H   UNL A   1      37.912  22.017  25.287  1.00  0.00     0.163 HD
ATOM     35  O   UNL A   1      40.172  22.216  26.140  1.00  0.00    -0.269 OA
BRANCH  33  36
ATOM     36  C   UNL A   1      39.640  24.381  26.865  1.00  0.00     0.039 A 
ATOM     37  C   UNL A   1      39.217  24.554  28.184  1.00  0.00     0.014 A 
ATOM     38  C   UNL A   1      40.325  25.405  26.205  1.00  0.00     0.014 A 
ATOM     39  C   UNL A   1      39.526  25.736  28.860  1.00  0.00     0.010 A 
ATOM     40  C   UNL A   1      40.694  26.551  26.901  1.00  0.00     0.010 A 
ATOM     41  C   UNL A   1      40.292  26.732  28.233  1.00  0.00    -0.014 A 
BRANCH  41  42
ATOM     42  C   UNL A   1      40.681  27.968  28.955  1.00  0.00     0.031 A 
ATOM     43  C   UNL A   1      42.058  28.102  29.540  1.00  0.00     0.074 A 
ATOM     44  C   UNL A   1      39.769  28.941  29.142  1.00  0.00     0.049 A 
ATOM     45  N   UNL A   1      42.564  29.075  30.255  1.00  0.00    -0.248 NA
ATOM     46  C   UNL A   1      42.981  26.979  29.317  1.00  0.00     0.031 C 
ATOM     47  C   UNL A   1      38.384  28.901  28.673  1.00  0.00     0.029 A 
ATOM     48  N   UNL A   1      39.867  30.146  29.793  1.00  0.00    -0.354 N 
ATOM     49  C   UNL A   1      43.852  28.673  30.583  1.00  0.00     0.074 A 
ATOM     50  C   UNL A   1      44.035  27.349  30.030  1.00  0.00     0.031 C 
ATOM     51  C   UNL A   1      37.764  30.035  29.038  1.00  0.00     0.029 A 
ATOM     52  C   UNL A   1      38.696  30.865  29.795  1.00  0.00     0.049 A 
ATOM     53  H   UNL A   1      40.696  30.465  30.217  1.00  0.00     0.167 HD
ATOM     54  C   UNL A   1      44.802  29.356  31.266  1.00  0.00     0.037 A 
ATOM     55  C   UNL A   1      38.406  32.054  30.354  1.00  0.00     0.037 A 
ATOM     56  C   UNL A   1      44.622  30.685  31.789  1.00  0.00     0.049 A 
ATOM     57  C   UNL A   1      39.482  32.801  31.093  1.00  0.00     0.074 A 
ATOM     58  C   UNL A   1      45.548  31.496  32.423  1.00  0.00     0.029 A 
ATOM     59  N   UNL A   1      43.431  31.397  31.746  1.00  0.00    -0.354 N 
ATOM     60  N   UNL A   1      40.724  32.450  31.323  1.00  0.00    -0.248 NA
ATOM     61  C   UNL A   1      39.119  34.115  31.641  1.00  0.00     0.031 C 
ATOM     62  C   UNL A   1      44.903  32.676  32.809  1.00  0.00     0.029 A 
ATOM     63  C   UNL A   1      43.591  32.626  32.366  1.00  0.00     0.049 A 
ATOM     64  H   UNL A   1      42.596  31.075  31.334  1.00  0.00     0.167 HD
ATOM     65  C   UNL A   1      41.297  33.504  32.020  1.00  0.00     0.074 A 
ATOM     66  C   UNL A   1      40.271  34.517  32.161  1.00  0.00     0.031 C 
ATOM     67  C   UNL A   1      42.560  33.623  32.500  1.00  0.00     0.037 A 
BRANCH  54  68
ATOM     68  C   UNL A   1      46.120  28.675  31.490  1.00  0.00     0.064 A 
ATOM     69  C   UNL A   1      47.174  28.780  30.569  1.00  0.00     0.173 A 
ATOM     70  C   UNL A   1      46.346  27.929  32.658  1.00  0.00     0.173 A 
ATOM     71  F   UNL A   1      47.008  29.473  29.432  1.00  0.00    -0.203 F 
ATOM     72  C   UNL A   1      48.389  28.137  30.791  1.00  0.00     0.198 A 
ATOM     73  C   UNL A   1      47.573  27.314  32.892  1.00  0.00     0.198 A 
ATOM     74  F   UNL A   1      45.377  27.801  33.577  1.00  0.00    -0.203 F 
ATOM     75  F   UNL A   1      49.360  28.208  29.870  1.00  0.00    -0.200 F 
ATOM     76  C   UNL A   1      48.589  27.410  31.954  1.00  0.00     0.200 A 
ATOM     77  F   UNL A   1      47.770  26.624  34.023  1.00  0.00    -0.200 F 
ATOM     78  F   UNL A   1      49.761  26.796  32.168  1.00  0.00    -0.200 F 
ENDBRANCH  54  68
BRANCH  55  79
ATOM     79  C   UNL A   1      37.039  32.619  30.212  1.00  0.00     0.064 A 
ATOM     80  C   UNL A   1      36.066  32.409  31.198  1.00  0.00     0.173 A 
ATOM     81  C   UNL A   1      36.682  33.389  29.096  1.00  0.00     0.173 A 
ATOM     82  F   UNL A   1      36.354  31.662  32.274  1.00  0.00    -0.203 F 
ATOM     83  C   UNL A   1      34.783  32.935  31.066  1.00  0.00     0.198 A 
ATOM     84  C   UNL A   1      35.407  33.939  28.979  1.00  0.00     0.198 A 
ATOM     85  F   UNL A   1      37.579  33.624  28.127  1.00  0.00    -0.203 F 
ATOM     86  F   UNL A   1      33.860  32.686  32.005  1.00  0.00    -0.200 F 
ATOM     87  C   UNL A   1      34.457  33.706  29.960  1.00  0.00     0.200 A 
ATOM     88  F   UNL A   1      35.100  34.696  27.916  1.00  0.00    -0.200 F 
ATOM     89  F   UNL A   1      33.225  34.219  29.839  1.00  0.00    -0.200 F 
ENDBRANCH  55  79
BRANCH  67  90
ATOM     90  C   UNL A   1      42.911  34.903  33.201  1.00  0.00     0.064 A 
ATOM     91  C   UNL A   1      42.810  35.033  34.593  1.00  0.00     0.173 A 
ATOM     92  C   UNL A   1      43.390  36.003  32.471  1.00  0.00     0.173 A 
ATOM     93  F   UNL A   1      42.343  34.017  35.334  1.00  0.00    -0.203 F 
ATOM     94  C   UNL A   1      43.153  36.224  35.227  1.00  0.00     0.198 A 
ATOM     95  C   UNL A   1      43.761  37.181  33.112  1.00  0.00     0.198 A 
ATOM     96  F   UNL A   1      43.512  35.929  31.137  1.00  0.00    -0.203 F 
ATOM     97  F   UNL A   1      43.004  36.341  36.555  1.00  0.00    -0.200 F 
ATOM     98  C   UNL A   1      43.636  37.294  34.488  1.00  0.00     0.200 A 
ATOM     99  F   UNL A   1      44.241  38.208  32.397  1.00  0.00    -0.200 F 
ATOM    100  F   UNL A   1      43.973  38.437  35.102  1.00  0.00    -0.200 F 
ENDBRANCH  67  90
ENDBRANCH  41  42
ENDBRANCH  33  36
ENDBRANCH  31  32
ENDBRANCH  30  31
ENDBRANCH  29  30
ENDBRANCH  28  29
ENDBRANCH   1  28
TORSDOF 18
ENDMDL
