MODEL 1
REMARK VINA RESULT:     -11.9      0.000      0.000
REMARK SMILES CC1=C(C)C[C@@H](C(=O)NCCCCCCNC(=O)c2ccc(-c3c4nc(c(-c5c(F)c(F)c(F)c(F)c5F)c5ccc([nH]5)c(-c5c(F)c(F)c(F)c(F)c5F)c5nc(c(-c6c(F)c(F)c(F)c(F)c6F)c6ccc3[nH]6)C=C5)C=C4)cc2)[C@@H](C(=O)NCC[NH+]2CCOCC2)C1
REMARK SMILES IDX 11 1 10 2 9 3 7 4 8 5 6 7 1 8 2 9 3 10 94 11 4 12 5 13 82 14
REMARK SMILES IDX 83 15 84 16 85 17 86 19 87 20 88 21 89 22 93 23 90 25 92 26
REMARK SMILES IDX 91 27 12 28 13 29 14 30 15 31 16 32 17 33 18 35 19 36 20 37
REMARK SMILES IDX 81 38 21 39 80 40 22 41 23 42 24 43 74 44 25 45 79 46 73 47
REMARK SMILES IDX 75 48 26 49 78 50 72 51 71 52 27 54 59 55 39 56 58 57 40 58
REMARK SMILES IDX 43 59 57 60 76 61 41 62 42 63 56 65 77 66 44 67 28 68 29 69
REMARK SMILES IDX 37 70 30 71 31 72 35 73 38 74 32 75 33 76 36 77 34 78 60 79
REMARK SMILES IDX 61 80 69 81 62 82 63 83 67 84 70 85 64 86 65 87 68 88 66 89
REMARK SMILES IDX 45 90 46 91 54 92 47 93 48 94 52 95 55 96 49 97 50 98 53 99
REMARK SMILES IDX 51 100
REMARK H PARENT 9 6 85 18 88 24 16 34 75 53 43 64
REMARK Flexibility Score: inf
ROOT
ATOM      1  C   UNL A   1      32.712  29.129  27.368  1.00  0.00     0.021 C 
ENDROOT
BRANCH   1   2
ATOM      2  C   UNL A   1      32.209  27.836  26.733  1.00  0.00     0.116 C 
BRANCH   2   3
ATOM      3  N   UNL A   1      33.213  27.115  25.990  1.00  0.00    -0.356 N 
ATOM      4  C   UNL A   1      33.169  25.933  25.326  1.00  0.00     0.224 C 
ATOM      5  O   UNL A   1      34.206  25.574  24.754  1.00  0.00    -0.275 OA
ATOM      6  H   UNL A   1      34.090  27.561  25.960  1.00  0.00     0.163 HD
BRANCH   4   7
ATOM      7  C   UNL A   1      31.905  25.076  25.188  1.00  0.00     0.095 C 
ATOM      8  C   UNL A   1      32.221  21.231  22.997  1.00  0.00     0.039 C 
ATOM      9  C   UNL A   1      31.951  22.432  23.873  1.00  0.00    -0.074 C 
ATOM     10  C   UNL A   1      32.288  22.514  25.177  1.00  0.00    -0.074 C 
ATOM     11  C   UNL A   1      31.337  23.592  23.120  1.00  0.00     0.045 C 
ATOM     12  C   UNL A   1      32.968  21.425  25.971  1.00  0.00     0.039 C 
ATOM     13  C   UNL A   1      32.044  23.769  25.978  1.00  0.00     0.045 C 
ATOM     14  C   UNL A   1      31.193  24.961  23.825  1.00  0.00     0.095 C 
BRANCH  14  15
ATOM     15  C   UNL A   1      31.555  26.059  22.818  1.00  0.00     0.224 C 
ATOM     16  O   UNL A   1      32.574  26.082  22.137  1.00  0.00    -0.275 OA
ATOM     17  N   UNL A   1      30.654  27.066  22.604  1.00  0.00    -0.350 N 
ATOM     18  H   UNL A   1      30.253  27.158  21.709  1.00  0.00     0.163 HD
BRANCH  17  19
ATOM     19  C   UNL A   1      30.267  28.003  23.638  1.00  0.00     0.177 C 
BRANCH  19  20
ATOM     20  C   UNL A   1      30.004  29.437  23.104  1.00  0.00     0.283 C 
BRANCH  20  21
ATOM     21  N   UNL A   1      28.828  29.619  22.219  1.00  0.00    -0.330 N 
ATOM     22  C   UNL A   1      28.899  30.787  21.302  1.00  0.00     0.291 C 
ATOM     23  C   UNL A   1      27.599  29.822  23.038  1.00  0.00     0.291 C 
ATOM     24  H   UNL A   1      28.809  28.769  21.657  1.00  0.00     0.348 HD
ATOM     25  C   UNL A   1      28.813  32.157  21.997  1.00  0.00     0.221 C 
ATOM     26  C   UNL A   1      27.507  31.208  23.709  1.00  0.00     0.221 C 
ATOM     27  O   UNL A   1      27.593  32.263  22.743  1.00  0.00    -0.370 OA
ENDBRANCH  20  21
ENDBRANCH  19  20
ENDBRANCH  17  19
ENDBRANCH  14  15
ENDBRANCH   4   7
ENDBRANCH   2   3
ENDBRANCH   1   2
BRANCH   1  28
ATOM     28  C   UNL A   1      32.732  30.325  26.418  1.00  0.00     0.002 C 
BRANCH  28  29
ATOM     29  C   UNL A   1      31.364  30.981  26.214  1.00  0.00     0.002 C 
BRANCH  29  30
ATOM     30  C   UNL A   1      31.311  32.471  26.564  1.00  0.00     0.021 C 
BRANCH  30  31
ATOM     31  C   UNL A   1      32.556  32.999  27.269  1.00  0.00     0.116 C 
BRANCH  31  32
ATOM     32  N   UNL A   1      32.398  34.386  27.671  1.00  0.00    -0.352 N 
ATOM     33  C   UNL A   1      33.009  35.062  28.694  1.00  0.00     0.251 C 
ATOM     34  H   UNL A   1      31.762  34.913  27.135  1.00  0.00     0.163 HD
ATOM     35  O   UNL A   1      32.599  36.163  29.045  1.00  0.00    -0.269 OA
BRANCH  33  36
ATOM     36  C   UNL A   1      34.165  34.453  29.383  1.00  0.00     0.039 A 
ATOM     37  C   UNL A   1      33.948  33.757  30.575  1.00  0.00     0.014 A 
ATOM     38  C   UNL A   1      35.459  34.591  28.871  1.00  0.00     0.014 A 
ATOM     39  C   UNL A   1      35.025  33.163  31.232  1.00  0.00     0.010 A 
ATOM     40  C   UNL A   1      36.522  33.944  29.493  1.00  0.00     0.010 A 
ATOM     41  C   UNL A   1      36.317  33.233  30.685  1.00  0.00    -0.014 A 
BRANCH  41  42
ATOM     42  C   UNL A   1      37.466  32.581  31.359  1.00  0.00     0.031 A 
ATOM     43  C   UNL A   1      38.186  31.444  30.692  1.00  0.00     0.074 A 
ATOM     44  C   UNL A   1      37.828  32.983  32.592  1.00  0.00     0.049 A 
ATOM     45  N   UNL A   1      39.182  30.720  31.137  1.00  0.00    -0.248 NA
ATOM     46  C   UNL A   1      37.708  31.049  29.358  1.00  0.00     0.031 C 
ATOM     47  C   UNL A   1      37.174  34.044  33.361  1.00  0.00     0.029 A 
ATOM     48  N   UNL A   1      38.829  32.540  33.420  1.00  0.00    -0.354 N 
ATOM     49  C   UNL A   1      39.438  29.780  30.147  1.00  0.00     0.074 A 
ATOM     50  C   UNL A   1      38.462  29.991  29.101  1.00  0.00     0.031 C 
ATOM     51  C   UNL A   1      37.804  34.185  34.538  1.00  0.00     0.029 A 
ATOM     52  C   UNL A   1      38.884  33.205  34.619  1.00  0.00     0.049 A 
ATOM     53  H   UNL A   1      39.449  31.815  33.177  1.00  0.00     0.167 HD
ATOM     54  C   UNL A   1      40.416  28.844  30.105  1.00  0.00     0.037 A 
ATOM     55  C   UNL A   1      39.713  33.041  35.668  1.00  0.00     0.037 A 
ATOM     56  C   UNL A   1      41.402  28.656  31.135  1.00  0.00     0.049 A 
ATOM     57  C   UNL A   1      40.794  31.998  35.592  1.00  0.00     0.074 A 
ATOM     58  C   UNL A   1      42.470  27.775  31.160  1.00  0.00     0.029 A 
ATOM     59  N   UNL A   1      41.440  29.363  32.328  1.00  0.00    -0.354 N 
ATOM     60  N   UNL A   1      41.070  31.162  34.621  1.00  0.00    -0.248 NA
ATOM     61  C   UNL A   1      41.685  31.882  36.754  1.00  0.00     0.031 C 
ATOM     62  C   UNL A   1      43.129  27.920  32.385  1.00  0.00     0.029 A 
ATOM     63  C   UNL A   1      42.501  28.924  33.105  1.00  0.00     0.049 A 
ATOM     64  H   UNL A   1      40.807  30.072  32.586  1.00  0.00     0.167 HD
ATOM     65  C   UNL A   1      42.180  30.442  35.042  1.00  0.00     0.074 A 
ATOM     66  C   UNL A   1      42.536  30.950  36.350  1.00  0.00     0.031 C 
ATOM     67  C   UNL A   1      42.844  29.447  34.403  1.00  0.00     0.037 A 
BRANCH  54  68
ATOM     68  C   UNL A   1      40.468  27.950  28.899  1.00  0.00     0.064 A 
ATOM     69  C   UNL A   1      41.250  28.270  27.779  1.00  0.00     0.173 A 
ATOM     70  C   UNL A   1      39.756  26.741  28.877  1.00  0.00     0.173 A 
ATOM     71  F   UNL A   1      41.941  29.420  27.745  1.00  0.00    -0.203 F 
ATOM     72  C   UNL A   1      41.294  27.430  26.670  1.00  0.00     0.198 A 
ATOM     73  C   UNL A   1      39.826  25.888  27.777  1.00  0.00     0.198 A 
ATOM     74  F   UNL A   1      38.997  26.384  29.923  1.00  0.00    -0.203 F 
ATOM     75  F   UNL A   1      42.009  27.781  25.592  1.00  0.00    -0.200 F 
ATOM     76  C   UNL A   1      40.588  26.236  26.673  1.00  0.00     0.200 A 
ATOM     77  F   UNL A   1      39.153  24.729  27.787  1.00  0.00    -0.200 F 
ATOM     78  F   UNL A   1      40.636  25.424  25.608  1.00  0.00    -0.200 F 
ENDBRANCH  54  68
BRANCH  55  79
ATOM     79  C   UNL A   1      39.570  33.906  36.868  1.00  0.00     0.064 A 
ATOM     80  C   UNL A   1      40.194  35.159  36.928  1.00  0.00     0.173 A 
ATOM     81  C   UNL A   1      38.812  33.499  37.974  1.00  0.00     0.173 A 
ATOM     82  F   UNL A   1      40.946  35.582  35.902  1.00  0.00    -0.203 F 
ATOM     83  C   UNL A   1      40.082  35.965  38.059  1.00  0.00     0.198 A 
ATOM     84  C   UNL A   1      38.677  34.318  39.093  1.00  0.00     0.198 A 
ATOM     85  F   UNL A   1      38.189  32.311  37.963  1.00  0.00    -0.203 F 
ATOM     86  F   UNL A   1      40.725  37.140  38.109  1.00  0.00    -0.200 F 
ATOM     87  C   UNL A   1      39.319  35.547  39.139  1.00  0.00     0.200 A 
ATOM     88  F   UNL A   1      37.928  33.916  40.129  1.00  0.00    -0.200 F 
ATOM     89  F   UNL A   1      39.208  36.323  40.224  1.00  0.00    -0.200 F 
ENDBRANCH  55  79
BRANCH  67  90
ATOM     90  C   UNL A   1      44.042  28.867  35.097  1.00  0.00     0.064 A 
ATOM     91  C   UNL A   1      45.328  29.391  34.905  1.00  0.00     0.173 A 
ATOM     92  C   UNL A   1      43.894  27.795  35.990  1.00  0.00     0.173 A 
ATOM     93  F   UNL A   1      45.523  30.405  34.049  1.00  0.00    -0.203 F 
ATOM     94  C   UNL A   1      46.428  28.844  35.561  1.00  0.00     0.198 A 
ATOM     95  C   UNL A   1      44.991  27.270  36.666  1.00  0.00     0.198 A 
ATOM     96  F   UNL A   1      42.683  27.262  36.214  1.00  0.00    -0.203 F 
ATOM     97  F   UNL A   1      47.655  29.327  35.324  1.00  0.00    -0.200 F 
ATOM     98  C   UNL A   1      46.258  27.789  36.446  1.00  0.00     0.200 A 
ATOM     99  F   UNL A   1      44.823  26.260  37.530  1.00  0.00    -0.200 F 
ATOM    100  F   UNL A   1      47.317  27.267  37.079  1.00  0.00    -0.200 F 
ENDBRANCH  67  90
ENDBRANCH  41  42
ENDBRANCH  33  36
ENDBRANCH  31  32
ENDBRANCH  30  31
ENDBRANCH  29  30
ENDBRANCH  28  29
ENDBRANCH   1  28
TORSDOF 17
ENDMDL
MODEL 2
REMARK VINA RESULT:     -11.9      5.723     11.437
REMARK SMILES CC1=C(C)C[C@@H](C(=O)NCCCCCCNC(=O)c2ccc(-c3c4nc(c(-c5c(F)c(F)c(F)c(F)c5F)c5ccc([nH]5)c(-c5c(F)c(F)c(F)c(F)c5F)c5nc(c(-c6c(F)c(F)c(F)c(F)c6F)c6ccc3[nH]6)C=C5)C=C4)cc2)[C@@H](C(=O)NCC[NH+]2CCOCC2)C1
REMARK SMILES IDX 11 1 10 2 9 3 7 4 8 5 6 7 1 8 2 9 3 10 94 11 4 12 5 13 82 14
REMARK SMILES IDX 83 15 84 16 85 17 86 19 87 20 88 21 89 22 93 23 90 25 92 26
REMARK SMILES IDX 91 27 12 28 13 29 14 30 15 31 16 32 17 33 18 35 19 36 20 37
REMARK SMILES IDX 81 38 21 39 80 40 22 41 23 42 24 43 74 44 25 45 79 46 73 47
REMARK SMILES IDX 75 48 26 49 78 50 72 51 71 52 27 54 59 55 39 56 58 57 40 58
REMARK SMILES IDX 43 59 57 60 76 61 41 62 42 63 56 65 77 66 44 67 28 68 29 69
REMARK SMILES IDX 37 70 30 71 31 72 35 73 38 74 32 75 33 76 36 77 34 78 60 79
REMARK SMILES IDX 61 80 69 81 62 82 63 83 67 84 70 85 64 86 65 87 68 88 66 89
REMARK SMILES IDX 45 90 46 91 54 92 47 93 48 94 52 95 55 96 49 97 50 98 53 99
REMARK SMILES IDX 51 100
REMARK H PARENT 9 6 85 18 88 24 16 34 75 53 43 64
REMARK Flexibility Score: inf
ROOT
ATOM      1  C   UNL A   1      36.760  22.663  25.653  1.00  0.00     0.021 C 
ENDROOT
BRANCH   1   2
ATOM      2  C   UNL A   1      35.438  22.105  26.171  1.00  0.00     0.116 C 
BRANCH   2   3
ATOM      3  N   UNL A   1      34.492  23.115  26.581  1.00  0.00    -0.356 N 
ATOM      4  C   UNL A   1      33.802  24.045  25.874  1.00  0.00     0.224 C 
ATOM      5  O   UNL A   1      33.032  24.774  26.511  1.00  0.00    -0.275 OA
ATOM      6  H   UNL A   1      34.316  23.132  27.549  1.00  0.00     0.163 HD
BRANCH   4   7
ATOM      7  C   UNL A   1      33.870  24.182  24.348  1.00  0.00     0.095 C 
ATOM      8  C   UNL A   1      31.022  26.955  22.377  1.00  0.00     0.039 C 
ATOM      9  C   UNL A   1      32.141  26.070  22.876  1.00  0.00    -0.074 C 
ATOM     10  C   UNL A   1      33.291  26.528  23.412  1.00  0.00    -0.074 C 
ATOM     11  C   UNL A   1      31.810  24.595  22.803  1.00  0.00     0.045 C 
ATOM     12  C   UNL A   1      33.655  27.983  23.583  1.00  0.00     0.039 C 
ATOM     13  C   UNL A   1      34.341  25.586  23.948  1.00  0.00     0.045 C 
ATOM     14  C   UNL A   1      32.762  23.573  23.466  1.00  0.00     0.095 C 
BRANCH  14  15
ATOM     15  C   UNL A   1      31.909  22.502  24.157  1.00  0.00     0.224 C 
ATOM     16  O   UNL A   1      31.038  22.725  24.991  1.00  0.00    -0.275 OA
ATOM     17  N   UNL A   1      32.075  21.197  23.781  1.00  0.00    -0.350 N 
ATOM     18  H   UNL A   1      31.318  20.728  23.360  1.00  0.00     0.163 HD
BRANCH  17  19
ATOM     19  C   UNL A   1      33.315  20.477  23.977  1.00  0.00     0.177 C 
BRANCH  19  20
ATOM     20  C   UNL A   1      33.192  19.295  24.976  1.00  0.00     0.283 C 
BRANCH  20  21
ATOM     21  N   UNL A   1      32.379  18.133  24.544  1.00  0.00    -0.330 N 
ATOM     22  C   UNL A   1      32.495  16.924  25.402  1.00  0.00     0.291 C 
ATOM     23  C   UNL A   1      32.789  17.701  23.178  1.00  0.00     0.291 C 
ATOM     24  H   UNL A   1      31.418  18.473  24.595  1.00  0.00     0.348 HD
ATOM     25  C   UNL A   1      33.861  16.219  25.338  1.00  0.00     0.221 C 
ATOM     26  C   UNL A   1      34.147  16.970  23.126  1.00  0.00     0.221 C 
ATOM     27  O   UNL A   1      34.158  15.828  23.990  1.00  0.00    -0.370 OA
ENDBRANCH  20  21
ENDBRANCH  19  20
ENDBRANCH  17  19
ENDBRANCH  14  15
ENDBRANCH   4   7
ENDBRANCH   2   3
ENDBRANCH   1   2
BRANCH   1  28
ATOM     28  C   UNL A   1      37.459  21.766  24.632  1.00  0.00     0.002 C 
BRANCH  28  29
ATOM     29  C   UNL A   1      37.024  20.300  24.692  1.00  0.00     0.002 C 
BRANCH  29  30
ATOM     30  C   UNL A   1      38.153  19.311  25.000  1.00  0.00     0.021 C 
BRANCH  30  31
ATOM     31  C   UNL A   1      39.220  19.846  25.949  1.00  0.00     0.116 C 
BRANCH  31  32
ATOM     32  N   UNL A   1      40.353  18.943  26.047  1.00  0.00    -0.352 N 
ATOM     33  C   UNL A   1      41.689  19.239  26.125  1.00  0.00     0.251 C 
ATOM     34  H   UNL A   1      40.130  17.984  26.059  1.00  0.00     0.163 HD
ATOM     35  O   UNL A   1      42.531  18.362  25.972  1.00  0.00    -0.269 OA
BRANCH  33  36
ATOM     36  C   UNL A   1      42.113  20.630  26.384  1.00  0.00     0.039 A 
ATOM     37  C   UNL A   1      42.283  21.046  27.707  1.00  0.00     0.014 A 
ATOM     38  C   UNL A   1      42.315  21.526  25.329  1.00  0.00     0.014 A 
ATOM     39  C   UNL A   1      42.697  22.352  27.971  1.00  0.00     0.010 A 
ATOM     40  C   UNL A   1      42.790  22.808  25.592  1.00  0.00     0.010 A 
ATOM     41  C   UNL A   1      42.975  23.236  26.915  1.00  0.00    -0.014 A 
BRANCH  41  42
ATOM     42  C   UNL A   1      43.443  24.618  27.182  1.00  0.00     0.031 A 
ATOM     43  C   UNL A   1      42.494  25.642  27.736  1.00  0.00     0.074 A 
ATOM     44  C   UNL A   1      44.709  24.960  26.881  1.00  0.00     0.049 A 
ATOM     45  N   UNL A   1      42.702  26.908  27.996  1.00  0.00    -0.248 NA
ATOM     46  C   UNL A   1      41.120  25.192  28.010  1.00  0.00     0.031 C 
ATOM     47  C   UNL A   1      45.709  24.065  26.294  1.00  0.00     0.029 A 
ATOM     48  N   UNL A   1      45.371  26.155  27.017  1.00  0.00    -0.354 N 
ATOM     49  C   UNL A   1      41.487  27.405  28.450  1.00  0.00     0.074 A 
ATOM     50  C   UNL A   1      40.533  26.320  28.381  1.00  0.00     0.031 C 
ATOM     51  C   UNL A   1      46.862  24.736  26.142  1.00  0.00     0.029 A 
ATOM     52  C   UNL A   1      46.674  26.113  26.590  1.00  0.00     0.049 A 
ATOM     53  H   UNL A   1      44.950  26.964  27.387  1.00  0.00     0.167 HD
ATOM     54  C   UNL A   1      41.200  28.648  28.905  1.00  0.00     0.037 A 
ATOM     55  C   UNL A   1      47.612  27.079  26.561  1.00  0.00     0.037 A 
ATOM     56  C   UNL A   1      42.159  29.717  28.998  1.00  0.00     0.049 A 
ATOM     57  C   UNL A   1      47.269  28.449  27.079  1.00  0.00     0.074 A 
ATOM     58  C   UNL A   1      41.984  30.995  29.501  1.00  0.00     0.029 A 
ATOM     59  N   UNL A   1      43.478  29.632  28.574  1.00  0.00    -0.354 N 
ATOM     60  N   UNL A   1      46.136  28.889  27.570  1.00  0.00    -0.248 NA
ATOM     61  C   UNL A   1      48.339  29.455  27.048  1.00  0.00     0.031 C 
ATOM     62  C   UNL A   1      43.184  31.696  29.344  1.00  0.00     0.029 A 
ATOM     63  C   UNL A   1      44.121  30.841  28.787  1.00  0.00     0.049 A 
ATOM     64  H   UNL A   1      43.895  28.832  28.181  1.00  0.00     0.167 HD
ATOM     65  C   UNL A   1      46.363  30.209  27.931  1.00  0.00     0.074 A 
ATOM     66  C   UNL A   1      47.748  30.495  27.617  1.00  0.00     0.031 C 
ATOM     67  C   UNL A   1      45.503  31.106  28.473  1.00  0.00     0.037 A 
BRANCH  54  68
ATOM     68  C   UNL A   1      39.790  28.919  29.343  1.00  0.00     0.064 A 
ATOM     69  C   UNL A   1      39.373  28.694  30.664  1.00  0.00     0.173 A 
ATOM     70  C   UNL A   1      38.852  29.442  28.441  1.00  0.00     0.173 A 
ATOM     71  F   UNL A   1      40.228  28.183  31.563  1.00  0.00    -0.203 F 
ATOM     72  C   UNL A   1      38.064  28.954  31.058  1.00  0.00     0.198 A 
ATOM     73  C   UNL A   1      37.550  29.730  28.846  1.00  0.00     0.198 A 
ATOM     74  F   UNL A   1      39.198  29.682  27.167  1.00  0.00    -0.203 F 
ATOM     75  F   UNL A   1      37.676  28.685  32.312  1.00  0.00    -0.200 F 
ATOM     76  C   UNL A   1      37.155  29.479  30.150  1.00  0.00     0.200 A 
ATOM     77  F   UNL A   1      36.677  30.249  27.971  1.00  0.00    -0.200 F 
ATOM     78  F   UNL A   1      35.897  29.736  30.532  1.00  0.00    -0.200 F 
ENDBRANCH  54  68
BRANCH  55  79
ATOM     79  C   UNL A   1      48.973  26.776  26.049  1.00  0.00     0.064 A 
ATOM     80  C   UNL A   1      49.961  26.258  26.898  1.00  0.00     0.173 A 
ATOM     81  C   UNL A   1      49.314  26.996  24.707  1.00  0.00     0.173 A 
ATOM     82  F   UNL A   1      49.687  26.050  28.194  1.00  0.00    -0.203 F 
ATOM     83  C   UNL A   1      51.246  25.992  26.429  1.00  0.00     0.198 A 
ATOM     84  C   UNL A   1      50.591  26.704  24.232  1.00  0.00     0.198 A 
ATOM     85  F   UNL A   1      48.403  27.484  23.853  1.00  0.00    -0.203 F 
ATOM     86  F   UNL A   1      52.184  25.540  27.272  1.00  0.00    -0.200 F 
ATOM     87  C   UNL A   1      51.558  26.209  25.095  1.00  0.00     0.200 A 
ATOM     88  F   UNL A   1      50.885  26.902  22.940  1.00  0.00    -0.200 F 
ATOM     89  F   UNL A   1      52.792  25.950  24.643  1.00  0.00    -0.200 F 
ENDBRANCH  55  79
BRANCH  67  90
ATOM     90  C   UNL A   1      46.043  32.470  28.789  1.00  0.00     0.064 A 
ATOM     91  C   UNL A   1      45.977  33.521  27.863  1.00  0.00     0.173 A 
ATOM     92  C   UNL A   1      46.605  32.736  30.048  1.00  0.00     0.173 A 
ATOM     93  F   UNL A   1      45.464  33.312  26.642  1.00  0.00    -0.203 F 
ATOM     94  C   UNL A   1      46.480  34.781  28.175  1.00  0.00     0.198 A 
ATOM     95  C   UNL A   1      47.079  34.005  30.367  1.00  0.00     0.198 A 
ATOM     96  F   UNL A   1      46.685  31.766  30.972  1.00  0.00    -0.203 F 
ATOM     97  F   UNL A   1      46.453  35.757  27.257  1.00  0.00    -0.200 F 
ATOM     98  C   UNL A   1      47.023  35.024  29.428  1.00  0.00     0.200 A 
ATOM     99  F   UNL A   1      47.591  34.241  31.582  1.00  0.00    -0.200 F 
ATOM    100  F   UNL A   1      47.502  36.239  29.728  1.00  0.00    -0.200 F 
ENDBRANCH  67  90
ENDBRANCH  41  42
ENDBRANCH  33  36
ENDBRANCH  31  32
ENDBRANCH  30  31
ENDBRANCH  29  30
ENDBRANCH  28  29
ENDBRANCH   1  28
TORSDOF 17
ENDMDL
MODEL 3
REMARK VINA RESULT:     -11.9      5.190     10.389
REMARK SMILES CC1=C(C)C[C@@H](C(=O)NCCCCCCNC(=O)c2ccc(-c3c4nc(c(-c5c(F)c(F)c(F)c(F)c5F)c5ccc([nH]5)c(-c5c(F)c(F)c(F)c(F)c5F)c5nc(c(-c6c(F)c(F)c(F)c(F)c6F)c6ccc3[nH]6)C=C5)C=C4)cc2)[C@@H](C(=O)NCC[NH+]2CCOCC2)C1
REMARK SMILES IDX 11 1 10 2 9 3 7 4 8 5 6 7 1 8 2 9 3 10 94 11 4 12 5 13 82 14
REMARK SMILES IDX 83 15 84 16 85 17 86 19 87 20 88 21 89 22 93 23 90 25 92 26
REMARK SMILES IDX 91 27 12 28 13 29 14 30 15 31 16 32 17 33 18 35 19 36 20 37
REMARK SMILES IDX 81 38 21 39 80 40 22 41 23 42 24 43 74 44 25 45 79 46 73 47
REMARK SMILES IDX 75 48 26 49 78 50 72 51 71 52 27 54 59 55 39 56 58 57 40 58
REMARK SMILES IDX 43 59 57 60 76 61 41 62 42 63 56 65 77 66 44 67 28 68 29 69
REMARK SMILES IDX 37 70 30 71 31 72 35 73 38 74 32 75 33 76 36 77 34 78 60 79
REMARK SMILES IDX 61 80 69 81 62 82 63 83 67 84 70 85 64 86 65 87 68 88 66 89
REMARK SMILES IDX 45 90 46 91 54 92 47 93 48 94 52 95 55 96 49 97 50 98 53 99
REMARK SMILES IDX 51 100
REMARK H PARENT 9 6 85 18 88 24 16 34 75 53 43 64
REMARK Flexibility Score: inf
ROOT
ATOM      1  C   UNL A   1      36.256  23.130  25.064  1.00  0.00     0.021 C 
ENDROOT
BRANCH   1   2
ATOM      2  C   UNL A   1      35.140  23.901  24.366  1.00  0.00     0.116 C 
BRANCH   2   3
ATOM      3  N   UNL A   1      34.809  25.157  24.993  1.00  0.00    -0.356 N 
ATOM      4  C   UNL A   1      33.669  25.601  25.578  1.00  0.00     0.224 C 
ATOM      5  O   UNL A   1      33.694  26.741  26.058  1.00  0.00    -0.275 OA
ATOM      6  H   UNL A   1      35.545  25.811  24.996  1.00  0.00     0.163 HD
BRANCH   4   7
ATOM      7  C   UNL A   1      32.403  24.751  25.739  1.00  0.00     0.095 C 
ATOM      8  C   UNL A   1      32.502  20.566  24.269  1.00  0.00     0.039 C 
ATOM      9  C   UNL A   1      32.322  21.911  24.935  1.00  0.00    -0.074 C 
ATOM     10  C   UNL A   1      32.801  22.225  26.156  1.00  0.00    -0.074 C 
ATOM     11  C   UNL A   1      31.620  22.921  24.054  1.00  0.00     0.045 C 
ATOM     12  C   UNL A   1      33.572  21.290  27.057  1.00  0.00     0.039 C 
ATOM     13  C   UNL A   1      32.638  23.609  26.736  1.00  0.00     0.045 C 
ATOM     14  C   UNL A   1      31.546  24.398  24.508  1.00  0.00     0.095 C 
BRANCH  14  15
ATOM     15  C   UNL A   1      31.786  25.288  23.283  1.00  0.00     0.224 C 
ATOM     16  O   UNL A   1      32.707  25.155  22.485  1.00  0.00    -0.275 OA
ATOM     17  N   UNL A   1      30.877  26.273  23.008  1.00  0.00    -0.350 N 
ATOM     18  H   UNL A   1      30.363  26.220  22.169  1.00  0.00     0.163 HD
BRANCH  17  19
ATOM     19  C   UNL A   1      30.640  27.390  23.898  1.00  0.00     0.177 C 
BRANCH  19  20
ATOM     20  C   UNL A   1      29.585  28.395  23.360  1.00  0.00     0.283 C 
BRANCH  20  21
ATOM     21  N   UNL A   1      30.057  29.768  23.060  1.00  0.00    -0.330 N 
ATOM     22  C   UNL A   1      29.417  30.846  23.860  1.00  0.00     0.291 C 
ATOM     23  C   UNL A   1      29.782  30.105  21.634  1.00  0.00     0.291 C 
ATOM     24  H   UNL A   1      31.050  29.742  23.291  1.00  0.00     0.348 HD
ATOM     25  C   UNL A   1      27.933  31.093  23.535  1.00  0.00     0.221 C 
ATOM     26  C   UNL A   1      28.296  30.378  21.323  1.00  0.00     0.221 C 
ATOM     27  O   UNL A   1      27.774  31.425  22.149  1.00  0.00    -0.370 OA
ENDBRANCH  20  21
ENDBRANCH  19  20
ENDBRANCH  17  19
ENDBRANCH  14  15
ENDBRANCH   4   7
ENDBRANCH   2   3
ENDBRANCH   1   2
BRANCH   1  28
ATOM     28  C   UNL A   1      36.775  21.929  24.274  1.00  0.00     0.002 C 
BRANCH  28  29
ATOM     29  C   UNL A   1      36.567  20.586  24.976  1.00  0.00     0.002 C 
BRANCH  29  30
ATOM     30  C   UNL A   1      37.791  19.664  24.969  1.00  0.00     0.021 C 
BRANCH  30  31
ATOM     31  C   UNL A   1      38.997  20.209  25.726  1.00  0.00     0.116 C 
BRANCH  31  32
ATOM     32  N   UNL A   1      40.029  19.200  25.890  1.00  0.00    -0.352 N 
ATOM     33  C   UNL A   1      41.375  19.367  26.082  1.00  0.00     0.251 C 
ATOM     34  H   UNL A   1      39.717  18.267  25.859  1.00  0.00     0.163 HD
ATOM     35  O   UNL A   1      42.141  18.416  25.974  1.00  0.00    -0.269 OA
BRANCH  33  36
ATOM     36  C   UNL A   1      41.905  20.705  26.411  1.00  0.00     0.039 A 
ATOM     37  C   UNL A   1      42.106  21.623  25.377  1.00  0.00     0.014 A 
ATOM     38  C   UNL A   1      42.227  21.045  27.729  1.00  0.00     0.014 A 
ATOM     39  C   UNL A   1      42.593  22.897  25.670  1.00  0.00     0.010 A 
ATOM     40  C   UNL A   1      42.650  22.336  28.028  1.00  0.00     0.010 A 
ATOM     41  C   UNL A   1      42.847  23.270  27.000  1.00  0.00    -0.014 A 
BRANCH  41  42
ATOM     42  C   UNL A   1      43.337  24.632  27.328  1.00  0.00     0.031 A 
ATOM     43  C   UNL A   1      42.405  25.644  27.931  1.00  0.00     0.074 A 
ATOM     44  C   UNL A   1      44.608  24.968  27.038  1.00  0.00     0.049 A 
ATOM     45  N   UNL A   1      42.632  26.894  28.247  1.00  0.00    -0.248 NA
ATOM     46  C   UNL A   1      41.026  25.202  28.189  1.00  0.00     0.031 C 
ATOM     47  C   UNL A   1      45.592  24.087  26.408  1.00  0.00     0.029 A 
ATOM     48  N   UNL A   1      45.287  26.146  27.226  1.00  0.00    -0.354 N 
ATOM     49  C   UNL A   1      41.426  27.388  28.727  1.00  0.00     0.074 A 
ATOM     50  C   UNL A   1      40.457  26.321  28.613  1.00  0.00     0.031 C 
ATOM     51  C   UNL A   1      46.755  24.746  26.281  1.00  0.00     0.029 A 
ATOM     52  C   UNL A   1      46.588  26.104  26.792  1.00  0.00     0.049 A 
ATOM     53  H   UNL A   1      44.880  26.944  27.633  1.00  0.00     0.167 HD
ATOM     54  C   UNL A   1      41.160  28.614  29.238  1.00  0.00     0.037 A 
ATOM     55  C   UNL A   1      47.541  27.057  26.803  1.00  0.00     0.037 A 
ATOM     56  C   UNL A   1      42.135  29.663  29.376  1.00  0.00     0.049 A 
ATOM     57  C   UNL A   1      47.219  28.407  27.384  1.00  0.00     0.074 A 
ATOM     58  C   UNL A   1      41.980  30.919  29.937  1.00  0.00     0.029 A 
ATOM     59  N   UNL A   1      43.451  29.578  28.944  1.00  0.00    -0.354 N 
ATOM     60  N   UNL A   1      46.095  28.841  27.898  1.00  0.00    -0.248 NA
ATOM     61  C   UNL A   1      48.304  29.398  27.394  1.00  0.00     0.031 C 
ATOM     62  C   UNL A   1      43.190  31.609  29.807  1.00  0.00     0.029 A 
ATOM     63  C   UNL A   1      44.113  30.766  29.208  1.00  0.00     0.049 A 
ATOM     64  H   UNL A   1      43.854  28.790  28.514  1.00  0.00     0.167 HD
ATOM     65  C   UNL A   1      46.343  30.141  28.317  1.00  0.00     0.074 A 
ATOM     66  C   UNL A   1      47.730  30.420  28.011  1.00  0.00     0.031 C 
ATOM     67  C   UNL A   1      45.497  31.025  28.902  1.00  0.00     0.037 A 
BRANCH  54  68
ATOM     68  C   UNL A   1      39.755  28.885  29.693  1.00  0.00     0.064 A 
ATOM     69  C   UNL A   1      39.353  28.655  31.018  1.00  0.00     0.173 A 
ATOM     70  C   UNL A   1      38.808  29.413  28.804  1.00  0.00     0.173 A 
ATOM     71  F   UNL A   1      40.217  28.139  31.905  1.00  0.00    -0.203 F 
ATOM     72  C   UNL A   1      38.048  28.916  31.427  1.00  0.00     0.198 A 
ATOM     73  C   UNL A   1      37.511  29.701  29.224  1.00  0.00     0.198 A 
ATOM     74  F   UNL A   1      39.140  29.657  27.527  1.00  0.00    -0.203 F 
ATOM     75  F   UNL A   1      37.674  28.642  32.685  1.00  0.00    -0.200 F 
ATOM     76  C   UNL A   1      37.130  29.446  30.532  1.00  0.00     0.200 A 
ATOM     77  F   UNL A   1      36.630  30.225  28.362  1.00  0.00    -0.200 F 
ATOM     78  F   UNL A   1      35.877  29.704  30.929  1.00  0.00    -0.200 F 
ENDBRANCH  54  68
BRANCH  55  79
ATOM     79  C   UNL A   1      48.895  26.757  26.273  1.00  0.00     0.064 A 
ATOM     80  C   UNL A   1      49.233  27.066  24.948  1.00  0.00     0.173 A 
ATOM     81  C   UNL A   1      49.877  26.158  27.075  1.00  0.00     0.173 A 
ATOM     82  F   UNL A   1      48.320  27.621  24.137  1.00  0.00    -0.203 F 
ATOM     83  C   UNL A   1      50.494  26.767  24.438  1.00  0.00     0.198 A 
ATOM     84  C   UNL A   1      51.148  25.886  26.573  1.00  0.00     0.198 A 
ATOM     85  F   UNL A   1      49.606  25.850  28.351  1.00  0.00    -0.203 F 
ATOM     86  F   UNL A   1      50.777  27.032  23.155  1.00  0.00    -0.200 F 
ATOM     87  C   UNL A   1      51.454  26.183  25.252  1.00  0.00     0.200 A 
ATOM     88  F   UNL A   1      52.076  25.334  27.367  1.00  0.00    -0.200 F 
ATOM     89  F   UNL A   1      52.668  25.900  24.764  1.00  0.00    -0.200 F 
ENDBRANCH  55  79
BRANCH  67  90
ATOM     90  C   UNL A   1      46.059  32.365  29.277  1.00  0.00     0.064 A 
ATOM     91  C   UNL A   1      46.000  33.459  28.402  1.00  0.00     0.173 A 
ATOM     92  C   UNL A   1      46.634  32.563  30.542  1.00  0.00     0.173 A 
ATOM     93  F   UNL A   1      45.474  33.315  27.177  1.00  0.00    -0.203 F 
ATOM     94  C   UNL A   1      46.522  34.696  28.768  1.00  0.00     0.198 A 
ATOM     95  C   UNL A   1      47.128  33.810  30.916  1.00  0.00     0.198 A 
ATOM     96  F   UNL A   1      46.708  31.550  31.419  1.00  0.00    -0.203 F 
ATOM     97  F   UNL A   1      46.501  35.714  27.898  1.00  0.00    -0.200 F 
ATOM     98  C   UNL A   1      47.079  34.873  30.027  1.00  0.00     0.200 A 
ATOM     99  F   UNL A   1      47.653  33.982  32.136  1.00  0.00    -0.200 F 
ATOM    100  F   UNL A   1      47.577  36.066  30.380  1.00  0.00    -0.200 F 
ENDBRANCH  67  90
ENDBRANCH  41  42
ENDBRANCH  33  36
ENDBRANCH  31  32
ENDBRANCH  30  31
ENDBRANCH  29  30
ENDBRANCH  28  29
ENDBRANCH   1  28
TORSDOF 17
ENDMDL
