MODEL 1
REMARK VINA RESULT:     -12.7      0.000      0.000
REMARK SMILES N#Cc1ccc(C(=O)N2CCC(Oc3ccccc3)(C(=O)NCCCCCCNC(=O)c3ccc(-c4c5nc(c(-c6c(F)c(F)c(F)c(F)c6F)c6ccc([nH]6)c(-c6c(F)c(F)c(F)c(F)c6F)c6nc(c(-c7c(F)c(F)c(F)c(F)c7F)c7ccc4[nH]7)C=C6)C=C5)cc3)CC2)cc1
REMARK SMILES IDX 25 1 24 2 23 3 22 4 20 5 21 6 12 8 7 9 8 10 9 11 10 12 96 13
REMARK SMILES IDX 11 14 95 15 6 16 3 17 4 18 98 19 5 20 97 21 2 22 1 23 13 24
REMARK SMILES IDX 14 25 15 26 19 27 16 28 18 29 17 30 26 31 27 32 28 33 29 34
REMARK SMILES IDX 30 35 31 37 32 38 33 39 94 40 34 41 93 42 35 43 36 44 37 45
REMARK SMILES IDX 87 46 38 47 92 48 86 49 88 50 39 51 91 52 85 53 84 54 40 56
REMARK SMILES IDX 72 57 52 58 71 59 53 60 56 61 70 62 89 63 54 64 55 65 69 67
REMARK SMILES IDX 90 68 57 69 41 70 42 71 50 72 43 73 44 74 48 75 51 76 45 77
REMARK SMILES IDX 46 78 49 79 47 80 73 81 74 82 82 83 75 84 76 85 80 86 83 87
REMARK SMILES IDX 77 88 78 89 81 90 79 91 58 92 59 93 67 94 60 95 61 96 65 97
REMARK SMILES IDX 68 98 62 99 63 100 66 101 64 102
REMARK H PARENT 22 7 29 36 88 55 56 66
REMARK Flexibility Score: inf
ROOT
ATOM      1  C   UNL A   1      37.822  22.110  25.314  1.00  0.00     0.002 C 
ENDROOT
BRANCH   1   2
ATOM      2  C   UNL A   1      36.610  22.632  26.096  1.00  0.00     0.021 C 
BRANCH   2   3
ATOM      3  C   UNL A   1      35.592  21.544  26.430  1.00  0.00     0.116 C 
BRANCH   3   4
ATOM      4  N   UNL A   1      34.499  22.106  27.196  1.00  0.00    -0.353 N 
ATOM      5  C   UNL A   1      33.173  22.204  26.902  1.00  0.00     0.264 C 
ATOM      6  O   UNL A   1      32.472  22.755  27.757  1.00  0.00    -0.270 OA
ATOM      7  H   UNL A   1      34.757  22.477  28.071  1.00  0.00     0.163 HD
BRANCH   5   8
ATOM      8  C   UNL A   1      32.592  21.658  25.565  1.00  0.00     0.190 C 
ATOM      9  C   UNL A   1      31.791  24.838  22.937  1.00  0.00     0.253 C 
ATOM     10  O   UNL A   1      32.098  24.501  21.797  1.00  0.00    -0.269 OA
ATOM     11  N   UNL A   1      32.104  24.075  24.049  1.00  0.00    -0.338 N 
ATOM     12  C   UNL A   1      33.457  23.578  24.173  1.00  0.00     0.124 C 
ATOM     13  C   UNL A   1      31.144  23.724  25.092  1.00  0.00     0.124 C 
ATOM     14  C   UNL A   1      33.454  22.080  24.360  1.00  0.00     0.080 C 
ATOM     15  C   UNL A   1      31.157  22.215  25.384  1.00  0.00     0.080 C 
BRANCH   9  16
ATOM     16  C   UNL A   1      31.256  26.207  23.176  1.00  0.00     0.040 A 
ATOM     17  C   UNL A   1      30.090  28.756  23.273  1.00  0.00     0.052 A 
ATOM     18  C   UNL A   1      29.340  27.626  23.622  1.00  0.00     0.020 A 
ATOM     19  C   UNL A   1      31.425  28.612  22.885  1.00  0.00     0.020 A 
ATOM     20  C   UNL A   1      29.920  26.355  23.572  1.00  0.00     0.015 A 
ATOM     21  C   UNL A   1      32.001  27.342  22.826  1.00  0.00     0.015 A 
BRANCH  17  22
ATOM     22  C   UNL A   1      29.488  30.058  23.274  1.00  0.00     0.099 C 
ATOM     23  N   UNL A   1      29.009  31.113  23.294  1.00  0.00    -0.192 NA
ENDBRANCH  17  22
ENDBRANCH   9  16
BRANCH   8  24
ATOM     24  O   UNL A   1      32.582  20.232  25.839  1.00  0.00    -0.477 OA
BRANCH  24  25
ATOM     25  C   UNL A   1      32.959  19.370  24.855  1.00  0.00     0.120 A 
ATOM     26  C   UNL A   1      32.075  19.179  23.797  1.00  0.00     0.046 A 
ATOM     27  C   UNL A   1      34.101  18.579  24.954  1.00  0.00     0.046 A 
ATOM     28  C   UNL A   1      32.384  18.268  22.786  1.00  0.00     0.004 A 
ATOM     29  C   UNL A   1      34.428  17.690  23.931  1.00  0.00     0.004 A 
ATOM     30  C   UNL A   1      33.572  17.540  22.842  1.00  0.00     0.000 A 
ENDBRANCH  24  25
ENDBRANCH   8  24
ENDBRANCH   5   8
ENDBRANCH   3   4
ENDBRANCH   2   3
ENDBRANCH   1   2
BRANCH   1  31
ATOM     31  C   UNL A   1      37.572  20.803  24.554  1.00  0.00     0.002 C 
BRANCH  31  32
ATOM     32  C   UNL A   1      38.350  19.602  25.092  1.00  0.00     0.021 C 
BRANCH  32  33
ATOM     33  C   UNL A   1      39.482  19.977  26.039  1.00  0.00     0.116 C 
BRANCH  33  34
ATOM     34  N   UNL A   1      40.548  18.987  26.021  1.00  0.00    -0.352 N 
ATOM     35  C   UNL A   1      41.906  19.179  26.035  1.00  0.00     0.251 C 
ATOM     36  H   UNL A   1      40.254  18.048  25.995  1.00  0.00     0.163 HD
ATOM     37  O   UNL A   1      42.666  18.250  25.781  1.00  0.00    -0.269 OA
BRANCH  35  38
ATOM     38  C   UNL A   1      42.448  20.518  26.340  1.00  0.00     0.039 A 
ATOM     39  C   UNL A   1      43.013  21.271  25.310  1.00  0.00     0.014 A 
ATOM     40  C   UNL A   1      42.395  21.028  27.640  1.00  0.00     0.014 A 
ATOM     41  C   UNL A   1      43.481  22.558  25.576  1.00  0.00     0.010 A 
ATOM     42  C   UNL A   1      42.772  22.344  27.882  1.00  0.00     0.010 A 
ATOM     43  C   UNL A   1      43.334  23.119  26.857  1.00  0.00    -0.014 A 
BRANCH  43  44
ATOM     44  C   UNL A   1      43.772  24.507  27.141  1.00  0.00     0.031 A 
ATOM     45  C   UNL A   1      42.786  25.524  27.644  1.00  0.00     0.074 A 
ATOM     46  C   UNL A   1      45.048  24.866  26.901  1.00  0.00     0.049 A 
ATOM     47  N   UNL A   1      42.967  26.793  27.914  1.00  0.00    -0.248 NA
ATOM     48  C   UNL A   1      41.404  25.061  27.845  1.00  0.00     0.031 C 
ATOM     49  C   UNL A   1      46.089  23.982  26.375  1.00  0.00     0.029 A 
ATOM     50  N   UNL A   1      45.686  26.070  27.066  1.00  0.00    -0.354 N 
ATOM     51  C   UNL A   1      41.726  27.276  28.306  1.00  0.00     0.074 A 
ATOM     52  C   UNL A   1      40.786  26.186  28.170  1.00  0.00     0.031 C 
ATOM     53  C   UNL A   1      47.243  24.661  26.298  1.00  0.00     0.029 A 
ATOM     54  C   UNL A   1      47.014  26.040  26.717  1.00  0.00     0.049 A 
ATOM     55  H   UNL A   1      45.235  26.877  27.402  1.00  0.00     0.167 HD
ATOM     56  C   UNL A   1      41.405  28.509  28.767  1.00  0.00     0.037 A 
ATOM     57  C   UNL A   1      47.940  27.018  26.727  1.00  0.00     0.037 A 
ATOM     58  C   UNL A   1      42.346  29.591  28.900  1.00  0.00     0.049 A 
ATOM     59  C   UNL A   1      47.549  28.393  27.198  1.00  0.00     0.074 A 
ATOM     60  C   UNL A   1      42.133  30.865  29.393  1.00  0.00     0.029 A 
ATOM     61  N   UNL A   1      43.681  29.527  28.520  1.00  0.00    -0.354 N 
ATOM     62  N   UNL A   1      46.388  28.822  27.631  1.00  0.00    -0.248 NA
ATOM     63  C   UNL A   1      48.600  29.418  27.185  1.00  0.00     0.031 C 
ATOM     64  C   UNL A   1      43.316  31.595  29.243  1.00  0.00     0.029 A 
ATOM     65  C   UNL A   1      44.293  30.752  28.737  1.00  0.00     0.049 A 
ATOM     66  H   UNL A   1      44.127  28.730  28.153  1.00  0.00     0.167 HD
ATOM     67  C   UNL A   1      46.579  30.154  27.979  1.00  0.00     0.074 A 
ATOM     68  C   UNL A   1      47.970  30.455  27.716  1.00  0.00     0.031 C 
ATOM     69  C   UNL A   1      45.681  31.043  28.475  1.00  0.00     0.037 A 
BRANCH  56  70
ATOM     70  C   UNL A   1      39.968  28.755  29.142  1.00  0.00     0.064 A 
ATOM     71  C   UNL A   1      39.491  28.522  30.442  1.00  0.00     0.173 A 
ATOM     72  C   UNL A   1      39.057  29.240  28.192  1.00  0.00     0.173 A 
ATOM     73  F   UNL A   1      40.314  28.050  31.391  1.00  0.00    -0.203 F 
ATOM     74  C   UNL A   1      38.149  28.715  30.761  1.00  0.00     0.198 A 
ATOM     75  C   UNL A   1      37.726  29.475  28.526  1.00  0.00     0.198 A 
ATOM     76  F   UNL A   1      39.457  29.491  26.936  1.00  0.00    -0.203 F 
ATOM     77  F   UNL A   1      37.703  28.413  31.988  1.00  0.00    -0.200 F 
ATOM     78  C   UNL A   1      37.269  29.199  29.805  1.00  0.00     0.200 A 
ATOM     79  F   UNL A   1      36.882  29.961  27.604  1.00  0.00    -0.200 F 
ATOM     80  F   UNL A   1      35.979  29.388  30.113  1.00  0.00    -0.200 F 
ENDBRANCH  56  70
BRANCH  57  81
ATOM     81  C   UNL A   1      49.334  26.722  26.303  1.00  0.00     0.064 A 
ATOM     82  C   UNL A   1      49.738  26.911  24.973  1.00  0.00     0.173 A 
ATOM     83  C   UNL A   1      50.291  26.245  27.212  1.00  0.00     0.173 A 
ATOM     84  F   UNL A   1      48.857  27.347  24.061  1.00  0.00    -0.203 F 
ATOM     85  C   UNL A   1      51.037  26.614  24.565  1.00  0.00     0.198 A 
ATOM     86  C   UNL A   1      51.598  25.982  26.810  1.00  0.00     0.198 A 
ATOM     87  F   UNL A   1      49.958  26.052  28.496  1.00  0.00    -0.203 F 
ATOM     88  F   UNL A   1      51.381  26.756  23.277  1.00  0.00    -0.200 F 
ATOM     89  C   UNL A   1      51.968  26.157  25.485  1.00  0.00     0.200 A 
ATOM     90  F   UNL A   1      52.499  25.559  27.707  1.00  0.00    -0.200 F 
ATOM     91  F   UNL A   1      53.218  25.878  25.095  1.00  0.00    -0.200 F 
ENDBRANCH  57  81
BRANCH  69  92
ATOM     92  C   UNL A   1      46.187  32.417  28.818  1.00  0.00     0.064 A 
ATOM     93  C   UNL A   1      46.727  32.723  30.076  1.00  0.00     0.173 A 
ATOM     94  C   UNL A   1      46.161  33.439  27.853  1.00  0.00     0.173 A 
ATOM     95  F   UNL A   1      46.766  31.789  31.039  1.00  0.00    -0.203 F 
ATOM     96  C   UNL A   1      47.186  34.005  30.367  1.00  0.00     0.198 A 
ATOM     97  C   UNL A   1      46.660  34.707  28.134  1.00  0.00     0.198 A 
ATOM     98  F   UNL A   1      45.665  33.202  26.629  1.00  0.00    -0.203 F 
ATOM     99  F   UNL A   1      47.637  34.289  31.597  1.00  0.00    -0.200 F 
ATOM    100  C   UNL A   1      47.160  34.992  29.394  1.00  0.00     0.200 A 
ATOM    101  F   UNL A   1      46.654  35.653  27.185  1.00  0.00    -0.200 F 
ATOM    102  F   UNL A   1      47.611  36.223  29.674  1.00  0.00    -0.200 F 
ENDBRANCH  69  92
ENDBRANCH  43  44
ENDBRANCH  35  38
ENDBRANCH  33  34
ENDBRANCH  32  33
ENDBRANCH  31  32
ENDBRANCH   1  31
TORSDOF 17
ENDMDL
MODEL 2
REMARK VINA RESULT:     -12.7      1.691      4.794
REMARK SMILES N#Cc1ccc(C(=O)N2CCC(Oc3ccccc3)(C(=O)NCCCCCCNC(=O)c3ccc(-c4c5nc(c(-c6c(F)c(F)c(F)c(F)c6F)c6ccc([nH]6)c(-c6c(F)c(F)c(F)c(F)c6F)c6nc(c(-c7c(F)c(F)c(F)c(F)c7F)c7ccc4[nH]7)C=C6)C=C5)cc3)CC2)cc1
REMARK SMILES IDX 25 1 24 2 23 3 22 4 20 5 21 6 12 8 7 9 8 10 9 11 10 12 96 13
REMARK SMILES IDX 11 14 95 15 6 16 3 17 4 18 98 19 5 20 97 21 2 22 1 23 13 24
REMARK SMILES IDX 14 25 15 26 19 27 16 28 18 29 17 30 26 31 27 32 28 33 29 34
REMARK SMILES IDX 30 35 31 37 32 38 33 39 94 40 34 41 93 42 35 43 36 44 37 45
REMARK SMILES IDX 87 46 38 47 92 48 86 49 88 50 39 51 91 52 85 53 84 54 40 56
REMARK SMILES IDX 72 57 52 58 71 59 53 60 56 61 70 62 89 63 54 64 55 65 69 67
REMARK SMILES IDX 90 68 57 69 41 70 42 71 50 72 43 73 44 74 48 75 51 76 45 77
REMARK SMILES IDX 46 78 49 79 47 80 73 81 74 82 82 83 75 84 76 85 80 86 83 87
REMARK SMILES IDX 77 88 78 89 81 90 79 91 58 92 59 93 67 94 60 95 61 96 65 97
REMARK SMILES IDX 68 98 62 99 63 100 66 101 64 102
REMARK H PARENT 22 7 29 36 88 55 56 66
REMARK Flexibility Score: inf
ROOT
ATOM      1  C   UNL A   1      38.800  22.412  26.193  1.00  0.00     0.002 C 
ENDROOT
BRANCH   1   2
ATOM      2  C   UNL A   1      38.055  23.736  26.406  1.00  0.00     0.021 C 
BRANCH   2   3
ATOM      3  C   UNL A   1      36.929  23.964  25.400  1.00  0.00     0.116 C 
BRANCH   3   4
ATOM      4  N   UNL A   1      35.678  24.182  26.096  1.00  0.00    -0.353 N 
ATOM      5  C   UNL A   1      34.406  24.274  25.619  1.00  0.00     0.264 C 
ATOM      6  O   UNL A   1      33.529  24.482  26.464  1.00  0.00    -0.270 OA
ATOM      7  H   UNL A   1      35.762  24.280  27.072  1.00  0.00     0.163 HD
BRANCH   5   8
ATOM      8  C   UNL A   1      34.092  24.132  24.101  1.00  0.00     0.190 C 
ATOM      9  C   UNL A   1      32.509  20.321  23.308  1.00  0.00     0.253 C 
ATOM     10  O   UNL A   1      31.612  20.427  22.475  1.00  0.00    -0.269 OA
ATOM     11  N   UNL A   1      33.100  21.419  23.907  1.00  0.00    -0.338 N 
ATOM     12  C   UNL A   1      32.238  22.453  24.436  1.00  0.00     0.124 C 
ATOM     13  C   UNL A   1      34.545  21.606  24.017  1.00  0.00     0.124 C 
ATOM     14  C   UNL A   1      32.608  23.797  23.859  1.00  0.00     0.080 C 
ATOM     15  C   UNL A   1      34.972  22.996  23.519  1.00  0.00     0.080 C 
BRANCH   9  16
ATOM     16  C   UNL A   1      32.835  18.979  23.864  1.00  0.00     0.040 A 
ATOM     17  C   UNL A   1      33.097  16.345  24.792  1.00  0.00     0.052 A 
ATOM     18  C   UNL A   1      33.377  16.650  23.455  1.00  0.00     0.020 A 
ATOM     19  C   UNL A   1      32.696  17.358  25.667  1.00  0.00     0.020 A 
ATOM     20  C   UNL A   1      33.245  17.963  22.991  1.00  0.00     0.015 A 
ATOM     21  C   UNL A   1      32.555  18.666  25.202  1.00  0.00     0.015 A 
BRANCH  17  22
ATOM     22  C   UNL A   1      33.183  14.993  25.264  1.00  0.00     0.099 C 
ATOM     23  N   UNL A   1      33.272  13.901  25.639  1.00  0.00    -0.192 NA
ENDBRANCH  17  22
ENDBRANCH   9  16
BRANCH   8  24
ATOM     24  O   UNL A   1      34.512  25.435  23.618  1.00  0.00    -0.477 OA
BRANCH  24  25
ATOM     25  C   UNL A   1      33.605  26.451  23.593  1.00  0.00     0.120 A 
ATOM     26  C   UNL A   1      32.688  26.465  22.546  1.00  0.00     0.046 A 
ATOM     27  C   UNL A   1      33.669  27.529  24.472  1.00  0.00     0.046 A 
ATOM     28  C   UNL A   1      31.769  27.510  22.439  1.00  0.00     0.004 A 
ATOM     29  C   UNL A   1      32.733  28.559  24.387  1.00  0.00     0.004 A 
ATOM     30  C   UNL A   1      31.777  28.545  23.374  1.00  0.00     0.000 A 
ENDBRANCH  24  25
ENDBRANCH   8  24
ENDBRANCH   5   8
ENDBRANCH   3   4
ENDBRANCH   2   3
ENDBRANCH   1   2
BRANCH   1  31
ATOM     31  C   UNL A   1      38.161  21.484  25.155  1.00  0.00     0.002 C 
BRANCH  31  32
ATOM     32  C   UNL A   1      38.861  20.133  25.000  1.00  0.00     0.021 C 
BRANCH  32  33
ATOM     33  C   UNL A   1      39.469  19.604  26.293  1.00  0.00     0.116 C 
BRANCH  33  34
ATOM     34  N   UNL A   1      40.694  18.860  26.045  1.00  0.00    -0.352 N 
ATOM     35  C   UNL A   1      41.982  19.321  25.949  1.00  0.00     0.251 C 
ATOM     36  H   UNL A   1      40.583  17.888  25.931  1.00  0.00     0.163 HD
ATOM     37  O   UNL A   1      42.868  18.598  25.507  1.00  0.00    -0.269 OA
BRANCH  35  38
ATOM     38  C   UNL A   1      42.292  20.704  26.365  1.00  0.00     0.039 A 
ATOM     39  C   UNL A   1      42.389  20.997  27.725  1.00  0.00     0.014 A 
ATOM     40  C   UNL A   1      42.489  21.706  25.410  1.00  0.00     0.014 A 
ATOM     41  C   UNL A   1      42.734  22.287  28.128  1.00  0.00     0.010 A 
ATOM     42  C   UNL A   1      42.925  22.964  25.810  1.00  0.00     0.010 A 
ATOM     43  C   UNL A   1      43.038  23.273  27.173  1.00  0.00    -0.014 A 
BRANCH  43  44
ATOM     44  C   UNL A   1      43.462  24.634  27.586  1.00  0.00     0.031 A 
ATOM     45  C   UNL A   1      42.434  25.676  27.929  1.00  0.00     0.074 A 
ATOM     46  C   UNL A   1      44.772  24.948  27.605  1.00  0.00     0.049 A 
ATOM     47  N   UNL A   1      42.603  26.927  28.273  1.00  0.00    -0.248 NA
ATOM     48  C   UNL A   1      41.024  25.264  27.846  1.00  0.00     0.031 C 
ATOM     49  C   UNL A   1      45.862  24.037  27.255  1.00  0.00     0.029 A 
ATOM     50  N   UNL A   1      45.407  26.119  27.932  1.00  0.00    -0.354 N 
ATOM     51  C   UNL A   1      41.328  27.449  28.440  1.00  0.00     0.074 A 
ATOM     52  C   UNL A   1      40.394  26.403  28.088  1.00  0.00     0.031 C 
ATOM     53  C   UNL A   1      47.033  24.671  27.423  1.00  0.00     0.029 A 
ATOM     54  C   UNL A   1      46.776  26.045  27.840  1.00  0.00     0.049 A 
ATOM     55  H   UNL A   1      44.928  26.934  28.205  1.00  0.00     0.167 HD
ATOM     56  C   UNL A   1      40.967  28.681  28.875  1.00  0.00     0.037 A 
ATOM     57  C   UNL A   1      47.716  26.984  28.061  1.00  0.00     0.037 A 
ATOM     58  C   UNL A   1      41.903  29.719  29.223  1.00  0.00     0.049 A 
ATOM     59  C   UNL A   1      47.290  28.359  28.498  1.00  0.00     0.074 A 
ATOM     60  C   UNL A   1      41.644  30.986  29.713  1.00  0.00     0.029 A 
ATOM     61  N   UNL A   1      43.282  29.612  29.102  1.00  0.00    -0.354 N 
ATOM     62  N   UNL A   1      46.083  28.822  28.719  1.00  0.00    -0.248 NA
ATOM     63  C   UNL A   1      48.359  29.341  28.723  1.00  0.00     0.031 C 
ATOM     64  C   UNL A   1      42.858  31.672  29.817  1.00  0.00     0.029 A 
ATOM     65  C   UNL A   1      43.884  30.804  29.475  1.00  0.00     0.049 A 
ATOM     66  H   UNL A   1      43.762  28.808  28.798  1.00  0.00     0.167 HD
ATOM     67  C   UNL A   1      46.250  30.135  29.144  1.00  0.00     0.074 A 
ATOM     68  C   UNL A   1      47.675  30.387  29.161  1.00  0.00     0.031 C 
ATOM     69  C   UNL A   1      45.306  31.045  29.493  1.00  0.00     0.037 A 
BRANCH  56  70
ATOM     70  C   UNL A   1      39.495  28.974  28.979  1.00  0.00     0.064 A 
ATOM     71  C   UNL A   1      38.740  29.386  27.868  1.00  0.00     0.173 A 
ATOM     72  C   UNL A   1      38.825  28.830  30.203  1.00  0.00     0.173 A 
ATOM     73  F   UNL A   1      39.328  29.549  26.673  1.00  0.00    -0.203 F 
ATOM     74  C   UNL A   1      37.387  29.692  27.991  1.00  0.00     0.198 A 
ATOM     75  C   UNL A   1      37.462  29.094  30.313  1.00  0.00     0.198 A 
ATOM     76  F   UNL A   1      39.491  28.430  31.297  1.00  0.00    -0.203 F 
ATOM     77  F   UNL A   1      36.707  30.155  26.934  1.00  0.00    -0.200 F 
ATOM     78  C   UNL A   1      36.747  29.539  29.212  1.00  0.00     0.200 A 
ATOM     79  F   UNL A   1      36.842  28.926  31.490  1.00  0.00    -0.200 F 
ATOM     80  F   UNL A   1      35.444  29.830  29.330  1.00  0.00    -0.200 F 
ENDBRANCH  56  70
BRANCH  57  81
ATOM     81  C   UNL A   1      49.155  26.643  27.899  1.00  0.00     0.064 A 
ATOM     82  C   UNL A   1      49.744  26.591  26.627  1.00  0.00     0.173 A 
ATOM     83  C   UNL A   1      49.970  26.363  29.006  1.00  0.00     0.173 A 
ATOM     84  F   UNL A   1      49.003  26.832  25.536  1.00  0.00    -0.203 F 
ATOM     85  C   UNL A   1      51.086  26.251  26.467  1.00  0.00     0.198 A 
ATOM     86  C   UNL A   1      51.320  26.058  28.847  1.00  0.00     0.198 A 
ATOM     87  F   UNL A   1      49.459  26.405  30.244  1.00  0.00    -0.203 F 
ATOM     88  F   UNL A   1      51.610  26.159  25.237  1.00  0.00    -0.200 F 
ATOM     89  C   UNL A   1      51.874  25.992  27.578  1.00  0.00     0.200 A 
ATOM     90  F   UNL A   1      52.083  25.827  29.925  1.00  0.00    -0.200 F 
ATOM     91  F   UNL A   1      53.166  25.672  27.426  1.00  0.00    -0.200 F 
ENDBRANCH  57  81
BRANCH  69  92
ATOM     92  C   UNL A   1      45.784  32.388  29.974  1.00  0.00     0.064 A 
ATOM     93  C   UNL A   1      45.955  33.475  29.105  1.00  0.00     0.173 A 
ATOM     94  C   UNL A   1      46.042  32.596  31.339  1.00  0.00     0.173 A 
ATOM     95  F   UNL A   1      45.735  33.330  27.789  1.00  0.00    -0.203 F 
ATOM     96  C   UNL A   1      46.402  34.707  29.577  1.00  0.00     0.198 A 
ATOM     97  C   UNL A   1      46.447  33.840  31.814  1.00  0.00     0.198 A 
ATOM     98  F   UNL A   1      45.886  31.595  32.219  1.00  0.00    -0.203 F 
ATOM     99  F   UNL A   1      46.621  35.712  28.718  1.00  0.00    -0.200 F 
ATOM    100  C   UNL A   1      46.639  34.890  30.931  1.00  0.00     0.200 A 
ATOM    101  F   UNL A   1      46.654  34.020  33.126  1.00  0.00    -0.200 F 
ATOM    102  F   UNL A   1      47.060  36.080  31.385  1.00  0.00    -0.200 F 
ENDBRANCH  69  92
ENDBRANCH  43  44
ENDBRANCH  35  38
ENDBRANCH  33  34
ENDBRANCH  32  33
ENDBRANCH  31  32
ENDBRANCH   1  31
TORSDOF 17
ENDMDL
MODEL 3
REMARK VINA RESULT:     -12.7      1.863      7.426
REMARK SMILES N#Cc1ccc(C(=O)N2CCC(Oc3ccccc3)(C(=O)NCCCCCCNC(=O)c3ccc(-c4c5nc(c(-c6c(F)c(F)c(F)c(F)c6F)c6ccc([nH]6)c(-c6c(F)c(F)c(F)c(F)c6F)c6nc(c(-c7c(F)c(F)c(F)c(F)c7F)c7ccc4[nH]7)C=C6)C=C5)cc3)CC2)cc1
REMARK SMILES IDX 25 1 24 2 23 3 22 4 20 5 21 6 12 8 7 9 8 10 9 11 10 12 96 13
REMARK SMILES IDX 11 14 95 15 6 16 3 17 4 18 98 19 5 20 97 21 2 22 1 23 13 24
REMARK SMILES IDX 14 25 15 26 19 27 16 28 18 29 17 30 26 31 27 32 28 33 29 34
REMARK SMILES IDX 30 35 31 37 32 38 33 39 94 40 34 41 93 42 35 43 36 44 37 45
REMARK SMILES IDX 87 46 38 47 92 48 86 49 88 50 39 51 91 52 85 53 84 54 40 56
REMARK SMILES IDX 72 57 52 58 71 59 53 60 56 61 70 62 89 63 54 64 55 65 69 67
REMARK SMILES IDX 90 68 57 69 41 70 42 71 50 72 43 73 44 74 48 75 51 76 45 77
REMARK SMILES IDX 46 78 49 79 47 80 73 81 74 82 82 83 75 84 76 85 80 86 83 87
REMARK SMILES IDX 77 88 78 89 81 90 79 91 58 92 59 93 67 94 60 95 61 96 65 97
REMARK SMILES IDX 68 98 62 99 63 100 66 101 64 102
REMARK H PARENT 22 7 29 36 88 55 56 66
REMARK Flexibility Score: inf
ROOT
ATOM      1  C   UNL A   1      40.704  22.081  26.357  1.00  0.00     0.002 C 
ENDROOT
BRANCH   1   2
ATOM      2  C   UNL A   1      39.330  22.751  26.480  1.00  0.00     0.021 C 
BRANCH   2   3
ATOM      3  C   UNL A   1      38.192  21.906  25.912  1.00  0.00     0.116 C 
BRANCH   3   4
ATOM      4  N   UNL A   1      37.780  22.428  24.626  1.00  0.00    -0.353 N 
ATOM      5  C   UNL A   1      36.556  22.445  24.030  1.00  0.00     0.264 C 
ATOM      6  O   UNL A   1      36.512  22.953  22.905  1.00  0.00    -0.270 OA
ATOM      7  H   UNL A   1      38.503  22.837  24.097  1.00  0.00     0.163 HD
BRANCH   5   8
ATOM      8  C   UNL A   1      35.300  21.850  24.731  1.00  0.00     0.190 C 
ATOM      9  C   UNL A   1      32.431  24.858  25.346  1.00  0.00     0.253 C 
ATOM     10  O   UNL A   1      31.314  24.394  25.134  1.00  0.00    -0.269 OA
ATOM     11  N   UNL A   1      33.593  24.165  25.053  1.00  0.00    -0.338 N 
ATOM     12  C   UNL A   1      33.704  23.542  23.752  1.00  0.00     0.124 C 
ATOM     13  C   UNL A   1      34.704  24.008  25.988  1.00  0.00     0.124 C 
ATOM     14  C   UNL A   1      34.026  22.074  23.896  1.00  0.00     0.080 C 
ATOM     15  C   UNL A   1      35.132  22.536  26.111  1.00  0.00     0.080 C 
BRANCH   9  16
ATOM     16  C   UNL A   1      32.567  26.291  25.727  1.00  0.00     0.040 A 
ATOM     17  C   UNL A   1      33.104  28.872  26.686  1.00  0.00     0.052 A 
ATOM     18  C   UNL A   1      33.874  28.334  25.648  1.00  0.00     0.020 A 
ATOM     19  C   UNL A   1      32.061  28.124  27.238  1.00  0.00     0.020 A 
ATOM     20  C   UNL A   1      33.608  27.046  25.170  1.00  0.00     0.015 A 
ATOM     21  C   UNL A   1      31.802  26.835  26.767  1.00  0.00     0.015 A 
BRANCH  17  22
ATOM     22  C   UNL A   1      33.401  30.172  27.215  1.00  0.00     0.099 C 
ATOM     23  N   UNL A   1      33.654  31.225  27.626  1.00  0.00    -0.192 NA
ENDBRANCH  17  22
ENDBRANCH   9  16
BRANCH   8  24
ATOM     24  O   UNL A   1      35.703  20.462  24.870  1.00  0.00    -0.477 OA
BRANCH  24  25
ATOM     25  C   UNL A   1      34.743  19.497  24.892  1.00  0.00     0.120 A 
ATOM     26  C   UNL A   1      35.028  18.294  24.251  1.00  0.00     0.046 A 
ATOM     27  C   UNL A   1      33.462  19.730  25.389  1.00  0.00     0.046 A 
ATOM     28  C   UNL A   1      34.062  17.288  24.196  1.00  0.00     0.004 A 
ATOM     29  C   UNL A   1      32.506  18.716  25.363  1.00  0.00     0.004 A 
ATOM     30  C   UNL A   1      32.808  17.492  24.773  1.00  0.00     0.000 A 
ENDBRANCH  24  25
ENDBRANCH   8  24
ENDBRANCH   5   8
ENDBRANCH   3   4
ENDBRANCH   2   3
ENDBRANCH   1   2
BRANCH   1  31
ATOM     31  C   UNL A   1      40.810  20.717  27.049  1.00  0.00     0.002 C 
BRANCH  31  32
ATOM     32  C   UNL A   1      41.222  19.571  26.126  1.00  0.00     0.021 C 
BRANCH  32  33
ATOM     33  C   UNL A   1      42.524  18.892  26.533  1.00  0.00     0.116 C 
BRANCH  33  34
ATOM     34  N   UNL A   1      43.395  18.671  25.389  1.00  0.00    -0.352 N 
ATOM     35  C   UNL A   1      44.064  19.590  24.621  1.00  0.00     0.251 C 
ATOM     36  H   UNL A   1      43.523  17.730  25.130  1.00  0.00     0.163 HD
ATOM     37  O   UNL A   1      44.568  19.256  23.554  1.00  0.00    -0.269 OA
BRANCH  35  38
ATOM     38  C   UNL A   1      44.157  20.991  25.079  1.00  0.00     0.039 A 
ATOM     39  C   UNL A   1      44.632  21.253  26.364  1.00  0.00     0.014 A 
ATOM     40  C   UNL A   1      43.779  22.041  24.238  1.00  0.00     0.014 A 
ATOM     41  C   UNL A   1      44.774  22.574  26.788  1.00  0.00     0.010 A 
ATOM     42  C   UNL A   1      44.011  23.355  24.626  1.00  0.00     0.010 A 
ATOM     43  C   UNL A   1      44.497  23.638  25.911  1.00  0.00    -0.014 A 
BRANCH  43  44
ATOM     44  C   UNL A   1      44.698  25.047  26.327  1.00  0.00     0.031 A 
ATOM     45  C   UNL A   1      46.059  25.679  26.225  1.00  0.00     0.074 A 
ATOM     46  C   UNL A   1      43.668  25.745  26.842  1.00  0.00     0.049 A 
ATOM     47  N   UNL A   1      46.444  26.882  26.572  1.00  0.00    -0.248 NA
ATOM     48  C   UNL A   1      47.139  24.838  25.686  1.00  0.00     0.031 C 
ATOM     49  C   UNL A   1      42.311  25.230  27.030  1.00  0.00     0.029 A 
ATOM     50  N   UNL A   1      43.602  27.035  27.304  1.00  0.00    -0.354 N 
ATOM     51  C   UNL A   1      47.804  26.936  26.301  1.00  0.00     0.074 A 
ATOM     52  C   UNL A   1      48.194  25.625  25.831  1.00  0.00     0.031 C 
ATOM     53  C   UNL A   1      41.538  26.206  27.531  1.00  0.00     0.029 A 
ATOM     54  C   UNL A   1      42.354  27.396  27.748  1.00  0.00     0.049 A 
ATOM     55  H   UNL A   1      44.376  27.644  27.316  1.00  0.00     0.167 HD
ATOM     56  C   UNL A   1      48.647  27.992  26.407  1.00  0.00     0.037 A 
ATOM     57  C   UNL A   1      41.919  28.555  28.279  1.00  0.00     0.037 A 
ATOM     58  C   UNL A   1      48.252  29.295  26.876  1.00  0.00     0.049 A 
ATOM     59  C   UNL A   1      42.884  29.699  28.431  1.00  0.00     0.074 A 
ATOM     60  C   UNL A   1      49.017  30.442  26.983  1.00  0.00     0.029 A 
ATOM     61  N   UNL A   1      46.981  29.618  27.333  1.00  0.00    -0.354 N 
ATOM     62  N   UNL A   1      44.154  29.762  28.109  1.00  0.00    -0.248 NA
ATOM     63  C   UNL A   1      42.354  30.937  29.017  1.00  0.00     0.031 C 
ATOM     64  C   UNL A   1      48.232  31.437  27.573  1.00  0.00     0.029 A 
ATOM     65  C   UNL A   1      46.952  30.938  27.756  1.00  0.00     0.049 A 
ATOM     66  H   UNL A   1      46.214  29.001  27.353  1.00  0.00     0.167 HD
ATOM     67  C   UNL A   1      44.563  31.054  28.416  1.00  0.00     0.074 A 
ATOM     68  C   UNL A   1      43.402  31.743  28.939  1.00  0.00     0.031 C 
ATOM     69  C   UNL A   1      45.789  31.618  28.272  1.00  0.00     0.037 A 
BRANCH  56  70
ATOM     70  C   UNL A   1      50.085  27.769  26.023  1.00  0.00     0.064 A 
ATOM     71  C   UNL A   1      51.089  27.580  26.987  1.00  0.00     0.173 A 
ATOM     72  C   UNL A   1      50.465  27.733  24.673  1.00  0.00     0.173 A 
ATOM     73  F   UNL A   1      50.787  27.613  28.294  1.00  0.00    -0.203 F 
ATOM     74  C   UNL A   1      52.422  27.416  26.616  1.00  0.00     0.198 A 
ATOM     75  C   UNL A   1      51.791  27.524  24.304  1.00  0.00     0.198 A 
ATOM     76  F   UNL A   1      49.548  27.897  23.707  1.00  0.00    -0.203 F 
ATOM     77  F   UNL A   1      53.370  27.314  27.557  1.00  0.00    -0.200 F 
ATOM     78  C   UNL A   1      52.770  27.381  25.275  1.00  0.00     0.200 A 
ATOM     79  F   UNL A   1      52.123  27.471  23.006  1.00  0.00    -0.200 F 
ATOM     80  F   UNL A   1      54.052  27.220  24.917  1.00  0.00    -0.200 F 
ENDBRANCH  56  70
BRANCH  57  81
ATOM     81  C   UNL A   1      40.493  28.698  28.679  1.00  0.00     0.064 A 
ATOM     82  C   UNL A   1      40.081  28.416  29.990  1.00  0.00     0.173 A 
ATOM     83  C   UNL A   1      39.515  29.117  27.765  1.00  0.00     0.173 A 
ATOM     84  F   UNL A   1      40.974  27.994  30.896  1.00  0.00    -0.203 F 
ATOM     85  C   UNL A   1      38.743  28.527  30.364  1.00  0.00     0.198 A 
ATOM     86  C   UNL A   1      38.184  29.260  28.150  1.00  0.00     0.198 A 
ATOM     87  F   UNL A   1      39.857  29.405  26.501  1.00  0.00    -0.203 F 
ATOM     88  F   UNL A   1      38.369  28.202  31.609  1.00  0.00    -0.200 F 
ATOM     89  C   UNL A   1      37.798  28.956  29.446  1.00  0.00     0.200 A 
ATOM     90  F   UNL A   1      37.277  29.695  27.264  1.00  0.00    -0.200 F 
ATOM     91  F   UNL A   1      36.513  29.069  29.807  1.00  0.00    -0.200 F 
ENDBRANCH  57  81
BRANCH  69  92
ATOM     92  C   UNL A   1      45.930  33.070  28.638  1.00  0.00     0.064 A 
ATOM     93  C   UNL A   1      45.733  34.098  27.704  1.00  0.00     0.173 A 
ATOM     94  C   UNL A   1      46.233  33.438  29.959  1.00  0.00     0.173 A 
ATOM     95  F   UNL A   1      45.453  33.804  26.425  1.00  0.00    -0.203 F 
ATOM     96  C   UNL A   1      45.873  35.434  28.069  1.00  0.00     0.198 A 
ATOM     97  C   UNL A   1      46.329  34.775  30.330  1.00  0.00     0.198 A 
ATOM     98  F   UNL A   1      46.422  32.497  30.898  1.00  0.00    -0.203 F 
ATOM     99  F   UNL A   1      45.744  36.396  27.144  1.00  0.00    -0.200 F 
ATOM    100  C   UNL A   1      46.162  35.772  29.382  1.00  0.00     0.200 A 
ATOM    101  F   UNL A   1      46.587  35.099  31.605  1.00  0.00    -0.200 F 
ATOM    102  F   UNL A   1      46.285  37.060  29.734  1.00  0.00    -0.200 F 
ENDBRANCH  69  92
ENDBRANCH  43  44
ENDBRANCH  35  38
ENDBRANCH  33  34
ENDBRANCH  32  33
ENDBRANCH  31  32
ENDBRANCH   1  31
TORSDOF 17
ENDMDL
