MODEL 1
REMARK VINA RESULT:     -12.7      0.000      0.000
REMARK SMILES Cc1ccccc1-c1nc(CC(=O)NCCCCCCNC(=O)c2ccc(-c3c4nc(c(-c5c(F)c(F)c(F)c(F)c5F)c5ccc([nH]5)c(-c5c(F)c(F)c(F)c(F)c5F)c5nc(c(-c6c(F)c(F)c(F)c(F)c6F)c6ccc3[nH]6)C=C5)C=C4)cc2)cs1
REMARK SMILES IDX 17 1 16 2 15 3 14 4 12 5 13 6 11 8 10 9 8 10 9 11 88 12
REMARK SMILES IDX 87 13 7 14 1 15 2 16 3 17 4 18 6 19 5 20 18 21 19 22 20 23
REMARK SMILES IDX 21 24 22 25 23 27 24 28 25 29 86 30 26 31 85 32 27 33 28 34
REMARK SMILES IDX 29 35 79 36 30 37 84 38 78 39 80 40 31 41 83 42 77 43 76 44
REMARK SMILES IDX 32 46 64 47 44 48 63 49 45 50 48 51 62 52 81 53 46 54 47 55
REMARK SMILES IDX 61 57 82 58 49 59 33 60 34 61 42 62 35 63 36 64 40 65 43 66
REMARK SMILES IDX 37 67 38 68 41 69 39 70 65 71 66 72 74 73 67 74 68 75 72 76
REMARK SMILES IDX 75 77 69 78 70 79 73 80 71 81 50 82 51 83 59 84 52 85 53 86
REMARK SMILES IDX 57 87 60 88 54 89 55 90 58 91 56 92
REMARK H PARENT 14 7 21 26 80 45 48 56
REMARK Flexibility Score: inf
ROOT
ATOM      1  C   UNL A   1      36.326  23.839  24.375  1.00  0.00     0.002 C 
ENDROOT
BRANCH   1   2
ATOM      2  C   UNL A   1      34.921  24.053  24.960  1.00  0.00     0.021 C 
BRANCH   2   3
ATOM      3  C   UNL A   1      34.179  25.287  24.440  1.00  0.00     0.116 C 
BRANCH   3   4
ATOM      4  N   UNL A   1      34.169  25.338  22.990  1.00  0.00    -0.356 N 
ATOM      5  C   UNL A   1      33.132  25.104  22.134  1.00  0.00     0.226 C 
ATOM      6  O   UNL A   1      33.353  25.137  20.922  1.00  0.00    -0.275 OA
ATOM      7  H   UNL A   1      35.025  25.574  22.567  1.00  0.00     0.163 HD
BRANCH   5   8
ATOM      8  C   UNL A   1      31.736  24.852  22.670  1.00  0.00     0.157 C 
BRANCH   8   9
ATOM      9  C   UNL A   1      31.672  23.652  23.556  1.00  0.00     0.061 A 
ATOM     10  C   UNL A   1      32.117  21.520  24.002  1.00  0.00     0.123 A 
ATOM     11  N   UNL A   1      32.290  22.486  23.125  1.00  0.00    -0.241 NA
ATOM     12  S   UNL A   1      31.230  21.965  25.408  1.00  0.00    -0.122 S 
ATOM     13  C   UNL A   1      31.057  23.554  24.789  1.00  0.00     0.091 A 
BRANCH  10  14
ATOM     14  C   UNL A   1      32.631  20.154  23.842  1.00  0.00     0.013 A 
ATOM     15  C   UNL A   1      34.339  20.455  25.735  1.00  0.00     0.045 C 
ATOM     16  C   UNL A   1      33.680  19.654  24.643  1.00  0.00    -0.041 A 
ATOM     17  C   UNL A   1      34.169  18.357  24.403  1.00  0.00     0.004 A 
ATOM     18  C   UNL A   1      33.625  17.558  23.398  1.00  0.00     0.000 A 
ATOM     19  C   UNL A   1      32.096  19.333  22.830  1.00  0.00     0.011 A 
ATOM     20  C   UNL A   1      32.588  18.045  22.612  1.00  0.00     0.001 A 
ENDBRANCH  10  14
ENDBRANCH   8   9
ENDBRANCH   5   8
ENDBRANCH   3   4
ENDBRANCH   2   3
ENDBRANCH   1   2
BRANCH   1  21
ATOM     21  C   UNL A   1      36.659  22.421  23.884  1.00  0.00     0.002 C 
BRANCH  21  22
ATOM     22  C   UNL A   1      37.697  21.652  24.705  1.00  0.00     0.021 C 
BRANCH  22  23
ATOM     23  C   UNL A   1      38.168  22.375  25.960  1.00  0.00     0.116 C 
BRANCH  23  24
ATOM     24  N   UNL A   1      39.603  22.290  26.187  1.00  0.00    -0.352 N 
ATOM     25  C   UNL A   1      40.519  23.284  26.509  1.00  0.00     0.251 C 
ATOM     26  H   UNL A   1      39.985  21.387  26.099  1.00  0.00     0.163 HD
ATOM     27  O   UNL A   1      41.698  23.021  26.600  1.00  0.00    -0.269 OA
BRANCH  25  28
ATOM     28  C   UNL A   1      40.027  24.638  26.877  1.00  0.00     0.039 A 
ATOM     29  C   UNL A   1      40.478  25.722  26.110  1.00  0.00     0.014 A 
ATOM     30  C   UNL A   1      39.306  24.864  28.044  1.00  0.00     0.014 A 
ATOM     31  C   UNL A   1      40.433  27.007  26.646  1.00  0.00     0.010 A 
ATOM     32  C   UNL A   1      39.346  26.119  28.620  1.00  0.00     0.010 A 
ATOM     33  C   UNL A   1      39.984  27.170  27.954  1.00  0.00    -0.014 A 
BRANCH  33  34
ATOM     34  C   UNL A   1      40.300  28.337  28.769  1.00  0.00     0.031 A 
ATOM     35  C   UNL A   1      39.333  29.439  28.938  1.00  0.00     0.074 A 
ATOM     36  C   UNL A   1      41.442  28.319  29.494  1.00  0.00     0.049 A 
ATOM     37  N   UNL A   1      39.643  30.596  29.421  1.00  0.00    -0.248 NA
ATOM     38  C   UNL A   1      37.943  29.362  28.501  1.00  0.00     0.031 C 
ATOM     39  C   UNL A   1      41.781  29.161  30.638  1.00  0.00     0.029 A 
ATOM     40  N   UNL A   1      42.637  27.637  29.198  1.00  0.00    -0.354 N 
ATOM     41  C   UNL A   1      38.473  31.275  29.660  1.00  0.00     0.074 A 
ATOM     42  C   UNL A   1      37.475  30.540  28.927  1.00  0.00     0.031 C 
ATOM     43  C   UNL A   1      43.115  29.187  30.779  1.00  0.00     0.029 A 
ATOM     44  C   UNL A   1      43.674  28.496  29.631  1.00  0.00     0.049 A 
ATOM     45  H   UNL A   1      42.731  26.752  28.778  1.00  0.00     0.167 HD
ATOM     46  C   UNL A   1      38.486  32.280  30.583  1.00  0.00     0.037 A 
ATOM     47  C   UNL A   1      44.563  29.047  28.753  1.00  0.00     0.037 A 
ATOM     48  C   UNL A   1      39.862  32.670  30.908  1.00  0.00     0.049 A 
ATOM     49  C   UNL A   1      44.596  30.557  28.768  1.00  0.00     0.074 A 
ATOM     50  C   UNL A   1      40.665  32.502  32.023  1.00  0.00     0.029 A 
ATOM     51  N   UNL A   1      40.694  33.134  29.890  1.00  0.00    -0.354 N 
ATOM     52  N   UNL A   1      43.640  31.298  29.252  1.00  0.00    -0.248 NA
ATOM     53  C   UNL A   1      45.685  31.349  28.202  1.00  0.00     0.031 C 
ATOM     54  C   UNL A   1      42.001  32.799  31.648  1.00  0.00     0.029 A 
ATOM     55  C   UNL A   1      42.006  33.182  30.317  1.00  0.00     0.049 A 
ATOM     56  H   UNL A   1      40.389  33.392  28.991  1.00  0.00     0.167 HD
ATOM     57  C   UNL A   1      43.939  32.621  29.052  1.00  0.00     0.074 A 
ATOM     58  C   UNL A   1      45.241  32.600  28.413  1.00  0.00     0.031 C 
ATOM     59  C   UNL A   1      43.071  33.610  29.418  1.00  0.00     0.037 A 
BRANCH  46  60
ATOM     60  C   UNL A   1      37.285  32.773  31.383  1.00  0.00     0.064 A 
ATOM     61  C   UNL A   1      36.291  33.561  30.753  1.00  0.00     0.173 A 
ATOM     62  C   UNL A   1      37.110  32.639  32.777  1.00  0.00     0.173 A 
ATOM     63  F   UNL A   1      36.295  33.761  29.429  1.00  0.00    -0.203 F 
ATOM     64  C   UNL A   1      35.262  34.197  31.462  1.00  0.00     0.198 A 
ATOM     65  C   UNL A   1      36.058  33.240  33.479  1.00  0.00     0.198 A 
ATOM     66  F   UNL A   1      37.961  31.962  33.550  1.00  0.00    -0.203 F 
ATOM     67  F   UNL A   1      34.393  34.984  30.812  1.00  0.00    -0.200 F 
ATOM     68  C   UNL A   1      35.145  34.036  32.825  1.00  0.00     0.200 A 
ATOM     69  F   UNL A   1      35.963  33.061  34.804  1.00  0.00    -0.200 F 
ATOM     70  F   UNL A   1      34.170  34.649  33.509  1.00  0.00    -0.200 F 
ENDBRANCH  46  60
BRANCH  47  71
ATOM     71  C   UNL A   1      44.806  28.205  27.555  1.00  0.00     0.064 A 
ATOM     72  C   UNL A   1      45.639  27.078  27.687  1.00  0.00     0.173 A 
ATOM     73  C   UNL A   1      43.965  28.262  26.439  1.00  0.00     0.173 A 
ATOM     74  F   UNL A   1      46.462  26.973  28.744  1.00  0.00    -0.203 F 
ATOM     75  C   UNL A   1      45.550  26.004  26.804  1.00  0.00     0.198 A 
ATOM     76  C   UNL A   1      43.887  27.187  25.549  1.00  0.00     0.198 A 
ATOM     77  F   UNL A   1      43.132  29.299  26.269  1.00  0.00    -0.203 F 
ATOM     78  F   UNL A   1      46.279  24.899  27.020  1.00  0.00    -0.200 F 
ATOM     79  C   UNL A   1      44.654  26.049  25.751  1.00  0.00     0.200 A 
ATOM     80  F   UNL A   1      42.995  27.217  24.548  1.00  0.00    -0.200 F 
ATOM     81  F   UNL A   1      44.496  24.981  24.957  1.00  0.00    -0.200 F 
ENDBRANCH  47  71
BRANCH  59  82
ATOM     82  C   UNL A   1      43.168  35.072  29.042  1.00  0.00     0.064 A 
ATOM     83  C   UNL A   1      42.823  35.590  27.782  1.00  0.00     0.173 A 
ATOM     84  C   UNL A   1      43.489  36.041  30.025  1.00  0.00     0.173 A 
ATOM     85  F   UNL A   1      42.377  34.798  26.798  1.00  0.00    -0.203 F 
ATOM     86  C   UNL A   1      42.861  36.963  27.507  1.00  0.00     0.198 A 
ATOM     87  C   UNL A   1      43.470  37.411  29.764  1.00  0.00     0.198 A 
ATOM     88  F   UNL A   1      43.806  35.689  31.279  1.00  0.00    -0.203 F 
ATOM     89  F   UNL A   1      42.562  37.400  26.275  1.00  0.00    -0.200 F 
ATOM     90  C   UNL A   1      43.173  37.871  28.499  1.00  0.00     0.200 A 
ATOM     91  F   UNL A   1      43.720  38.281  30.752  1.00  0.00    -0.200 F 
ATOM     92  F   UNL A   1      43.162  39.187  28.244  1.00  0.00    -0.200 F 
ENDBRANCH  59  82
ENDBRANCH  33  34
ENDBRANCH  25  28
ENDBRANCH  23  24
ENDBRANCH  22  23
ENDBRANCH  21  22
ENDBRANCH   1  21
TORSDOF 15
ENDMDL
MODEL 2
REMARK VINA RESULT:     -12.7      1.798      3.502
REMARK SMILES Cc1ccccc1-c1nc(CC(=O)NCCCCCCNC(=O)c2ccc(-c3c4nc(c(-c5c(F)c(F)c(F)c(F)c5F)c5ccc([nH]5)c(-c5c(F)c(F)c(F)c(F)c5F)c5nc(c(-c6c(F)c(F)c(F)c(F)c6F)c6ccc3[nH]6)C=C5)C=C4)cc2)cs1
REMARK SMILES IDX 17 1 16 2 15 3 14 4 12 5 13 6 11 8 10 9 8 10 9 11 88 12
REMARK SMILES IDX 87 13 7 14 1 15 2 16 3 17 4 18 6 19 5 20 18 21 19 22 20 23
REMARK SMILES IDX 21 24 22 25 23 27 24 28 25 29 86 30 26 31 85 32 27 33 28 34
REMARK SMILES IDX 29 35 79 36 30 37 84 38 78 39 80 40 31 41 83 42 77 43 76 44
REMARK SMILES IDX 32 46 64 47 44 48 63 49 45 50 48 51 62 52 81 53 46 54 47 55
REMARK SMILES IDX 61 57 82 58 49 59 33 60 34 61 42 62 35 63 36 64 40 65 43 66
REMARK SMILES IDX 37 67 38 68 41 69 39 70 65 71 66 72 74 73 67 74 68 75 72 76
REMARK SMILES IDX 75 77 69 78 70 79 73 80 71 81 50 82 51 83 59 84 52 85 53 86
REMARK SMILES IDX 57 87 60 88 54 89 55 90 58 91 56 92
REMARK H PARENT 14 7 21 26 80 45 48 56
REMARK Flexibility Score: inf
ROOT
ATOM      1  C   UNL A   1      35.243  20.565  25.351  1.00  0.00     0.002 C 
ENDROOT
BRANCH   1   2
ATOM      2  C   UNL A   1      33.834  21.148  25.544  1.00  0.00     0.021 C 
BRANCH   2   3
ATOM      3  C   UNL A   1      33.778  22.483  26.292  1.00  0.00     0.116 C 
BRANCH   3   4
ATOM      4  N   UNL A   1      32.545  22.629  27.043  1.00  0.00    -0.356 N 
ATOM      5  C   UNL A   1      31.333  23.087  26.614  1.00  0.00     0.226 C 
ATOM      6  O   UNL A   1      30.422  23.194  27.438  1.00  0.00    -0.275 OA
ATOM      7  H   UNL A   1      32.590  22.361  27.989  1.00  0.00     0.163 HD
BRANCH   5   8
ATOM      8  C   UNL A   1      31.110  23.413  25.150  1.00  0.00     0.157 C 
BRANCH   8   9
ATOM      9  C   UNL A   1      31.825  24.651  24.725  1.00  0.00     0.061 A 
ATOM     10  C   UNL A   1      32.505  26.740  25.076  1.00  0.00     0.123 A 
ATOM     11  N   UNL A   1      31.868  25.719  25.611  1.00  0.00    -0.241 NA
ATOM     12  S   UNL A   1      33.118  26.463  23.492  1.00  0.00    -0.122 S 
ATOM     13  C   UNL A   1      32.471  24.876  23.525  1.00  0.00     0.091 A 
BRANCH  10  14
ATOM     14  C   UNL A   1      32.712  28.031  25.744  1.00  0.00     0.013 A 
ATOM     15  C   UNL A   1      30.875  29.168  24.357  1.00  0.00     0.045 C 
ATOM     16  C   UNL A   1      31.959  29.175  25.402  1.00  0.00    -0.041 A 
ATOM     17  C   UNL A   1      32.245  30.398  26.035  1.00  0.00     0.004 A 
ATOM     18  C   UNL A   1      33.247  30.492  27.001  1.00  0.00     0.000 A 
ATOM     19  C   UNL A   1      33.722  28.145  26.719  1.00  0.00     0.011 A 
ATOM     20  C   UNL A   1      33.984  29.366  27.344  1.00  0.00     0.001 A 
ENDBRANCH  10  14
ENDBRANCH   8   9
ENDBRANCH   5   8
ENDBRANCH   3   4
ENDBRANCH   2   3
ENDBRANCH   1   2
BRANCH   1  21
ATOM     21  C   UNL A   1      36.270  21.466  24.644  1.00  0.00     0.002 C 
BRANCH  21  22
ATOM     22  C   UNL A   1      37.716  21.346  25.129  1.00  0.00     0.021 C 
BRANCH  22  23
ATOM     23  C   UNL A   1      38.254  22.595  25.816  1.00  0.00     0.116 C 
BRANCH  23  24
ATOM     24  N   UNL A   1      39.652  22.496  26.208  1.00  0.00    -0.352 N 
ATOM     25  C   UNL A   1      40.538  23.483  26.622  1.00  0.00     0.251 C 
ATOM     26  H   UNL A   1      40.030  21.588  26.175  1.00  0.00     0.163 HD
ATOM     27  O   UNL A   1      41.695  23.208  26.852  1.00  0.00    -0.269 OA
BRANCH  25  28
ATOM     28  C   UNL A   1      40.024  24.848  26.915  1.00  0.00     0.039 A 
ATOM     29  C   UNL A   1      40.558  25.914  26.178  1.00  0.00     0.014 A 
ATOM     30  C   UNL A   1      39.194  25.101  28.002  1.00  0.00     0.014 A 
ATOM     31  C   UNL A   1      40.473  27.209  26.684  1.00  0.00     0.010 A 
ATOM     32  C   UNL A   1      39.189  26.366  28.557  1.00  0.00     0.010 A 
ATOM     33  C   UNL A   1      39.898  27.400  27.938  1.00  0.00    -0.014 A 
BRANCH  33  34
ATOM     34  C   UNL A   1      40.143  28.579  28.759  1.00  0.00     0.031 A 
ATOM     35  C   UNL A   1      39.149  29.665  28.858  1.00  0.00     0.074 A 
ATOM     36  C   UNL A   1      41.239  28.589  29.552  1.00  0.00     0.049 A 
ATOM     37  N   UNL A   1      39.407  30.831  29.348  1.00  0.00    -0.248 NA
ATOM     38  C   UNL A   1      37.789  29.558  28.338  1.00  0.00     0.031 C 
ATOM     39  C   UNL A   1      41.493  29.446  30.707  1.00  0.00     0.029 A 
ATOM     40  N   UNL A   1      42.462  27.927  29.336  1.00  0.00    -0.354 N 
ATOM     41  C   UNL A   1      38.213  31.491  29.509  1.00  0.00     0.074 A 
ATOM     42  C   UNL A   1      37.275  30.731  28.724  1.00  0.00     0.031 C 
ATOM     43  C   UNL A   1      42.816  29.498  30.928  1.00  0.00     0.029 A 
ATOM     44  C   UNL A   1      43.456  28.809  29.823  1.00  0.00     0.049 A 
ATOM     45  H   UNL A   1      42.598  27.039  28.932  1.00  0.00     0.167 HD
ATOM     46  C   UNL A   1      38.152  32.504  30.421  1.00  0.00     0.037 A 
ATOM     47  C   UNL A   1      44.386  29.368  28.995  1.00  0.00     0.037 A 
ATOM     48  C   UNL A   1      39.499  32.922  30.825  1.00  0.00     0.049 A 
ATOM     49  C   UNL A   1      44.391  30.878  28.997  1.00  0.00     0.074 A 
ATOM     50  C   UNL A   1      40.235  32.778  31.989  1.00  0.00     0.029 A 
ATOM     51  N   UNL A   1      40.383  33.393  29.855  1.00  0.00    -0.354 N 
ATOM     52  N   UNL A   1      43.395  31.606  29.415  1.00  0.00    -0.248 NA
ATOM     53  C   UNL A   1      45.498  31.685  28.491  1.00  0.00     0.031 C 
ATOM     54  C   UNL A   1      41.586  33.097  31.692  1.00  0.00     0.029 A 
ATOM     55  C   UNL A   1      41.665  33.469  30.360  1.00  0.00     0.049 A 
ATOM     56  H   UNL A   1      40.128  33.637  28.937  1.00  0.00     0.167 HD
ATOM     57  C   UNL A   1      43.681  32.932  29.220  1.00  0.00     0.074 A 
ATOM     58  C   UNL A   1      45.020  32.930  28.662  1.00  0.00     0.031 C 
ATOM     59  C   UNL A   1      42.774  33.908  29.523  1.00  0.00     0.037 A 
BRANCH  46  60
ATOM     60  C   UNL A   1      36.896  32.981  31.142  1.00  0.00     0.064 A 
ATOM     61  C   UNL A   1      35.947  33.780  30.457  1.00  0.00     0.173 A 
ATOM     62  C   UNL A   1      36.622  32.822  32.518  1.00  0.00     0.173 A 
ATOM     63  F   UNL A   1      36.046  34.004  29.140  1.00  0.00    -0.203 F 
ATOM     64  C   UNL A   1      34.869  34.402  31.102  1.00  0.00     0.198 A 
ATOM     65  C   UNL A   1      35.521  33.410  33.152  1.00  0.00     0.198 A 
ATOM     66  F   UNL A   1      37.417  32.132  33.337  1.00  0.00    -0.203 F 
ATOM     67  F   UNL A   1      34.047  35.200  30.405  1.00  0.00    -0.200 F 
ATOM     68  C   UNL A   1      34.656  34.216  32.450  1.00  0.00     0.200 A 
ATOM     69  F   UNL A   1      35.332  33.207  34.465  1.00  0.00    -0.200 F 
ATOM     70  F   UNL A   1      33.633  34.816  33.073  1.00  0.00    -0.200 F 
ENDBRANCH  46  60
BRANCH  47  71
ATOM     71  C   UNL A   1      44.717  28.520  27.822  1.00  0.00     0.064 A 
ATOM     72  C   UNL A   1      45.545  27.400  28.019  1.00  0.00     0.173 A 
ATOM     73  C   UNL A   1      43.954  28.565  26.650  1.00  0.00     0.173 A 
ATOM     74  F   UNL A   1      46.293  27.307  29.131  1.00  0.00    -0.203 F 
ATOM     75  C   UNL A   1      45.525  26.320  27.139  1.00  0.00     0.198 A 
ATOM     76  C   UNL A   1      43.945  27.485  25.764  1.00  0.00     0.198 A 
ATOM     77  F   UNL A   1      43.129  29.596  26.416  1.00  0.00    -0.203 F 
ATOM     78  F   UNL A   1      46.243  25.221  27.412  1.00  0.00    -0.200 F 
ATOM     79  C   UNL A   1      44.703  26.352  26.026  1.00  0.00     0.200 A 
ATOM     80  F   UNL A   1      43.125  27.503  24.703  1.00  0.00    -0.200 F 
ATOM     81  F   UNL A   1      44.607  25.279  25.230  1.00  0.00    -0.200 F 
ENDBRANCH  47  71
BRANCH  59  82
ATOM     82  C   UNL A   1      42.868  35.369  29.139  1.00  0.00     0.064 A 
ATOM     83  C   UNL A   1      42.190  35.947  28.052  1.00  0.00     0.173 A 
ATOM     84  C   UNL A   1      43.558  36.282  29.975  1.00  0.00     0.173 A 
ATOM     85  F   UNL A   1      41.397  35.219  27.256  1.00  0.00    -0.203 F 
ATOM     86  C   UNL A   1      42.253  37.319  27.783  1.00  0.00     0.198 A 
ATOM     87  C   UNL A   1      43.570  37.656  29.737  1.00  0.00     0.198 A 
ATOM     88  F   UNL A   1      44.221  35.872  31.066  1.00  0.00    -0.203 F 
ATOM     89  F   UNL A   1      41.621  37.812  26.709  1.00  0.00    -0.200 F 
ATOM     90  C   UNL A   1      42.931  38.173  28.630  1.00  0.00     0.200 A 
ATOM     91  F   UNL A   1      44.186  38.477  30.600  1.00  0.00    -0.200 F 
ATOM     92  F   UNL A   1      42.948  39.493  28.395  1.00  0.00    -0.200 F 
ENDBRANCH  59  82
ENDBRANCH  33  34
ENDBRANCH  25  28
ENDBRANCH  23  24
ENDBRANCH  22  23
ENDBRANCH  21  22
ENDBRANCH   1  21
TORSDOF 15
ENDMDL
MODEL 3
REMARK VINA RESULT:     -12.7      3.588      9.436
REMARK SMILES Cc1ccccc1-c1nc(CC(=O)NCCCCCCNC(=O)c2ccc(-c3c4nc(c(-c5c(F)c(F)c(F)c(F)c5F)c5ccc([nH]5)c(-c5c(F)c(F)c(F)c(F)c5F)c5nc(c(-c6c(F)c(F)c(F)c(F)c6F)c6ccc3[nH]6)C=C5)C=C4)cc2)cs1
REMARK SMILES IDX 17 1 16 2 15 3 14 4 12 5 13 6 11 8 10 9 8 10 9 11 88 12
REMARK SMILES IDX 87 13 7 14 1 15 2 16 3 17 4 18 6 19 5 20 18 21 19 22 20 23
REMARK SMILES IDX 21 24 22 25 23 27 24 28 25 29 86 30 26 31 85 32 27 33 28 34
REMARK SMILES IDX 29 35 79 36 30 37 84 38 78 39 80 40 31 41 83 42 77 43 76 44
REMARK SMILES IDX 32 46 64 47 44 48 63 49 45 50 48 51 62 52 81 53 46 54 47 55
REMARK SMILES IDX 61 57 82 58 49 59 33 60 34 61 42 62 35 63 36 64 40 65 43 66
REMARK SMILES IDX 37 67 38 68 41 69 39 70 65 71 66 72 74 73 67 74 68 75 72 76
REMARK SMILES IDX 75 77 69 78 70 79 73 80 71 81 50 82 51 83 59 84 52 85 53 86
REMARK SMILES IDX 57 87 60 88 54 89 55 90 58 91 56 92
REMARK H PARENT 14 7 21 26 80 45 48 56
REMARK Flexibility Score: inf
ROOT
ATOM      1  C   UNL A   1      32.824  27.569  26.680  1.00  0.00     0.002 C 
ENDROOT
BRANCH   1   2
ATOM      2  C   UNL A   1      31.352  27.632  26.244  1.00  0.00     0.021 C 
BRANCH   2   3
ATOM      3  C   UNL A   1      30.945  26.615  25.174  1.00  0.00     0.116 C 
BRANCH   3   4
ATOM      4  N   UNL A   1      30.349  27.259  24.018  1.00  0.00    -0.356 N 
ATOM      5  C   UNL A   1      30.964  27.761  22.908  1.00  0.00     0.226 C 
ATOM      6  O   UNL A   1      30.273  28.332  22.062  1.00  0.00    -0.275 OA
ATOM      7  H   UNL A   1      29.369  27.345  24.038  1.00  0.00     0.163 HD
BRANCH   5   8
ATOM      8  C   UNL A   1      32.456  27.577  22.709  1.00  0.00     0.157 C 
BRANCH   8   9
ATOM      9  C   UNL A   1      32.851  26.140  22.640  1.00  0.00     0.061 A 
ATOM     10  C   UNL A   1      34.064  24.406  23.323  1.00  0.00     0.123 A 
ATOM     11  N   UNL A   1      33.808  25.680  23.535  1.00  0.00    -0.241 NA
ATOM     12  S   UNL A   1      33.148  23.680  22.060  1.00  0.00    -0.122 S 
ATOM     13  C   UNL A   1      32.369  25.180  21.771  1.00  0.00     0.091 A 
BRANCH  10  14
ATOM     14  C   UNL A   1      35.040  23.619  24.087  1.00  0.00     0.013 A 
ATOM     15  C   UNL A   1      33.776  23.984  26.292  1.00  0.00     0.045 C 
ATOM     16  C   UNL A   1      34.917  23.429  25.480  1.00  0.00    -0.041 A 
ATOM     17  C   UNL A   1      35.916  22.714  26.166  1.00  0.00     0.004 A 
ATOM     18  C   UNL A   1      37.014  22.183  25.490  1.00  0.00     0.000 A 
ATOM     19  C   UNL A   1      36.158  23.078  23.422  1.00  0.00     0.011 A 
ATOM     20  C   UNL A   1      37.135  22.364  24.117  1.00  0.00     0.001 A 
ENDBRANCH  10  14
ENDBRANCH   8   9
ENDBRANCH   5   8
ENDBRANCH   3   4
ENDBRANCH   2   3
ENDBRANCH   1   2
BRANCH   1  21
ATOM     21  C   UNL A   1      33.792  28.536  25.978  1.00  0.00     0.002 C 
BRANCH  21  22
ATOM     22  C   UNL A   1      33.508  30.027  26.166  1.00  0.00     0.021 C 
BRANCH  22  23
ATOM     23  C   UNL A   1      33.271  30.446  27.611  1.00  0.00     0.116 C 
BRANCH  23  24
ATOM     24  N   UNL A   1      34.065  31.591  28.032  1.00  0.00    -0.352 N 
ATOM     25  C   UNL A   1      35.367  31.649  28.513  1.00  0.00     0.251 C 
ATOM     26  H   UNL A   1      33.608  32.460  27.964  1.00  0.00     0.163 HD
ATOM     27  O   UNL A   1      35.838  32.705  28.872  1.00  0.00    -0.269 OA
BRANCH  25  28
ATOM     28  C   UNL A   1      36.222  30.433  28.455  1.00  0.00     0.039 A 
ATOM     29  C   UNL A   1      36.453  29.745  29.654  1.00  0.00     0.014 A 
ATOM     30  C   UNL A   1      36.928  30.088  27.307  1.00  0.00     0.014 A 
ATOM     31  C   UNL A   1      37.561  28.907  29.761  1.00  0.00     0.010 A 
ATOM     32  C   UNL A   1      38.079  29.335  27.434  1.00  0.00     0.010 A 
ATOM     33  C   UNL A   1      38.436  28.815  28.682  1.00  0.00    -0.014 A 
BRANCH  33  34
ATOM     34  C   UNL A   1      39.815  28.360  28.806  1.00  0.00     0.031 A 
ATOM     35  C   UNL A   1      40.189  26.958  28.534  1.00  0.00     0.074 A 
ATOM     36  C   UNL A   1      40.775  29.287  29.031  1.00  0.00     0.049 A 
ATOM     37  N   UNL A   1      41.322  26.440  28.872  1.00  0.00    -0.248 NA
ATOM     38  C   UNL A   1      39.283  25.991  27.925  1.00  0.00     0.031 C 
ATOM     39  C   UNL A   1      42.214  29.145  28.819  1.00  0.00     0.029 A 
ATOM     40  N   UNL A   1      40.642  30.517  29.701  1.00  0.00    -0.354 N 
ATOM     41  C   UNL A   1      41.423  25.217  28.255  1.00  0.00     0.074 A 
ATOM     42  C   UNL A   1      40.081  24.922  27.823  1.00  0.00     0.031 C 
ATOM     43  C   UNL A   1      42.856  30.053  29.570  1.00  0.00     0.029 A 
ATOM     44  C   UNL A   1      41.856  30.690  30.408  1.00  0.00     0.049 A 
ATOM     45  H   UNL A   1      39.870  31.127  29.682  1.00  0.00     0.167 HD
ATOM     46  C   UNL A   1      42.667  24.695  28.053  1.00  0.00     0.037 A 
ATOM     47  C   UNL A   1      41.893  30.721  31.772  1.00  0.00     0.037 A 
ATOM     48  C   UNL A   1      43.667  25.410  28.855  1.00  0.00     0.049 A 
ATOM     49  C   UNL A   1      42.784  29.671  32.393  1.00  0.00     0.074 A 
ATOM     50  C   UNL A   1      44.687  26.293  28.545  1.00  0.00     0.029 A 
ATOM     51  N   UNL A   1      43.532  25.435  30.242  1.00  0.00    -0.354 N 
ATOM     52  N   UNL A   1      43.180  28.597  31.770  1.00  0.00    -0.248 NA
ATOM     53  C   UNL A   1      43.263  29.726  33.771  1.00  0.00     0.031 C 
ATOM     54  C   UNL A   1      45.115  26.905  29.752  1.00  0.00     0.029 A 
ATOM     55  C   UNL A   1      44.383  26.369  30.798  1.00  0.00     0.049 A 
ATOM     56  H   UNL A   1      42.915  24.866  30.755  1.00  0.00     0.167 HD
ATOM     57  C   UNL A   1      43.915  27.816  32.625  1.00  0.00     0.074 A 
ATOM     58  C   UNL A   1      43.958  28.579  33.858  1.00  0.00     0.031 C 
ATOM     59  C   UNL A   1      44.403  26.601  32.236  1.00  0.00     0.037 A 
BRANCH  46  60
ATOM     60  C   UNL A   1      43.051  23.697  26.967  1.00  0.00     0.064 A 
ATOM     61  C   UNL A   1      42.750  22.322  27.131  1.00  0.00     0.173 A 
ATOM     62  C   UNL A   1      43.827  23.979  25.822  1.00  0.00     0.173 A 
ATOM     63  F   UNL A   1      41.996  21.891  28.150  1.00  0.00    -0.203 F 
ATOM     64  C   UNL A   1      43.230  21.329  26.265  1.00  0.00     0.198 A 
ATOM     65  C   UNL A   1      44.272  22.991  24.935  1.00  0.00     0.198 A 
ATOM     66  F   UNL A   1      44.239  25.210  25.515  1.00  0.00    -0.203 F 
ATOM     67  F   UNL A   1      42.963  20.040  26.517  1.00  0.00    -0.200 F 
ATOM     68  C   UNL A   1      43.991  21.664  25.167  1.00  0.00     0.200 A 
ATOM     69  F   UNL A   1      45.005  23.344  23.869  1.00  0.00    -0.200 F 
ATOM     70  F   UNL A   1      44.461  20.719  24.343  1.00  0.00    -0.200 F 
ENDBRANCH  46  60
BRANCH  47  71
ATOM     71  C   UNL A   1      40.645  31.244  32.384  1.00  0.00     0.064 A 
ATOM     72  C   UNL A   1      40.421  32.633  32.361  1.00  0.00     0.173 A 
ATOM     73  C   UNL A   1      39.546  30.413  32.626  1.00  0.00     0.173 A 
ATOM     74  F   UNL A   1      41.443  33.473  32.128  1.00  0.00    -0.203 F 
ATOM     75  C   UNL A   1      39.135  33.161  32.461  1.00  0.00     0.198 A 
ATOM     76  C   UNL A   1      38.260  30.947  32.737  1.00  0.00     0.198 A 
ATOM     77  F   UNL A   1      39.692  29.080  32.637  1.00  0.00    -0.203 F 
ATOM     78  F   UNL A   1      38.942  34.481  32.327  1.00  0.00    -0.200 F 
ATOM     79  C   UNL A   1      38.053  32.314  32.622  1.00  0.00     0.200 A 
ATOM     80  F   UNL A   1      37.207  30.125  32.860  1.00  0.00    -0.200 F 
ATOM     81  F   UNL A   1      36.807  32.808  32.622  1.00  0.00    -0.200 F 
ENDBRANCH  47  71
BRANCH  59  82
ATOM     82  C   UNL A   1      45.012  25.550  33.139  1.00  0.00     0.064 A 
ATOM     83  C   UNL A   1      46.371  25.192  33.133  1.00  0.00     0.173 A 
ATOM     84  C   UNL A   1      44.236  24.957  34.166  1.00  0.00     0.173 A 
ATOM     85  F   UNL A   1      47.243  25.772  32.298  1.00  0.00    -0.203 F 
ATOM     86  C   UNL A   1      46.899  24.265  34.039  1.00  0.00     0.198 A 
ATOM     87  C   UNL A   1      44.779  24.078  35.104  1.00  0.00     0.198 A 
ATOM     88  F   UNL A   1      42.932  25.234  34.310  1.00  0.00    -0.203 F 
ATOM     89  F   UNL A   1      48.194  23.929  33.963  1.00  0.00    -0.200 F 
ATOM     90  C   UNL A   1      46.107  23.718  35.030  1.00  0.00     0.200 A 
ATOM     91  F   UNL A   1      44.009  23.600  36.093  1.00  0.00    -0.200 F 
ATOM     92  F   UNL A   1      46.628  22.867  35.924  1.00  0.00    -0.200 F 
ENDBRANCH  59  82
ENDBRANCH  33  34
ENDBRANCH  25  28
ENDBRANCH  23  24
ENDBRANCH  22  23
ENDBRANCH  21  22
ENDBRANCH   1  21
TORSDOF 15
ENDMDL
