MODEL 1
REMARK VINA RESULT:     -12.3      0.000      0.000
REMARK SMILES O=C(NCCCCCCNC(=O)c1cncnc1N1CC[C@H]2[NH2+]CCC[C@]2(CO)C1)c1ccc(-c2c3nc(c(-c4c(F)c(F)c(F)c(F)c4F)c4ccc([nH]4)c(-c4c(F)c(F)c(F)c(F)c4F)c4nc(c(-c5c(F)c(F)c(F)c(F)c5F)c5ccc2[nH]5)C=C4)C=C3)cc1
REMARK SMILES IDX 7 1 6 2 5 3 4 4 3 5 1 6 2 7 31 9 32 10 93 11 33 12 92 13
REMARK SMILES IDX 34 14 35 15 36 16 86 17 37 18 91 19 85 20 87 21 38 22 90 23
REMARK SMILES IDX 84 24 83 25 39 27 71 28 51 29 70 30 52 31 55 32 69 33 88 34
REMARK SMILES IDX 53 35 54 36 68 38 89 39 56 40 40 41 41 42 49 43 42 44 43 45
REMARK SMILES IDX 47 46 50 47 44 48 45 49 48 50 46 51 72 52 73 53 81 54 74 55
REMARK SMILES IDX 75 56 79 57 82 58 76 59 77 60 80 61 78 62 57 63 58 64 66 65
REMARK SMILES IDX 59 66 60 67 64 68 67 69 61 70 62 71 65 72 63 73 8 74 9 75
REMARK SMILES IDX 10 76 11 77 12 79 13 80 14 81 18 82 15 83 17 84 16 85 19 86
REMARK SMILES IDX 20 87 30 88 21 89 27 90 22 91 26 92 23 93 25 94 24 95 28 98
REMARK SMILES IDX 29 99
REMARK H PARENT 3 8 87 26 55 37 10 78 23 96 23 97 29 100
REMARK Flexibility Score: inf
ROOT
ATOM      1  C   UNL A   1      32.361  30.006  26.861  1.00  0.00     0.002 C 
ENDROOT
BRANCH   1   2
ATOM      2  C   UNL A   1      31.378  30.843  26.035  1.00  0.00     0.002 C 
BRANCH   2   3
ATOM      3  C   UNL A   1      31.316  32.327  26.395  1.00  0.00     0.021 C 
BRANCH   3   4
ATOM      4  C   UNL A   1      32.472  32.827  27.254  1.00  0.00     0.116 C 
BRANCH   4   5
ATOM      5  N   UNL A   1      32.306  34.212  27.658  1.00  0.00    -0.352 N 
ATOM      6  O   UNL A   1      32.585  36.039  28.951  1.00  0.00    -0.269 OA
ATOM      7  C   UNL A   1      32.976  34.927  28.621  1.00  0.00     0.251 C 
ATOM      8  H   UNL A   1      31.611  34.711  27.171  1.00  0.00     0.163 HD
BRANCH   7   9
ATOM      9  C   UNL A   1      34.162  34.337  29.279  1.00  0.00     0.039 A 
ATOM     10  C   UNL A   1      35.450  34.618  28.818  1.00  0.00     0.014 A 
ATOM     11  C   UNL A   1      33.976  33.500  30.383  1.00  0.00     0.014 A 
ATOM     12  C   UNL A   1      36.542  33.957  29.370  1.00  0.00     0.010 A 
ATOM     13  C   UNL A   1      35.083  32.903  30.991  1.00  0.00     0.010 A 
ATOM     14  C   UNL A   1      36.371  33.103  30.471  1.00  0.00    -0.014 A 
BRANCH  14  15
ATOM     15  C   UNL A   1      37.553  32.467  31.105  1.00  0.00     0.031 A 
ATOM     16  C   UNL A   1      38.303  31.367  30.410  1.00  0.00     0.074 A 
ATOM     17  C   UNL A   1      37.942  32.885  32.324  1.00  0.00     0.049 A 
ATOM     18  N   UNL A   1      39.322  30.662  30.834  1.00  0.00    -0.248 NA
ATOM     19  C   UNL A   1      37.842  31.001  29.062  1.00  0.00     0.031 C 
ATOM     20  C   UNL A   1      37.291  33.943  33.097  1.00  0.00     0.029 A 
ATOM     21  N   UNL A   1      38.972  32.470  33.129  1.00  0.00    -0.354 N 
ATOM     22  C   UNL A   1      39.611  29.760  29.820  1.00  0.00     0.074 A 
ATOM     23  C   UNL A   1      38.641  29.985  28.769  1.00  0.00     0.031 C 
ATOM     24  C   UNL A   1      37.948  34.111  34.253  1.00  0.00     0.029 A 
ATOM     25  C   UNL A   1      39.024  33.129  34.332  1.00  0.00     0.049 A 
ATOM     26  H   UNL A   1      39.613  31.768  32.869  1.00  0.00     0.167 HD
ATOM     27  C   UNL A   1      40.600  28.834  29.770  1.00  0.00     0.037 A 
ATOM     28  C   UNL A   1      39.827  32.944  35.395  1.00  0.00     0.037 A 
ATOM     29  C   UNL A   1      41.561  28.621  30.824  1.00  0.00     0.049 A 
ATOM     30  C   UNL A   1      40.886  31.881  35.334  1.00  0.00     0.074 A 
ATOM     31  C   UNL A   1      42.623  27.732  30.857  1.00  0.00     0.029 A 
ATOM     32  N   UNL A   1      41.571  29.297  32.036  1.00  0.00    -0.354 N 
ATOM     33  N   UNL A   1      41.173  31.056  34.357  1.00  0.00    -0.248 NA
ATOM     34  C   UNL A   1      41.730  31.720  36.525  1.00  0.00     0.031 C 
ATOM     35  C   UNL A   1      43.235  27.827  32.111  1.00  0.00     0.029 A 
ATOM     36  C   UNL A   1      42.601  28.824  32.835  1.00  0.00     0.049 A 
ATOM     37  H   UNL A   1      40.939  30.007  32.292  1.00  0.00     0.167 HD
ATOM     38  C   UNL A   1      42.249  30.299  34.800  1.00  0.00     0.074 A 
ATOM     39  C   UNL A   1      42.569  30.771  36.132  1.00  0.00     0.031 C 
ATOM     40  C   UNL A   1      42.914  29.307  34.158  1.00  0.00     0.037 A 
BRANCH  27  41
ATOM     41  C   UNL A   1      40.673  27.958  28.551  1.00  0.00     0.064 A 
ATOM     42  C   UNL A   1      41.430  28.314  27.425  1.00  0.00     0.173 A 
ATOM     43  C   UNL A   1      39.996  26.727  28.519  1.00  0.00     0.173 A 
ATOM     44  F   UNL A   1      42.091  29.482  27.397  1.00  0.00    -0.203 F 
ATOM     45  C   UNL A   1      41.477  27.493  26.300  1.00  0.00     0.198 A 
ATOM     46  C   UNL A   1      40.073  25.893  27.407  1.00  0.00     0.198 A 
ATOM     47  F   UNL A   1      39.265  26.331  29.571  1.00  0.00    -0.203 F 
ATOM     48  F   UNL A   1      42.160  27.883  25.215  1.00  0.00    -0.200 F 
ATOM     49  C   UNL A   1      40.804  26.280  26.295  1.00  0.00     0.200 A 
ATOM     50  F   UNL A   1      39.435  24.714  27.410  1.00  0.00    -0.200 F 
ATOM     51  F   UNL A   1      40.852  25.490  25.213  1.00  0.00    -0.200 F 
ENDBRANCH  27  41
BRANCH  28  52
ATOM     52  C   UNL A   1      39.649  33.790  36.603  1.00  0.00     0.064 A 
ATOM     53  C   UNL A   1      40.257  35.048  36.699  1.00  0.00     0.173 A 
ATOM     54  C   UNL A   1      38.842  33.370  37.671  1.00  0.00     0.173 A 
ATOM     55  F   UNL A   1      41.050  35.486  35.711  1.00  0.00    -0.203 F 
ATOM     56  C   UNL A   1      40.077  35.848  37.826  1.00  0.00     0.198 A 
ATOM     57  C   UNL A   1      38.636  34.185  38.782  1.00  0.00     0.198 A 
ATOM     58  F   UNL A   1      38.231  32.178  37.623  1.00  0.00    -0.203 F 
ATOM     59  F   UNL A   1      40.701  37.032  37.910  1.00  0.00    -0.200 F 
ATOM     60  C   UNL A   1      39.260  35.420  38.861  1.00  0.00     0.200 A 
ATOM     61  F   UNL A   1      37.830  33.775  39.771  1.00  0.00    -0.200 F 
ATOM     62  F   UNL A   1      39.076  36.198  39.937  1.00  0.00    -0.200 F 
ENDBRANCH  28  52
BRANCH  40  63
ATOM     63  C   UNL A   1      44.088  28.694  34.866  1.00  0.00     0.064 A 
ATOM     64  C   UNL A   1      43.957  27.551  35.667  1.00  0.00     0.173 A 
ATOM     65  C   UNL A   1      45.372  29.238  34.704  1.00  0.00     0.173 A 
ATOM     66  F   UNL A   1      42.750  27.002  35.870  1.00  0.00    -0.203 F 
ATOM     67  C   UNL A   1      45.064  26.989  36.299  1.00  0.00     0.198 A 
ATOM     68  C   UNL A   1      46.481  28.655  35.309  1.00  0.00     0.198 A 
ATOM     69  F   UNL A   1      45.553  30.329  33.944  1.00  0.00    -0.203 F 
ATOM     70  F   UNL A   1      44.909  25.925  37.099  1.00  0.00    -0.200 F 
ATOM     71  C   UNL A   1      46.325  27.536  36.112  1.00  0.00     0.200 A 
ATOM     72  F   UNL A   1      47.700  29.175  35.114  1.00  0.00    -0.200 F 
ATOM     73  F   UNL A   1      47.391  26.986  36.711  1.00  0.00    -0.200 F 
ENDBRANCH  40  63
ENDBRANCH  14  15
ENDBRANCH   7   9
ENDBRANCH   4   5
ENDBRANCH   3   4
ENDBRANCH   2   3
ENDBRANCH   1   2
BRANCH   1  74
ATOM     74  C   UNL A   1      31.748  28.830  27.628  1.00  0.00     0.021 C 
BRANCH  74  75
ATOM     75  C   UNL A   1      32.131  27.450  27.105  1.00  0.00     0.116 C 
BRANCH  75  76
ATOM     76  N   UNL A   1      30.999  26.746  26.523  1.00  0.00    -0.352 N 
ATOM     77  C   UNL A   1      30.745  26.453  25.203  1.00  0.00     0.256 C 
ATOM     78  H   UNL A   1      30.320  26.435  27.164  1.00  0.00     0.163 HD
ATOM     79  O   UNL A   1      29.718  25.858  24.892  1.00  0.00    -0.269 OA
BRANCH  77  80
ATOM     80  C   UNL A   1      31.736  26.815  24.188  1.00  0.00     0.100 A 
ATOM     81  C   UNL A   1      31.617  28.070  23.611  1.00  0.00     0.130 A 
ATOM     82  C   UNL A   1      32.839  26.056  23.824  1.00  0.00     0.144 A 
ATOM     83  N   UNL A   1      32.448  28.552  22.672  1.00  0.00    -0.244 NA
ATOM     84  N   UNL A   1      33.692  26.525  22.881  1.00  0.00    -0.219 NA
ATOM     85  C   UNL A   1      33.456  27.735  22.348  1.00  0.00     0.224 A 
BRANCH  82  86
ATOM     86  N   UNL A   1      33.229  24.851  24.398  1.00  0.00    -0.355 N 
ATOM     87  C   UNL A   1      34.539  24.682  25.016  1.00  0.00     0.124 C 
ATOM     88  C   UNL A   1      32.666  23.706  23.659  1.00  0.00     0.133 C 
ATOM     89  C   UNL A   1      34.563  23.428  25.895  1.00  0.00     0.087 C 
ATOM     90  C   UNL A   1      32.692  22.410  24.496  1.00  0.00     0.063 C 
ATOM     91  C   UNL A   1      34.113  22.211  25.077  1.00  0.00     0.194 C 
ATOM     92  C   UNL A   1      32.407  21.210  23.557  1.00  0.00     0.023 C 
ATOM     93  N   UNL A   1      34.188  20.970  25.869  1.00  0.00    -0.343 N 
ATOM     94  C   UNL A   1      32.580  19.876  24.282  1.00  0.00     0.062 C 
ATOM     95  C   UNL A   1      33.912  19.794  25.033  1.00  0.00     0.260 C 
ATOM     96  H   UNL A   1      33.501  21.013  26.622  1.00  0.00     0.346 HD
ATOM     97  H   UNL A   1      35.131  20.884  26.250  1.00  0.00     0.346 HD
BRANCH  90  98
ATOM     98  C   UNL A   1      31.616  22.502  25.611  1.00  0.00     0.171 C 
BRANCH  98  99
ATOM     99  O   UNL A   1      30.405  23.070  25.114  1.00  0.00    -0.395 OA
ATOM    100  H   UNL A   1      29.900  22.391  24.638  1.00  0.00     0.210 HD
ENDBRANCH  98  99
ENDBRANCH  90  98
ENDBRANCH  82  86
ENDBRANCH  77  80
ENDBRANCH  75  76
ENDBRANCH  74  75
ENDBRANCH   1  74
TORSDOF 16
ENDMDL
MODEL 2
REMARK VINA RESULT:     -12.2      0.630      2.023
REMARK SMILES O=C(NCCCCCCNC(=O)c1cncnc1N1CC[C@H]2[NH2+]CCC[C@]2(CO)C1)c1ccc(-c2c3nc(c(-c4c(F)c(F)c(F)c(F)c4F)c4ccc([nH]4)c(-c4c(F)c(F)c(F)c(F)c4F)c4nc(c(-c5c(F)c(F)c(F)c(F)c5F)c5ccc2[nH]5)C=C4)C=C3)cc1
REMARK SMILES IDX 7 1 6 2 5 3 4 4 3 5 1 6 2 7 31 9 32 10 93 11 33 12 92 13
REMARK SMILES IDX 34 14 35 15 36 16 86 17 37 18 91 19 85 20 87 21 38 22 90 23
REMARK SMILES IDX 84 24 83 25 39 27 71 28 51 29 70 30 52 31 55 32 69 33 88 34
REMARK SMILES IDX 53 35 54 36 68 38 89 39 56 40 40 41 41 42 49 43 42 44 43 45
REMARK SMILES IDX 47 46 50 47 44 48 45 49 48 50 46 51 72 52 73 53 81 54 74 55
REMARK SMILES IDX 75 56 79 57 82 58 76 59 77 60 80 61 78 62 57 63 58 64 66 65
REMARK SMILES IDX 59 66 60 67 64 68 67 69 61 70 62 71 65 72 63 73 8 74 9 75
REMARK SMILES IDX 10 76 11 77 12 79 13 80 14 81 18 82 15 83 17 84 16 85 19 86
REMARK SMILES IDX 20 87 30 88 21 89 27 90 22 91 26 92 23 93 25 94 24 95 28 98
REMARK SMILES IDX 29 99
REMARK H PARENT 3 8 87 26 55 37 10 78 23 96 23 97 29 100
REMARK Flexibility Score: inf
ROOT
ATOM      1  C   UNL A   1      32.540  30.059  26.895  1.00  0.00     0.002 C 
ENDROOT
BRANCH   1   2
ATOM      2  C   UNL A   1      31.410  30.821  26.195  1.00  0.00     0.002 C 
BRANCH   2   3
ATOM      3  C   UNL A   1      31.314  32.309  26.535  1.00  0.00     0.021 C 
BRANCH   3   4
ATOM      4  C   UNL A   1      32.551  32.894  27.205  1.00  0.00     0.116 C 
BRANCH   4   5
ATOM      5  N   UNL A   1      32.349  34.264  27.645  1.00  0.00    -0.352 N 
ATOM      6  O   UNL A   1      32.564  36.058  28.995  1.00  0.00    -0.269 OA
ATOM      7  C   UNL A   1      32.983  34.963  28.644  1.00  0.00     0.251 C 
ATOM      8  H   UNL A   1      31.657  34.765  27.155  1.00  0.00     0.163 HD
BRANCH   7   9
ATOM      9  C   UNL A   1      34.164  34.375  29.313  1.00  0.00     0.039 A 
ATOM     10  C   UNL A   1      35.450  34.585  28.811  1.00  0.00     0.014 A 
ATOM     11  C   UNL A   1      33.976  33.613  30.469  1.00  0.00     0.014 A 
ATOM     12  C   UNL A   1      36.532  33.923  29.381  1.00  0.00     0.010 A 
ATOM     13  C   UNL A   1      35.075  33.017  31.091  1.00  0.00     0.010 A 
ATOM     14  C   UNL A   1      36.358  33.144  30.535  1.00  0.00    -0.014 A 
BRANCH  14  15
ATOM     15  C   UNL A   1      37.533  32.508  31.183  1.00  0.00     0.031 A 
ATOM     16  C   UNL A   1      38.285  31.401  30.502  1.00  0.00     0.074 A 
ATOM     17  C   UNL A   1      37.913  32.934  32.403  1.00  0.00     0.049 A 
ATOM     18  N   UNL A   1      39.298  30.696  30.941  1.00  0.00    -0.248 NA
ATOM     19  C   UNL A   1      37.834  31.027  29.153  1.00  0.00     0.031 C 
ATOM     20  C   UNL A   1      37.259  34.000  33.162  1.00  0.00     0.029 A 
ATOM     21  N   UNL A   1      38.935  32.522  33.219  1.00  0.00    -0.354 N 
ATOM     22  C   UNL A   1      39.593  29.786  29.935  1.00  0.00     0.074 A 
ATOM     23  C   UNL A   1      38.632  30.006  28.875  1.00  0.00     0.031 C 
ATOM     24  C   UNL A   1      37.907  34.174  34.322  1.00  0.00     0.029 A 
ATOM     25  C   UNL A   1      38.979  33.190  34.417  1.00  0.00     0.049 A 
ATOM     26  H   UNL A   1      39.575  31.816  32.969  1.00  0.00     0.167 HD
ATOM     27  C   UNL A   1      40.580  28.857  29.901  1.00  0.00     0.037 A 
ATOM     28  C   UNL A   1      39.773  33.010  35.489  1.00  0.00     0.037 A 
ATOM     29  C   UNL A   1      41.531  28.648  30.964  1.00  0.00     0.049 A 
ATOM     30  C   UNL A   1      40.828  31.943  35.445  1.00  0.00     0.074 A 
ATOM     31  C   UNL A   1      42.590  27.756  31.012  1.00  0.00     0.029 A 
ATOM     32  N   UNL A   1      41.533  29.334  32.171  1.00  0.00    -0.354 N 
ATOM     33  N   UNL A   1      41.122  31.110  34.476  1.00  0.00    -0.248 NA
ATOM     34  C   UNL A   1      41.662  31.789  36.643  1.00  0.00     0.031 C 
ATOM     35  C   UNL A   1      43.192  27.859  32.271  1.00  0.00     0.029 A 
ATOM     36  C   UNL A   1      42.555  28.863  32.982  1.00  0.00     0.049 A 
ATOM     37  H   UNL A   1      40.902  30.047  32.416  1.00  0.00     0.167 HD
ATOM     38  C   UNL A   1      42.191  30.354  34.933  1.00  0.00     0.074 A 
ATOM     39  C   UNL A   1      42.501  30.835  36.265  1.00  0.00     0.031 C 
ATOM     40  C   UNL A   1      42.858  29.355  34.304  1.00  0.00     0.037 A 
BRANCH  27  41
ATOM     41  C   UNL A   1      40.661  27.971  28.689  1.00  0.00     0.064 A 
ATOM     42  C   UNL A   1      39.970  26.752  28.612  1.00  0.00     0.173 A 
ATOM     43  C   UNL A   1      41.421  28.361  27.574  1.00  0.00     0.173 A 
ATOM     44  F   UNL A   1      39.235  26.326  29.650  1.00  0.00    -0.203 F 
ATOM     45  C   UNL A   1      40.067  25.941  27.483  1.00  0.00     0.198 A 
ATOM     46  C   UNL A   1      41.488  27.564  26.434  1.00  0.00     0.198 A 
ATOM     47  F   UNL A   1      42.095  29.521  27.587  1.00  0.00    -0.203 F 
ATOM     48  F   UNL A   1      39.444  24.754  27.457  1.00  0.00    -0.200 F 
ATOM     49  C   UNL A   1      40.820  26.351  26.393  1.00  0.00     0.200 A 
ATOM     50  F   UNL A   1      42.204  27.970  25.375  1.00  0.00    -0.200 F 
ATOM     51  F   UNL A   1      40.910  25.570  25.307  1.00  0.00    -0.200 F 
ENDBRANCH  27  41
BRANCH  28  52
ATOM     52  C   UNL A   1      39.587  33.865  36.688  1.00  0.00     0.064 A 
ATOM     53  C   UNL A   1      38.803  33.436  37.767  1.00  0.00     0.173 A 
ATOM     54  C   UNL A   1      40.212  35.117  36.792  1.00  0.00     0.173 A 
ATOM     55  F   UNL A   1      38.171  32.255  37.707  1.00  0.00    -0.203 F 
ATOM     56  C   UNL A   1      38.641  34.232  38.899  1.00  0.00     0.198 A 
ATOM     57  C   UNL A   1      40.076  35.897  37.938  1.00  0.00     0.198 A 
ATOM     58  F   UNL A   1      40.980  35.570  35.791  1.00  0.00    -0.203 F 
ATOM     59  F   UNL A   1      37.855  33.814  39.901  1.00  0.00    -0.200 F 
ATOM     60  C   UNL A   1      39.284  35.457  38.988  1.00  0.00     0.200 A 
ATOM     61  F   UNL A   1      40.716  37.071  38.027  1.00  0.00    -0.200 F 
ATOM     62  F   UNL A   1      39.139  36.215  40.083  1.00  0.00    -0.200 F 
ENDBRANCH  28  52
BRANCH  40  63
ATOM     63  C   UNL A   1      44.024  28.743  35.026  1.00  0.00     0.064 A 
ATOM     64  C   UNL A   1      45.324  29.256  34.907  1.00  0.00     0.173 A 
ATOM     65  C   UNL A   1      43.827  27.650  35.885  1.00  0.00     0.173 A 
ATOM     66  F   UNL A   1      45.569  30.288  34.086  1.00  0.00    -0.203 F 
ATOM     67  C   UNL A   1      46.386  28.683  35.601  1.00  0.00     0.198 A 
ATOM     68  C   UNL A   1      44.885  27.100  36.603  1.00  0.00     0.198 A 
ATOM     69  F   UNL A   1      42.603  27.123  36.038  1.00  0.00    -0.203 F 
ATOM     70  F   UNL A   1      47.628  29.159  35.434  1.00  0.00    -0.200 F 
ATOM     71  C   UNL A   1      46.164  27.612  36.455  1.00  0.00     0.200 A 
ATOM     72  F   UNL A   1      44.665  26.077  37.439  1.00  0.00    -0.200 F 
ATOM     73  F   UNL A   1      47.187  27.070  37.131  1.00  0.00    -0.200 F 
ENDBRANCH  40  63
ENDBRANCH  14  15
ENDBRANCH   7   9
ENDBRANCH   4   5
ENDBRANCH   3   4
ENDBRANCH   2   3
ENDBRANCH   1   2
BRANCH   1  74
ATOM     74  C   UNL A   1      33.571  29.405  25.970  1.00  0.00     0.021 C 
BRANCH  74  75
ATOM     75  C   UNL A   1      33.736  27.899  26.153  1.00  0.00     0.116 C 
BRANCH  75  76
ATOM     76  N   UNL A   1      32.560  27.282  26.747  1.00  0.00    -0.352 N 
ATOM     77  C   UNL A   1      31.456  26.746  26.126  1.00  0.00     0.256 C 
ATOM     78  H   UNL A   1      32.554  27.243  27.730  1.00  0.00     0.163 HD
ATOM     79  O   UNL A   1      30.541  26.277  26.796  1.00  0.00    -0.269 OA
BRANCH  77  80
ATOM     80  C   UNL A   1      31.411  26.698  24.664  1.00  0.00     0.100 A 
ATOM     81  C   UNL A   1      30.827  27.774  24.015  1.00  0.00     0.130 A 
ATOM     82  C   UNL A   1      31.991  25.720  23.867  1.00  0.00     0.144 A 
ATOM     83  N   UNL A   1      30.715  27.883  22.681  1.00  0.00    -0.244 NA
ATOM     84  N   UNL A   1      31.891  25.812  22.518  1.00  0.00    -0.219 NA
ATOM     85  C   UNL A   1      31.259  26.873  21.993  1.00  0.00     0.224 A 
BRANCH  82  86
ATOM     86  N   UNL A   1      32.761  24.651  24.311  1.00  0.00    -0.355 N 
ATOM     87  C   UNL A   1      34.209  24.753  24.452  1.00  0.00     0.124 C 
ATOM     88  C   UNL A   1      32.206  23.368  23.844  1.00  0.00     0.133 C 
ATOM     89  C   UNL A   1      34.749  23.605  25.309  1.00  0.00     0.087 C 
ATOM     90  C   UNL A   1      32.742  22.175  24.662  1.00  0.00     0.063 C 
ATOM     91  C   UNL A   1      34.286  22.261  24.732  1.00  0.00     0.194 C 
ATOM     92  C   UNL A   1      32.388  20.864  23.914  1.00  0.00     0.023 C 
ATOM     93  N   UNL A   1      34.842  21.126  25.489  1.00  0.00    -0.343 N 
ATOM     94  C   UNL A   1      33.032  19.647  24.578  1.00  0.00     0.062 C 
ATOM     95  C   UNL A   1      34.527  19.850  24.834  1.00  0.00     0.260 C 
ATOM     96  H   UNL A   1      34.446  21.126  26.429  1.00  0.00     0.346 HD
ATOM     97  H   UNL A   1      35.857  21.229  25.530  1.00  0.00     0.346 HD
BRANCH  90  98
ATOM     98  C   UNL A   1      32.095  22.193  26.073  1.00  0.00     0.171 C 
BRANCH  98  99
ATOM     99  O   UNL A   1      30.714  21.838  26.012  1.00  0.00    -0.395 OA
ATOM    100  H   UNL A   1      30.271  22.119  26.828  1.00  0.00     0.210 HD
ENDBRANCH  98  99
ENDBRANCH  90  98
ENDBRANCH  82  86
ENDBRANCH  77  80
ENDBRANCH  75  76
ENDBRANCH  74  75
ENDBRANCH   1  74
TORSDOF 16
ENDMDL
MODEL 3
REMARK VINA RESULT:     -12.2      5.201     10.856
REMARK SMILES O=C(NCCCCCCNC(=O)c1cncnc1N1CC[C@H]2[NH2+]CCC[C@]2(CO)C1)c1ccc(-c2c3nc(c(-c4c(F)c(F)c(F)c(F)c4F)c4ccc([nH]4)c(-c4c(F)c(F)c(F)c(F)c4F)c4nc(c(-c5c(F)c(F)c(F)c(F)c5F)c5ccc2[nH]5)C=C4)C=C3)cc1
REMARK SMILES IDX 7 1 6 2 5 3 4 4 3 5 1 6 2 7 31 9 32 10 93 11 33 12 92 13
REMARK SMILES IDX 34 14 35 15 36 16 86 17 37 18 91 19 85 20 87 21 38 22 90 23
REMARK SMILES IDX 84 24 83 25 39 27 71 28 51 29 70 30 52 31 55 32 69 33 88 34
REMARK SMILES IDX 53 35 54 36 68 38 89 39 56 40 40 41 41 42 49 43 42 44 43 45
REMARK SMILES IDX 47 46 50 47 44 48 45 49 48 50 46 51 72 52 73 53 81 54 74 55
REMARK SMILES IDX 75 56 79 57 82 58 76 59 77 60 80 61 78 62 57 63 58 64 66 65
REMARK SMILES IDX 59 66 60 67 64 68 67 69 61 70 62 71 65 72 63 73 8 74 9 75
REMARK SMILES IDX 10 76 11 77 12 79 13 80 14 81 18 82 15 83 17 84 16 85 19 86
REMARK SMILES IDX 20 87 30 88 21 89 27 90 22 91 26 92 23 93 25 94 24 95 28 98
REMARK SMILES IDX 29 99
REMARK H PARENT 3 8 87 26 55 37 10 78 23 96 23 97 29 100
REMARK Flexibility Score: inf
ROOT
ATOM      1  C   UNL A   1      36.949  21.873  24.281  1.00  0.00     0.002 C 
ENDROOT
BRANCH   1   2
ATOM      2  C   UNL A   1      36.694  20.524  24.961  1.00  0.00     0.002 C 
BRANCH   2   3
ATOM      3  C   UNL A   1      37.896  19.580  25.018  1.00  0.00     0.021 C 
BRANCH   3   4
ATOM      4  C   UNL A   1      39.115  20.138  25.743  1.00  0.00     0.116 C 
BRANCH   4   5
ATOM      5  N   UNL A   1      40.168  19.150  25.902  1.00  0.00    -0.352 N 
ATOM      6  O   UNL A   1      42.285  18.388  26.060  1.00  0.00    -0.269 OA
ATOM      7  C   UNL A   1      41.511  19.333  26.127  1.00  0.00     0.251 C 
ATOM      8  H   UNL A   1      39.877  18.212  25.838  1.00  0.00     0.163 HD
BRANCH   7   9
ATOM      9  C   UNL A   1      42.025  20.688  26.429  1.00  0.00     0.039 A 
ATOM     10  C   UNL A   1      42.270  21.083  27.746  1.00  0.00     0.014 A 
ATOM     11  C   UNL A   1      42.276  21.566  25.371  1.00  0.00     0.014 A 
ATOM     12  C   UNL A   1      42.633  22.397  28.017  1.00  0.00     0.010 A 
ATOM     13  C   UNL A   1      42.723  22.861  25.641  1.00  0.00     0.010 A 
ATOM     14  C   UNL A   1      42.877  23.296  26.966  1.00  0.00    -0.014 A 
BRANCH  14  15
ATOM     15  C   UNL A   1      43.344  24.674  27.265  1.00  0.00     0.031 A 
ATOM     16  C   UNL A   1      42.412  25.695  27.849  1.00  0.00     0.074 A 
ATOM     17  C   UNL A   1      44.622  25.001  26.992  1.00  0.00     0.049 A 
ATOM     18  N   UNL A   1      42.632  26.957  28.123  1.00  0.00    -0.248 NA
ATOM     19  C   UNL A   1      41.047  25.245  28.159  1.00  0.00     0.031 C 
ATOM     20  C   UNL A   1      45.618  24.093  26.422  1.00  0.00     0.029 A 
ATOM     21  N   UNL A   1      45.299  26.182  27.154  1.00  0.00    -0.354 N 
ATOM     22  C   UNL A   1      41.434  27.455  28.617  1.00  0.00     0.074 A 
ATOM     23  C   UNL A   1      40.480  26.367  28.577  1.00  0.00     0.031 C 
ATOM     24  C   UNL A   1      46.785  24.743  26.301  1.00  0.00     0.029 A 
ATOM     25  C   UNL A   1      46.602  26.127  26.723  1.00  0.00     0.049 A 
ATOM     26  H   UNL A   1      44.892  26.991  27.542  1.00  0.00     0.167 HD
ATOM     27  C   UNL A   1      41.161  28.704  29.067  1.00  0.00     0.037 A 
ATOM     28  C   UNL A   1      47.537  27.091  26.644  1.00  0.00     0.037 A 
ATOM     29  C   UNL A   1      42.122  29.779  29.102  1.00  0.00     0.049 A 
ATOM     30  C   UNL A   1      47.196  28.478  27.105  1.00  0.00     0.074 A 
ATOM     31  C   UNL A   1      41.955  31.071  29.571  1.00  0.00     0.029 A 
ATOM     32  N   UNL A   1      43.428  29.689  28.640  1.00  0.00    -0.354 N 
ATOM     33  N   UNL A   1      46.071  28.931  27.603  1.00  0.00    -0.248 NA
ATOM     34  C   UNL A   1      48.254  29.490  26.993  1.00  0.00     0.031 C 
ATOM     35  C   UNL A   1      43.138  31.779  29.335  1.00  0.00     0.029 A 
ATOM     36  C   UNL A   1      44.067  30.911  28.785  1.00  0.00     0.049 A 
ATOM     37  H   UNL A   1      43.839  28.878  28.264  1.00  0.00     0.167 HD
ATOM     38  C   UNL A   1      46.292  30.270  27.891  1.00  0.00     0.074 A 
ATOM     39  C   UNL A   1      47.664  30.554  27.521  1.00  0.00     0.031 C 
ATOM     40  C   UNL A   1      45.437  31.180  28.419  1.00  0.00     0.037 A 
BRANCH  27  41
ATOM     41  C   UNL A   1      39.758  28.988  29.527  1.00  0.00     0.064 A 
ATOM     42  C   UNL A   1      39.360  28.796  30.859  1.00  0.00     0.173 A 
ATOM     43  C   UNL A   1      38.802  29.484  28.626  1.00  0.00     0.173 A 
ATOM     44  F   UNL A   1      40.230  28.316  31.761  1.00  0.00    -0.203 F 
ATOM     45  C   UNL A   1      38.052  29.055  31.263  1.00  0.00     0.198 A 
ATOM     46  C   UNL A   1      37.505  29.774  29.041  1.00  0.00     0.198 A 
ATOM     47  F   UNL A   1      39.128  29.696  27.343  1.00  0.00    -0.203 F 
ATOM     48  F   UNL A   1      37.682  28.809  32.528  1.00  0.00    -0.200 F 
ATOM     49  C   UNL A   1      37.128  29.550  30.356  1.00  0.00     0.200 A 
ATOM     50  F   UNL A   1      36.617  30.268  28.166  1.00  0.00    -0.200 F 
ATOM     51  F   UNL A   1      35.870  29.801  30.747  1.00  0.00    -0.200 F 
ENDBRANCH  27  41
BRANCH  28  52
ATOM     52  C   UNL A   1      48.880  26.763  26.103  1.00  0.00     0.064 A 
ATOM     53  C   UNL A   1      49.192  26.994  24.757  1.00  0.00     0.173 A 
ATOM     54  C   UNL A   1      49.889  26.240  26.927  1.00  0.00     0.173 A 
ATOM     55  F   UNL A   1      48.257  27.477  23.926  1.00  0.00    -0.203 F 
ATOM     56  C   UNL A   1      50.457  26.702  24.252  1.00  0.00     0.198 A 
ATOM     57  C   UNL A   1      51.162  25.979  26.429  1.00  0.00     0.198 A 
ATOM     58  F   UNL A   1      49.643  26.009  28.224  1.00  0.00    -0.203 F 
ATOM     59  F   UNL A   1      50.718  26.896  22.951  1.00  0.00    -0.200 F 
ATOM     60  C   UNL A   1      51.444  26.203  25.089  1.00  0.00     0.200 A 
ATOM     61  F   UNL A   1      52.118  25.516  27.246  1.00  0.00    -0.200 F 
ATOM     62  F   UNL A   1      52.664  25.936  24.605  1.00  0.00    -0.200 F 
ENDBRANCH  28  52
BRANCH  40  63
ATOM     63  C   UNL A   1      45.970  32.560  28.676  1.00  0.00     0.064 A 
ATOM     64  C   UNL A   1      46.632  32.890  29.867  1.00  0.00     0.173 A 
ATOM     65  C   UNL A   1      45.852  33.556  27.693  1.00  0.00     0.173 A 
ATOM     66  F   UNL A   1      46.756  31.981  30.845  1.00  0.00    -0.203 F 
ATOM     67  C   UNL A   1      47.135  34.172  30.074  1.00  0.00     0.198 A 
ATOM     68  C   UNL A   1      46.384  34.826  27.890  1.00  0.00     0.198 A 
ATOM     69  F   UNL A   1      45.231  33.291  26.534  1.00  0.00    -0.203 F 
ATOM     70  F   UNL A   1      47.721  34.480  31.240  1.00  0.00    -0.200 F 
ATOM     71  C   UNL A   1      47.019  35.136  29.083  1.00  0.00     0.200 A 
ATOM     72  F   UNL A   1      46.285  35.750  26.925  1.00  0.00    -0.200 F 
ATOM     73  F   UNL A   1      47.514  36.366  29.281  1.00  0.00    -0.200 F 
ENDBRANCH  40  63
ENDBRANCH  14  15
ENDBRANCH   7   9
ENDBRANCH   4   5
ENDBRANCH   3   4
ENDBRANCH   2   3
ENDBRANCH   1   2
BRANCH   1  74
ATOM     74  C   UNL A   1      36.827  23.104  25.184  1.00  0.00     0.021 C 
BRANCH  74  75
ATOM     75  C   UNL A   1      35.545  23.911  25.003  1.00  0.00     0.116 C 
BRANCH  75  76
ATOM     76  N   UNL A   1      35.079  23.907  23.625  1.00  0.00    -0.352 N 
ATOM     77  C   UNL A   1      33.865  23.500  23.121  1.00  0.00     0.256 C 
ATOM     78  H   UNL A   1      35.723  24.242  22.960  1.00  0.00     0.163 HD
ATOM     79  O   UNL A   1      33.652  23.554  21.915  1.00  0.00    -0.269 OA
BRANCH  77  80
ATOM     80  C   UNL A   1      32.822  23.053  24.046  1.00  0.00     0.100 A 
ATOM     81  C   UNL A   1      32.776  21.699  24.337  1.00  0.00     0.130 A 
ATOM     82  C   UNL A   1      31.941  23.876  24.733  1.00  0.00     0.144 A 
ATOM     83  N   UNL A   1      31.885  21.134  25.168  1.00  0.00    -0.244 NA
ATOM     84  N   UNL A   1      31.036  23.327  25.580  1.00  0.00    -0.219 NA
ATOM     85  C   UNL A   1      31.044  21.995  25.751  1.00  0.00     0.224 A 
BRANCH  82  86
ATOM     86  N   UNL A   1      31.931  25.267  24.710  1.00  0.00    -0.355 N 
ATOM     87  C   UNL A   1      32.445  26.057  25.823  1.00  0.00     0.124 C 
ATOM     88  C   UNL A   1      30.747  25.776  23.995  1.00  0.00     0.133 C 
ATOM     89  C   UNL A   1      32.677  27.508  25.391  1.00  0.00     0.087 C 
ATOM     90  C   UNL A   1      30.923  27.246  23.561  1.00  0.00     0.063 C 
ATOM     91  C   UNL A   1      31.394  28.081  24.777  1.00  0.00     0.194 C 
ATOM     92  C   UNL A   1      29.543  27.802  23.127  1.00  0.00     0.023 C 
ATOM     93  N   UNL A   1      31.555  29.499  24.411  1.00  0.00    -0.343 N 
ATOM     94  C   UNL A   1      29.606  29.303  22.842  1.00  0.00     0.062 C 
ATOM     95  C   UNL A   1      30.278  30.080  23.977  1.00  0.00     0.260 C 
ATOM     96  H   UNL A   1      32.231  29.572  23.650  1.00  0.00     0.346 HD
ATOM     97  H   UNL A   1      31.883  30.011  25.230  1.00  0.00     0.346 HD
BRANCH  90  98
ATOM     98  C   UNL A   1      31.935  27.312  22.385  1.00  0.00     0.171 C 
BRANCH  98  99
ATOM     99  O   UNL A   1      31.402  26.703  21.210  1.00  0.00    -0.395 OA
ATOM    100  H   UNL A   1      30.504  26.384  21.390  1.00  0.00     0.210 HD
ENDBRANCH  98  99
ENDBRANCH  90  98
ENDBRANCH  82  86
ENDBRANCH  77  80
ENDBRANCH  75  76
ENDBRANCH  74  75
ENDBRANCH   1  74
TORSDOF 16
ENDMDL
