MODEL 1
REMARK VINA RESULT:     -11.0      0.000      0.000
REMARK SMILES COc1cc(/C=C/C(=O)NCCCCCCNC(=O)c2ccc(-c3c4nc(c(-c5c(F)c(F)c(F)c(F)c5F)c5ccc([nH]5)c(-c5c(F)c(F)c(F)c(F)c5F)c5nc(c(-c6c(F)c(F)c(F)c(F)c6F)c6ccc3[nH]6)C=C5)C=C4)cc2)cc(OC)c1O
REMARK SMILES IDX 13 1 12 2 11 3 10 4 8 5 9 6 7 8 6 9 5 10 3 11 4 12 87 13
REMARK SMILES IDX 84 14 83 15 2 16 1 17 88 18 85 20 86 21 14 22 15 23 16 24
REMARK SMILES IDX 17 25 18 26 19 28 20 29 21 30 82 31 22 32 81 33 23 34 24 35
REMARK SMILES IDX 25 36 75 37 26 38 80 39 74 40 76 41 27 42 79 43 73 44 72 45
REMARK SMILES IDX 28 47 60 48 40 49 59 50 41 51 44 52 58 53 77 54 42 55 43 56
REMARK SMILES IDX 57 58 78 59 45 60 29 61 30 62 38 63 31 64 32 65 36 66 39 67
REMARK SMILES IDX 33 68 34 69 37 70 35 71 61 72 62 73 70 74 63 75 64 76 68 77
REMARK SMILES IDX 71 78 65 79 66 80 69 81 67 82 46 83 47 84 55 85 48 86 49 87
REMARK SMILES IDX 53 88 56 89 50 90 51 91 54 92 52 93
REMARK H PARENT 10 7 88 19 17 27 76 46 44 57
REMARK Flexibility Score: inf
ROOT
ATOM      1  C   UNL A   1      31.625  29.131  24.667  1.00  0.00     0.002 C 
ENDROOT
BRANCH   1   2
ATOM      2  C   UNL A   1      31.769  28.929  23.152  1.00  0.00     0.021 C 
BRANCH   2   3
ATOM      3  C   UNL A   1      33.209  28.658  22.716  1.00  0.00     0.116 C 
BRANCH   3   4
ATOM      4  N   UNL A   1      33.223  27.695  21.632  1.00  0.00    -0.353 N 
ATOM      5  C   UNL A   1      33.300  26.341  21.631  1.00  0.00     0.243 C 
ATOM      6  O   UNL A   1      33.278  25.740  20.559  1.00  0.00    -0.270 OA
ATOM      7  H   UNL A   1      33.165  28.097  20.735  1.00  0.00     0.163 HD
BRANCH   5   8
ATOM      8  C   UNL A   1      33.303  25.563  22.889  1.00  0.00     0.072 C 
ATOM      9  C   UNL A   1      32.265  24.896  23.414  1.00  0.00     0.014 C 
BRANCH   9  10
ATOM     10  C   UNL A   1      32.340  24.131  24.666  1.00  0.00    -0.018 A 
ATOM     11  C   UNL A   1      33.581  22.805  26.301  1.00  0.00     0.165 A 
ATOM     12  C   UNL A   1      33.503  23.472  25.069  1.00  0.00     0.058 A 
ATOM     13  C   UNL A   1      32.463  22.804  27.152  1.00  0.00     0.200 A 
ATOM     14  C   UNL A   1      31.278  23.448  26.759  1.00  0.00     0.165 A 
ATOM     15  C   UNL A   1      31.234  24.105  25.520  1.00  0.00     0.058 A 
BRANCH  11  16
ATOM     16  O   UNL A   1      34.811  22.234  26.486  1.00  0.00    -0.493 OA
ATOM     17  C   UNL A   1      35.704  22.089  25.398  1.00  0.00     0.278 C 
ENDBRANCH  11  16
BRANCH  13  18
ATOM     18  O   UNL A   1      32.528  22.204  28.376  1.00  0.00    -0.502 OA
ATOM     19  H   UNL A   1      33.332  21.820  28.668  1.00  0.00     0.293 HD
ENDBRANCH  13  18
BRANCH  14  20
ATOM     20  O   UNL A   1      30.095  23.560  27.443  1.00  0.00    -0.493 OA
ATOM     21  C   UNL A   1      29.089  22.578  27.251  1.00  0.00     0.278 C 
ENDBRANCH  14  20
ENDBRANCH   9  10
ENDBRANCH   5   8
ENDBRANCH   3   4
ENDBRANCH   2   3
ENDBRANCH   1   2
BRANCH   1  22
ATOM     22  C   UNL A   1      32.061  27.931  25.518  1.00  0.00     0.002 C 
BRANCH  22  23
ATOM     23  C   UNL A   1      33.475  28.034  26.095  1.00  0.00     0.021 C 
BRANCH  23  24
ATOM     24  C   UNL A   1      33.522  28.578  27.519  1.00  0.00     0.116 C 
BRANCH  24  25
ATOM     25  N   UNL A   1      33.616  30.029  27.535  1.00  0.00    -0.352 N 
ATOM     26  C   UNL A   1      34.630  30.830  27.999  1.00  0.00     0.251 C 
ATOM     27  H   UNL A   1      32.841  30.507  27.159  1.00  0.00     0.163 HD
ATOM     28  O   UNL A   1      34.454  32.029  28.169  1.00  0.00    -0.269 OA
BRANCH  26  29
ATOM     29  C   UNL A   1      35.941  30.224  28.307  1.00  0.00     0.039 A 
ATOM     30  C   UNL A   1      36.926  30.193  27.317  1.00  0.00     0.014 A 
ATOM     31  C   UNL A   1      36.198  29.702  29.578  1.00  0.00     0.014 A 
ATOM     32  C   UNL A   1      38.196  29.703  27.626  1.00  0.00     0.010 A 
ATOM     33  C   UNL A   1      37.482  29.283  29.905  1.00  0.00     0.010 A 
ATOM     34  C   UNL A   1      38.495  29.286  28.934  1.00  0.00    -0.014 A 
BRANCH  34  35
ATOM     35  C   UNL A   1      39.868  28.875  29.320  1.00  0.00     0.031 A 
ATOM     36  C   UNL A   1      40.735  29.801  30.123  1.00  0.00     0.074 A 
ATOM     37  C   UNL A   1      40.357  27.703  28.873  1.00  0.00     0.049 A 
ATOM     38  N   UNL A   1      41.991  29.669  30.466  1.00  0.00    -0.248 NA
ATOM     39  C   UNL A   1      40.116  31.056  30.578  1.00  0.00     0.031 C 
ATOM     40  C   UNL A   1      39.622  26.737  28.054  1.00  0.00     0.029 A 
ATOM     41  N   UNL A   1      41.596  27.131  29.028  1.00  0.00    -0.354 N 
ATOM     42  C   UNL A   1      42.314  30.824  31.166  1.00  0.00     0.074 A 
ATOM     43  C   UNL A   1      41.140  31.669  31.153  1.00  0.00     0.031 C 
ATOM     44  C   UNL A   1      40.417  25.687  27.793  1.00  0.00     0.029 A 
ATOM     45  C   UNL A   1      41.730  25.926  28.381  1.00  0.00     0.049 A 
ATOM     46  H   UNL A   1      42.318  27.544  29.553  1.00  0.00     0.167 HD
ATOM     47  C   UNL A   1      43.480  31.139  31.780  1.00  0.00     0.037 A 
ATOM     48  C   UNL A   1      42.799  25.116  28.259  1.00  0.00     0.037 A 
ATOM     49  C   UNL A   1      44.639  30.285  31.799  1.00  0.00     0.049 A 
ATOM     50  C   UNL A   1      44.094  25.510  28.917  1.00  0.00     0.074 A 
ATOM     51  C   UNL A   1      45.848  30.486  32.441  1.00  0.00     0.029 A 
ATOM     52  N   UNL A   1      44.738  29.071  31.134  1.00  0.00    -0.354 N 
ATOM     53  N   UNL A   1      44.369  26.571  29.636  1.00  0.00    -0.248 NA
ATOM     54  C   UNL A   1      45.230  24.592  28.747  1.00  0.00     0.031 C 
ATOM     55  C   UNL A   1      46.699  29.426  32.114  1.00  0.00     0.029 A 
ATOM     56  C   UNL A   1      46.000  28.530  31.322  1.00  0.00     0.049 A 
ATOM     57  H   UNL A   1      44.018  28.655  30.607  1.00  0.00     0.167 HD
ATOM     58  C   UNL A   1      45.694  26.436  30.028  1.00  0.00     0.074 A 
ATOM     59  C   UNL A   1      46.165  25.182  29.479  1.00  0.00     0.031 C 
ATOM     60  C   UNL A   1      46.453  27.276  30.773  1.00  0.00     0.037 A 
BRANCH  47  61
ATOM     61  C   UNL A   1      43.563  32.465  32.481  1.00  0.00     0.064 A 
ATOM     62  C   UNL A   1      44.005  33.622  31.821  1.00  0.00     0.173 A 
ATOM     63  C   UNL A   1      43.157  32.589  33.818  1.00  0.00     0.173 A 
ATOM     64  F   UNL A   1      44.413  33.558  30.545  1.00  0.00    -0.203 F 
ATOM     65  C   UNL A   1      44.066  34.846  32.482  1.00  0.00     0.198 A 
ATOM     66  C   UNL A   1      43.188  33.821  34.467  1.00  0.00     0.198 A 
ATOM     67  F   UNL A   1      42.720  31.517  34.496  1.00  0.00    -0.203 F 
ATOM     68  F   UNL A   1      44.540  35.926  31.847  1.00  0.00    -0.200 F 
ATOM     69  C   UNL A   1      43.650  34.947  33.802  1.00  0.00     0.200 A 
ATOM     70  F   UNL A   1      42.770  33.919  35.736  1.00  0.00    -0.200 F 
ATOM     71  F   UNL A   1      43.700  36.126  34.434  1.00  0.00    -0.200 F 
ENDBRANCH  47  61
BRANCH  48  72
ATOM     72  C   UNL A   1      42.689  23.851  27.487  1.00  0.00     0.064 A 
ATOM     73  C   UNL A   1      42.234  22.672  28.094  1.00  0.00     0.173 A 
ATOM     74  C   UNL A   1      43.042  23.789  26.129  1.00  0.00     0.173 A 
ATOM     75  F   UNL A   1      41.903  22.675  29.394  1.00  0.00    -0.203 F 
ATOM     76  C   UNL A   1      42.157  21.478  27.382  1.00  0.00     0.198 A 
ATOM     77  C   UNL A   1      42.934  22.601  25.410  1.00  0.00     0.198 A 
ATOM     78  F   UNL A   1      43.480  24.888  25.498  1.00  0.00    -0.203 F 
ATOM     79  F   UNL A   1      41.766  20.356  28.002  1.00  0.00    -0.200 F 
ATOM     80  C   UNL A   1      42.501  21.444  26.039  1.00  0.00     0.200 A 
ATOM     81  F   UNL A   1      43.251  22.577  24.109  1.00  0.00    -0.200 F 
ATOM     82  F   UNL A   1      42.423  20.296  25.354  1.00  0.00    -0.200 F 
ENDBRANCH  48  72
BRANCH  60  83
ATOM     83  C   UNL A   1      47.864  26.855  31.070  1.00  0.00     0.064 A 
ATOM     84  C   UNL A   1      48.172  26.022  32.154  1.00  0.00     0.173 A 
ATOM     85  C   UNL A   1      48.913  27.249  30.225  1.00  0.00     0.173 A 
ATOM     86  F   UNL A   1      47.207  25.630  33.001  1.00  0.00    -0.203 F 
ATOM     87  C   UNL A   1      49.482  25.614  32.393  1.00  0.00     0.198 A 
ATOM     88  C   UNL A   1      50.216  26.812  30.447  1.00  0.00     0.198 A 
ATOM     89  F   UNL A   1      48.672  28.041  29.170  1.00  0.00    -0.203 F 
ATOM     90  F   UNL A   1      49.759  24.853  33.461  1.00  0.00    -0.200 F 
ATOM     91  C   UNL A   1      50.500  26.000  31.534  1.00  0.00     0.200 A 
ATOM     92  F   UNL A   1      51.195  27.172  29.607  1.00  0.00    -0.200 F 
ATOM     93  F   UNL A   1      51.757  25.594  31.759  1.00  0.00    -0.200 F 
ENDBRANCH  60  83
ENDBRANCH  34  35
ENDBRANCH  26  29
ENDBRANCH  24  25
ENDBRANCH  23  24
ENDBRANCH  22  23
ENDBRANCH   1  22
TORSDOF 17
ENDMDL
MODEL 2
REMARK VINA RESULT:     -11.0      4.143      6.513
REMARK SMILES COc1cc(/C=C/C(=O)NCCCCCCNC(=O)c2ccc(-c3c4nc(c(-c5c(F)c(F)c(F)c(F)c5F)c5ccc([nH]5)c(-c5c(F)c(F)c(F)c(F)c5F)c5nc(c(-c6c(F)c(F)c(F)c(F)c6F)c6ccc3[nH]6)C=C5)C=C4)cc2)cc(OC)c1O
REMARK SMILES IDX 13 1 12 2 11 3 10 4 8 5 9 6 7 8 6 9 5 10 3 11 4 12 87 13
REMARK SMILES IDX 84 14 83 15 2 16 1 17 88 18 85 20 86 21 14 22 15 23 16 24
REMARK SMILES IDX 17 25 18 26 19 28 20 29 21 30 82 31 22 32 81 33 23 34 24 35
REMARK SMILES IDX 25 36 75 37 26 38 80 39 74 40 76 41 27 42 79 43 73 44 72 45
REMARK SMILES IDX 28 47 60 48 40 49 59 50 41 51 44 52 58 53 77 54 42 55 43 56
REMARK SMILES IDX 57 58 78 59 45 60 29 61 30 62 38 63 31 64 32 65 36 66 39 67
REMARK SMILES IDX 33 68 34 69 37 70 35 71 61 72 62 73 70 74 63 75 64 76 68 77
REMARK SMILES IDX 71 78 65 79 66 80 69 81 67 82 46 83 47 84 55 85 48 86 49 87
REMARK SMILES IDX 53 88 56 89 50 90 51 91 54 92 52 93
REMARK H PARENT 10 7 88 19 17 27 76 46 44 57
REMARK Flexibility Score: inf
ROOT
ATOM      1  C   UNL A   1      35.154  32.924  29.004  1.00  0.00     0.002 C 
ENDROOT
BRANCH   1   2
ATOM      2  C   UNL A   1      35.829  31.988  27.991  1.00  0.00     0.021 C 
BRANCH   2   3
ATOM      3  C   UNL A   1      35.333  30.545  28.080  1.00  0.00     0.116 C 
BRANCH   3   4
ATOM      4  N   UNL A   1      33.889  30.512  27.952  1.00  0.00    -0.353 N 
ATOM      5  C   UNL A   1      33.067  29.709  27.232  1.00  0.00     0.243 C 
ATOM      6  O   UNL A   1      31.851  29.877  27.304  1.00  0.00    -0.270 OA
ATOM      7  H   UNL A   1      33.421  31.196  28.483  1.00  0.00     0.163 HD
BRANCH   5   8
ATOM      8  C   UNL A   1      33.588  28.570  26.445  1.00  0.00     0.072 C 
ATOM      9  C   UNL A   1      32.869  27.739  25.677  1.00  0.00     0.014 C 
BRANCH   9  10
ATOM     10  C   UNL A   1      33.453  26.630  24.910  1.00  0.00    -0.018 A 
ATOM     11  C   UNL A   1      34.554  24.452  24.785  1.00  0.00     0.165 A 
ATOM     12  C   UNL A   1      34.063  25.537  25.527  1.00  0.00     0.058 A 
ATOM     13  C   UNL A   1      34.424  24.465  23.386  1.00  0.00     0.200 A 
ATOM     14  C   UNL A   1      33.827  25.562  22.744  1.00  0.00     0.165 A 
ATOM     15  C   UNL A   1      33.347  26.630  23.517  1.00  0.00     0.058 A 
BRANCH  11  16
ATOM     16  O   UNL A   1      35.108  23.498  25.595  1.00  0.00    -0.493 OA
ATOM     17  C   UNL A   1      36.505  23.470  25.815  1.00  0.00     0.278 C 
ENDBRANCH  11  16
BRANCH  13  18
ATOM     18  O   UNL A   1      34.849  23.401  22.644  1.00  0.00    -0.502 OA
ATOM     19  H   UNL A   1      35.646  23.460  22.153  1.00  0.00     0.293 HD
ENDBRANCH  13  18
BRANCH  14  20
ATOM     20  O   UNL A   1      33.607  25.758  21.405  1.00  0.00    -0.493 OA
ATOM     21  C   UNL A   1      32.293  25.607  20.890  1.00  0.00     0.278 C 
ENDBRANCH  14  20
ENDBRANCH   9  10
ENDBRANCH   5   8
ENDBRANCH   3   4
ENDBRANCH   2   3
ENDBRANCH   1   2
BRANCH   1  22
ATOM     22  C   UNL A   1      35.531  34.404  28.858  1.00  0.00     0.002 C 
BRANCH  22  23
ATOM     23  C   UNL A   1      34.347  35.373  28.901  1.00  0.00     0.021 C 
BRANCH  23  24
ATOM     24  C   UNL A   1      33.084  34.780  29.518  1.00  0.00     0.116 C 
BRANCH  24  25
ATOM     25  N   UNL A   1      32.506  35.669  30.513  1.00  0.00    -0.352 N 
ATOM     26  C   UNL A   1      32.749  35.739  31.863  1.00  0.00     0.251 C 
ATOM     27  H   UNL A   1      31.845  36.313  30.170  1.00  0.00     0.163 HD
ATOM     28  O   UNL A   1      32.004  36.370  32.601  1.00  0.00    -0.269 OA
BRANCH  26  29
ATOM     29  C   UNL A   1      33.917  35.029  32.421  1.00  0.00     0.039 A 
ATOM     30  C   UNL A   1      33.750  33.738  32.928  1.00  0.00     0.014 A 
ATOM     31  C   UNL A   1      35.176  35.636  32.428  1.00  0.00     0.014 A 
ATOM     32  C   UNL A   1      34.865  33.027  33.375  1.00  0.00     0.010 A 
ATOM     33  C   UNL A   1      36.293  34.901  32.806  1.00  0.00     0.010 A 
ATOM     34  C   UNL A   1      36.150  33.586  33.277  1.00  0.00    -0.014 A 
BRANCH  34  35
ATOM     35  C   UNL A   1      37.362  32.808  33.632  1.00  0.00     0.031 A 
ATOM     36  C   UNL A   1      38.107  33.110  34.900  1.00  0.00     0.074 A 
ATOM     37  C   UNL A   1      37.835  31.891  32.768  1.00  0.00     0.049 A 
ATOM     38  N   UNL A   1      39.240  32.616  35.331  1.00  0.00    -0.248 NA
ATOM     39  C   UNL A   1      37.514  34.121  35.790  1.00  0.00     0.031 C 
ATOM     40  C   UNL A   1      37.219  31.538  31.488  1.00  0.00     0.029 A 
ATOM     41  N   UNL A   1      38.954  31.098  32.826  1.00  0.00    -0.354 N 
ATOM     42  C   UNL A   1      39.499  33.261  36.534  1.00  0.00     0.074 A 
ATOM     43  C   UNL A   1      38.435  34.220  36.738  1.00  0.00     0.031 C 
ATOM     44  C   UNL A   1      37.957  30.590  30.890  1.00  0.00     0.029 A 
ATOM     45  C   UNL A   1      39.124  30.304  31.718  1.00  0.00     0.049 A 
ATOM     46  H   UNL A   1      39.576  31.098  33.589  1.00  0.00     0.167 HD
ATOM     47  C   UNL A   1      40.523  33.057  37.397  1.00  0.00     0.037 A 
ATOM     48  C   UNL A   1      40.120  29.455  31.397  1.00  0.00     0.037 A 
ATOM     49  C   UNL A   1      41.571  32.092  37.191  1.00  0.00     0.049 A 
ATOM     50  C   UNL A   1      41.267  29.277  32.355  1.00  0.00     0.074 A 
ATOM     51  C   UNL A   1      42.621  31.767  38.032  1.00  0.00     0.029 A 
ATOM     52  N   UNL A   1      41.709  31.304  36.057  1.00  0.00    -0.354 N 
ATOM     53  N   UNL A   1      41.466  29.840  33.522  1.00  0.00    -0.248 NA
ATOM     54  C   UNL A   1      42.328  28.343  31.952  1.00  0.00     0.031 C 
ATOM     55  C   UNL A   1      43.429  30.829  37.381  1.00  0.00     0.029 A 
ATOM     56  C   UNL A   1      42.847  30.519  36.162  1.00  0.00     0.049 A 
ATOM     57  H   UNL A   1      41.091  31.301  35.292  1.00  0.00     0.167 HD
ATOM     58  C   UNL A   1      42.655  29.310  34.004  1.00  0.00     0.074 A 
ATOM     59  C   UNL A   1      43.126  28.369  33.010  1.00  0.00     0.031 C 
ATOM     60  C   UNL A   1      43.300  29.581  35.165  1.00  0.00     0.037 A 
BRANCH  47  61
ATOM     61  C   UNL A   1      40.563  33.895  38.643  1.00  0.00     0.064 A 
ATOM     62  C   UNL A   1      39.885  33.515  39.811  1.00  0.00     0.173 A 
ATOM     63  C   UNL A   1      41.322  35.075  38.681  1.00  0.00     0.173 A 
ATOM     64  F   UNL A   1      39.136  32.402  39.825  1.00  0.00    -0.203 F 
ATOM     65  C   UNL A   1      39.941  34.299  40.960  1.00  0.00     0.198 A 
ATOM     66  C   UNL A   1      41.404  35.838  39.842  1.00  0.00     0.198 A 
ATOM     67  F   UNL A   1      41.997  35.482  37.595  1.00  0.00    -0.203 F 
ATOM     68  F   UNL A   1      39.243  33.942  42.047  1.00  0.00    -0.200 F 
ATOM     69  C   UNL A   1      40.707  35.455  40.978  1.00  0.00     0.200 A 
ATOM     70  F   UNL A   1      42.157  36.946  39.863  1.00  0.00    -0.200 F 
ATOM     71  F   UNL A   1      40.767  36.204  42.088  1.00  0.00    -0.200 F 
ENDBRANCH  47  61
BRANCH  48  72
ATOM     72  C   UNL A   1      40.074  28.708  30.113  1.00  0.00     0.064 A 
ATOM     73  C   UNL A   1      39.461  27.450  30.032  1.00  0.00     0.173 A 
ATOM     74  C   UNL A   1      40.648  29.228  28.942  1.00  0.00     0.173 A 
ATOM     75  F   UNL A   1      38.916  26.901  31.128  1.00  0.00    -0.203 F 
ATOM     76  C   UNL A   1      39.442  26.732  28.839  1.00  0.00     0.198 A 
ATOM     77  C   UNL A   1      40.599  28.523  27.741  1.00  0.00     0.198 A 
ATOM     78  F   UNL A   1      41.244  30.429  28.962  1.00  0.00    -0.203 F 
ATOM     79  F   UNL A   1      38.892  25.510  28.803  1.00  0.00    -0.200 F 
ATOM     80  C   UNL A   1      40.005  27.272  27.692  1.00  0.00     0.200 A 
ATOM     81  F   UNL A   1      41.130  29.057  26.633  1.00  0.00    -0.200 F 
ATOM     82  F   UNL A   1      39.983  26.583  26.543  1.00  0.00    -0.200 F 
ENDBRANCH  48  72
BRANCH  60  83
ATOM     83  C   UNL A   1      44.569  28.827  35.444  1.00  0.00     0.064 A 
ATOM     84  C   UNL A   1      45.824  29.333  35.079  1.00  0.00     0.173 A 
ATOM     85  C   UNL A   1      44.530  27.606  36.136  1.00  0.00     0.173 A 
ATOM     86  F   UNL A   1      45.915  30.489  34.402  1.00  0.00    -0.203 F 
ATOM     87  C   UNL A   1      46.991  28.636  35.378  1.00  0.00     0.198 A 
ATOM     88  C   UNL A   1      45.701  26.928  36.463  1.00  0.00     0.198 A 
ATOM     89  F   UNL A   1      43.355  27.080  36.515  1.00  0.00    -0.203 F 
ATOM     90  F   UNL A   1      48.177  29.119  34.979  1.00  0.00    -0.200 F 
ATOM     91  C   UNL A   1      46.930  27.441  36.078  1.00  0.00     0.200 A 
ATOM     92  F   UNL A   1      45.640  25.782  37.154  1.00  0.00    -0.200 F 
ATOM     93  F   UNL A   1      48.056  26.780  36.377  1.00  0.00    -0.200 F 
ENDBRANCH  60  83
ENDBRANCH  34  35
ENDBRANCH  26  29
ENDBRANCH  24  25
ENDBRANCH  23  24
ENDBRANCH  22  23
ENDBRANCH   1  22
TORSDOF 17
ENDMDL
MODEL 3
REMARK VINA RESULT:     -10.9      2.920      7.942
REMARK SMILES COc1cc(/C=C/C(=O)NCCCCCCNC(=O)c2ccc(-c3c4nc(c(-c5c(F)c(F)c(F)c(F)c5F)c5ccc([nH]5)c(-c5c(F)c(F)c(F)c(F)c5F)c5nc(c(-c6c(F)c(F)c(F)c(F)c6F)c6ccc3[nH]6)C=C5)C=C4)cc2)cc(OC)c1O
REMARK SMILES IDX 13 1 12 2 11 3 10 4 8 5 9 6 7 8 6 9 5 10 3 11 4 12 87 13
REMARK SMILES IDX 84 14 83 15 2 16 1 17 88 18 85 20 86 21 14 22 15 23 16 24
REMARK SMILES IDX 17 25 18 26 19 28 20 29 21 30 82 31 22 32 81 33 23 34 24 35
REMARK SMILES IDX 25 36 75 37 26 38 80 39 74 40 76 41 27 42 79 43 73 44 72 45
REMARK SMILES IDX 28 47 60 48 40 49 59 50 41 51 44 52 58 53 77 54 42 55 43 56
REMARK SMILES IDX 57 58 78 59 45 60 29 61 30 62 38 63 31 64 32 65 36 66 39 67
REMARK SMILES IDX 33 68 34 69 37 70 35 71 61 72 62 73 70 74 63 75 64 76 68 77
REMARK SMILES IDX 71 78 65 79 66 80 69 81 67 82 46 83 47 84 55 85 48 86 49 87
REMARK SMILES IDX 53 88 56 89 50 90 51 91 54 92 52 93
REMARK H PARENT 10 7 88 19 17 27 76 46 44 57
REMARK Flexibility Score: inf
ROOT
ATOM      1  C   UNL A   1      30.820  29.432  24.028  1.00  0.00     0.002 C 
ENDROOT
BRANCH   1   2
ATOM      2  C   UNL A   1      29.890  28.659  23.083  1.00  0.00     0.021 C 
BRANCH   2   3
ATOM      3  C   UNL A   1      30.514  27.372  22.544  1.00  0.00     0.116 C 
BRANCH   3   4
ATOM      4  N   UNL A   1      31.828  27.652  21.998  1.00  0.00    -0.353 N 
ATOM      5  C   UNL A   1      33.049  27.132  22.278  1.00  0.00     0.243 C 
ATOM      6  O   UNL A   1      34.029  27.534  21.654  1.00  0.00    -0.270 OA
ATOM      7  H   UNL A   1      31.835  28.344  21.298  1.00  0.00     0.163 HD
BRANCH   5   8
ATOM      8  C   UNL A   1      33.218  26.019  23.238  1.00  0.00     0.072 C 
ATOM      9  C   UNL A   1      34.016  26.013  24.316  1.00  0.00     0.014 C 
BRANCH   9  10
ATOM     10  C   UNL A   1      34.128  24.874  25.238  1.00  0.00    -0.018 A 
ATOM     11  C   UNL A   1      33.143  23.260  26.784  1.00  0.00     0.165 A 
ATOM     12  C   UNL A   1      33.038  24.391  25.962  1.00  0.00     0.058 A 
ATOM     13  C   UNL A   1      34.376  22.593  26.877  1.00  0.00     0.200 A 
ATOM     14  C   UNL A   1      35.491  23.071  26.168  1.00  0.00     0.165 A 
ATOM     15  C   UNL A   1      35.349  24.206  25.355  1.00  0.00     0.058 A 
BRANCH  11  16
ATOM     16  O   UNL A   1      31.953  22.969  27.395  1.00  0.00    -0.493 OA
ATOM     17  C   UNL A   1      30.739  23.475  26.874  1.00  0.00     0.278 C 
ENDBRANCH  11  16
BRANCH  13  18
ATOM     18  O   UNL A   1      34.495  21.462  27.631  1.00  0.00    -0.502 OA
ATOM     19  H   UNL A   1      35.263  20.928  27.560  1.00  0.00     0.293 HD
ENDBRANCH  13  18
BRANCH  14  20
ATOM     20  O   UNL A   1      36.764  22.563  26.125  1.00  0.00    -0.493 OA
ATOM     21  C   UNL A   1      37.021  21.407  25.344  1.00  0.00     0.278 C 
ENDBRANCH  14  20
ENDBRANCH   9  10
ENDBRANCH   5   8
ENDBRANCH   3   4
ENDBRANCH   2   3
ENDBRANCH   1   2
BRANCH   1  22
ATOM     22  C   UNL A   1      31.255  28.654  25.276  1.00  0.00     0.002 C 
BRANCH  22  23
ATOM     23  C   UNL A   1      32.588  29.104  25.880  1.00  0.00     0.021 C 
BRANCH  23  24
ATOM     24  C   UNL A   1      32.446  29.859  27.197  1.00  0.00     0.116 C 
BRANCH  24  25
ATOM     25  N   UNL A   1      32.488  31.299  26.996  1.00  0.00    -0.352 N 
ATOM     26  C   UNL A   1      33.400  32.215  27.458  1.00  0.00     0.251 C 
ATOM     27  H   UNL A   1      31.758  31.671  26.450  1.00  0.00     0.163 HD
ATOM     28  O   UNL A   1      33.162  33.415  27.411  1.00  0.00    -0.269 OA
BRANCH  26  29
ATOM     29  C   UNL A   1      34.675  31.736  28.030  1.00  0.00     0.039 A 
ATOM     30  C   UNL A   1      35.744  32.627  28.151  1.00  0.00     0.014 A 
ATOM     31  C   UNL A   1      34.804  30.412  28.458  1.00  0.00     0.014 A 
ATOM     32  C   UNL A   1      36.921  32.207  28.771  1.00  0.00     0.010 A 
ATOM     33  C   UNL A   1      35.949  30.017  29.140  1.00  0.00     0.010 A 
ATOM     34  C   UNL A   1      37.016  30.912  29.309  1.00  0.00    -0.014 A 
BRANCH  34  35
ATOM     35  C   UNL A   1      38.209  30.479  30.078  1.00  0.00     0.031 A 
ATOM     36  C   UNL A   1      39.157  29.470  29.497  1.00  0.00     0.074 A 
ATOM     37  C   UNL A   1      38.386  30.933  31.333  1.00  0.00     0.049 A 
ATOM     38  N   UNL A   1      40.190  28.890  30.051  1.00  0.00    -0.248 NA
ATOM     39  C   UNL A   1      38.892  29.035  28.116  1.00  0.00     0.031 C 
ATOM     40  C   UNL A   1      37.512  31.886  32.019  1.00  0.00     0.029 A 
ATOM     41  N   UNL A   1      39.353  30.641  32.264  1.00  0.00    -0.354 N 
ATOM     42  C   UNL A   1      40.691  28.017  29.094  1.00  0.00     0.074 A 
ATOM     43  C   UNL A   1      39.818  28.104  27.944  1.00  0.00     0.031 C 
ATOM     44  C   UNL A   1      37.989  32.112  33.253  1.00  0.00     0.029 A 
ATOM     45  C   UNL A   1      39.172  31.284  33.464  1.00  0.00     0.049 A 
ATOM     46  H   UNL A   1      40.103  30.029  32.088  1.00  0.00     0.167 HD
ATOM     47  C   UNL A   1      41.792  27.231  29.164  1.00  0.00     0.037 A 
ATOM     48  C   UNL A   1      39.870  31.200  34.613  1.00  0.00     0.037 A 
ATOM     49  C   UNL A   1      42.662  27.161  30.309  1.00  0.00     0.049 A 
ATOM     50  C   UNL A   1      41.066  30.287  34.678  1.00  0.00     0.074 A 
ATOM     51  C   UNL A   1      43.833  26.440  30.459  1.00  0.00     0.029 A 
ATOM     52  N   UNL A   1      42.448  27.828  31.507  1.00  0.00    -0.354 N 
ATOM     53  N   UNL A   1      41.573  29.519  33.743  1.00  0.00    -0.248 NA
ATOM     54  C   UNL A   1      41.788  30.229  35.956  1.00  0.00     0.031 C 
ATOM     55  C   UNL A   1      44.295  26.621  31.766  1.00  0.00     0.029 A 
ATOM     56  C   UNL A   1      43.448  27.507  32.412  1.00  0.00     0.049 A 
ATOM     57  H   UNL A   1      41.698  28.439  31.688  1.00  0.00     0.167 HD
ATOM     58  C   UNL A   1      42.684  28.911  34.309  1.00  0.00     0.074 A 
ATOM     59  C   UNL A   1      42.789  29.411  35.664  1.00  0.00     0.031 C 
ATOM     60  C   UNL A   1      43.541  28.018  33.757  1.00  0.00     0.037 A 
BRANCH  47  61
ATOM     61  C   UNL A   1      42.117  26.378  27.971  1.00  0.00     0.064 A 
ATOM     62  C   UNL A   1      43.049  26.785  27.004  1.00  0.00     0.173 A 
ATOM     63  C   UNL A   1      41.518  25.119  27.813  1.00  0.00     0.173 A 
ATOM     64  F   UNL A   1      43.644  27.983  27.102  1.00  0.00    -0.203 F 
ATOM     65  C   UNL A   1      43.346  25.978  25.909  1.00  0.00     0.198 A 
ATOM     66  C   UNL A   1      41.842  24.300  26.735  1.00  0.00     0.198 A 
ATOM     67  F   UNL A   1      40.624  24.676  28.711  1.00  0.00    -0.203 F 
ATOM     68  F   UNL A   1      44.200  26.411  24.973  1.00  0.00    -0.200 F 
ATOM     69  C   UNL A   1      42.749  24.732  25.780  1.00  0.00     0.200 A 
ATOM     70  F   UNL A   1      41.277  23.090  26.620  1.00  0.00    -0.200 F 
ATOM     71  F   UNL A   1      43.043  23.953  24.731  1.00  0.00    -0.200 F 
ENDBRANCH  47  61
BRANCH  48  72
ATOM     72  C   UNL A   1      39.460  32.005  35.794  1.00  0.00     0.064 A 
ATOM     73  C   UNL A   1      38.439  31.564  36.647  1.00  0.00     0.173 A 
ATOM     74  C   UNL A   1      40.073  33.232  36.091  1.00  0.00     0.173 A 
ATOM     75  F   UNL A   1      37.809  30.408  36.394  1.00  0.00    -0.203 F 
ATOM     76  C   UNL A   1      38.031  32.329  37.737  1.00  0.00     0.198 A 
ATOM     77  C   UNL A   1      39.686  33.981  37.200  1.00  0.00     0.198 A 
ATOM     78  F   UNL A   1      41.058  33.699  35.310  1.00  0.00    -0.203 F 
ATOM     79  F   UNL A   1      37.018  31.908  38.506  1.00  0.00    -0.200 F 
ATOM     80  C   UNL A   1      38.659  33.534  38.017  1.00  0.00     0.200 A 
ATOM     81  F   UNL A   1      40.307  35.135  37.476  1.00  0.00    -0.200 F 
ATOM     82  F   UNL A   1      38.269  34.267  39.068  1.00  0.00    -0.200 F 
ENDBRANCH  48  72
BRANCH  60  83
ATOM     83  C   UNL A   1      44.689  27.545  34.603  1.00  0.00     0.064 A 
ATOM     84  C   UNL A   1      45.900  28.248  34.663  1.00  0.00     0.173 A 
ATOM     85  C   UNL A   1      44.553  26.401  35.406  1.00  0.00     0.173 A 
ATOM     86  F   UNL A   1      46.086  29.339  33.904  1.00  0.00    -0.203 F 
ATOM     87  C   UNL A   1      46.940  27.813  35.480  1.00  0.00     0.198 A 
ATOM     88  C   UNL A   1      45.583  25.988  36.247  1.00  0.00     0.198 A 
ATOM     89  F   UNL A   1      43.412  25.695  35.391  1.00  0.00    -0.203 F 
ATOM     90  F   UNL A   1      48.105  28.477  35.488  1.00  0.00    -0.200 F 
ATOM     91  C   UNL A   1      46.777  26.691  36.279  1.00  0.00     0.200 A 
ATOM     92  F   UNL A   1      45.417  24.914  37.030  1.00  0.00    -0.200 F 
ATOM     93  F   UNL A   1      47.775  26.283  37.075  1.00  0.00    -0.200 F 
ENDBRANCH  60  83
ENDBRANCH  34  35
ENDBRANCH  26  29
ENDBRANCH  24  25
ENDBRANCH  23  24
ENDBRANCH  22  23
ENDBRANCH   1  22
TORSDOF 17
ENDMDL
