MODEL 1
REMARK VINA RESULT:     -12.7      0.000      0.000
REMARK SMILES O=C(NCCCCCCNC(=O)c1ccc(-c2cccc(O)c2)cc1Cl)c1ccc(-c2c3nc(c(-c4c(F)c(F)c(F)c(F)c4F)c4ccc([nH]4)c(-c4c(F)c(F)c(F)c(F)c4F)c4nc(c(-c5c(F)c(F)c(F)c(F)c5F)c5ccc2[nH]5)C=C4)C=C3)cc1
REMARK SMILES IDX 6 1 5 2 4 3 3 4 1 5 2 6 27 8 28 9 89 10 29 11 88 12 30 13
REMARK SMILES IDX 31 14 32 15 82 16 33 17 87 18 81 19 83 20 34 21 86 22 80 23
REMARK SMILES IDX 79 24 35 26 67 27 47 28 66 29 48 30 51 31 65 32 84 33 49 34
REMARK SMILES IDX 50 35 64 37 85 38 52 39 36 40 37 41 45 42 38 43 39 44 43 45
REMARK SMILES IDX 46 46 40 47 41 48 44 49 42 50 68 51 69 52 77 53 70 54 71 55
REMARK SMILES IDX 75 56 78 57 72 58 73 59 76 60 74 61 53 62 54 63 62 64 55 65
REMARK SMILES IDX 56 66 60 67 63 68 57 69 58 70 61 71 59 72 7 73 8 74 9 75
REMARK SMILES IDX 10 76 11 77 12 79 13 80 14 81 25 82 15 83 24 84 26 85 16 86
REMARK SMILES IDX 17 87 18 88 23 89 19 90 21 91 20 92 22 93
REMARK H PARENT 3 7 83 25 51 36 10 78 22 94
REMARK Flexibility Score: inf
ROOT
ATOM      1  C   UNL A   1      31.609  30.509  26.180  1.00  0.00     0.002 C 
ENDROOT
BRANCH   1   2
ATOM      2  C   UNL A   1      31.447  31.993  26.508  1.00  0.00     0.021 C 
BRANCH   2   3
ATOM      3  C   UNL A   1      32.617  32.603  27.266  1.00  0.00     0.116 C 
BRANCH   3   4
ATOM      4  N   UNL A   1      32.402  34.006  27.579  1.00  0.00    -0.352 N 
ATOM      5  O   UNL A   1      32.622  35.904  28.788  1.00  0.00    -0.269 OA
ATOM      6  C   UNL A   1      33.033  34.777  28.522  1.00  0.00     0.251 C 
ATOM      7  H   UNL A   1      31.715  34.463  27.043  1.00  0.00     0.163 HD
BRANCH   6   8
ATOM      8  C   UNL A   1      34.213  34.236  29.227  1.00  0.00     0.039 A 
ATOM      9  C   UNL A   1      34.050  33.464  30.381  1.00  0.00     0.014 A 
ATOM     10  C   UNL A   1      35.489  34.488  28.720  1.00  0.00     0.014 A 
ATOM     11  C   UNL A   1      35.165  33.030  31.085  1.00  0.00     0.010 A 
ATOM     12  C   UNL A   1      36.609  33.976  29.380  1.00  0.00     0.010 A 
ATOM     13  C   UNL A   1      36.453  33.244  30.569  1.00  0.00    -0.014 A 
BRANCH  13  14
ATOM     14  C   UNL A   1      37.605  32.561  31.204  1.00  0.00     0.031 A 
ATOM     15  C   UNL A   1      38.317  31.427  30.530  1.00  0.00     0.074 A 
ATOM     16  C   UNL A   1      37.990  32.985  32.424  1.00  0.00     0.049 A 
ATOM     17  N   UNL A   1      39.317  30.708  30.973  1.00  0.00    -0.248 NA
ATOM     18  C   UNL A   1      37.848  31.040  29.190  1.00  0.00     0.031 C 
ATOM     19  C   UNL A   1      37.349  34.069  33.177  1.00  0.00     0.029 A 
ATOM     20  N   UNL A   1      39.001  32.565  33.249  1.00  0.00    -0.354 N 
ATOM     21  C   UNL A   1      39.586  29.773  29.982  1.00  0.00     0.074 A 
ATOM     22  C   UNL A   1      38.636  30.007  28.914  1.00  0.00     0.031 C 
ATOM     23  C   UNL A   1      37.994  34.243  34.338  1.00  0.00     0.029 A 
ATOM     24  C   UNL A   1      39.042  33.236  34.447  1.00  0.00     0.049 A 
ATOM     25  H   UNL A   1      39.635  31.851  33.007  1.00  0.00     0.167 HD
ATOM     26  C   UNL A   1      40.541  28.814  29.976  1.00  0.00     0.037 A 
ATOM     27  C   UNL A   1      39.810  33.038  35.534  1.00  0.00     0.037 A 
ATOM     28  C   UNL A   1      41.492  28.610  31.041  1.00  0.00     0.049 A 
ATOM     29  C   UNL A   1      40.830  31.937  35.502  1.00  0.00     0.074 A 
ATOM     30  C   UNL A   1      42.549  27.717  31.090  1.00  0.00     0.029 A 
ATOM     31  N   UNL A   1      41.490  29.292  32.248  1.00  0.00    -0.354 N 
ATOM     32  N   UNL A   1      41.128  31.114  34.527  1.00  0.00    -0.248 NA
ATOM     33  C   UNL A   1      41.617  31.730  36.726  1.00  0.00     0.031 C 
ATOM     34  C   UNL A   1      43.142  27.810  32.352  1.00  0.00     0.029 A 
ATOM     35  C   UNL A   1      42.495  28.804  33.068  1.00  0.00     0.049 A 
ATOM     36  H   UNL A   1      40.866  30.016  32.487  1.00  0.00     0.167 HD
ATOM     37  C   UNL A   1      42.141  30.300  35.014  1.00  0.00     0.074 A 
ATOM     38  C   UNL A   1      42.431  30.752  36.358  1.00  0.00     0.031 C 
ATOM     39  C   UNL A   1      42.766  29.263  34.406  1.00  0.00     0.037 A 
BRANCH  26  40
ATOM     40  C   UNL A   1      40.614  27.884  28.800  1.00  0.00     0.064 A 
ATOM     41  C   UNL A   1      39.857  26.706  28.740  1.00  0.00     0.173 A 
ATOM     42  C   UNL A   1      41.365  28.240  27.668  1.00  0.00     0.173 A 
ATOM     43  F   UNL A   1      39.127  26.318  29.796  1.00  0.00    -0.203 F 
ATOM     44  C   UNL A   1      39.851  25.917  27.591  1.00  0.00     0.198 A 
ATOM     45  C   UNL A   1      41.337  27.463  26.513  1.00  0.00     0.198 A 
ATOM     46  F   UNL A   1      42.099  29.362  27.670  1.00  0.00    -0.203 F 
ATOM     47  F   UNL A   1      39.133  24.786  27.561  1.00  0.00    -0.200 F 
ATOM     48  C   UNL A   1      40.581  26.302  26.476  1.00  0.00     0.200 A 
ATOM     49  F   UNL A   1      42.029  27.846  25.431  1.00  0.00    -0.200 F 
ATOM     50  F   UNL A   1      40.552  25.556  25.363  1.00  0.00    -0.200 F 
ENDBRANCH  26  40
BRANCH  27  51
ATOM     51  C   UNL A   1      39.604  33.861  36.755  1.00  0.00     0.064 A 
ATOM     52  C   UNL A   1      38.804  33.405  37.810  1.00  0.00     0.173 A 
ATOM     53  C   UNL A   1      40.185  35.133  36.878  1.00  0.00     0.173 A 
ATOM     54  F   UNL A   1      38.214  32.203  37.734  1.00  0.00    -0.203 F 
ATOM     55  C   UNL A   1      38.563  34.205  38.925  1.00  0.00     0.198 A 
ATOM     56  C   UNL A   1      39.975  35.915  38.011  1.00  0.00     0.198 A 
ATOM     57  F   UNL A   1      40.965  35.615  35.900  1.00  0.00    -0.203 F 
ATOM     58  F   UNL A   1      37.740  33.772  39.890  1.00  0.00    -0.200 F 
ATOM     59  C   UNL A   1      39.151  35.456  39.027  1.00  0.00     0.200 A 
ATOM     60  F   UNL A   1      40.562  37.115  38.113  1.00  0.00    -0.200 F 
ATOM     61  F   UNL A   1      38.916  36.226  40.099  1.00  0.00    -0.200 F 
ENDBRANCH  27  51
BRANCH  39  62
ATOM     62  C   UNL A   1      43.830  28.554  35.191  1.00  0.00     0.064 A 
ATOM     63  C   UNL A   1      45.177  28.937  35.107  1.00  0.00     0.173 A 
ATOM     64  C   UNL A   1      43.496  27.506  36.061  1.00  0.00     0.173 A 
ATOM     65  F   UNL A   1      45.549  29.919  34.273  1.00  0.00    -0.203 F 
ATOM     66  C   UNL A   1      46.154  28.278  35.847  1.00  0.00     0.198 A 
ATOM     67  C   UNL A   1      44.471  26.873  36.826  1.00  0.00     0.198 A 
ATOM     68  F   UNL A   1      42.221  27.106  36.181  1.00  0.00    -0.203 F 
ATOM     69  F   UNL A   1      47.441  28.625  35.711  1.00  0.00    -0.200 F 
ATOM     70  C   UNL A   1      45.800  27.253  36.712  1.00  0.00     0.200 A 
ATOM     71  F   UNL A   1      44.125  25.893  37.672  1.00  0.00    -0.200 F 
ATOM     72  F   UNL A   1      46.741  26.627  37.431  1.00  0.00    -0.200 F 
ENDBRANCH  39  62
ENDBRANCH  13  14
ENDBRANCH   6   8
ENDBRANCH   3   4
ENDBRANCH   2   3
ENDBRANCH   1   2
BRANCH   1  73
ATOM     73  C   UNL A   1      32.298  29.671  27.262  1.00  0.00     0.002 C 
BRANCH  73  74
ATOM     74  C   UNL A   1      32.272  28.156  27.039  1.00  0.00     0.021 C 
BRANCH  74  75
ATOM     75  C   UNL A   1      33.458  27.602  26.257  1.00  0.00     0.116 C 
BRANCH  75  76
ATOM     76  N   UNL A   1      33.167  26.312  25.654  1.00  0.00    -0.352 N 
ATOM     77  C   UNL A   1      32.326  26.027  24.609  1.00  0.00     0.252 C 
ATOM     78  H   UNL A   1      33.634  25.541  26.049  1.00  0.00     0.163 HD
ATOM     79  O   UNL A   1      32.130  24.870  24.255  1.00  0.00    -0.269 OA
BRANCH  77  80
ATOM     80  C   UNL A   1      31.595  27.124  23.954  1.00  0.00     0.058 A 
ATOM     81  C   UNL A   1      30.220  27.208  24.195  1.00  0.00     0.016 A 
ATOM     82  C   UNL A   1      32.224  28.065  23.138  1.00  0.00     0.054 A 
ATOM     83  C   UNL A   1      29.486  28.274  23.667  1.00  0.00     0.009 A 
ATOM     84  C   UNL A   1      31.487  29.139  22.632  1.00  0.00     0.030 A 
ATOM     85  Cl  UNL A   1      33.894  27.964  22.703  1.00  0.00    -0.083 Cl
ATOM     86  C   UNL A   1      30.110  29.269  22.894  1.00  0.00    -0.017 A 
BRANCH  86  87
ATOM     87  C   UNL A   1      29.353  30.416  22.367  1.00  0.00    -0.015 A 
ATOM     88  C   UNL A   1      28.599  30.303  21.185  1.00  0.00     0.009 A 
ATOM     89  C   UNL A   1      29.375  31.663  23.015  1.00  0.00     0.054 A 
ATOM     90  C   UNL A   1      27.900  31.395  20.666  1.00  0.00     0.004 A 
ATOM     91  C   UNL A   1      28.672  32.745  22.492  1.00  0.00     0.116 A 
ATOM     92  C   UNL A   1      27.937  32.624  21.320  1.00  0.00     0.046 A 
BRANCH  91  93
ATOM     93  O   UNL A   1      28.739  33.929  23.168  1.00  0.00    -0.508 OA
ATOM     94  H   UNL A   1      28.346  34.007  24.015  1.00  0.00     0.293 HD
ENDBRANCH  91  93
ENDBRANCH  86  87
ENDBRANCH  77  80
ENDBRANCH  75  76
ENDBRANCH  74  75
ENDBRANCH  73  74
ENDBRANCH   1  73
TORSDOF 15
ENDMDL
MODEL 2
REMARK VINA RESULT:     -12.6      1.643      2.675
REMARK SMILES O=C(NCCCCCCNC(=O)c1ccc(-c2cccc(O)c2)cc1Cl)c1ccc(-c2c3nc(c(-c4c(F)c(F)c(F)c(F)c4F)c4ccc([nH]4)c(-c4c(F)c(F)c(F)c(F)c4F)c4nc(c(-c5c(F)c(F)c(F)c(F)c5F)c5ccc2[nH]5)C=C4)C=C3)cc1
REMARK SMILES IDX 6 1 5 2 4 3 3 4 1 5 2 6 27 8 28 9 89 10 29 11 88 12 30 13
REMARK SMILES IDX 31 14 32 15 82 16 33 17 87 18 81 19 83 20 34 21 86 22 80 23
REMARK SMILES IDX 79 24 35 26 67 27 47 28 66 29 48 30 51 31 65 32 84 33 49 34
REMARK SMILES IDX 50 35 64 37 85 38 52 39 36 40 37 41 45 42 38 43 39 44 43 45
REMARK SMILES IDX 46 46 40 47 41 48 44 49 42 50 68 51 69 52 77 53 70 54 71 55
REMARK SMILES IDX 75 56 78 57 72 58 73 59 76 60 74 61 53 62 54 63 62 64 55 65
REMARK SMILES IDX 56 66 60 67 63 68 57 69 58 70 61 71 59 72 7 73 8 74 9 75
REMARK SMILES IDX 10 76 11 77 12 79 13 80 14 81 25 82 15 83 24 84 26 85 16 86
REMARK SMILES IDX 17 87 18 88 23 89 19 90 21 91 20 92 22 93
REMARK H PARENT 3 7 83 25 51 36 10 78 22 94
REMARK Flexibility Score: inf
ROOT
ATOM      1  C   UNL A   1      31.737  28.638  25.812  1.00  0.00     0.002 C 
ENDROOT
BRANCH   1   2
ATOM      2  C   UNL A   1      31.787  30.164  25.878  1.00  0.00     0.021 C 
BRANCH   2   3
ATOM      3  C   UNL A   1      32.542  30.720  27.077  1.00  0.00     0.116 C 
BRANCH   3   4
ATOM      4  N   UNL A   1      32.638  32.169  27.047  1.00  0.00    -0.352 N 
ATOM      5  O   UNL A   1      33.439  34.193  27.658  1.00  0.00    -0.269 OA
ATOM      6  C   UNL A   1      33.586  32.975  27.625  1.00  0.00     0.251 C 
ATOM      7  H   UNL A   1      31.930  32.635  26.547  1.00  0.00     0.163 HD
BRANCH   6   8
ATOM      8  C   UNL A   1      34.792  32.361  28.219  1.00  0.00     0.039 A 
ATOM      9  C   UNL A   1      35.965  33.108  28.360  1.00  0.00     0.014 A 
ATOM     10  C   UNL A   1      34.743  31.035  28.654  1.00  0.00     0.014 A 
ATOM     11  C   UNL A   1      37.117  32.501  28.840  1.00  0.00     0.010 A 
ATOM     12  C   UNL A   1      35.878  30.451  29.220  1.00  0.00     0.010 A 
ATOM     13  C   UNL A   1      37.074  31.181  29.315  1.00  0.00    -0.014 A 
BRANCH  13  14
ATOM     14  C   UNL A   1      38.245  30.641  30.047  1.00  0.00     0.031 A 
ATOM     15  C   UNL A   1      39.162  29.630  29.428  1.00  0.00     0.074 A 
ATOM     16  C   UNL A   1      38.454  31.080  31.304  1.00  0.00     0.049 A 
ATOM     17  N   UNL A   1      40.205  29.039  29.954  1.00  0.00    -0.248 NA
ATOM     18  C   UNL A   1      38.876  29.219  28.045  1.00  0.00     0.031 C 
ATOM     19  C   UNL A   1      37.606  32.049  32.007  1.00  0.00     0.029 A 
ATOM     20  N   UNL A   1      39.432  30.778  32.215  1.00  0.00    -0.354 N 
ATOM     21  C   UNL A   1      40.688  28.175  28.981  1.00  0.00     0.074 A 
ATOM     22  C   UNL A   1      39.818  28.307  27.831  1.00  0.00     0.031 C 
ATOM     23  C   UNL A   1      38.113  32.277  33.226  1.00  0.00     0.029 A 
ATOM     24  C   UNL A   1      39.272  31.417  33.420  1.00  0.00     0.049 A 
ATOM     25  H   UNL A   1      40.177  30.161  32.025  1.00  0.00     0.167 HD
ATOM     26  C   UNL A   1      41.760  27.352  29.052  1.00  0.00     0.037 A 
ATOM     27  C   UNL A   1      39.957  31.295  34.572  1.00  0.00     0.037 A 
ATOM     28  C   UNL A   1      42.628  27.249  30.200  1.00  0.00     0.049 A 
ATOM     29  C   UNL A   1      41.115  30.341  34.623  1.00  0.00     0.074 A 
ATOM     30  C   UNL A   1      43.787  26.504  30.337  1.00  0.00     0.029 A 
ATOM     31  N   UNL A   1      42.423  27.894  31.410  1.00  0.00    -0.354 N 
ATOM     32  N   UNL A   1      41.610  29.590  33.670  1.00  0.00    -0.248 NA
ATOM     33  C   UNL A   1      41.807  30.209  35.913  1.00  0.00     0.031 C 
ATOM     34  C   UNL A   1      44.243  26.643  31.651  1.00  0.00     0.029 A 
ATOM     35  C   UNL A   1      43.405  27.522  32.316  1.00  0.00     0.049 A 
ATOM     36  H   UNL A   1      41.688  28.521  31.599  1.00  0.00     0.167 HD
ATOM     37  C   UNL A   1      42.674  28.906  34.239  1.00  0.00     0.074 A 
ATOM     38  C   UNL A   1      42.775  29.358  35.610  1.00  0.00     0.031 C 
ATOM     39  C   UNL A   1      43.487  27.978  33.679  1.00  0.00     0.037 A 
BRANCH  26  40
ATOM     40  C   UNL A   1      42.067  26.471  27.877  1.00  0.00     0.064 A 
ATOM     41  C   UNL A   1      43.037  26.818  26.925  1.00  0.00     0.173 A 
ATOM     42  C   UNL A   1      41.464  25.208  27.769  1.00  0.00     0.173 A 
ATOM     43  F   UNL A   1      43.640  28.015  26.980  1.00  0.00    -0.203 F 
ATOM     44  C   UNL A   1      43.389  25.933  25.908  1.00  0.00     0.198 A 
ATOM     45  C   UNL A   1      41.836  24.317  26.766  1.00  0.00     0.198 A 
ATOM     46  F   UNL A   1      40.537  24.823  28.659  1.00  0.00    -0.203 F 
ATOM     47  F   UNL A   1      44.307  26.291  24.999  1.00  0.00    -0.200 F 
ATOM     48  C   UNL A   1      42.797  24.680  25.836  1.00  0.00     0.200 A 
ATOM     49  F   UNL A   1      41.275  23.101  26.709  1.00  0.00    -0.200 F 
ATOM     50  F   UNL A   1      43.158  23.820  24.872  1.00  0.00    -0.200 F 
ENDBRANCH  26  40
BRANCH  27  51
ATOM     51  C   UNL A   1      39.530  32.050  35.779  1.00  0.00     0.064 A 
ATOM     52  C   UNL A   1      40.154  33.251  36.143  1.00  0.00     0.173 A 
ATOM     53  C   UNL A   1      38.504  31.570  36.610  1.00  0.00     0.173 A 
ATOM     54  F   UNL A   1      41.149  33.743  35.392  1.00  0.00    -0.203 F 
ATOM     55  C   UNL A   1      39.793  33.923  37.309  1.00  0.00     0.198 A 
ATOM     56  C   UNL A   1      38.118  32.264  37.753  1.00  0.00     0.198 A 
ATOM     57  F   UNL A   1      37.869  30.430  36.305  1.00  0.00    -0.203 F 
ATOM     58  F   UNL A   1      40.451  35.033  37.668  1.00  0.00    -0.200 F 
ATOM     59  C   UNL A   1      38.774  33.432  38.110  1.00  0.00     0.200 A 
ATOM     60  F   UNL A   1      37.119  31.796  38.513  1.00  0.00    -0.200 F 
ATOM     61  F   UNL A   1      38.430  34.079  39.233  1.00  0.00    -0.200 F 
ENDBRANCH  27  51
BRANCH  39  62
ATOM     62  C   UNL A   1      44.560  27.398  34.552  1.00  0.00     0.064 A 
ATOM     63  C   UNL A   1      45.810  28.021  34.686  1.00  0.00     0.173 A 
ATOM     64  C   UNL A   1      44.326  26.227  35.287  1.00  0.00     0.173 A 
ATOM     65  F   UNL A   1      46.089  29.131  33.987  1.00  0.00    -0.203 F 
ATOM     66  C   UNL A   1      46.795  27.478  35.506  1.00  0.00     0.198 A 
ATOM     67  C   UNL A   1      45.301  25.706  36.133  1.00  0.00     0.198 A 
ATOM     68  F   UNL A   1      43.146  25.595  35.198  1.00  0.00    -0.203 F 
ATOM     69  F   UNL A   1      47.999  28.061  35.578  1.00  0.00    -0.200 F 
ATOM     70  C   UNL A   1      46.536  26.327  36.235  1.00  0.00     0.200 A 
ATOM     71  F   UNL A   1      45.045  24.602  36.848  1.00  0.00    -0.200 F 
ATOM     72  F   UNL A   1      47.483  25.811  37.032  1.00  0.00    -0.200 F 
ENDBRANCH  39  62
ENDBRANCH  13  14
ENDBRANCH   6   8
ENDBRANCH   3   4
ENDBRANCH   2   3
ENDBRANCH   1   2
BRANCH   1  73
ATOM     73  C   UNL A   1      33.088  27.932  25.970  1.00  0.00     0.002 C 
BRANCH  73  74
ATOM     74  C   UNL A   1      33.075  26.420  25.724  1.00  0.00     0.021 C 
BRANCH  74  75
ATOM     75  C   UNL A   1      31.758  25.727  26.057  1.00  0.00     0.116 C 
BRANCH  75  76
ATOM     76  N   UNL A   1      31.422  24.692  25.094  1.00  0.00    -0.352 N 
ATOM     77  C   UNL A   1      30.770  24.820  23.895  1.00  0.00     0.252 C 
ATOM     78  H   UNL A   1      31.697  23.778  25.336  1.00  0.00     0.163 HD
ATOM     79  O   UNL A   1      30.494  23.834  23.219  1.00  0.00    -0.269 OA
BRANCH  77  80
ATOM     80  C   UNL A   1      30.331  26.153  23.452  1.00  0.00     0.058 A 
ATOM     81  C   UNL A   1      29.069  26.583  23.875  1.00  0.00     0.016 A 
ATOM     82  C   UNL A   1      31.127  26.982  22.661  1.00  0.00     0.054 A 
ATOM     83  C   UNL A   1      28.630  27.871  23.554  1.00  0.00     0.009 A 
ATOM     84  C   UNL A   1      30.690  28.276  22.365  1.00  0.00     0.030 A 
ATOM     85  Cl  UNL A   1      32.647  26.481  22.009  1.00  0.00    -0.083 Cl
ATOM     86  C   UNL A   1      29.441  28.747  22.812  1.00  0.00    -0.017 A 
BRANCH  86  87
ATOM     87  C   UNL A   1      29.005  30.119  22.504  1.00  0.00    -0.015 A 
ATOM     88  C   UNL A   1      29.105  31.142  23.465  1.00  0.00     0.009 A 
ATOM     89  C   UNL A   1      28.458  30.445  21.252  1.00  0.00     0.054 A 
ATOM     90  C   UNL A   1      28.668  32.439  23.187  1.00  0.00     0.004 A 
ATOM     91  C   UNL A   1      28.028  31.742  20.982  1.00  0.00     0.116 A 
ATOM     92  C   UNL A   1      28.126  32.743  21.941  1.00  0.00     0.046 A 
BRANCH  91  93
ATOM     93  O   UNL A   1      27.503  31.991  19.748  1.00  0.00    -0.508 OA
ATOM     94  H   UNL A   1      26.632  32.325  19.669  1.00  0.00     0.293 HD
ENDBRANCH  91  93
ENDBRANCH  86  87
ENDBRANCH  77  80
ENDBRANCH  75  76
ENDBRANCH  74  75
ENDBRANCH  73  74
ENDBRANCH   1  73
TORSDOF 15
ENDMDL
MODEL 3
REMARK VINA RESULT:     -12.6      1.912      2.648
REMARK SMILES O=C(NCCCCCCNC(=O)c1ccc(-c2cccc(O)c2)cc1Cl)c1ccc(-c2c3nc(c(-c4c(F)c(F)c(F)c(F)c4F)c4ccc([nH]4)c(-c4c(F)c(F)c(F)c(F)c4F)c4nc(c(-c5c(F)c(F)c(F)c(F)c5F)c5ccc2[nH]5)C=C4)C=C3)cc1
REMARK SMILES IDX 6 1 5 2 4 3 3 4 1 5 2 6 27 8 28 9 89 10 29 11 88 12 30 13
REMARK SMILES IDX 31 14 32 15 82 16 33 17 87 18 81 19 83 20 34 21 86 22 80 23
REMARK SMILES IDX 79 24 35 26 67 27 47 28 66 29 48 30 51 31 65 32 84 33 49 34
REMARK SMILES IDX 50 35 64 37 85 38 52 39 36 40 37 41 45 42 38 43 39 44 43 45
REMARK SMILES IDX 46 46 40 47 41 48 44 49 42 50 68 51 69 52 77 53 70 54 71 55
REMARK SMILES IDX 75 56 78 57 72 58 73 59 76 60 74 61 53 62 54 63 62 64 55 65
REMARK SMILES IDX 56 66 60 67 63 68 57 69 58 70 61 71 59 72 7 73 8 74 9 75
REMARK SMILES IDX 10 76 11 77 12 79 13 80 14 81 25 82 15 83 24 84 26 85 16 86
REMARK SMILES IDX 17 87 18 88 23 89 19 90 21 91 20 92 22 93
REMARK H PARENT 3 7 83 25 51 36 10 78 22 94
REMARK Flexibility Score: inf
ROOT
ATOM      1  C   UNL A   1      33.777  27.615  24.691  1.00  0.00     0.002 C 
ENDROOT
BRANCH   1   2
ATOM      2  C   UNL A   1      33.274  29.048  24.867  1.00  0.00     0.021 C 
BRANCH   2   3
ATOM      3  C   UNL A   1      32.847  29.398  26.285  1.00  0.00     0.116 C 
BRANCH   3   4
ATOM      4  N   UNL A   1      32.633  30.824  26.462  1.00  0.00    -0.352 N 
ATOM      5  O   UNL A   1      32.934  32.848  27.425  1.00  0.00    -0.269 OA
ATOM      6  C   UNL A   1      33.341  31.703  27.242  1.00  0.00     0.251 C 
ATOM      7  H   UNL A   1      31.883  31.210  25.956  1.00  0.00     0.163 HD
BRANCH   6   8
ATOM      8  C   UNL A   1      34.601  31.259  27.873  1.00  0.00     0.039 A 
ATOM      9  C   UNL A   1      35.664  32.153  28.029  1.00  0.00     0.014 A 
ATOM     10  C   UNL A   1      34.711  29.943  28.329  1.00  0.00     0.014 A 
ATOM     11  C   UNL A   1      36.872  31.706  28.545  1.00  0.00     0.010 A 
ATOM     12  C   UNL A   1      35.899  29.518  28.930  1.00  0.00     0.010 A 
ATOM     13  C   UNL A   1      36.988  30.398  29.040  1.00  0.00    -0.014 A 
BRANCH  13  14
ATOM     14  C   UNL A   1      38.200  30.024  29.808  1.00  0.00     0.031 A 
ATOM     15  C   UNL A   1      39.212  29.062  29.261  1.00  0.00     0.074 A 
ATOM     16  C   UNL A   1      38.360  30.568  31.030  1.00  0.00     0.049 A 
ATOM     17  N   UNL A   1      40.303  28.611  29.827  1.00  0.00    -0.248 NA
ATOM     18  C   UNL A   1      38.973  28.529  27.911  1.00  0.00     0.031 C 
ATOM     19  C   UNL A   1      37.421  31.500  31.664  1.00  0.00     0.029 A 
ATOM     20  N   UNL A   1      39.357  30.424  31.960  1.00  0.00    -0.354 N 
ATOM     21  C   UNL A   1      40.870  27.730  28.917  1.00  0.00     0.074 A 
ATOM     22  C   UNL A   1      39.998  27.698  27.761  1.00  0.00     0.031 C 
ATOM     23  C   UNL A   1      37.896  31.861  32.863  1.00  0.00     0.029 A 
ATOM     24  C   UNL A   1      39.131  31.129  33.117  1.00  0.00     0.049 A 
ATOM     25  H   UNL A   1      40.157  29.868  31.813  1.00  0.00     0.167 HD
ATOM     26  C   UNL A   1      42.015  27.019  29.045  1.00  0.00     0.037 A 
ATOM     27  C   UNL A   1      39.817  31.154  34.274  1.00  0.00     0.037 A 
ATOM     28  C   UNL A   1      42.882  27.079  30.196  1.00  0.00     0.049 A 
ATOM     29  C   UNL A   1      41.059  30.319  34.391  1.00  0.00     0.074 A 
ATOM     30  C   UNL A   1      44.105  26.458  30.384  1.00  0.00     0.029 A 
ATOM     31  N   UNL A   1      42.609  27.785  31.358  1.00  0.00    -0.354 N 
ATOM     32  N   UNL A   1      41.628  29.553  33.492  1.00  0.00    -0.248 NA
ATOM     33  C   UNL A   1      41.753  30.344  35.686  1.00  0.00     0.031 C 
ATOM     34  C   UNL A   1      44.538  26.731  31.685  1.00  0.00     0.029 A 
ATOM     35  C   UNL A   1      43.617  27.572  32.286  1.00  0.00     0.049 A 
ATOM     36  H   UNL A   1      41.818  28.352  31.503  1.00  0.00     0.167 HD
ATOM     37  C   UNL A   1      42.748  29.014  34.108  1.00  0.00     0.074 A 
ATOM     38  C   UNL A   1      42.799  29.569  35.443  1.00  0.00     0.031 C 
ATOM     39  C   UNL A   1      43.648  28.129  33.614  1.00  0.00     0.037 A 
BRANCH  26  40
ATOM     40  C   UNL A   1      42.409  26.090  27.934  1.00  0.00     0.064 A 
ATOM     41  C   UNL A   1      41.836  24.818  27.794  1.00  0.00     0.173 A 
ATOM     42  C   UNL A   1      43.288  26.528  26.930  1.00  0.00     0.173 A 
ATOM     43  F   UNL A   1      40.995  24.350  28.728  1.00  0.00    -0.203 F 
ATOM     44  C   UNL A   1      42.130  24.018  26.691  1.00  0.00     0.198 A 
ATOM     45  C   UNL A   1      43.559  25.737  25.817  1.00  0.00     0.198 A 
ATOM     46  F   UNL A   1      43.856  27.740  27.011  1.00  0.00    -0.203 F 
ATOM     47  F   UNL A   1      41.583  22.799  26.585  1.00  0.00    -0.200 F 
ATOM     48  C   UNL A   1      42.981  24.483  25.699  1.00  0.00     0.200 A 
ATOM     49  F   UNL A   1      44.368  26.195  24.852  1.00  0.00    -0.200 F 
ATOM     50  F   UNL A   1      43.241  23.723  24.625  1.00  0.00    -0.200 F 
ENDBRANCH  26  40
BRANCH  27  51
ATOM     51  C   UNL A   1      39.314  31.949  35.425  1.00  0.00     0.064 A 
ATOM     52  C   UNL A   1      38.492  31.373  36.402  1.00  0.00     0.173 A 
ATOM     53  C   UNL A   1      39.626  33.312  35.555  1.00  0.00     0.173 A 
ATOM     54  F   UNL A   1      38.152  30.078  36.313  1.00  0.00    -0.203 F 
ATOM     55  C   UNL A   1      37.972  32.137  37.444  1.00  0.00     0.198 A 
ATOM     56  C   UNL A   1      39.137  34.064  36.620  1.00  0.00     0.198 A 
ATOM     57  F   UNL A   1      40.414  33.912  34.652  1.00  0.00    -0.203 F 
ATOM     58  F   UNL A   1      37.135  31.576  38.327  1.00  0.00    -0.200 F 
ATOM     59  C   UNL A   1      38.298  33.479  37.555  1.00  0.00     0.200 A 
ATOM     60  F   UNL A   1      39.472  35.357  36.734  1.00  0.00    -0.200 F 
ATOM     61  F   UNL A   1      37.794  34.214  38.557  1.00  0.00    -0.200 F 
ENDBRANCH  27  51
BRANCH  39  62
ATOM     62  C   UNL A   1      44.766  27.715  34.525  1.00  0.00     0.064 A 
ATOM     63  C   UNL A   1      45.960  28.449  34.597  1.00  0.00     0.173 A 
ATOM     64  C   UNL A   1      44.630  26.596  35.358  1.00  0.00     0.173 A 
ATOM     65  F   UNL A   1      46.146  29.516  33.805  1.00  0.00    -0.203 F 
ATOM     66  C   UNL A   1      46.987  28.061  35.452  1.00  0.00     0.198 A 
ATOM     67  C   UNL A   1      45.646  26.230  36.238  1.00  0.00     0.198 A 
ATOM     68  F   UNL A   1      43.507  25.863  35.331  1.00  0.00    -0.203 F 
ATOM     69  F   UNL A   1      48.138  28.746  35.466  1.00  0.00    -0.200 F 
ATOM     70  C   UNL A   1      46.825  26.958  36.278  1.00  0.00     0.200 A 
ATOM     71  F   UNL A   1      45.482  25.173  37.045  1.00  0.00    -0.200 F 
ATOM     72  F   UNL A   1      47.811  26.592  37.108  1.00  0.00    -0.200 F 
ENDBRANCH  39  62
ENDBRANCH  13  14
ENDBRANCH   6   8
ENDBRANCH   3   4
ENDBRANCH   2   3
ENDBRANCH   1   2
BRANCH   1  73
ATOM     73  C   UNL A   1      33.659  26.724  25.931  1.00  0.00     0.002 C 
BRANCH  73  74
ATOM     74  C   UNL A   1      33.891  25.228  25.693  1.00  0.00     0.021 C 
BRANCH  74  75
ATOM     75  C   UNL A   1      34.344  24.866  24.284  1.00  0.00     0.116 C 
BRANCH  75  76
ATOM     76  N   UNL A   1      33.627  23.720  23.751  1.00  0.00    -0.352 N 
ATOM     77  C   UNL A   1      32.354  23.670  23.242  1.00  0.00     0.252 C 
ATOM     78  H   UNL A   1      34.118  22.867  23.758  1.00  0.00     0.163 HD
ATOM     79  O   UNL A   1      31.857  22.605  22.892  1.00  0.00    -0.269 OA
BRANCH  77  80
ATOM     80  C   UNL A   1      31.552  24.903  23.186  1.00  0.00     0.058 A 
ATOM     81  C   UNL A   1      30.604  25.094  24.195  1.00  0.00     0.016 A 
ATOM     82  C   UNL A   1      31.723  25.865  22.190  1.00  0.00     0.054 A 
ATOM     83  C   UNL A   1      29.869  26.282  24.242  1.00  0.00     0.009 A 
ATOM     84  C   UNL A   1      31.000  27.060  22.257  1.00  0.00     0.030 A 
ATOM     85  Cl  UNL A   1      32.793  25.652  20.850  1.00  0.00    -0.083 Cl
ATOM     86  C   UNL A   1      30.068  27.294  23.286  1.00  0.00    -0.017 A 
BRANCH  86  87
ATOM     87  C   UNL A   1      29.328  28.564  23.350  1.00  0.00    -0.015 A 
ATOM     88  C   UNL A   1      27.979  28.635  22.956  1.00  0.00     0.009 A 
ATOM     89  C   UNL A   1      29.947  29.747  23.787  1.00  0.00     0.054 A 
ATOM     90  C   UNL A   1      27.278  29.843  22.990  1.00  0.00     0.004 A 
ATOM     91  C   UNL A   1      29.240  30.946  23.821  1.00  0.00     0.116 A 
ATOM     92  C   UNL A   1      27.910  31.006  23.422  1.00  0.00     0.046 A 
BRANCH  91  93
ATOM     93  O   UNL A   1      29.902  32.059  24.251  1.00  0.00    -0.508 OA
ATOM     94  H   UNL A   1      29.769  32.879  23.819  1.00  0.00     0.293 HD
ENDBRANCH  91  93
ENDBRANCH  86  87
ENDBRANCH  77  80
ENDBRANCH  75  76
ENDBRANCH  74  75
ENDBRANCH  73  74
ENDBRANCH   1  73
TORSDOF 15
ENDMDL
