MODEL 1
REMARK VINA RESULT:     -12.0      0.000      0.000
REMARK SMILES O=C(NCCCCCCNC(=O)C1(O)CCC(F)(F)CC1)c1ccc(-c2c3nc(c(-c4c(F)c(F)c(F)c(F)c4F)c4ccc([nH]4)c(-c4c(F)c(F)c(F)c(F)c4F)c4nc(c(-c5c(F)c(F)c(F)c(F)c5F)c5ccc2[nH]5)C=C4)C=C3)cc1
REMARK SMILES IDX 6 1 5 2 4 3 3 4 1 5 2 6 22 8 23 9 84 10 24 11 83 12 25 13
REMARK SMILES IDX 26 14 27 15 77 16 28 17 82 18 76 19 78 20 29 21 81 22 75 23
REMARK SMILES IDX 74 24 30 26 62 27 42 28 61 29 43 30 46 31 60 32 79 33 44 34
REMARK SMILES IDX 45 35 59 37 80 38 47 39 31 40 32 41 40 42 33 43 34 44 38 45
REMARK SMILES IDX 41 46 35 47 36 48 39 49 37 50 63 51 64 52 72 53 65 54 66 55
REMARK SMILES IDX 70 56 73 57 67 58 68 59 71 60 69 61 48 62 49 63 57 64 50 65
REMARK SMILES IDX 51 66 55 67 58 68 52 69 53 70 56 71 54 72 7 73 8 74 9 75
REMARK SMILES IDX 10 76 11 77 12 79 13 80 15 81 21 82 16 83 20 84 17 85 18 86
REMARK SMILES IDX 19 87 14 88
REMARK H PARENT 3 7 78 25 46 36 10 78 14 89
REMARK Flexibility Score: inf
ROOT
ATOM      1  C   UNL A   1      31.656  30.729  26.216  1.00  0.00     0.002 C 
ENDROOT
BRANCH   1   2
ATOM      2  C   UNL A   1      31.458  32.112  26.837  1.00  0.00     0.021 C 
BRANCH   2   3
ATOM      3  C   UNL A   1      32.748  32.856  27.156  1.00  0.00     0.116 C 
BRANCH   3   4
ATOM      4  N   UNL A   1      32.499  34.203  27.638  1.00  0.00    -0.352 N 
ATOM      5  O   UNL A   1      32.590  35.920  29.101  1.00  0.00    -0.269 OA
ATOM      6  C   UNL A   1      33.055  34.853  28.708  1.00  0.00     0.251 C 
ATOM      7  H   UNL A   1      31.838  34.721  27.125  1.00  0.00     0.163 HD
BRANCH   6   8
ATOM      8  C   UNL A   1      34.221  34.259  29.390  1.00  0.00     0.039 A 
ATOM      9  C   UNL A   1      34.038  33.443  30.509  1.00  0.00     0.014 A 
ATOM     10  C   UNL A   1      35.504  34.501  28.894  1.00  0.00     0.014 A 
ATOM     11  C   UNL A   1      35.142  32.966  31.202  1.00  0.00     0.010 A 
ATOM     12  C   UNL A   1      36.610  33.940  29.536  1.00  0.00     0.010 A 
ATOM     13  C   UNL A   1      36.435  33.174  30.699  1.00  0.00    -0.014 A 
BRANCH  13  14
ATOM     14  C   UNL A   1      37.572  32.466  31.336  1.00  0.00     0.031 A 
ATOM     15  C   UNL A   1      38.055  32.831  32.708  1.00  0.00     0.074 A 
ATOM     16  C   UNL A   1      38.159  31.469  30.644  1.00  0.00     0.049 A 
ATOM     17  N   UNL A   1      39.039  32.309  33.397  1.00  0.00    -0.248 NA
ATOM     18  C   UNL A   1      37.354  33.924  33.399  1.00  0.00     0.031 C 
ATOM     19  C   UNL A   1      37.775  31.048  29.292  1.00  0.00     0.029 A 
ATOM     20  N   UNL A   1      39.186  30.624  30.973  1.00  0.00    -0.354 N 
ATOM     21  C   UNL A   1      39.088  33.017  34.590  1.00  0.00     0.074 A 
ATOM     22  C   UNL A   1      38.046  34.020  34.529  1.00  0.00     0.031 C 
ATOM     23  C   UNL A   1      38.529  30.003  28.925  1.00  0.00     0.029 A 
ATOM     24  C   UNL A   1      39.498  29.730  29.979  1.00  0.00     0.049 A 
ATOM     25  H   UNL A   1      39.654  30.656  31.839  1.00  0.00     0.167 HD
ATOM     26  C   UNL A   1      39.928  32.834  35.636  1.00  0.00     0.037 A 
ATOM     27  C   UNL A   1      40.478  28.813  29.906  1.00  0.00     0.037 A 
ATOM     28  C   UNL A   1      40.951  31.820  35.687  1.00  0.00     0.049 A 
ATOM     29  C   UNL A   1      41.413  28.666  31.073  1.00  0.00     0.074 A 
ATOM     30  C   UNL A   1      41.816  31.520  36.726  1.00  0.00     0.029 A 
ATOM     31  N   UNL A   1      41.257  30.948  34.651  1.00  0.00    -0.354 N 
ATOM     32  N   UNL A   1      41.409  29.300  32.220  1.00  0.00    -0.248 NA
ATOM     33  C   UNL A   1      42.490  27.678  30.934  1.00  0.00     0.031 C 
ATOM     34  C   UNL A   1      42.685  30.513  36.297  1.00  0.00     0.029 A 
ATOM     35  C   UNL A   1      42.322  30.138  35.014  1.00  0.00     0.049 A 
ATOM     36  H   UNL A   1      40.787  30.911  33.788  1.00  0.00     0.167 HD
ATOM     37  C   UNL A   1      42.469  28.776  32.946  1.00  0.00     0.074 A 
ATOM     38  C   UNL A   1      43.072  27.750  32.121  1.00  0.00     0.031 C 
ATOM     39  C   UNL A   1      42.908  29.120  34.180  1.00  0.00     0.037 A 
BRANCH  26  40
ATOM     40  C   UNL A   1      39.804  33.753  36.818  1.00  0.00     0.064 A 
ATOM     41  C   UNL A   1      40.427  35.009  36.847  1.00  0.00     0.173 A 
ATOM     42  C   UNL A   1      38.965  33.412  37.892  1.00  0.00     0.173 A 
ATOM     43  F   UNL A   1      41.245  35.381  35.850  1.00  0.00    -0.203 F 
ATOM     44  C   UNL A   1      40.220  35.887  37.910  1.00  0.00     0.198 A 
ATOM     45  C   UNL A   1      38.740  34.303  38.939  1.00  0.00     0.198 A 
ATOM     46  F   UNL A   1      38.340  32.226  37.910  1.00  0.00    -0.203 F 
ATOM     47  F   UNL A   1      40.844  37.073  37.927  1.00  0.00    -0.200 F 
ATOM     48  C   UNL A   1      39.369  35.538  38.947  1.00  0.00     0.200 A 
ATOM     49  F   UNL A   1      37.904  33.970  39.931  1.00  0.00    -0.200 F 
ATOM     50  F   UNL A   1      39.153  36.394  39.956  1.00  0.00    -0.200 F 
ENDBRANCH  26  40
BRANCH  27  51
ATOM     51  C   UNL A   1      40.648  27.994  28.676  1.00  0.00     0.064 A 
ATOM     52  C   UNL A   1      41.436  28.444  27.609  1.00  0.00     0.173 A 
ATOM     53  C   UNL A   1      40.002  26.757  28.534  1.00  0.00     0.173 A 
ATOM     54  F   UNL A   1      42.062  29.627  27.689  1.00  0.00    -0.203 F 
ATOM     55  C   UNL A   1      41.544  27.703  26.433  1.00  0.00     0.198 A 
ATOM     56  C   UNL A   1      40.141  25.999  27.375  1.00  0.00     0.198 A 
ATOM     57  F   UNL A   1      39.242  26.276  29.529  1.00  0.00    -0.203 F 
ATOM     58  F   UNL A   1      42.250  28.187  25.403  1.00  0.00    -0.200 F 
ATOM     59  C   UNL A   1      40.900  26.480  26.319  1.00  0.00     0.200 A 
ATOM     60  F   UNL A   1      39.535  24.808  27.278  1.00  0.00    -0.200 F 
ATOM     61  F   UNL A   1      41.001  25.770  25.187  1.00  0.00    -0.200 F 
ENDBRANCH  27  51
BRANCH  39  62
ATOM     62  C   UNL A   1      44.082  28.356  34.720  1.00  0.00     0.064 A 
ATOM     63  C   UNL A   1      43.919  27.152  35.421  1.00  0.00     0.173 A 
ATOM     64  C   UNL A   1      45.389  28.825  34.518  1.00  0.00     0.173 A 
ATOM     65  F   UNL A   1      42.688  26.671  35.656  1.00  0.00    -0.203 F 
ATOM     66  C   UNL A   1      45.017  26.464  35.927  1.00  0.00     0.198 A 
ATOM     67  C   UNL A   1      46.487  28.116  34.994  1.00  0.00     0.198 A 
ATOM     68  F   UNL A   1      45.602  29.969  33.850  1.00  0.00    -0.203 F 
ATOM     69  F   UNL A   1      44.832  25.347  36.645  1.00  0.00    -0.200 F 
ATOM     70  C   UNL A   1      46.300  26.942  35.707  1.00  0.00     0.200 A 
ATOM     71  F   UNL A   1      47.727  28.571  34.767  1.00  0.00    -0.200 F 
ATOM     72  F   UNL A   1      47.357  26.274  36.190  1.00  0.00    -0.200 F 
ENDBRANCH  39  62
ENDBRANCH  13  14
ENDBRANCH   6   8
ENDBRANCH   3   4
ENDBRANCH   2   3
ENDBRANCH   1   2
BRANCH   1  73
ATOM     73  C   UNL A   1      32.301  29.682  27.130  1.00  0.00     0.002 C 
BRANCH  73  74
ATOM     74  C   UNL A   1      32.272  28.250  26.601  1.00  0.00     0.021 C 
BRANCH  74  75
ATOM     75  C   UNL A   1      31.885  28.125  25.133  1.00  0.00     0.116 C 
BRANCH  75  76
ATOM     76  N   UNL A   1      30.717  27.318  24.920  1.00  0.00    -0.354 N 
ATOM     77  C   UNL A   1      29.736  27.362  23.979  1.00  0.00     0.251 C 
ATOM     78  H   UNL A   1      30.603  26.596  25.580  1.00  0.00     0.163 HD
ATOM     79  O   UNL A   1      28.898  26.455  24.079  1.00  0.00    -0.272 OA
BRANCH  77  80
ATOM     80  C   UNL A   1      29.586  28.499  22.894  1.00  0.00     0.143 C 
ATOM     81  C   UNL A   1      28.150  28.536  22.348  1.00  0.00     0.051 C 
ATOM     82  C   UNL A   1      30.155  29.891  23.211  1.00  0.00     0.051 C 
ATOM     83  C   UNL A   1      27.209  29.420  23.147  1.00  0.00     0.080 C 
ATOM     84  C   UNL A   1      29.198  30.985  23.693  1.00  0.00     0.080 C 
ATOM     85  C   UNL A   1      27.742  30.837  23.272  1.00  0.00     0.248 C 
ATOM     86  F   UNL A   1      26.966  31.518  24.157  1.00  0.00    -0.207 F 
ATOM     87  F   UNL A   1      27.582  31.453  22.070  1.00  0.00    -0.207 F 
BRANCH  80  88
ATOM     88  O   UNL A   1      30.446  28.038  21.814  1.00  0.00    -0.380 OA
ATOM     89  H   UNL A   1      30.161  28.442  20.979  1.00  0.00     0.212 HD
ENDBRANCH  80  88
ENDBRANCH  77  80
ENDBRANCH  75  76
ENDBRANCH  74  75
ENDBRANCH  73  74
ENDBRANCH   1  73
TORSDOF 14
ENDMDL
MODEL 2
REMARK VINA RESULT:     -11.9      6.762     10.851
REMARK SMILES O=C(NCCCCCCNC(=O)C1(O)CCC(F)(F)CC1)c1ccc(-c2c3nc(c(-c4c(F)c(F)c(F)c(F)c4F)c4ccc([nH]4)c(-c4c(F)c(F)c(F)c(F)c4F)c4nc(c(-c5c(F)c(F)c(F)c(F)c5F)c5ccc2[nH]5)C=C4)C=C3)cc1
REMARK SMILES IDX 6 1 5 2 4 3 3 4 1 5 2 6 22 8 23 9 84 10 24 11 83 12 25 13
REMARK SMILES IDX 26 14 27 15 77 16 28 17 82 18 76 19 78 20 29 21 81 22 75 23
REMARK SMILES IDX 74 24 30 26 62 27 42 28 61 29 43 30 46 31 60 32 79 33 44 34
REMARK SMILES IDX 45 35 59 37 80 38 47 39 31 40 32 41 40 42 33 43 34 44 38 45
REMARK SMILES IDX 41 46 35 47 36 48 39 49 37 50 63 51 64 52 72 53 65 54 66 55
REMARK SMILES IDX 70 56 73 57 67 58 68 59 71 60 69 61 48 62 49 63 57 64 50 65
REMARK SMILES IDX 51 66 55 67 58 68 52 69 53 70 56 71 54 72 7 73 8 74 9 75
REMARK SMILES IDX 10 76 11 77 12 79 13 80 15 81 21 82 16 83 20 84 17 85 18 86
REMARK SMILES IDX 19 87 14 88
REMARK H PARENT 3 7 78 25 46 36 10 78 14 89
REMARK Flexibility Score: inf
ROOT
ATOM      1  C   UNL A   1      36.965  20.716  25.022  1.00  0.00     0.002 C 
ENDROOT
BRANCH   1   2
ATOM      2  C   UNL A   1      38.204  19.821  24.986  1.00  0.00     0.021 C 
BRANCH   2   3
ATOM      3  C   UNL A   1      39.224  20.104  26.081  1.00  0.00     0.116 C 
BRANCH   3   4
ATOM      4  N   UNL A   1      40.302  19.131  26.090  1.00  0.00    -0.352 N 
ATOM      5  O   UNL A   1      42.438  18.418  25.926  1.00  0.00    -0.269 OA
ATOM      6  C   UNL A   1      41.656  19.344  26.126  1.00  0.00     0.251 C 
ATOM      7  H   UNL A   1      40.022  18.188  26.066  1.00  0.00     0.163 HD
BRANCH   6   8
ATOM      8  C   UNL A   1      42.169  20.698  26.405  1.00  0.00     0.039 A 
ATOM      9  C   UNL A   1      42.449  21.573  25.352  1.00  0.00     0.014 A 
ATOM     10  C   UNL A   1      42.350  21.105  27.729  1.00  0.00     0.014 A 
ATOM     11  C   UNL A   1      43.021  22.809  25.616  1.00  0.00     0.010 A 
ATOM     12  C   UNL A   1      42.835  22.387  27.997  1.00  0.00     0.010 A 
ATOM     13  C   UNL A   1      43.180  23.245  26.941  1.00  0.00    -0.014 A 
BRANCH  13  14
ATOM     14  C   UNL A   1      43.583  24.651  27.187  1.00  0.00     0.031 A 
ATOM     15  C   UNL A   1      42.614  25.663  27.721  1.00  0.00     0.074 A 
ATOM     16  C   UNL A   1      44.859  24.994  26.922  1.00  0.00     0.049 A 
ATOM     17  N   UNL A   1      42.814  26.931  27.983  1.00  0.00    -0.248 NA
ATOM     18  C   UNL A   1      41.243  25.204  27.992  1.00  0.00     0.031 C 
ATOM     19  C   UNL A   1      45.877  24.087  26.381  1.00  0.00     0.029 A 
ATOM     20  N   UNL A   1      45.525  26.181  27.076  1.00  0.00    -0.354 N 
ATOM     21  C   UNL A   1      41.597  27.424  28.432  1.00  0.00     0.074 A 
ATOM     22  C   UNL A   1      40.655  26.326  28.391  1.00  0.00     0.031 C 
ATOM     23  C   UNL A   1      47.044  24.739  26.285  1.00  0.00     0.029 A 
ATOM     24  C   UNL A   1      46.840  26.126  26.683  1.00  0.00     0.049 A 
ATOM     25  H   UNL A   1      45.102  26.995  27.434  1.00  0.00     0.167 HD
ATOM     26  C   UNL A   1      41.305  28.681  28.842  1.00  0.00     0.037 A 
ATOM     27  C   UNL A   1      47.772  27.092  26.616  1.00  0.00     0.037 A 
ATOM     28  C   UNL A   1      42.259  29.761  28.890  1.00  0.00     0.049 A 
ATOM     29  C   UNL A   1      47.399  28.482  27.046  1.00  0.00     0.074 A 
ATOM     30  C   UNL A   1      42.073  31.056  29.343  1.00  0.00     0.029 A 
ATOM     31  N   UNL A   1      43.576  29.676  28.459  1.00  0.00    -0.354 N 
ATOM     32  N   UNL A   1      46.261  28.921  27.526  1.00  0.00    -0.248 NA
ATOM     33  C   UNL A   1      48.438  29.511  26.921  1.00  0.00     0.031 C 
ATOM     34  C   UNL A   1      43.255  31.771  29.127  1.00  0.00     0.029 A 
ATOM     35  C   UNL A   1      44.200  30.906  28.601  1.00  0.00     0.049 A 
ATOM     36  H   UNL A   1      44.003  28.863  28.107  1.00  0.00     0.167 HD
ATOM     37  C   UNL A   1      46.453  30.272  27.777  1.00  0.00     0.074 A 
ATOM     38  C   UNL A   1      47.825  30.571  27.426  1.00  0.00     0.031 C 
ATOM     39  C   UNL A   1      45.569  31.185  28.248  1.00  0.00     0.037 A 
BRANCH  26  40
ATOM     40  C   UNL A   1      39.894  28.985  29.259  1.00  0.00     0.064 A 
ATOM     41  C   UNL A   1      38.926  29.413  28.340  1.00  0.00     0.173 A 
ATOM     42  C   UNL A   1      39.483  28.744  30.581  1.00  0.00     0.173 A 
ATOM     43  F   UNL A   1      39.268  29.664  27.067  1.00  0.00    -0.203 F 
ATOM     44  C   UNL A   1      37.600  29.594  28.729  1.00  0.00     0.198 A 
ATOM     45  C   UNL A   1      38.151  28.902  30.959  1.00  0.00     0.198 A 
ATOM     46  F   UNL A   1      40.368  28.328  31.499  1.00  0.00    -0.203 F 
ATOM     47  F   UNL A   1      36.696  30.026  27.838  1.00  0.00    -0.200 F 
ATOM     48  C   UNL A   1      37.212  29.328  30.033  1.00  0.00     0.200 A 
ATOM     49  F   UNL A   1      37.777  28.628  32.216  1.00  0.00    -0.200 F 
ATOM     50  F   UNL A   1      35.932  29.480  30.398  1.00  0.00    -0.200 F 
ENDBRANCH  26  40
BRANCH  27  51
ATOM     51  C   UNL A   1      49.129  26.788  26.090  1.00  0.00     0.064 A 
ATOM     52  C   UNL A   1      50.142  26.307  26.930  1.00  0.00     0.173 A 
ATOM     53  C   UNL A   1      49.448  26.999  24.740  1.00  0.00     0.173 A 
ATOM     54  F   UNL A   1      49.893  26.103  28.232  1.00  0.00    -0.203 F 
ATOM     55  C   UNL A   1      51.430  26.082  26.448  1.00  0.00     0.198 A 
ATOM     56  C   UNL A   1      50.724  26.736  24.249  1.00  0.00     0.198 A 
ATOM     57  F   UNL A   1      48.513  27.451  23.890  1.00  0.00    -0.203 F 
ATOM     58  F   UNL A   1      52.396  25.685  27.286  1.00  0.00    -0.200 F 
ATOM     59  C   UNL A   1      51.718  26.293  25.107  1.00  0.00     0.200 A 
ATOM     60  F   UNL A   1      50.991  26.921  22.950  1.00  0.00    -0.200 F 
ATOM     61  F   UNL A   1      52.957  26.079  24.645  1.00  0.00    -0.200 F 
ENDBRANCH  27  51
BRANCH  39  62
ATOM     62  C   UNL A   1      46.074  32.585  28.435  1.00  0.00     0.064 A 
ATOM     63  C   UNL A   1      45.968  33.548  27.421  1.00  0.00     0.173 A 
ATOM     64  C   UNL A   1      46.654  32.975  29.652  1.00  0.00     0.173 A 
ATOM     65  F   UNL A   1      45.438  33.221  26.232  1.00  0.00    -0.203 F 
ATOM     66  C   UNL A   1      46.455  34.839  27.606  1.00  0.00     0.198 A 
ATOM     67  C   UNL A   1      47.106  34.276  29.847  1.00  0.00     0.198 A 
ATOM     68  F   UNL A   1      46.775  32.094  30.657  1.00  0.00    -0.203 F 
ATOM     69  F   UNL A   1      46.397  35.725  26.601  1.00  0.00    -0.200 F 
ATOM     70  C   UNL A   1      47.015  35.204  28.820  1.00  0.00     0.200 A 
ATOM     71  F   UNL A   1      47.634  34.632  31.026  1.00  0.00    -0.200 F 
ATOM     72  F   UNL A   1      47.478  36.449  28.999  1.00  0.00    -0.200 F 
ENDBRANCH  39  62
ENDBRANCH  13  14
ENDBRANCH   6   8
ENDBRANCH   3   4
ENDBRANCH   2   3
ENDBRANCH   1   2
BRANCH   1  73
ATOM     73  C   UNL A   1      37.187  22.167  24.585  1.00  0.00     0.002 C 
BRANCH  73  74
ATOM     74  C   UNL A   1      35.919  23.007  24.448  1.00  0.00     0.021 C 
BRANCH  74  75
ATOM     75  C   UNL A   1      34.635  22.280  24.828  1.00  0.00     0.116 C 
BRANCH  75  76
ATOM     76  N   UNL A   1      33.722  22.129  23.730  1.00  0.00    -0.354 N 
ATOM     77  C   UNL A   1      32.796  21.176  23.437  1.00  0.00     0.251 C 
ATOM     78  H   UNL A   1      33.776  22.851  23.062  1.00  0.00     0.163 HD
ATOM     79  O   UNL A   1      32.142  21.406  22.411  1.00  0.00    -0.272 OA
BRANCH  77  80
ATOM     80  C   UNL A   1      32.600  19.838  24.250  1.00  0.00     0.143 C 
ATOM     81  C   UNL A   1      31.778  18.828  23.435  1.00  0.00     0.051 C 
ATOM     82  C   UNL A   1      33.826  19.214  24.938  1.00  0.00     0.051 C 
ATOM     83  C   UNL A   1      32.613  17.944  22.526  1.00  0.00     0.080 C 
ATOM     84  C   UNL A   1      34.540  18.046  24.251  1.00  0.00     0.080 C 
ATOM     85  C   UNL A   1      33.697  17.212  23.297  1.00  0.00     0.248 C 
ATOM     86  F   UNL A   1      34.527  16.602  22.408  1.00  0.00    -0.207 F 
ATOM     87  F   UNL A   1      33.106  16.217  24.010  1.00  0.00    -0.207 F 
BRANCH  80  88
ATOM     88  O   UNL A   1      31.778  20.255  25.376  1.00  0.00    -0.380 OA
ATOM     89  H   UNL A   1      31.033  20.786  25.053  1.00  0.00     0.212 HD
ENDBRANCH  80  88
ENDBRANCH  77  80
ENDBRANCH  75  76
ENDBRANCH  74  75
ENDBRANCH  73  74
ENDBRANCH   1  73
TORSDOF 14
ENDMDL
MODEL 3
REMARK VINA RESULT:     -11.8      6.673     11.850
REMARK SMILES O=C(NCCCCCCNC(=O)C1(O)CCC(F)(F)CC1)c1ccc(-c2c3nc(c(-c4c(F)c(F)c(F)c(F)c4F)c4ccc([nH]4)c(-c4c(F)c(F)c(F)c(F)c4F)c4nc(c(-c5c(F)c(F)c(F)c(F)c5F)c5ccc2[nH]5)C=C4)C=C3)cc1
REMARK SMILES IDX 6 1 5 2 4 3 3 4 1 5 2 6 22 8 23 9 84 10 24 11 83 12 25 13
REMARK SMILES IDX 26 14 27 15 77 16 28 17 82 18 76 19 78 20 29 21 81 22 75 23
REMARK SMILES IDX 74 24 30 26 62 27 42 28 61 29 43 30 46 31 60 32 79 33 44 34
REMARK SMILES IDX 45 35 59 37 80 38 47 39 31 40 32 41 40 42 33 43 34 44 38 45
REMARK SMILES IDX 41 46 35 47 36 48 39 49 37 50 63 51 64 52 72 53 65 54 66 55
REMARK SMILES IDX 70 56 73 57 67 58 68 59 71 60 69 61 48 62 49 63 57 64 50 65
REMARK SMILES IDX 51 66 55 67 58 68 52 69 53 70 56 71 54 72 7 73 8 74 9 75
REMARK SMILES IDX 10 76 11 77 12 79 13 80 15 81 21 82 16 83 20 84 17 85 18 86
REMARK SMILES IDX 19 87 14 88
REMARK H PARENT 3 7 78 25 46 36 10 78 14 89
REMARK Flexibility Score: inf
ROOT
ATOM      1  C   UNL A   1      36.982  20.629  24.981  1.00  0.00     0.002 C 
ENDROOT
BRANCH   1   2
ATOM      2  C   UNL A   1      38.219  19.731  24.968  1.00  0.00     0.021 C 
BRANCH   2   3
ATOM      3  C   UNL A   1      39.306  20.133  25.955  1.00  0.00     0.116 C 
BRANCH   3   4
ATOM      4  N   UNL A   1      40.389  19.165  26.002  1.00  0.00    -0.352 N 
ATOM      5  O   UNL A   1      42.533  18.463  25.922  1.00  0.00    -0.269 OA
ATOM      6  C   UNL A   1      41.738  19.384  26.094  1.00  0.00     0.251 C 
ATOM      7  H   UNL A   1      40.114  18.221  25.961  1.00  0.00     0.163 HD
BRANCH   6   8
ATOM      8  C   UNL A   1      42.232  20.739  26.402  1.00  0.00     0.039 A 
ATOM      9  C   UNL A   1      42.452  21.656  25.371  1.00  0.00     0.014 A 
ATOM     10  C   UNL A   1      42.458  21.103  27.732  1.00  0.00     0.014 A 
ATOM     11  C   UNL A   1      43.007  22.895  25.657  1.00  0.00     0.010 A 
ATOM     12  C   UNL A   1      42.926  22.385  28.027  1.00  0.00     0.010 A 
ATOM     13  C   UNL A   1      43.209  23.288  26.989  1.00  0.00    -0.014 A 
BRANCH  13  14
ATOM     14  C   UNL A   1      43.591  24.693  27.270  1.00  0.00     0.031 A 
ATOM     15  C   UNL A   1      44.982  25.194  27.019  1.00  0.00     0.074 A 
ATOM     16  C   UNL A   1      42.641  25.517  27.754  1.00  0.00     0.049 A 
ATOM     17  N   UNL A   1      45.471  26.392  27.219  1.00  0.00    -0.248 NA
ATOM     18  C   UNL A   1      45.957  24.232  26.482  1.00  0.00     0.031 C 
ATOM     19  C   UNL A   1      41.259  25.123  28.051  1.00  0.00     0.029 A 
ATOM     20  N   UNL A   1      42.678  26.850  28.071  1.00  0.00    -0.354 N 
ATOM     21  C   UNL A   1      46.807  26.326  26.850  1.00  0.00     0.074 A 
ATOM     22  C   UNL A   1      47.063  24.965  26.430  1.00  0.00     0.031 C 
ATOM     23  C   UNL A   1      40.574  26.196  28.469  1.00  0.00     0.029 A 
ATOM     24  C   UNL A   1      41.483  27.332  28.544  1.00  0.00     0.049 A 
ATOM     25  H   UNL A   1      43.484  27.407  27.970  1.00  0.00     0.167 HD
ATOM     26  C   UNL A   1      47.728  27.320  26.862  1.00  0.00     0.037 A 
ATOM     27  C   UNL A   1      41.159  28.548  29.019  1.00  0.00     0.037 A 
ATOM     28  C   UNL A   1      47.452  28.675  27.270  1.00  0.00     0.049 A 
ATOM     29  C   UNL A   1      42.217  29.613  29.050  1.00  0.00     0.074 A 
ATOM     30  C   UNL A   1      48.305  29.766  27.263  1.00  0.00     0.029 A 
ATOM     31  N   UNL A   1      46.237  29.123  27.768  1.00  0.00    -0.354 N 
ATOM     32  N   UNL A   1      43.461  29.554  28.641  1.00  0.00    -0.248 NA
ATOM     33  C   UNL A   1      41.829  30.912  29.611  1.00  0.00     0.031 C 
ATOM     34  C   UNL A   1      47.626  30.856  27.817  1.00  0.00     0.029 A 
ATOM     35  C   UNL A   1      46.331  30.464  28.108  1.00  0.00     0.049 A 
ATOM     36  H   UNL A   1      45.429  28.571  27.865  1.00  0.00     0.167 HD
ATOM     37  C   UNL A   1      43.998  30.811  28.878  1.00  0.00     0.074 A 
ATOM     38  C   UNL A   1      42.934  31.620  29.436  1.00  0.00     0.031 C 
ATOM     39  C   UNL A   1      45.260  31.254  28.661  1.00  0.00     0.037 A 
BRANCH  26  40
ATOM     40  C   UNL A   1      49.132  26.995  26.440  1.00  0.00     0.064 A 
ATOM     41  C   UNL A   1      50.076  26.483  27.342  1.00  0.00     0.173 A 
ATOM     42  C   UNL A   1      49.505  27.102  25.090  1.00  0.00     0.173 A 
ATOM     43  F   UNL A   1      49.773  26.368  28.644  1.00  0.00    -0.203 F 
ATOM     44  C   UNL A   1      51.343  26.096  26.909  1.00  0.00     0.198 A 
ATOM     45  C   UNL A   1      50.764  26.689  24.658  1.00  0.00     0.198 A 
ATOM     46  F   UNL A   1      48.638  27.579  24.185  1.00  0.00    -0.203 F 
ATOM     47  F   UNL A   1      52.237  25.631  27.793  1.00  0.00    -0.200 F 
ATOM     48  C   UNL A   1      51.681  26.188  25.568  1.00  0.00     0.200 A 
ATOM     49  F   UNL A   1      51.082  26.764  23.359  1.00  0.00    -0.200 F 
ATOM     50  F   UNL A   1      52.892  25.793  25.151  1.00  0.00    -0.200 F 
ENDBRANCH  26  40
BRANCH  27  51
ATOM     51  C   UNL A   1      39.790  28.809  29.537  1.00  0.00     0.064 A 
ATOM     52  C   UNL A   1      39.449  28.520  30.865  1.00  0.00     0.173 A 
ATOM     53  C   UNL A   1      38.786  29.328  28.705  1.00  0.00     0.173 A 
ATOM     54  F   UNL A   1      40.368  28.008  31.697  1.00  0.00    -0.203 F 
ATOM     55  C   UNL A   1      38.149  28.707  31.331  1.00  0.00     0.198 A 
ATOM     56  C   UNL A   1      37.498  29.553  29.181  1.00  0.00     0.198 A 
ATOM     57  F   UNL A   1      39.061  29.629  27.427  1.00  0.00    -0.203 F 
ATOM     58  F   UNL A   1      37.834  28.362  32.586  1.00  0.00    -0.200 F 
ATOM     59  C   UNL A   1      37.176  29.228  30.489  1.00  0.00     0.200 A 
ATOM     60  F   UNL A   1      36.567  30.075  28.371  1.00  0.00    -0.200 F 
ATOM     61  F   UNL A   1      35.926  29.404  30.938  1.00  0.00    -0.200 F 
ENDBRANCH  27  51
BRANCH  39  62
ATOM     62  C   UNL A   1      45.546  32.687  29.004  1.00  0.00     0.064 A 
ATOM     63  C   UNL A   1      45.982  33.065  30.282  1.00  0.00     0.173 A 
ATOM     64  C   UNL A   1      45.399  33.692  28.036  1.00  0.00     0.173 A 
ATOM     65  F   UNL A   1      46.120  32.143  31.249  1.00  0.00    -0.203 F 
ATOM     66  C   UNL A   1      46.229  34.400  30.588  1.00  0.00     0.198 A 
ATOM     67  C   UNL A   1      45.682  35.021  28.335  1.00  0.00     0.198 A 
ATOM     68  F   UNL A   1      44.990  33.384  26.797  1.00  0.00    -0.203 F 
ATOM     69  F   UNL A   1      46.587  34.744  31.834  1.00  0.00    -0.200 F 
ATOM     70  C   UNL A   1      46.087  35.375  29.613  1.00  0.00     0.200 A 
ATOM     71  F   UNL A   1      45.559  35.961  27.387  1.00  0.00    -0.200 F 
ATOM     72  F   UNL A   1      46.331  36.660  29.908  1.00  0.00    -0.200 F 
ENDBRANCH  39  62
ENDBRANCH  13  14
ENDBRANCH   6   8
ENDBRANCH   3   4
ENDBRANCH   2   3
ENDBRANCH   1   2
BRANCH   1  73
ATOM     73  C   UNL A   1      37.232  22.099  24.628  1.00  0.00     0.002 C 
BRANCH  73  74
ATOM     74  C   UNL A   1      35.980  22.912  24.301  1.00  0.00     0.021 C 
BRANCH  74  75
ATOM     75  C   UNL A   1      34.673  22.266  24.743  1.00  0.00     0.116 C 
BRANCH  75  76
ATOM     76  N   UNL A   1      33.732  22.099  23.671  1.00  0.00    -0.354 N 
ATOM     77  C   UNL A   1      32.800  21.141  23.416  1.00  0.00     0.251 C 
ATOM     78  H   UNL A   1      33.767  22.812  22.993  1.00  0.00     0.163 HD
ATOM     79  O   UNL A   1      32.119  21.357  22.404  1.00  0.00    -0.272 OA
BRANCH  77  80
ATOM     80  C   UNL A   1      32.628  19.813  24.251  1.00  0.00     0.143 C 
ATOM     81  C   UNL A   1      31.827  18.774  23.451  1.00  0.00     0.051 C 
ATOM     82  C   UNL A   1      33.864  19.225  24.952  1.00  0.00     0.051 C 
ATOM     83  C   UNL A   1      32.680  17.891  22.559  1.00  0.00     0.080 C 
ATOM     84  C   UNL A   1      34.601  18.059  24.286  1.00  0.00     0.080 C 
ATOM     85  C   UNL A   1      33.776  17.193  23.345  1.00  0.00     0.248 C 
ATOM     86  F   UNL A   1      34.619  16.584  22.468  1.00  0.00    -0.207 F 
ATOM     87  F   UNL A   1      33.202  16.199  24.074  1.00  0.00    -0.207 F 
BRANCH  80  88
ATOM     88  O   UNL A   1      31.795  20.234  25.368  1.00  0.00    -0.380 OA
ATOM     89  H   UNL A   1      31.104  19.571  25.524  1.00  0.00     0.212 HD
ENDBRANCH  80  88
ENDBRANCH  77  80
ENDBRANCH  75  76
ENDBRANCH  74  75
ENDBRANCH  73  74
ENDBRANCH   1  73
TORSDOF 14
ENDMDL
