MODEL 1
REMARK VINA RESULT:     -12.2      0.000      0.000
REMARK SMILES CC[C@@H](C)Oc1cccc(C(=O)Nc2ccc(Cl)c(C(=O)NCCCCCCNC(=O)c3ccc(-c4c5nc(c(-c6c(F)c(F)c(F)c(F)c6F)c6ccc([nH]6)c(-c6c(F)c(F)c(F)c(F)c6F)c6nc(c(-c7c(F)c(F)c(F)c(F)c7F)c7ccc4[nH]7)C=C6)C=C5)cc3)c2)c1
REMARK SMILES IDX 24 1 23 2 22 3 20 4 21 5 19 7 14 8 15 9 95 10 16 11 17 12
REMARK SMILES IDX 18 13 13 14 11 15 12 16 10 18 6 19 7 20 96 21 8 22 9 23 5 24
REMARK SMILES IDX 3 25 4 26 2 27 1 28 25 29 26 30 27 31 28 32 29 33 30 34
REMARK SMILES IDX 31 36 32 37 33 38 94 39 34 40 93 41 35 42 36 43 37 44 87 45
REMARK SMILES IDX 38 46 92 47 86 48 88 49 39 50 91 51 85 52 84 53 40 55 72 56
REMARK SMILES IDX 52 57 71 58 53 59 56 60 70 61 89 62 54 63 55 64 69 66 90 67
REMARK SMILES IDX 57 68 41 69 42 70 50 71 43 72 44 73 48 74 51 75 45 76 46 77
REMARK SMILES IDX 49 78 47 79 73 80 74 81 82 82 75 83 76 84 80 85 83 86 77 87
REMARK SMILES IDX 78 88 81 89 79 90 58 91 59 92 67 93 60 94 61 95 65 96 68 97
REMARK SMILES IDX 62 98 63 99 66 100 64 101
REMARK H PARENT 22 6 13 17 29 35 88 54 56 65
REMARK Flexibility Score: inf
ROOT
ATOM      1  C   UNL A   1      32.292  27.760  26.720  1.00  0.00     0.021 C 
ENDROOT
BRANCH   1   2
ATOM      2  C   UNL A   1      31.251  27.072  25.839  1.00  0.00     0.116 C 
BRANCH   2   3
ATOM      3  N   UNL A   1      30.727  25.914  26.527  1.00  0.00    -0.352 N 
ATOM      4  C   UNL A   1      30.795  24.561  26.315  1.00  0.00     0.252 C 
ATOM      5  O   UNL A   1      29.938  23.907  26.908  1.00  0.00    -0.269 OA
ATOM      6  H   UNL A   1      30.203  26.149  27.328  1.00  0.00     0.163 HD
BRANCH   4   7
ATOM      7  C   UNL A   1      31.854  23.878  25.494  1.00  0.00     0.060 A 
ATOM      8  C   UNL A   1      33.066  23.591  23.380  1.00  0.00     0.042 A 
ATOM      9  C   UNL A   1      34.010  22.790  24.012  1.00  0.00     0.028 A 
ATOM     10  C   UNL A   1      31.947  24.030  24.098  1.00  0.00     0.041 A 
ATOM     11  C   UNL A   1      33.902  22.547  25.378  1.00  0.00     0.023 A 
ATOM     12  C   UNL A   1      32.855  23.107  26.126  1.00  0.00     0.053 A 
ATOM     13  Cl  UNL A   1      32.961  22.822  27.832  1.00  0.00    -0.083 Cl
BRANCH   8  14
ATOM     14  N   UNL A   1      33.300  23.932  22.038  1.00  0.00    -0.322 N 
ATOM     15  C   UNL A   1      32.989  25.063  21.307  1.00  0.00     0.255 C 
ATOM     16  O   UNL A   1      33.032  24.994  20.077  1.00  0.00    -0.269 OA
ATOM     17  H   UNL A   1      33.770  23.237  21.524  1.00  0.00     0.170 HD
BRANCH  15  18
ATOM     18  C   UNL A   1      32.704  26.392  21.933  1.00  0.00     0.043 A 
ATOM     19  C   UNL A   1      31.265  28.311  22.339  1.00  0.00     0.120 A 
ATOM     20  C   UNL A   1      32.321  28.939  23.008  1.00  0.00     0.046 A 
ATOM     21  C   UNL A   1      31.441  27.004  21.883  1.00  0.00     0.060 A 
ATOM     22  C   UNL A   1      33.539  28.286  23.194  1.00  0.00     0.005 A 
ATOM     23  C   UNL A   1      33.739  27.025  22.635  1.00  0.00     0.014 A 
BRANCH  19  24
ATOM     24  O   UNL A   1      30.213  29.131  22.053  1.00  0.00    -0.491 OA
BRANCH  24  25
ATOM     25  C   UNL A   1      29.208  29.509  23.006  1.00  0.00     0.170 C 
ATOM     26  C   UNL A   1      28.048  28.522  23.010  1.00  0.00     0.053 C 
BRANCH  25  27
ATOM     27  C   UNL A   1      28.843  31.000  22.987  1.00  0.00     0.041 C 
ATOM     28  C   UNL A   1      27.557  31.355  23.716  1.00  0.00     0.008 C 
ENDBRANCH  25  27
ENDBRANCH  24  25
ENDBRANCH  19  24
ENDBRANCH  15  18
ENDBRANCH   8  14
ENDBRANCH   4   7
ENDBRANCH   2   3
ENDBRANCH   1   2
BRANCH   1  29
ATOM     29  C   UNL A   1      31.770  29.082  27.289  1.00  0.00     0.002 C 
BRANCH  29  30
ATOM     30  C   UNL A   1      31.634  30.199  26.246  1.00  0.00     0.002 C 
BRANCH  30  31
ATOM     31  C   UNL A   1      31.440  31.601  26.831  1.00  0.00     0.021 C 
BRANCH  31  32
ATOM     32  C   UNL A   1      32.657  32.507  26.688  1.00  0.00     0.116 C 
BRANCH  32  33
ATOM     33  N   UNL A   1      32.412  33.825  27.254  1.00  0.00    -0.352 N 
ATOM     34  C   UNL A   1      32.992  34.414  28.343  1.00  0.00     0.251 C 
ATOM     35  H   UNL A   1      31.736  34.368  26.789  1.00  0.00     0.163 HD
ATOM     36  O   UNL A   1      32.508  35.436  28.832  1.00  0.00    -0.269 OA
BRANCH  34  37
ATOM     37  C   UNL A   1      34.199  33.813  28.941  1.00  0.00     0.039 A 
ATOM     38  C   UNL A   1      35.447  34.367  28.652  1.00  0.00     0.014 A 
ATOM     39  C   UNL A   1      34.093  32.697  29.778  1.00  0.00     0.014 A 
ATOM     40  C   UNL A   1      36.591  33.831  29.244  1.00  0.00     0.010 A 
ATOM     41  C   UNL A   1      35.225  32.211  30.424  1.00  0.00     0.010 A 
ATOM     42  C   UNL A   1      36.484  32.767  30.156  1.00  0.00    -0.014 A 
BRANCH  42  43
ATOM     43  C   UNL A   1      37.683  32.214  30.831  1.00  0.00     0.031 A 
ATOM     44  C   UNL A   1      38.491  31.137  30.166  1.00  0.00     0.074 A 
ATOM     45  C   UNL A   1      38.006  32.642  32.066  1.00  0.00     0.049 A 
ATOM     46  N   UNL A   1      39.531  30.482  30.618  1.00  0.00    -0.248 NA
ATOM     47  C   UNL A   1      38.058  30.719  28.824  1.00  0.00     0.031 C 
ATOM     48  C   UNL A   1      37.267  33.648  32.831  1.00  0.00     0.029 A 
ATOM     49  N   UNL A   1      39.031  32.276  32.900  1.00  0.00    -0.354 N 
ATOM     50  C   UNL A   1      39.866  29.573  29.624  1.00  0.00     0.074 A 
ATOM     51  C   UNL A   1      38.885  29.717  28.570  1.00  0.00     0.031 C 
ATOM     52  C   UNL A   1      37.872  33.832  34.014  1.00  0.00     0.029 A 
ATOM     53  C   UNL A   1      39.018  32.931  34.107  1.00  0.00     0.049 A 
ATOM     54  H   UNL A   1      39.711  31.606  32.658  1.00  0.00     0.167 HD
ATOM     55  C   UNL A   1      40.913  28.715  29.583  1.00  0.00     0.037 A 
ATOM     56  C   UNL A   1      39.834  32.811  35.171  1.00  0.00     0.037 A 
ATOM     57  C   UNL A   1      41.894  28.589  30.629  1.00  0.00     0.049 A 
ATOM     58  C   UNL A   1      40.984  31.844  35.105  1.00  0.00     0.074 A 
ATOM     59  C   UNL A   1      43.021  27.787  30.664  1.00  0.00     0.029 A 
ATOM     60  N   UNL A   1      41.861  29.285  31.829  1.00  0.00    -0.354 N 
ATOM     61  N   UNL A   1      41.333  31.037  34.131  1.00  0.00    -0.248 NA
ATOM     62  C   UNL A   1      41.861  31.776  36.282  1.00  0.00     0.031 C 
ATOM     63  C   UNL A   1      43.642  27.961  31.904  1.00  0.00     0.029 A 
ATOM     64  C   UNL A   1      42.935  28.913  32.621  1.00  0.00     0.049 A 
ATOM     65  H   UNL A   1      41.175  29.945  32.081  1.00  0.00     0.167 HD
ATOM     66  C   UNL A   1      42.480  30.388  34.565  1.00  0.00     0.074 A 
ATOM     67  C   UNL A   1      42.779  30.907  35.884  1.00  0.00     0.031 C 
ATOM     68  C   UNL A   1      43.220  29.446  33.930  1.00  0.00     0.037 A 
BRANCH  55  69
ATOM     69  C   UNL A   1      41.051  27.848  28.364  1.00  0.00     0.064 A 
ATOM     70  C   UNL A   1      40.407  26.605  28.269  1.00  0.00     0.173 A 
ATOM     71  C   UNL A   1      41.812  28.277  27.265  1.00  0.00     0.173 A 
ATOM     72  F   UNL A   1      39.678  26.142  29.294  1.00  0.00    -0.203 F 
ATOM     73  C   UNL A   1      40.547  25.809  27.134  1.00  0.00     0.198 A 
ATOM     74  C   UNL A   1      41.922  27.494  26.119  1.00  0.00     0.198 A 
ATOM     75  F   UNL A   1      42.443  29.461  27.299  1.00  0.00    -0.203 F 
ATOM     76  F   UNL A   1      39.968  24.602  27.090  1.00  0.00    -0.200 F 
ATOM     77  C   UNL A   1      41.298  26.257  26.058  1.00  0.00     0.200 A 
ATOM     78  F   UNL A   1      42.636  27.934  25.074  1.00  0.00    -0.200 F 
ATOM     79  F   UNL A   1      41.426  25.493  24.965  1.00  0.00    -0.200 F 
ENDBRANCH  55  69
BRANCH  56  80
ATOM     80  C   UNL A   1      39.602  33.644  36.380  1.00  0.00     0.064 A 
ATOM     81  C   UNL A   1      40.201  34.905  36.512  1.00  0.00     0.173 A 
ATOM     82  C   UNL A   1      38.776  33.202  37.424  1.00  0.00     0.173 A 
ATOM     83  F   UNL A   1      41.013  35.365  35.549  1.00  0.00    -0.203 F 
ATOM     84  C   UNL A   1      40.001  35.682  37.652  1.00  0.00     0.198 A 
ATOM     85  C   UNL A   1      38.553  33.992  38.549  1.00  0.00     0.198 A 
ATOM     86  F   UNL A   1      38.173  32.007  37.342  1.00  0.00    -0.203 F 
ATOM     87  F   UNL A   1      40.622  36.862  37.772  1.00  0.00    -0.200 F 
ATOM     88  C   UNL A   1      39.172  35.228  38.666  1.00  0.00     0.200 A 
ATOM     89  F   UNL A   1      37.737  33.557  39.519  1.00  0.00    -0.200 F 
ATOM     90  F   UNL A   1      38.974  35.977  39.759  1.00  0.00    -0.200 F 
ENDBRANCH  56  80
BRANCH  68  91
ATOM     91  C   UNL A   1      44.444  28.940  34.638  1.00  0.00     0.064 A 
ATOM     92  C   UNL A   1      45.685  29.583  34.517  1.00  0.00     0.173 A 
ATOM     93  C   UNL A   1      44.364  27.820  35.479  1.00  0.00     0.173 A 
ATOM     94  F   UNL A   1      45.817  30.649  33.713  1.00  0.00    -0.203 F 
ATOM     95  C   UNL A   1      46.805  29.107  35.192  1.00  0.00     0.198 A 
ATOM     96  C   UNL A   1      45.479  27.366  36.178  1.00  0.00     0.198 A 
ATOM     97  F   UNL A   1      43.199  27.172  35.635  1.00  0.00    -0.203 F 
ATOM     98  F   UNL A   1      47.991  29.707  35.022  1.00  0.00    -0.200 F 
ATOM     99  C   UNL A   1      46.701  28.005  36.027  1.00  0.00     0.200 A 
ATOM    100  F   UNL A   1      45.372  26.310  36.996  1.00  0.00    -0.200 F 
ATOM    101  F   UNL A   1      47.779  27.554  36.682  1.00  0.00    -0.200 F 
ENDBRANCH  68  91
ENDBRANCH  42  43
ENDBRANCH  34  37
ENDBRANCH  32  33
ENDBRANCH  31  32
ENDBRANCH  30  31
ENDBRANCH  29  30
ENDBRANCH   1  29
TORSDOF 18
ENDMDL
MODEL 2
REMARK VINA RESULT:     -12.2      4.465      8.127
REMARK SMILES CC[C@@H](C)Oc1cccc(C(=O)Nc2ccc(Cl)c(C(=O)NCCCCCCNC(=O)c3ccc(-c4c5nc(c(-c6c(F)c(F)c(F)c(F)c6F)c6ccc([nH]6)c(-c6c(F)c(F)c(F)c(F)c6F)c6nc(c(-c7c(F)c(F)c(F)c(F)c7F)c7ccc4[nH]7)C=C6)C=C5)cc3)c2)c1
REMARK SMILES IDX 24 1 23 2 22 3 20 4 21 5 19 7 14 8 15 9 95 10 16 11 17 12
REMARK SMILES IDX 18 13 13 14 11 15 12 16 10 18 6 19 7 20 96 21 8 22 9 23 5 24
REMARK SMILES IDX 3 25 4 26 2 27 1 28 25 29 26 30 27 31 28 32 29 33 30 34
REMARK SMILES IDX 31 36 32 37 33 38 94 39 34 40 93 41 35 42 36 43 37 44 87 45
REMARK SMILES IDX 38 46 92 47 86 48 88 49 39 50 91 51 85 52 84 53 40 55 72 56
REMARK SMILES IDX 52 57 71 58 53 59 56 60 70 61 89 62 54 63 55 64 69 66 90 67
REMARK SMILES IDX 57 68 41 69 42 70 50 71 43 72 44 73 48 74 51 75 45 76 46 77
REMARK SMILES IDX 49 78 47 79 73 80 74 81 82 82 75 83 76 84 80 85 83 86 77 87
REMARK SMILES IDX 78 88 81 89 79 90 58 91 59 92 67 93 60 94 61 95 65 96 68 97
REMARK SMILES IDX 62 98 63 99 66 100 64 101
REMARK H PARENT 22 6 13 17 29 35 88 54 56 65
REMARK Flexibility Score: inf
ROOT
ATOM      1  C   UNL A   1      34.179  23.663  23.139  1.00  0.00     0.021 C 
ENDROOT
BRANCH   1   2
ATOM      2  C   UNL A   1      33.076  23.391  22.118  1.00  0.00     0.116 C 
BRANCH   2   3
ATOM      3  N   UNL A   1      32.607  24.643  21.570  1.00  0.00    -0.352 N 
ATOM      4  C   UNL A   1      31.926  25.718  22.082  1.00  0.00     0.252 C 
ATOM      5  O   UNL A   1      31.400  26.440  21.236  1.00  0.00    -0.269 OA
ATOM      6  H   UNL A   1      32.825  24.749  20.615  1.00  0.00     0.163 HD
BRANCH   4   7
ATOM      7  C   UNL A   1      31.859  26.069  23.543  1.00  0.00     0.060 A 
ATOM      8  C   UNL A   1      31.140  25.561  25.833  1.00  0.00     0.042 A 
ATOM      9  C   UNL A   1      31.946  26.579  26.329  1.00  0.00     0.028 A 
ATOM     10  C   UNL A   1      31.021  25.392  24.448  1.00  0.00     0.041 A 
ATOM     11  C   UNL A   1      32.725  27.328  25.452  1.00  0.00     0.023 A 
ATOM     12  C   UNL A   1      32.711  27.062  24.074  1.00  0.00     0.053 A 
ATOM     13  Cl  UNL A   1      33.850  27.991  23.155  1.00  0.00    -0.083 Cl
BRANCH   8  14
ATOM     14  N   UNL A   1      30.492  24.736  26.766  1.00  0.00    -0.322 N 
ATOM     15  C   UNL A   1      30.549  23.372  26.987  1.00  0.00     0.255 C 
ATOM     16  O   UNL A   1      29.659  22.852  27.664  1.00  0.00    -0.269 OA
ATOM     17  H   UNL A   1      29.884  25.217  27.373  1.00  0.00     0.170 HD
BRANCH  15  18
ATOM     18  C   UNL A   1      31.688  22.515  26.535  1.00  0.00     0.043 A 
ATOM     19  C   UNL A   1      32.668  20.847  25.060  1.00  0.00     0.120 A 
ATOM     20  C   UNL A   1      33.814  20.836  25.861  1.00  0.00     0.046 A 
ATOM     21  C   UNL A   1      31.649  21.752  25.356  1.00  0.00     0.060 A 
ATOM     22  C   UNL A   1      33.930  21.694  26.955  1.00  0.00     0.005 A 
ATOM     23  C   UNL A   1      32.858  22.513  27.306  1.00  0.00     0.014 A 
BRANCH  19  24
ATOM     24  O   UNL A   1      32.603  19.825  24.157  1.00  0.00    -0.491 OA
BRANCH  24  25
ATOM     25  C   UNL A   1      33.123  18.509  24.398  1.00  0.00     0.170 C 
ATOM     26  C   UNL A   1      33.173  17.689  23.116  1.00  0.00     0.053 C 
BRANCH  25  27
ATOM     27  C   UNL A   1      32.541  17.813  25.637  1.00  0.00     0.041 C 
ATOM     28  C   UNL A   1      32.799  16.316  25.712  1.00  0.00     0.008 C 
ENDBRANCH  25  27
ENDBRANCH  24  25
ENDBRANCH  19  24
ENDBRANCH  15  18
ENDBRANCH   8  14
ENDBRANCH   4   7
ENDBRANCH   2   3
ENDBRANCH   1   2
BRANCH   1  29
ATOM     29  C   UNL A   1      35.302  22.626  23.053  1.00  0.00     0.002 C 
BRANCH  29  30
ATOM     30  C   UNL A   1      36.516  22.947  23.934  1.00  0.00     0.002 C 
BRANCH  30  31
ATOM     31  C   UNL A   1      36.268  24.020  24.998  1.00  0.00     0.021 C 
BRANCH  31  32
ATOM     32  C   UNL A   1      36.806  23.661  26.378  1.00  0.00     0.116 C 
BRANCH  32  33
ATOM     33  N   UNL A   1      37.817  22.617  26.303  1.00  0.00    -0.352 N 
ATOM     34  C   UNL A   1      39.178  22.730  26.387  1.00  0.00     0.251 C 
ATOM     35  H   UNL A   1      37.475  21.703  26.175  1.00  0.00     0.163 HD
ATOM     36  O   UNL A   1      39.902  21.785  26.068  1.00  0.00    -0.269 OA
BRANCH  34  37
ATOM     37  C   UNL A   1      39.777  23.994  26.851  1.00  0.00     0.039 A 
ATOM     38  C   UNL A   1      40.129  24.963  25.910  1.00  0.00     0.014 A 
ATOM     39  C   UNL A   1      39.998  24.215  28.214  1.00  0.00     0.014 A 
ATOM     40  C   UNL A   1      40.660  26.179  26.340  1.00  0.00     0.010 A 
ATOM     41  C   UNL A   1      40.458  25.454  28.645  1.00  0.00     0.010 A 
ATOM     42  C   UNL A   1      40.802  26.444  27.713  1.00  0.00    -0.014 A 
BRANCH  42  43
ATOM     43  C   UNL A   1      41.321  27.747  28.192  1.00  0.00     0.031 A 
ATOM     44  C   UNL A   1      42.801  28.003  28.224  1.00  0.00     0.074 A 
ATOM     45  C   UNL A   1      40.461  28.675  28.652  1.00  0.00     0.049 A 
ATOM     46  N   UNL A   1      43.452  29.049  28.666  1.00  0.00    -0.248 NA
ATOM     47  C   UNL A   1      43.667  26.928  27.716  1.00  0.00     0.031 C 
ATOM     48  C   UNL A   1      39.006  28.520  28.716  1.00  0.00     0.029 A 
ATOM     49  N   UNL A   1      40.685  29.927  29.166  1.00  0.00    -0.354 N 
ATOM     50  C   UNL A   1      44.797  28.754  28.499  1.00  0.00     0.074 A 
ATOM     51  C   UNL A   1      44.874  27.408  27.972  1.00  0.00     0.031 C 
ATOM     52  C   UNL A   1      38.467  29.640  29.222  1.00  0.00     0.029 A 
ATOM     53  C   UNL A   1      39.538  30.576  29.553  1.00  0.00     0.049 A 
ATOM     54  H   UNL A   1      41.582  30.322  29.251  1.00  0.00     0.167 HD
ATOM     55  C   UNL A   1      45.871  29.544  28.740  1.00  0.00     0.037 A 
ATOM     56  C   UNL A   1      39.372  31.785  30.119  1.00  0.00     0.037 A 
ATOM     57  C   UNL A   1      45.786  30.887  29.249  1.00  0.00     0.049 A 
ATOM     58  C   UNL A   1      40.581  32.641  30.385  1.00  0.00     0.074 A 
ATOM     59  C   UNL A   1      46.808  31.790  29.481  1.00  0.00     0.029 A 
ATOM     60  N   UNL A   1      44.605  31.520  29.611  1.00  0.00    -0.354 N 
ATOM     61  N   UNL A   1      41.846  32.379  30.160  1.00  0.00    -0.248 NA
ATOM     62  C   UNL A   1      40.339  33.964  30.976  1.00  0.00     0.031 C 
ATOM     63  C   UNL A   1      46.252  32.950  30.027  1.00  0.00     0.029 A 
ATOM     64  C   UNL A   1      44.876  32.793  30.084  1.00  0.00     0.049 A 
ATOM     65  H   UNL A   1      43.707  31.122  29.541  1.00  0.00     0.167 HD
ATOM     66  C   UNL A   1      42.547  33.510  30.555  1.00  0.00     0.074 A 
ATOM     67  C   UNL A   1      41.564  34.467  31.018  1.00  0.00     0.031 C 
ATOM     68  C   UNL A   1      43.883  33.736  30.536  1.00  0.00     0.037 A 
BRANCH  55  69
ATOM     69  C   UNL A   1      47.230  28.973  28.449  1.00  0.00     0.064 A 
ATOM     70  C   UNL A   1      47.987  28.334  29.442  1.00  0.00     0.173 A 
ATOM     71  C   UNL A   1      47.771  29.040  27.155  1.00  0.00     0.173 A 
ATOM     72  F   UNL A   1      47.523  28.253  30.698  1.00  0.00    -0.203 F 
ATOM     73  C   UNL A   1      49.248  27.813  29.161  1.00  0.00     0.198 A 
ATOM     74  C   UNL A   1      49.016  28.488  26.870  1.00  0.00     0.198 A 
ATOM     75  F   UNL A   1      47.087  29.635  26.165  1.00  0.00    -0.203 F 
ATOM     76  F   UNL A   1      49.974  27.256  30.139  1.00  0.00    -0.200 F 
ATOM     77  C   UNL A   1      49.758  27.884  27.874  1.00  0.00     0.200 A 
ATOM     78  F   UNL A   1      49.503  28.545  25.622  1.00  0.00    -0.200 F 
ATOM     79  F   UNL A   1      50.968  27.377  27.603  1.00  0.00    -0.200 F 
ENDBRANCH  55  69
BRANCH  56  80
ATOM     80  C   UNL A   1      38.005  32.265  30.453  1.00  0.00     0.064 A 
ATOM     81  C   UNL A   1      37.412  31.950  31.684  1.00  0.00     0.173 A 
ATOM     82  C   UNL A   1      37.267  33.049  29.554  1.00  0.00     0.173 A 
ATOM     83  F   UNL A   1      38.070  31.188  32.569  1.00  0.00    -0.203 F 
ATOM     84  C   UNL A   1      36.123  32.383  31.993  1.00  0.00     0.198 A 
ATOM     85  C   UNL A   1      35.991  33.506  29.877  1.00  0.00     0.198 A 
ATOM     86  F   UNL A   1      37.793  33.385  28.367  1.00  0.00    -0.203 F 
ATOM     87  F   UNL A   1      35.562  32.029  33.157  1.00  0.00    -0.200 F 
ATOM     88  C   UNL A   1      35.417  33.166  31.093  1.00  0.00     0.200 A 
ATOM     89  F   UNL A   1      35.320  34.278  29.011  1.00  0.00    -0.200 F 
ATOM     90  F   UNL A   1      34.181  33.587  31.393  1.00  0.00    -0.200 F 
ENDBRANCH  56  80
BRANCH  68  91
ATOM     91  C   UNL A   1      44.359  35.083  30.998  1.00  0.00     0.064 A 
ATOM     92  C   UNL A   1      44.728  35.318  32.331  1.00  0.00     0.173 A 
ATOM     93  C   UNL A   1      44.486  36.141  30.085  1.00  0.00     0.173 A 
ATOM     94  F   UNL A   1      44.611  34.343  33.246  1.00  0.00    -0.203 F 
ATOM     95  C   UNL A   1      45.180  36.570  32.737  1.00  0.00     0.198 A 
ATOM     96  C   UNL A   1      44.969  37.382  30.488  1.00  0.00     0.198 A 
ATOM     97  F   UNL A   1      44.153  35.967  28.797  1.00  0.00    -0.203 F 
ATOM     98  F   UNL A   1      45.480  36.786  34.026  1.00  0.00    -0.200 F 
ATOM     99  C   UNL A   1      45.308  37.599  31.815  1.00  0.00     0.200 A 
ATOM    100  F   UNL A   1      45.106  38.370  29.592  1.00  0.00    -0.200 F 
ATOM    101  F   UNL A   1      45.752  38.800  32.207  1.00  0.00    -0.200 F 
ENDBRANCH  68  91
ENDBRANCH  42  43
ENDBRANCH  34  37
ENDBRANCH  32  33
ENDBRANCH  31  32
ENDBRANCH  30  31
ENDBRANCH  29  30
ENDBRANCH   1  29
TORSDOF 18
ENDMDL
MODEL 3
REMARK VINA RESULT:     -12.1      0.458      2.019
REMARK SMILES CC[C@@H](C)Oc1cccc(C(=O)Nc2ccc(Cl)c(C(=O)NCCCCCCNC(=O)c3ccc(-c4c5nc(c(-c6c(F)c(F)c(F)c(F)c6F)c6ccc([nH]6)c(-c6c(F)c(F)c(F)c(F)c6F)c6nc(c(-c7c(F)c(F)c(F)c(F)c7F)c7ccc4[nH]7)C=C6)C=C5)cc3)c2)c1
REMARK SMILES IDX 24 1 23 2 22 3 20 4 21 5 19 7 14 8 15 9 95 10 16 11 17 12
REMARK SMILES IDX 18 13 13 14 11 15 12 16 10 18 6 19 7 20 96 21 8 22 9 23 5 24
REMARK SMILES IDX 3 25 4 26 2 27 1 28 25 29 26 30 27 31 28 32 29 33 30 34
REMARK SMILES IDX 31 36 32 37 33 38 94 39 34 40 93 41 35 42 36 43 37 44 87 45
REMARK SMILES IDX 38 46 92 47 86 48 88 49 39 50 91 51 85 52 84 53 40 55 72 56
REMARK SMILES IDX 52 57 71 58 53 59 56 60 70 61 89 62 54 63 55 64 69 66 90 67
REMARK SMILES IDX 57 68 41 69 42 70 50 71 43 72 44 73 48 74 51 75 45 76 46 77
REMARK SMILES IDX 49 78 47 79 73 80 74 81 82 82 75 83 76 84 80 85 83 86 77 87
REMARK SMILES IDX 78 88 81 89 79 90 58 91 59 92 67 93 60 94 61 95 65 96 68 97
REMARK SMILES IDX 62 98 63 99 66 100 64 101
REMARK H PARENT 22 6 13 17 29 35 88 54 56 65
REMARK Flexibility Score: inf
ROOT
ATOM      1  C   UNL A   1      32.409  27.787  26.896  1.00  0.00     0.021 C 
ENDROOT
BRANCH   1   2
ATOM      2  C   UNL A   1      31.428  26.997  26.032  1.00  0.00     0.116 C 
BRANCH   2   3
ATOM      3  N   UNL A   1      31.070  25.770  26.708  1.00  0.00    -0.352 N 
ATOM      4  C   UNL A   1      31.232  24.439  26.425  1.00  0.00     0.252 C 
ATOM      5  O   UNL A   1      30.493  23.687  27.060  1.00  0.00    -0.269 OA
ATOM      6  H   UNL A   1      30.606  25.926  27.563  1.00  0.00     0.163 HD
BRANCH   4   7
ATOM      7  C   UNL A   1      32.263  23.886  25.479  1.00  0.00     0.060 A 
ATOM      8  C   UNL A   1      33.298  23.802  23.256  1.00  0.00     0.042 A 
ATOM      9  C   UNL A   1      34.355  23.053  23.759  1.00  0.00     0.028 A 
ATOM     10  C   UNL A   1      32.217  24.112  24.091  1.00  0.00     0.041 A 
ATOM     11  C   UNL A   1      34.390  22.736  25.114  1.00  0.00     0.023 A 
ATOM     12  C   UNL A   1      33.373  23.171  25.979  1.00  0.00     0.053 A 
ATOM     13  Cl  UNL A   1      33.655  22.813  27.651  1.00  0.00    -0.083 Cl
BRANCH   8  14
ATOM     14  N   UNL A   1      33.382  24.225  21.920  1.00  0.00    -0.322 N 
ATOM     15  C   UNL A   1      32.879  25.338  21.272  1.00  0.00     0.255 C 
ATOM     16  O   UNL A   1      32.834  25.327  20.040  1.00  0.00    -0.269 OA
ATOM     17  H   UNL A   1      33.892  23.617  21.338  1.00  0.00     0.170 HD
BRANCH  15  18
ATOM     18  C   UNL A   1      32.484  26.593  21.984  1.00  0.00     0.043 A 
ATOM     19  C   UNL A   1      30.821  28.189  22.762  1.00  0.00     0.120 A 
ATOM     20  C   UNL A   1      31.853  29.030  23.191  1.00  0.00     0.046 A 
ATOM     21  C   UNL A   1      31.147  26.938  22.240  1.00  0.00     0.060 A 
ATOM     22  C   UNL A   1      33.188  28.640  23.077  1.00  0.00     0.005 A 
ATOM     23  C   UNL A   1      33.503  27.435  22.451  1.00  0.00     0.014 A 
BRANCH  19  24
ATOM     24  O   UNL A   1      29.589  28.775  22.745  1.00  0.00    -0.491 OA
BRANCH  24  25
ATOM     25  C   UNL A   1      29.360  30.153  22.411  1.00  0.00     0.170 C 
ATOM     26  C   UNL A   1      29.125  30.995  23.657  1.00  0.00     0.053 C 
BRANCH  25  27
ATOM     27  C   UNL A   1      28.391  30.370  21.240  1.00  0.00     0.041 C 
ATOM     28  C   UNL A   1      28.068  31.824  20.936  1.00  0.00     0.008 C 
ENDBRANCH  25  27
ENDBRANCH  24  25
ENDBRANCH  19  24
ENDBRANCH  15  18
ENDBRANCH   8  14
ENDBRANCH   4   7
ENDBRANCH   2   3
ENDBRANCH   1   2
BRANCH   1  29
ATOM     29  C   UNL A   1      31.821  29.127  27.344  1.00  0.00     0.002 C 
BRANCH  29  30
ATOM     30  C   UNL A   1      31.748  30.180  26.230  1.00  0.00     0.002 C 
BRANCH  30  31
ATOM     31  C   UNL A   1      31.510  31.612  26.717  1.00  0.00     0.021 C 
BRANCH  31  32
ATOM     32  C   UNL A   1      32.789  32.390  27.005  1.00  0.00     0.116 C 
BRANCH  32  33
ATOM     33  N   UNL A   1      32.504  33.760  27.400  1.00  0.00    -0.352 N 
ATOM     34  C   UNL A   1      33.029  34.484  28.435  1.00  0.00     0.251 C 
ATOM     35  H   UNL A   1      31.842  34.233  26.845  1.00  0.00     0.163 HD
ATOM     36  O   UNL A   1      32.512  35.549  28.777  1.00  0.00    -0.269 OA
BRANCH  34  37
ATOM     37  C   UNL A   1      34.216  33.979  29.150  1.00  0.00     0.039 A 
ATOM     38  C   UNL A   1      34.044  33.043  30.171  1.00  0.00     0.014 A 
ATOM     39  C   UNL A   1      35.493  34.438  28.815  1.00  0.00     0.014 A 
ATOM     40  C   UNL A   1      35.162  32.527  30.827  1.00  0.00     0.010 A 
ATOM     41  C   UNL A   1      36.610  33.870  29.419  1.00  0.00     0.010 A 
ATOM     42  C   UNL A   1      36.454  32.917  30.436  1.00  0.00    -0.014 A 
BRANCH  42  43
ATOM     43  C   UNL A   1      37.656  32.346  31.090  1.00  0.00     0.031 A 
ATOM     44  C   UNL A   1      38.446  31.268  30.403  1.00  0.00     0.074 A 
ATOM     45  C   UNL A   1      37.999  32.758  32.325  1.00  0.00     0.049 A 
ATOM     46  N   UNL A   1      39.485  30.599  30.836  1.00  0.00    -0.248 NA
ATOM     47  C   UNL A   1      37.990  30.869  29.063  1.00  0.00     0.031 C 
ATOM     48  C   UNL A   1      37.280  33.763  33.110  1.00  0.00     0.029 A 
ATOM     49  N   UNL A   1      39.031  32.374  33.142  1.00  0.00    -0.354 N 
ATOM     50  C   UNL A   1      39.798  29.698  29.828  1.00  0.00     0.074 A 
ATOM     51  C   UNL A   1      38.805  29.861  28.788  1.00  0.00     0.031 C 
ATOM     52  C   UNL A   1      37.902  33.929  34.287  1.00  0.00     0.029 A 
ATOM     53  C   UNL A   1      39.041  33.017  34.356  1.00  0.00     0.049 A 
ATOM     54  H   UNL A   1      39.701  31.700  32.884  1.00  0.00     0.167 HD
ATOM     55  C   UNL A   1      40.836  28.830  29.764  1.00  0.00     0.037 A 
ATOM     56  C   UNL A   1      39.869  32.878  35.407  1.00  0.00     0.037 A 
ATOM     57  C   UNL A   1      41.829  28.684  30.796  1.00  0.00     0.049 A 
ATOM     58  C   UNL A   1      41.009  31.900  35.316  1.00  0.00     0.074 A 
ATOM     59  C   UNL A   1      42.948  27.870  30.808  1.00  0.00     0.029 A 
ATOM     60  N   UNL A   1      41.818  29.367  32.004  1.00  0.00    -0.354 N 
ATOM     61  N   UNL A   1      41.337  31.100  34.330  1.00  0.00    -0.248 NA
ATOM     62  C   UNL A   1      41.900  31.812  36.481  1.00  0.00     0.031 C 
ATOM     63  C   UNL A   1      43.588  28.026  32.042  1.00  0.00     0.029 A 
ATOM     64  C   UNL A   1      42.899  28.977  32.777  1.00  0.00     0.049 A 
ATOM     65  H   UNL A   1      41.142  30.031  32.270  1.00  0.00     0.167 HD
ATOM     66  C   UNL A   1      42.484  30.436  34.743  1.00  0.00     0.074 A 
ATOM     67  C   UNL A   1      42.804  30.939  36.062  1.00  0.00     0.031 C 
ATOM     68  C   UNL A   1      43.206  29.494  34.088  1.00  0.00     0.037 A 
BRANCH  55  69
ATOM     69  C   UNL A   1      40.950  27.975  28.535  1.00  0.00     0.064 A 
ATOM     70  C   UNL A   1      41.732  28.365  27.437  1.00  0.00     0.173 A 
ATOM     71  C   UNL A   1      40.293  26.736  28.463  1.00  0.00     0.173 A 
ATOM     72  F   UNL A   1      42.371  29.544  27.448  1.00  0.00    -0.203 F 
ATOM     73  C   UNL A   1      41.825  27.564  26.301  1.00  0.00     0.198 A 
ATOM     74  C   UNL A   1      40.416  25.923  27.340  1.00  0.00     0.198 A 
ATOM     75  F   UNL A   1      39.537  26.310  29.487  1.00  0.00    -0.203 F 
ATOM     76  F   UNL A   1      42.533  27.985  25.244  1.00  0.00    -0.200 F 
ATOM     77  C   UNL A   1      41.174  26.342  26.256  1.00  0.00     0.200 A 
ATOM     78  F   UNL A   1      39.797  24.735  27.303  1.00  0.00    -0.200 F 
ATOM     79  F   UNL A   1      41.270  25.570  25.165  1.00  0.00    -0.200 F 
ENDBRANCH  55  69
BRANCH  56  80
ATOM     80  C   UNL A   1      39.660  33.700  36.628  1.00  0.00     0.064 A 
ATOM     81  C   UNL A   1      38.932  33.201  37.717  1.00  0.00     0.173 A 
ATOM     82  C   UNL A   1      40.185  34.997  36.733  1.00  0.00     0.173 A 
ATOM     83  F   UNL A   1      38.395  31.974  37.658  1.00  0.00    -0.203 F 
ATOM     84  C   UNL A   1      38.719  33.976  38.856  1.00  0.00     0.198 A 
ATOM     85  C   UNL A   1      39.997  35.759  37.884  1.00  0.00     0.198 A 
ATOM     86  F   UNL A   1      40.896  35.517  35.721  1.00  0.00    -0.203 F 
ATOM     87  F   UNL A   1      37.980  33.492  39.863  1.00  0.00    -0.200 F 
ATOM     88  C   UNL A   1      39.256  35.251  38.941  1.00  0.00     0.200 A 
ATOM     89  F   UNL A   1      40.533  36.984  37.968  1.00  0.00    -0.200 F 
ATOM     90  F   UNL A   1      39.057  35.993  40.038  1.00  0.00    -0.200 F 
ENDBRANCH  56  80
BRANCH  68  91
ATOM     91  C   UNL A   1      44.434  28.969  34.774  1.00  0.00     0.064 A 
ATOM     92  C   UNL A   1      44.396  27.822  35.581  1.00  0.00     0.173 A 
ATOM     93  C   UNL A   1      45.674  29.601  34.589  1.00  0.00     0.173 A 
ATOM     94  F   UNL A   1      43.233  27.191  35.802  1.00  0.00    -0.203 F 
ATOM     95  C   UNL A   1      45.549  27.344  36.197  1.00  0.00     0.198 A 
ATOM     96  C   UNL A   1      46.830  29.100  35.180  1.00  0.00     0.198 A 
ATOM     97  F   UNL A   1      45.766  30.698  33.821  1.00  0.00    -0.203 F 
ATOM     98  F   UNL A   1      45.479  26.276  37.005  1.00  0.00    -0.200 F 
ATOM     99  C   UNL A   1      46.765  27.977  35.991  1.00  0.00     0.200 A 
ATOM    100  F   UNL A   1      48.006  29.706  34.967  1.00  0.00    -0.200 F 
ATOM    101  F   UNL A   1      47.874  27.510  36.579  1.00  0.00    -0.200 F 
ENDBRANCH  68  91
ENDBRANCH  42  43
ENDBRANCH  34  37
ENDBRANCH  32  33
ENDBRANCH  31  32
ENDBRANCH  30  31
ENDBRANCH  29  30
ENDBRANCH   1  29
TORSDOF 18
ENDMDL
