MODEL 1
REMARK VINA RESULT:     -12.6      0.000      0.000
REMARK SMILES CC(C)C(=O)Nc1ccc(C(=O)Nc2ccc(CC(=O)NCCCCCCNC(=O)c3ccc(-c4c5nc(c(-c6c(F)c(F)c(F)c(F)c6F)c6ccc([nH]6)c(-c6c(F)c(F)c(F)c(F)c6F)c6nc(c(-c7c(F)c(F)c(F)c(F)c7F)c7ccc4[nH]7)C=C6)C=C5)cc3)cc2)cc1
REMARK SMILES IDX 23 1 22 2 21 3 19 4 20 5 18 7 17 8 14 9 15 10 95 11 16 12
REMARK SMILES IDX 94 13 13 14 11 15 12 16 10 18 7 19 8 20 97 21 9 22 96 23
REMARK SMILES IDX 6 24 4 25 5 26 2 28 1 29 3 30 24 31 25 32 26 33 27 34 28 35
REMARK SMILES IDX 29 36 30 38 31 39 32 40 93 41 33 42 92 43 34 44 35 45 36 46
REMARK SMILES IDX 86 47 37 48 91 49 85 50 87 51 38 52 90 53 84 54 83 55 39 57
REMARK SMILES IDX 71 58 51 59 70 60 52 61 55 62 69 63 88 64 53 65 54 66 68 68
REMARK SMILES IDX 89 69 56 70 40 71 41 72 49 73 42 74 43 75 47 76 50 77 44 78
REMARK SMILES IDX 45 79 48 80 46 81 72 82 73 83 81 84 74 85 75 86 79 87 82 88
REMARK SMILES IDX 76 89 77 90 80 91 78 92 57 93 58 94 66 95 59 96 60 97 64 98
REMARK SMILES IDX 67 99 61 100 62 101 65 102 63 103
REMARK H PARENT 21 6 13 17 6 27 28 37 87 56 55 67
REMARK Flexibility Score: inf
ROOT
ATOM      1  C   UNL A   1      36.433  22.718  25.884  1.00  0.00     0.021 C 
ENDROOT
BRANCH   1   2
ATOM      2  C   UNL A   1      35.486  21.632  26.401  1.00  0.00     0.116 C 
BRANCH   2   3
ATOM      3  N   UNL A   1      34.580  22.166  27.394  1.00  0.00    -0.356 N 
ATOM      4  C   UNL A   1      33.215  22.170  27.371  1.00  0.00     0.224 C 
ATOM      5  O   UNL A   1      32.610  22.782  28.253  1.00  0.00    -0.275 OA
ATOM      6  H   UNL A   1      34.999  22.578  28.184  1.00  0.00     0.163 HD
BRANCH   4   7
ATOM      7  C   UNL A   1      32.479  21.376  26.308  1.00  0.00     0.135 C 
BRANCH   7   8
ATOM      8  C   UNL A   1      32.337  22.073  24.973  1.00  0.00    -0.039 A 
ATOM      9  C   UNL A   1      32.377  23.419  22.511  1.00  0.00     0.041 A 
ATOM     10  C   UNL A   1      32.423  22.022  22.543  1.00  0.00     0.026 A 
ATOM     11  C   UNL A   1      32.109  24.126  23.684  1.00  0.00     0.026 A 
ATOM     12  C   UNL A   1      32.411  21.353  23.774  1.00  0.00     0.006 A 
ATOM     13  C   UNL A   1      32.158  23.464  24.911  1.00  0.00     0.006 A 
BRANCH   9  14
ATOM     14  N   UNL A   1      32.792  24.070  21.332  1.00  0.00    -0.322 N 
ATOM     15  C   UNL A   1      32.767  25.422  20.994  1.00  0.00     0.255 C 
ATOM     16  O   UNL A   1      33.029  25.740  19.832  1.00  0.00    -0.269 OA
ATOM     17  H   UNL A   1      33.158  23.475  20.639  1.00  0.00     0.170 HD
BRANCH  15  18
ATOM     18  C   UNL A   1      32.565  26.523  21.998  1.00  0.00     0.040 A 
ATOM     19  C   UNL A   1      32.224  28.665  23.807  1.00  0.00     0.041 A 
ATOM     20  C   UNL A   1      31.108  28.075  23.216  1.00  0.00     0.027 A 
ATOM     21  C   UNL A   1      33.448  28.077  23.615  1.00  0.00     0.027 A 
ATOM     22  C   UNL A   1      31.279  26.979  22.336  1.00  0.00     0.016 A 
ATOM     23  C   UNL A   1      33.630  27.183  22.585  1.00  0.00     0.016 A 
BRANCH  19  24
ATOM     24  N   UNL A   1      32.158  29.842  24.557  1.00  0.00    -0.326 N 
ATOM     25  C   UNL A   1      31.955  29.991  25.911  1.00  0.00     0.226 C 
ATOM     26  O   UNL A   1      31.579  31.102  26.308  1.00  0.00    -0.274 OA
ATOM     27  H   UNL A   1      32.272  30.677  24.050  1.00  0.00     0.169 HD
BRANCH  25  28
ATOM     28  C   UNL A   1      32.268  28.885  26.964  1.00  0.00     0.072 C 
ATOM     29  C   UNL A   1      31.470  27.579  26.884  1.00  0.00     0.018 C 
ATOM     30  C   UNL A   1      33.759  28.637  27.194  1.00  0.00     0.018 C 
ENDBRANCH  25  28
ENDBRANCH  19  24
ENDBRANCH  15  18
ENDBRANCH   9  14
ENDBRANCH   7   8
ENDBRANCH   4   7
ENDBRANCH   2   3
ENDBRANCH   1   2
BRANCH   1  31
ATOM     31  C   UNL A   1      37.485  22.186  24.908  1.00  0.00     0.002 C 
BRANCH  31  32
ATOM     32  C   UNL A   1      37.173  20.801  24.337  1.00  0.00     0.002 C 
BRANCH  32  33
ATOM     33  C   UNL A   1      38.114  19.690  24.811  1.00  0.00     0.021 C 
BRANCH  33  34
ATOM     34  C   UNL A   1      39.197  20.164  25.775  1.00  0.00     0.116 C 
BRANCH  34  35
ATOM     35  N   UNL A   1      40.234  19.158  25.949  1.00  0.00    -0.352 N 
ATOM     36  C   UNL A   1      41.581  19.322  26.122  1.00  0.00     0.251 C 
ATOM     37  H   UNL A   1      39.921  18.224  25.941  1.00  0.00     0.163 HD
ATOM     38  O   UNL A   1      42.343  18.359  26.008  1.00  0.00    -0.269 OA
BRANCH  36  39
ATOM     39  C   UNL A   1      42.127  20.657  26.434  1.00  0.00     0.039 A 
ATOM     40  C   UNL A   1      42.459  21.517  25.385  1.00  0.00     0.014 A 
ATOM     41  C   UNL A   1      42.327  21.051  27.760  1.00  0.00     0.014 A 
ATOM     42  C   UNL A   1      42.942  22.795  25.669  1.00  0.00     0.010 A 
ATOM     43  C   UNL A   1      42.736  22.350  28.042  1.00  0.00     0.010 A 
ATOM     44  C   UNL A   1      43.054  23.233  26.999  1.00  0.00    -0.014 A 
BRANCH  44  45
ATOM     45  C   UNL A   1      43.503  24.612  27.317  1.00  0.00     0.031 A 
ATOM     46  C   UNL A   1      42.521  25.628  27.828  1.00  0.00     0.074 A 
ATOM     47  C   UNL A   1      44.782  24.964  27.083  1.00  0.00     0.049 A 
ATOM     48  N   UNL A   1      42.706  26.896  28.098  1.00  0.00    -0.248 NA
ATOM     49  C   UNL A   1      41.140  25.166  28.038  1.00  0.00     0.031 C 
ATOM     50  C   UNL A   1      45.816  24.080  26.541  1.00  0.00     0.029 A 
ATOM     51  N   UNL A   1      45.428  26.162  27.256  1.00  0.00    -0.354 N 
ATOM     52  C   UNL A   1      41.467  27.383  28.491  1.00  0.00     0.074 A 
ATOM     53  C   UNL A   1      40.525  26.290  28.376  1.00  0.00     0.031 C 
ATOM     54  C   UNL A   1      46.969  24.760  26.446  1.00  0.00     0.029 A 
ATOM     55  C   UNL A   1      46.748  26.136  26.879  1.00  0.00     0.049 A 
ATOM     56  H   UNL A   1      44.987  26.965  27.618  1.00  0.00     0.167 HD
ATOM     57  C   UNL A   1      41.148  28.624  28.929  1.00  0.00     0.037 A 
ATOM     58  C   UNL A   1      47.673  27.115  26.872  1.00  0.00     0.037 A 
ATOM     59  C   UNL A   1      42.094  29.701  29.066  1.00  0.00     0.049 A 
ATOM     60  C   UNL A   1      47.291  28.487  27.361  1.00  0.00     0.074 A 
ATOM     61  C   UNL A   1      41.887  30.973  29.568  1.00  0.00     0.029 A 
ATOM     62  N   UNL A   1      43.429  29.631  28.693  1.00  0.00    -0.354 N 
ATOM     63  N   UNL A   1      46.134  28.914  27.807  1.00  0.00    -0.248 NA
ATOM     64  C   UNL A   1      48.345  29.510  27.353  1.00  0.00     0.031 C 
ATOM     65  C   UNL A   1      43.080  31.692  29.445  1.00  0.00     0.029 A 
ATOM     66  C   UNL A   1      44.049  30.848  28.925  1.00  0.00     0.049 A 
ATOM     67  H   UNL A   1      43.870  28.835  28.317  1.00  0.00     0.167 HD
ATOM     68  C   UNL A   1      46.328  30.243  28.160  1.00  0.00     0.074 A 
ATOM     69  C   UNL A   1      47.719  30.546  27.891  1.00  0.00     0.031 C 
ATOM     70  C   UNL A   1      45.436  31.132  28.661  1.00  0.00     0.037 A 
BRANCH  57  71
ATOM     71  C   UNL A   1      39.715  28.892  29.292  1.00  0.00     0.064 A 
ATOM     72  C   UNL A   1      39.232  28.687  30.594  1.00  0.00     0.173 A 
ATOM     73  C   UNL A   1      38.823  29.402  28.336  1.00  0.00     0.173 A 
ATOM     74  F   UNL A   1      40.039  28.191  31.544  1.00  0.00    -0.203 F 
ATOM     75  C   UNL A   1      37.904  28.958  30.916  1.00  0.00     0.198 A 
ATOM     76  C   UNL A   1      37.506  29.703  28.671  1.00  0.00     0.198 A 
ATOM     77  F   UNL A   1      39.234  29.622  27.077  1.00  0.00    -0.203 F 
ATOM     78  F   UNL A   1      37.453  28.708  32.154  1.00  0.00    -0.200 F 
ATOM     79  C   UNL A   1      37.045  29.472  29.959  1.00  0.00     0.200 A 
ATOM     80  F   UNL A   1      36.681  30.216  27.747  1.00  0.00    -0.200 F 
ATOM     81  F   UNL A   1      35.771  29.743  30.274  1.00  0.00    -0.200 F 
ENDBRANCH  57  71
BRANCH  58  82
ATOM     82  C   UNL A   1      49.054  26.831  26.399  1.00  0.00     0.064 A 
ATOM     83  C   UNL A   1      49.416  27.040  25.062  1.00  0.00     0.173 A 
ATOM     84  C   UNL A   1      50.034  26.334  27.270  1.00  0.00     0.173 A 
ATOM     85  F   UNL A   1      48.508  27.495  24.185  1.00  0.00    -0.203 F 
ATOM     86  C   UNL A   1      50.699  26.739  24.607  1.00  0.00     0.198 A 
ATOM     87  C   UNL A   1      51.326  26.064  26.822  1.00  0.00     0.198 A 
ATOM     88  F   UNL A   1      49.742  26.123  28.562  1.00  0.00    -0.203 F 
ATOM     89  F   UNL A   1      51.002  26.899  23.312  1.00  0.00    -0.200 F 
ATOM     90  C   UNL A   1      51.654  26.257  25.489  1.00  0.00     0.200 A 
ATOM     91  F   UNL A   1      52.251  25.614  27.682  1.00  0.00    -0.200 F 
ATOM     92  F   UNL A   1      52.888  25.970  25.052  1.00  0.00    -0.200 F 
ENDBRANCH  58  82
BRANCH  70  93
ATOM     93  C   UNL A   1      45.943  32.507  28.990  1.00  0.00     0.064 A 
ATOM     94  C   UNL A   1      46.507  32.807  30.240  1.00  0.00     0.173 A 
ATOM     95  C   UNL A   1      45.902  33.526  28.027  1.00  0.00     0.173 A 
ATOM     96  F   UNL A   1      46.556  31.872  31.201  1.00  0.00    -0.203 F 
ATOM     97  C   UNL A   1      46.984  34.085  30.521  1.00  0.00     0.198 A 
ATOM     98  C   UNL A   1      46.412  34.793  28.300  1.00  0.00     0.198 A 
ATOM     99  F   UNL A   1      45.382  33.291  26.814  1.00  0.00    -0.203 F 
ATOM    100  F   UNL A   1      47.469  34.363  31.739  1.00  0.00    -0.200 F 
ATOM    101  C   UNL A   1      46.944  35.073  29.549  1.00  0.00     0.200 A 
ATOM    102  F   UNL A   1      46.387  35.742  27.355  1.00  0.00    -0.200 F 
ATOM    103  F   UNL A   1      47.412  36.300  29.819  1.00  0.00    -0.200 F 
ENDBRANCH  70  93
ENDBRANCH  44  45
ENDBRANCH  36  39
ENDBRANCH  34  35
ENDBRANCH  33  34
ENDBRANCH  32  33
ENDBRANCH  31  32
ENDBRANCH   1  31
TORSDOF 18
ENDMDL
MODEL 2
REMARK VINA RESULT:     -12.6      5.813     10.737
REMARK SMILES CC(C)C(=O)Nc1ccc(C(=O)Nc2ccc(CC(=O)NCCCCCCNC(=O)c3ccc(-c4c5nc(c(-c6c(F)c(F)c(F)c(F)c6F)c6ccc([nH]6)c(-c6c(F)c(F)c(F)c(F)c6F)c6nc(c(-c7c(F)c(F)c(F)c(F)c7F)c7ccc4[nH]7)C=C6)C=C5)cc3)cc2)cc1
REMARK SMILES IDX 23 1 22 2 21 3 19 4 20 5 18 7 17 8 14 9 15 10 95 11 16 12
REMARK SMILES IDX 94 13 13 14 11 15 12 16 10 18 7 19 8 20 97 21 9 22 96 23
REMARK SMILES IDX 6 24 4 25 5 26 2 28 1 29 3 30 24 31 25 32 26 33 27 34 28 35
REMARK SMILES IDX 29 36 30 38 31 39 32 40 93 41 33 42 92 43 34 44 35 45 36 46
REMARK SMILES IDX 86 47 37 48 91 49 85 50 87 51 38 52 90 53 84 54 83 55 39 57
REMARK SMILES IDX 71 58 51 59 70 60 52 61 55 62 69 63 88 64 53 65 54 66 68 68
REMARK SMILES IDX 89 69 56 70 40 71 41 72 49 73 42 74 43 75 47 76 50 77 44 78
REMARK SMILES IDX 45 79 48 80 46 81 72 82 73 83 81 84 74 85 75 86 79 87 82 88
REMARK SMILES IDX 76 89 77 90 80 91 78 92 57 93 58 94 66 95 59 96 60 97 64 98
REMARK SMILES IDX 67 99 61 100 62 101 65 102 63 103
REMARK H PARENT 21 6 13 17 6 27 28 37 87 56 55 67
REMARK Flexibility Score: inf
ROOT
ATOM      1  C   UNL A   1      35.256  31.488  28.259  1.00  0.00     0.021 C 
ENDROOT
BRANCH   1   2
ATOM      2  C   UNL A   1      34.294  30.602  27.463  1.00  0.00     0.116 C 
BRANCH   2   3
ATOM      3  N   UNL A   1      33.076  31.316  27.145  1.00  0.00    -0.356 N 
ATOM      4  C   UNL A   1      31.941  30.825  26.565  1.00  0.00     0.224 C 
ATOM      5  O   UNL A   1      31.045  31.613  26.259  1.00  0.00    -0.275 OA
ATOM      6  H   UNL A   1      33.064  32.273  27.375  1.00  0.00     0.163 HD
BRANCH   4   7
ATOM      7  C   UNL A   1      31.783  29.329  26.370  1.00  0.00     0.135 C 
BRANCH   7   8
ATOM      8  C   UNL A   1      31.835  28.863  24.932  1.00  0.00    -0.039 A 
ATOM      9  C   UNL A   1      32.055  27.736  22.371  1.00  0.00     0.041 A 
ATOM     10  C   UNL A   1      30.838  27.677  23.058  1.00  0.00     0.026 A 
ATOM     11  C   UNL A   1      33.090  28.527  22.872  1.00  0.00     0.026 A 
ATOM     12  C   UNL A   1      30.734  28.233  24.339  1.00  0.00     0.006 A 
ATOM     13  C   UNL A   1      33.004  29.028  24.172  1.00  0.00     0.006 A 
BRANCH   9  14
ATOM     14  N   UNL A   1      32.255  26.845  21.298  1.00  0.00    -0.322 N 
ATOM     15  C   UNL A   1      32.832  25.576  21.278  1.00  0.00     0.255 C 
ATOM     16  O   UNL A   1      33.053  25.050  20.185  1.00  0.00    -0.269 OA
ATOM     17  H   UNL A   1      31.938  27.170  20.426  1.00  0.00     0.170 HD
BRANCH  15  18
ATOM     18  C   UNL A   1      33.080  24.760  22.518  1.00  0.00     0.040 A 
ATOM     19  C   UNL A   1      33.528  23.323  24.907  1.00  0.00     0.041 A 
ATOM     20  C   UNL A   1      32.334  23.150  24.210  1.00  0.00     0.027 A 
ATOM     21  C   UNL A   1      34.520  24.067  24.321  1.00  0.00     0.027 A 
ATOM     22  C   UNL A   1      32.125  23.845  22.995  1.00  0.00     0.016 A 
ATOM     23  C   UNL A   1      34.222  24.918  23.282  1.00  0.00     0.016 A 
BRANCH  19  24
ATOM     24  N   UNL A   1      33.749  22.802  26.184  1.00  0.00    -0.326 N 
ATOM     25  C   UNL A   1      34.022  21.503  26.551  1.00  0.00     0.226 C 
ATOM     26  O   UNL A   1      33.830  21.196  27.734  1.00  0.00    -0.274 OA
ATOM     27  H   UNL A   1      33.704  23.451  26.922  1.00  0.00     0.169 HD
BRANCH  25  28
ATOM     28  C   UNL A   1      34.648  20.444  25.594  1.00  0.00     0.072 C 
ATOM     29  C   UNL A   1      33.754  19.861  24.494  1.00  0.00     0.018 C 
ATOM     30  C   UNL A   1      36.039  20.807  25.074  1.00  0.00     0.018 C 
ENDBRANCH  25  28
ENDBRANCH  19  24
ENDBRANCH  15  18
ENDBRANCH   9  14
ENDBRANCH   7   8
ENDBRANCH   4   7
ENDBRANCH   2   3
ENDBRANCH   1   2
BRANCH   1  31
ATOM     31  C   UNL A   1      35.019  32.984  28.041  1.00  0.00     0.002 C 
BRANCH  31  32
ATOM     32  C   UNL A   1      34.562  33.739  29.291  1.00  0.00     0.002 C 
BRANCH  32  33
ATOM     33  C   UNL A   1      33.291  34.572  29.103  1.00  0.00     0.021 C 
BRANCH  33  34
ATOM     34  C   UNL A   1      33.415  36.011  29.593  1.00  0.00     0.116 C 
BRANCH  34  35
ATOM     35  N   UNL A   1      32.547  36.264  30.733  1.00  0.00    -0.352 N 
ATOM     36  C   UNL A   1      32.610  35.755  32.001  1.00  0.00     0.251 C 
ATOM     37  H   UNL A   1      31.807  36.892  30.568  1.00  0.00     0.163 HD
ATOM     38  O   UNL A   1      31.655  35.884  32.770  1.00  0.00    -0.269 OA
BRANCH  36  39
ATOM     39  C   UNL A   1      33.820  35.037  32.448  1.00  0.00     0.039 A 
ATOM     40  C   UNL A   1      33.697  33.729  32.920  1.00  0.00     0.014 A 
ATOM     41  C   UNL A   1      35.070  35.662  32.417  1.00  0.00     0.014 A 
ATOM     42  C   UNL A   1      34.838  33.027  33.311  1.00  0.00     0.010 A 
ATOM     43  C   UNL A   1      36.214  34.937  32.735  1.00  0.00     0.010 A 
ATOM     44  C   UNL A   1      36.109  33.614  33.191  1.00  0.00    -0.014 A 
BRANCH  44  45
ATOM     45  C   UNL A   1      37.339  32.860  33.540  1.00  0.00     0.031 A 
ATOM     46  C   UNL A   1      38.074  33.162  34.815  1.00  0.00     0.074 A 
ATOM     47  C   UNL A   1      37.827  31.951  32.675  1.00  0.00     0.049 A 
ATOM     48  N   UNL A   1      39.199  32.660  35.261  1.00  0.00    -0.248 NA
ATOM     49  C   UNL A   1      37.483  34.183  35.695  1.00  0.00     0.031 C 
ATOM     50  C   UNL A   1      37.229  31.607  31.383  1.00  0.00     0.029 A 
ATOM     51  N   UNL A   1      38.944  31.158  32.744  1.00  0.00    -0.354 N 
ATOM     52  C   UNL A   1      39.456  33.314  36.459  1.00  0.00     0.074 A 
ATOM     53  C   UNL A   1      38.400  34.286  36.646  1.00  0.00     0.031 C 
ATOM     54  C   UNL A   1      37.975  30.661  30.792  1.00  0.00     0.029 A 
ATOM     55  C   UNL A   1      39.124  30.360  31.641  1.00  0.00     0.049 A 
ATOM     56  H   UNL A   1      39.561  31.160  33.513  1.00  0.00     0.167 HD
ATOM     57  C   UNL A   1      40.470  33.108  37.333  1.00  0.00     0.037 A 
ATOM     58  C   UNL A   1      40.110  29.494  31.342  1.00  0.00     0.037 A 
ATOM     59  C   UNL A   1      41.503  32.121  37.153  1.00  0.00     0.049 A 
ATOM     60  C   UNL A   1      41.226  29.285  32.330  1.00  0.00     0.074 A 
ATOM     61  C   UNL A   1      42.532  31.784  38.014  1.00  0.00     0.029 A 
ATOM     62  N   UNL A   1      41.640  31.317  36.031  1.00  0.00    -0.354 N 
ATOM     63  N   UNL A   1      41.416  29.853  33.497  1.00  0.00    -0.248 NA
ATOM     64  C   UNL A   1      42.263  28.311  31.962  1.00  0.00     0.031 C 
ATOM     65  C   UNL A   1      43.326  30.818  37.389  1.00  0.00     0.029 A 
ATOM     66  C   UNL A   1      42.755  30.506  36.165  1.00  0.00     0.049 A 
ATOM     67  H   UNL A   1      41.035  31.322  35.254  1.00  0.00     0.167 HD
ATOM     68  C   UNL A   1      42.572  29.284  34.015  1.00  0.00     0.074 A 
ATOM     69  C   UNL A   1      43.031  28.315  33.041  1.00  0.00     0.031 C 
ATOM     70  C   UNL A   1      43.196  29.540  35.191  1.00  0.00     0.037 A 
BRANCH  57  71
ATOM     71  C   UNL A   1      40.516  33.965  38.565  1.00  0.00     0.064 A 
ATOM     72  C   UNL A   1      41.231  35.173  38.599  1.00  0.00     0.173 A 
ATOM     73  C   UNL A   1      39.799  33.597  39.714  1.00  0.00     0.173 A 
ATOM     74  F   UNL A   1      41.942  35.567  37.532  1.00  0.00    -0.203 F 
ATOM     75  C   UNL A   1      41.247  35.964  39.745  1.00  0.00     0.198 A 
ATOM     76  C   UNL A   1      39.790  34.407  40.846  1.00  0.00     0.198 A 
ATOM     77  F   UNL A   1      39.093  32.455  39.734  1.00  0.00    -0.203 F 
ATOM     78  F   UNL A   1      41.977  37.088  39.771  1.00  0.00    -0.200 F 
ATOM     79  C   UNL A   1      40.522  35.586  40.864  1.00  0.00     0.200 A 
ATOM     80  F   UNL A   1      39.075  34.047  41.921  1.00  0.00    -0.200 F 
ATOM     81  F   UNL A   1      40.529  36.355  41.962  1.00  0.00    -0.200 F 
ENDBRANCH  57  71
BRANCH  58  82
ATOM     82  C   UNL A   1      40.079  28.746  30.057  1.00  0.00     0.064 A 
ATOM     83  C   UNL A   1      39.473  27.486  29.970  1.00  0.00     0.173 A 
ATOM     84  C   UNL A   1      40.665  29.268  28.895  1.00  0.00     0.173 A 
ATOM     85  F   UNL A   1      38.916  26.934  31.058  1.00  0.00    -0.203 F 
ATOM     86  C   UNL A   1      39.475  26.766  28.776  1.00  0.00     0.198 A 
ATOM     87  C   UNL A   1      40.639  28.562  27.694  1.00  0.00     0.198 A 
ATOM     88  F   UNL A   1      41.253  30.474  28.922  1.00  0.00    -0.203 F 
ATOM     89  F   UNL A   1      38.934  25.541  28.735  1.00  0.00    -0.200 F 
ATOM     90  C   UNL A   1      40.053  27.307  27.639  1.00  0.00     0.200 A 
ATOM     91  F   UNL A   1      41.184  29.098  26.592  1.00  0.00    -0.200 F 
ATOM     92  F   UNL A   1      40.053  26.616  26.490  1.00  0.00    -0.200 F 
ENDBRANCH  58  82
BRANCH  70  93
ATOM     93  C   UNL A   1      44.422  28.734  35.510  1.00  0.00     0.064 A 
ATOM     94  C   UNL A   1      44.347  27.517  36.204  1.00  0.00     0.173 A 
ATOM     95  C   UNL A   1      45.686  29.167  35.080  1.00  0.00     0.173 A 
ATOM     96  F   UNL A   1      43.164  27.066  36.650  1.00  0.00    -0.203 F 
ATOM     97  C   UNL A   1      45.494  26.778  36.478  1.00  0.00     0.198 A 
ATOM     98  C   UNL A   1      46.827  28.408  35.326  1.00  0.00     0.198 A 
ATOM     99  F   UNL A   1      45.813  30.319  34.406  1.00  0.00    -0.203 F 
ATOM    100  F   UNL A   1      45.404  25.644  37.189  1.00  0.00    -0.200 F 
ATOM    101  C   UNL A   1      46.730  27.219  36.033  1.00  0.00     0.200 A 
ATOM    102  F   UNL A   1      48.018  28.828  34.880  1.00  0.00    -0.200 F 
ATOM    103  F   UNL A   1      47.833  26.501  36.290  1.00  0.00    -0.200 F 
ENDBRANCH  70  93
ENDBRANCH  44  45
ENDBRANCH  36  39
ENDBRANCH  34  35
ENDBRANCH  33  34
ENDBRANCH  32  33
ENDBRANCH  31  32
ENDBRANCH   1  31
TORSDOF 18
ENDMDL
MODEL 3
REMARK VINA RESULT:     -12.6      3.293      8.198
REMARK SMILES CC(C)C(=O)Nc1ccc(C(=O)Nc2ccc(CC(=O)NCCCCCCNC(=O)c3ccc(-c4c5nc(c(-c6c(F)c(F)c(F)c(F)c6F)c6ccc([nH]6)c(-c6c(F)c(F)c(F)c(F)c6F)c6nc(c(-c7c(F)c(F)c(F)c(F)c7F)c7ccc4[nH]7)C=C6)C=C5)cc3)cc2)cc1
REMARK SMILES IDX 23 1 22 2 21 3 19 4 20 5 18 7 17 8 14 9 15 10 95 11 16 12
REMARK SMILES IDX 94 13 13 14 11 15 12 16 10 18 7 19 8 20 97 21 9 22 96 23
REMARK SMILES IDX 6 24 4 25 5 26 2 28 1 29 3 30 24 31 25 32 26 33 27 34 28 35
REMARK SMILES IDX 29 36 30 38 31 39 32 40 93 41 33 42 92 43 34 44 35 45 36 46
REMARK SMILES IDX 86 47 37 48 91 49 85 50 87 51 38 52 90 53 84 54 83 55 39 57
REMARK SMILES IDX 71 58 51 59 70 60 52 61 55 62 69 63 88 64 53 65 54 66 68 68
REMARK SMILES IDX 89 69 56 70 40 71 41 72 49 73 42 74 43 75 47 76 50 77 44 78
REMARK SMILES IDX 45 79 48 80 46 81 72 82 73 83 81 84 74 85 75 86 79 87 82 88
REMARK SMILES IDX 76 89 77 90 80 91 78 92 57 93 58 94 66 95 59 96 60 97 64 98
REMARK SMILES IDX 67 99 61 100 62 101 65 102 63 103
REMARK H PARENT 21 6 13 17 6 27 28 37 87 56 55 67
REMARK Flexibility Score: inf
ROOT
ATOM      1  C   UNL A   1      34.859  21.916  26.706  1.00  0.00     0.021 C 
ENDROOT
BRANCH   1   2
ATOM      2  C   UNL A   1      33.745  21.330  27.578  1.00  0.00     0.116 C 
BRANCH   2   3
ATOM      3  N   UNL A   1      32.734  22.325  27.864  1.00  0.00    -0.356 N 
ATOM      4  C   UNL A   1      31.675  22.695  27.086  1.00  0.00     0.224 C 
ATOM      5  O   UNL A   1      30.985  23.651  27.441  1.00  0.00    -0.275 OA
ATOM      6  H   UNL A   1      32.822  22.794  28.725  1.00  0.00     0.163 HD
BRANCH   4   7
ATOM      7  C   UNL A   1      31.335  21.888  25.847  1.00  0.00     0.135 C 
BRANCH   7   8
ATOM      8  C   UNL A   1      31.988  22.370  24.571  1.00  0.00    -0.039 A 
ATOM      9  C   UNL A   1      32.926  23.381  22.126  1.00  0.00     0.041 A 
ATOM     10  C   UNL A   1      33.119  24.111  23.303  1.00  0.00     0.026 A 
ATOM     11  C   UNL A   1      32.453  22.070  22.199  1.00  0.00     0.026 A 
ATOM     12  C   UNL A   1      32.643  23.608  24.521  1.00  0.00     0.006 A 
ATOM     13  C   UNL A   1      31.925  21.597  23.401  1.00  0.00     0.006 A 
BRANCH   9  14
ATOM     14  N   UNL A   1      33.037  24.061  20.898  1.00  0.00    -0.322 N 
ATOM     15  C   UNL A   1      32.749  25.387  20.573  1.00  0.00     0.255 C 
ATOM     16  O   UNL A   1      32.765  25.716  19.385  1.00  0.00    -0.269 OA
ATOM     17  H   UNL A   1      33.371  23.515  20.151  1.00  0.00     0.170 HD
BRANCH  15  18
ATOM     18  C   UNL A   1      32.547  26.465  21.602  1.00  0.00     0.040 A 
ATOM     19  C   UNL A   1      32.188  28.569  23.452  1.00  0.00     0.041 A 
ATOM     20  C   UNL A   1      31.082  27.857  22.991  1.00  0.00     0.027 A 
ATOM     21  C   UNL A   1      33.438  28.116  23.115  1.00  0.00     0.027 A 
ATOM     22  C   UNL A   1      31.267  26.781  22.090  1.00  0.00     0.016 A 
ATOM     23  C   UNL A   1      33.595  27.240  22.065  1.00  0.00     0.016 A 
BRANCH  19  24
ATOM     24  N   UNL A   1      32.083  29.735  24.213  1.00  0.00    -0.326 N 
ATOM     25  C   UNL A   1      32.051  29.872  25.583  1.00  0.00     0.226 C 
ATOM     26  O   UNL A   1      31.600  30.933  26.035  1.00  0.00    -0.274 OA
ATOM     27  H   UNL A   1      32.024  30.574  23.700  1.00  0.00     0.169 HD
BRANCH  25  28
ATOM     28  C   UNL A   1      32.637  28.823  26.574  1.00  0.00     0.072 C 
ATOM     29  C   UNL A   1      33.999  29.125  27.208  1.00  0.00     0.018 C 
ATOM     30  C   UNL A   1      31.632  28.288  27.595  1.00  0.00     0.018 C 
ENDBRANCH  25  28
ENDBRANCH  19  24
ENDBRANCH  15  18
ENDBRANCH   9  14
ENDBRANCH   7   8
ENDBRANCH   4   7
ENDBRANCH   2   3
ENDBRANCH   1   2
BRANCH   1  31
ATOM     31  C   UNL A   1      35.183  21.056  25.483  1.00  0.00     0.002 C 
BRANCH  31  32
ATOM     32  C   UNL A   1      36.242  21.654  24.553  1.00  0.00     0.002 C 
BRANCH  32  33
ATOM     33  C   UNL A   1      36.256  23.184  24.505  1.00  0.00     0.021 C 
BRANCH  33  34
ATOM     34  C   UNL A   1      37.324  23.822  25.387  1.00  0.00     0.116 C 
BRANCH  34  35
ATOM     35  N   UNL A   1      38.406  22.890  25.674  1.00  0.00    -0.352 N 
ATOM     36  C   UNL A   1      39.625  23.128  26.247  1.00  0.00     0.251 C 
ATOM     37  H   UNL A   1      38.234  21.955  25.420  1.00  0.00     0.163 HD
ATOM     38  O   UNL A   1      40.513  22.274  26.191  1.00  0.00    -0.269 OA
BRANCH  36  39
ATOM     39  C   UNL A   1      39.886  24.414  26.922  1.00  0.00     0.039 A 
ATOM     40  C   UNL A   1      39.438  24.595  28.233  1.00  0.00     0.014 A 
ATOM     41  C   UNL A   1      40.556  25.443  26.256  1.00  0.00     0.014 A 
ATOM     42  C   UNL A   1      39.711  25.793  28.894  1.00  0.00     0.010 A 
ATOM     43  C   UNL A   1      40.894  26.606  26.941  1.00  0.00     0.010 A 
ATOM     44  C   UNL A   1      40.469  26.796  28.265  1.00  0.00    -0.014 A 
BRANCH  44  45
ATOM     45  C   UNL A   1      40.825  28.048  28.977  1.00  0.00     0.031 A 
ATOM     46  C   UNL A   1      42.200  28.223  29.558  1.00  0.00     0.074 A 
ATOM     47  C   UNL A   1      39.888  28.999  29.156  1.00  0.00     0.049 A 
ATOM     48  N   UNL A   1      42.679  29.212  30.269  1.00  0.00    -0.248 NA
ATOM     49  C   UNL A   1      43.157  27.128  29.334  1.00  0.00     0.031 C 
ATOM     50  C   UNL A   1      38.504  28.922  28.683  1.00  0.00     0.029 A 
ATOM     51  N   UNL A   1      39.952  30.211  29.796  1.00  0.00    -0.354 N 
ATOM     52  C   UNL A   1      43.981  28.852  30.589  1.00  0.00     0.074 A 
ATOM     53  C   UNL A   1      44.203  27.532  30.041  1.00  0.00     0.031 C 
ATOM     54  C   UNL A   1      37.858  30.045  29.032  1.00  0.00     0.029 A 
ATOM     55  C   UNL A   1      38.765  30.903  29.787  1.00  0.00     0.049 A 
ATOM     56  H   UNL A   1      40.771  30.553  30.223  1.00  0.00     0.167 HD
ATOM     57  C   UNL A   1      44.913  29.568  31.262  1.00  0.00     0.037 A 
ATOM     58  C   UNL A   1      38.442  32.088  30.337  1.00  0.00     0.037 A 
ATOM     59  C   UNL A   1      44.695  30.892  31.783  1.00  0.00     0.049 A 
ATOM     60  C   UNL A   1      39.498  32.862  31.082  1.00  0.00     0.074 A 
ATOM     61  C   UNL A   1      45.596  31.730  32.415  1.00  0.00     0.029 A 
ATOM     62  N   UNL A   1      43.485  31.569  31.737  1.00  0.00    -0.354 N 
ATOM     63  N   UNL A   1      40.750  32.546  31.309  1.00  0.00    -0.248 NA
ATOM     64  C   UNL A   1      39.096  34.160  31.641  1.00  0.00     0.031 C 
ATOM     65  C   UNL A   1      44.918  32.890  32.804  1.00  0.00     0.029 A 
ATOM     66  C   UNL A   1      43.609  32.802  32.357  1.00  0.00     0.049 A 
ATOM     67  H   UNL A   1      42.660  31.225  31.325  1.00  0.00     0.167 HD
ATOM     68  C   UNL A   1      41.293  33.616  32.008  1.00  0.00     0.074 A 
ATOM     69  C   UNL A   1      40.237  34.596  32.153  1.00  0.00     0.031 C 
ATOM     70  C   UNL A   1      42.552  33.772  32.487  1.00  0.00     0.037 A 
BRANCH  57  71
ATOM     71  C   UNL A   1      46.259  28.936  31.477  1.00  0.00     0.064 A 
ATOM     72  C   UNL A   1      47.299  29.077  30.545  1.00  0.00     0.173 A 
ATOM     73  C   UNL A   1      46.527  28.217  32.652  1.00  0.00     0.173 A 
ATOM     74  F   UNL A   1      47.095  29.745  29.400  1.00  0.00    -0.203 F 
ATOM     75  C   UNL A   1      48.546  28.499  30.770  1.00  0.00     0.198 A 
ATOM     76  C   UNL A   1      47.785  27.670  32.888  1.00  0.00     0.198 A 
ATOM     77  F   UNL A   1      45.570  28.057  33.580  1.00  0.00    -0.203 F 
ATOM     78  F   UNL A   1      49.509  28.605  29.843  1.00  0.00    -0.200 F 
ATOM     79  C   UNL A   1      48.791  27.803  31.943  1.00  0.00     0.200 A 
ATOM     80  F   UNL A   1      48.024  27.011  34.032  1.00  0.00    -0.200 F 
ATOM     81  F   UNL A   1      49.996  27.258  32.163  1.00  0.00    -0.200 F 
ENDBRANCH  57  71
BRANCH  58  82
ATOM     82  C   UNL A   1      37.064  32.625  30.192  1.00  0.00     0.064 A 
ATOM     83  C   UNL A   1      36.694  33.368  29.063  1.00  0.00     0.173 A 
ATOM     84  C   UNL A   1      36.092  32.418  31.182  1.00  0.00     0.173 A 
ATOM     85  F   UNL A   1      37.593  33.611  28.096  1.00  0.00    -0.203 F 
ATOM     86  C   UNL A   1      35.413  33.905  28.940  1.00  0.00     0.198 A 
ATOM     87  C   UNL A   1      34.802  32.928  31.044  1.00  0.00     0.198 A 
ATOM     88  F   UNL A   1      36.392  31.708  32.280  1.00  0.00    -0.203 F 
ATOM     89  F   UNL A   1      35.103  34.655  27.875  1.00  0.00    -0.200 F 
ATOM     90  C   UNL A   1      34.468  33.679  29.928  1.00  0.00     0.200 A 
ATOM     91  F   UNL A   1      33.886  32.692  31.994  1.00  0.00    -0.200 F 
ATOM     92  F   UNL A   1      33.235  34.193  29.810  1.00  0.00    -0.200 F 
ENDBRANCH  58  82
BRANCH  70  93
ATOM     93  C   UNL A   1      42.871  35.066  33.178  1.00  0.00     0.064 A 
ATOM     94  C   UNL A   1      43.374  36.173  32.478  1.00  0.00     0.173 A 
ATOM     95  C   UNL A   1      42.631  35.213  34.552  1.00  0.00     0.173 A 
ATOM     96  F   UNL A   1      43.635  36.081  31.165  1.00  0.00    -0.203 F 
ATOM     97  C   UNL A   1      43.651  37.369  33.135  1.00  0.00     0.198 A 
ATOM     98  C   UNL A   1      42.876  36.422  35.199  1.00  0.00     0.198 A 
ATOM     99  F   UNL A   1      42.142  34.189  35.267  1.00  0.00    -0.203 F 
ATOM    100  F   UNL A   1      44.181  38.397  32.455  1.00  0.00    -0.200 F 
ATOM    101  C   UNL A   1      43.394  37.495  34.491  1.00  0.00     0.200 A 
ATOM    102  F   UNL A   1      42.612  36.546  36.506  1.00  0.00    -0.200 F 
ATOM    103  F   UNL A   1      43.653  38.651  35.120  1.00  0.00    -0.200 F 
ENDBRANCH  70  93
ENDBRANCH  44  45
ENDBRANCH  36  39
ENDBRANCH  34  35
ENDBRANCH  33  34
ENDBRANCH  32  33
ENDBRANCH  31  32
ENDBRANCH   1  31
TORSDOF 18
ENDMDL
