MODEL 1
REMARK VINA RESULT:     -11.5      0.000      0.000
REMARK SMILES CC(C)[C@H]([NH2+]Cc1ccc(N(C)C)cc1)C(=O)NCCCCCCNC(=O)c1ccc(-c2c3nc(c(-c4c(F)c(F)c(F)c(F)c4F)c4ccc([nH]4)c(-c4c(F)c(F)c(F)c(F)c4F)c4nc(c(-c5c(F)c(F)c(F)c(F)c5F)c5ccc2[nH]5)C=C4)C=C3)cc1
REMARK SMILES IDX 20 1 19 2 18 3 16 4 17 5 4 7 2 8 1 9 3 10 5 11 6 14 7 15
REMARK SMILES IDX 8 16 15 17 9 18 14 19 10 20 11 21 12 22 13 23 21 24 22 25
REMARK SMILES IDX 23 26 24 27 25 28 26 29 27 31 28 32 29 33 90 34 30 35 89 36
REMARK SMILES IDX 31 37 32 38 33 39 83 40 34 41 88 42 82 43 84 44 35 45 87 46
REMARK SMILES IDX 81 47 80 48 36 50 68 51 48 52 67 53 49 54 52 55 66 56 85 57
REMARK SMILES IDX 50 58 51 59 65 61 86 62 53 63 37 64 38 65 46 66 39 67 40 68
REMARK SMILES IDX 44 69 47 70 41 71 42 72 45 73 43 74 69 75 70 76 78 77 71 78
REMARK SMILES IDX 72 79 76 80 79 81 73 82 74 83 77 84 75 85 54 86 55 87 63 88
REMARK SMILES IDX 56 89 57 90 61 91 64 92 58 93 59 94 62 95 60 96
REMARK H PARENT 18 6 5 12 5 13 25 30 84 49 52 60
REMARK Flexibility Score: inf
ROOT
ATOM      1  C   UNL A   1      32.633  21.697  24.963  1.00  0.00     0.021 C 
ENDROOT
BRANCH   1   2
ATOM      2  C   UNL A   1      32.765  22.253  26.377  1.00  0.00     0.116 C 
BRANCH   2   3
ATOM      3  N   UNL A   1      31.488  22.549  26.993  1.00  0.00    -0.351 N 
ATOM      4  C   UNL A   1      30.635  23.596  26.786  1.00  0.00     0.278 C 
ATOM      5  O   UNL A   1      29.542  23.553  27.365  1.00  0.00    -0.268 OA
ATOM      6  H   UNL A   1      31.189  21.895  27.664  1.00  0.00     0.163 HD
BRANCH   4   7
ATOM      7  C   UNL A   1      30.975  24.795  25.860  1.00  0.00     0.275 C 
BRANCH   7   8
ATOM      8  C   UNL A   1      31.929  25.820  26.547  1.00  0.00     0.051 C 
ATOM      9  C   UNL A   1      33.279  25.917  25.822  1.00  0.00     0.014 C 
ATOM     10  C   UNL A   1      31.384  27.235  26.739  1.00  0.00     0.014 C 
ENDBRANCH   7   8
BRANCH   7  11
ATOM     11  N   UNL A   1      29.768  25.387  25.244  1.00  0.00    -0.332 N 
ATOM     12  H   UNL A   1      29.602  26.302  25.664  1.00  0.00     0.347 HD
ATOM     13  H   UNL A   1      28.989  24.750  25.413  1.00  0.00     0.347 HD
BRANCH  11  14
ATOM     14  C   UNL A   1      29.904  25.552  23.789  1.00  0.00     0.297 C 
BRANCH  14  15
ATOM     15  C   UNL A   1      29.446  26.932  23.378  1.00  0.00     0.006 A 
ATOM     16  C   UNL A   1      28.123  27.322  23.583  1.00  0.00     0.012 A 
ATOM     17  C   UNL A   1      30.303  27.848  22.773  1.00  0.00     0.012 A 
ATOM     18  C   UNL A   1      27.672  28.598  23.226  1.00  0.00     0.026 A 
ATOM     19  C   UNL A   1      29.839  29.127  22.415  1.00  0.00     0.026 A 
ATOM     20  C   UNL A   1      28.513  29.551  22.640  1.00  0.00     0.036 A 
BRANCH  20  21
ATOM     21  N   UNL A   1      28.071  30.820  22.286  1.00  0.00    -0.378 N 
ATOM     22  C   UNL A   1      27.728  31.851  23.259  1.00  0.00     0.143 C 
ATOM     23  C   UNL A   1      28.176  31.274  20.902  1.00  0.00     0.143 C 
ENDBRANCH  20  21
ENDBRANCH  14  15
ENDBRANCH  11  14
ENDBRANCH   7  11
ENDBRANCH   4   7
ENDBRANCH   2   3
ENDBRANCH   1   2
BRANCH   1  24
ATOM     24  C   UNL A   1      33.865  20.959  24.437  1.00  0.00     0.002 C 
BRANCH  24  25
ATOM     25  C   UNL A   1      35.189  21.723  24.523  1.00  0.00     0.002 C 
BRANCH  25  26
ATOM     26  C   UNL A   1      36.199  21.201  25.548  1.00  0.00     0.021 C 
BRANCH  26  27
ATOM     27  C   UNL A   1      37.649  21.606  25.307  1.00  0.00     0.116 C 
BRANCH  27  28
ATOM     28  N   UNL A   1      38.595  20.611  25.781  1.00  0.00    -0.352 N 
ATOM     29  C   UNL A   1      39.815  20.772  26.390  1.00  0.00     0.251 C 
ATOM     30  H   UNL A   1      38.319  19.676  25.645  1.00  0.00     0.163 HD
ATOM     31  O   UNL A   1      40.542  19.804  26.576  1.00  0.00    -0.269 OA
BRANCH  29  32
ATOM     32  C   UNL A   1      40.269  22.120  26.795  1.00  0.00     0.039 A 
ATOM     33  C   UNL A   1      41.188  22.228  27.842  1.00  0.00     0.014 A 
ATOM     34  C   UNL A   1      39.796  23.269  26.157  1.00  0.00     0.014 A 
ATOM     35  C   UNL A   1      41.690  23.480  28.197  1.00  0.00     0.010 A 
ATOM     36  C   UNL A   1      40.351  24.511  26.464  1.00  0.00     0.010 A 
ATOM     37  C   UNL A   1      41.311  24.626  27.480  1.00  0.00    -0.014 A 
BRANCH  37  38
ATOM     38  C   UNL A   1      41.947  25.941  27.750  1.00  0.00     0.031 A 
ATOM     39  C   UNL A   1      41.204  27.014  28.494  1.00  0.00     0.074 A 
ATOM     40  C   UNL A   1      43.180  26.186  27.265  1.00  0.00     0.049 A 
ATOM     41  N   UNL A   1      41.578  28.237  28.773  1.00  0.00    -0.248 NA
ATOM     42  C   UNL A   1      39.852  26.676  28.966  1.00  0.00     0.031 C 
ATOM     43  C   UNL A   1      43.981  25.242  26.486  1.00  0.00     0.029 A 
ATOM     44  N   UNL A   1      43.969  27.306  27.342  1.00  0.00    -0.354 N 
ATOM     45  C   UNL A   1      40.510  28.816  29.445  1.00  0.00     0.074 A 
ATOM     46  C   UNL A   1      39.453  27.829  29.486  1.00  0.00     0.031 C 
ATOM     47  C   UNL A   1      45.156  25.812  26.177  1.00  0.00     0.029 A 
ATOM     48  C   UNL A   1      45.173  27.177  26.693  1.00  0.00     0.049 A 
ATOM     49  H   UNL A   1      43.698  28.126  27.818  1.00  0.00     0.167 HD
ATOM     50  C   UNL A   1      40.429  30.051  29.994  1.00  0.00     0.037 A 
ATOM     51  C   UNL A   1      46.173  28.062  26.520  1.00  0.00     0.037 A 
ATOM     52  C   UNL A   1      41.490  31.025  29.961  1.00  0.00     0.049 A 
ATOM     53  C   UNL A   1      46.043  29.438  27.115  1.00  0.00     0.074 A 
ATOM     54  C   UNL A   1      41.531  32.278  30.548  1.00  0.00     0.029 A 
ATOM     55  N   UNL A   1      42.694  30.861  29.289  1.00  0.00    -0.354 N 
ATOM     56  N   UNL A   1      45.062  29.946  27.821  1.00  0.00    -0.248 NA
ATOM     57  C   UNL A   1      47.162  30.364  26.890  1.00  0.00     0.031 C 
ATOM     58  C   UNL A   1      42.731  32.896  30.180  1.00  0.00     0.029 A 
ATOM     59  C   UNL A   1      43.466  32.006  29.414  1.00  0.00     0.049 A 
ATOM     60  H   UNL A   1      42.960  30.051  28.797  1.00  0.00     0.167 HD
ATOM     61  C   UNL A   1      45.451  31.240  28.139  1.00  0.00     0.074 A 
ATOM     62  C   UNL A   1      46.768  31.431  27.570  1.00  0.00     0.031 C 
ATOM     63  C   UNL A   1      44.773  32.187  28.834  1.00  0.00     0.037 A 
BRANCH  50  64
ATOM     64  C   UNL A   1      39.144  30.428  30.677  1.00  0.00     0.064 A 
ATOM     65  C   UNL A   1      38.972  30.279  32.062  1.00  0.00     0.173 A 
ATOM     66  C   UNL A   1      38.086  30.987  29.943  1.00  0.00     0.173 A 
ATOM     67  F   UNL A   1      39.949  29.743  32.810  1.00  0.00    -0.203 F 
ATOM     68  C   UNL A   1      37.780  30.646  32.681  1.00  0.00     0.198 A 
ATOM     69  C   UNL A   1      36.908  31.384  30.571  1.00  0.00     0.198 A 
ATOM     70  F   UNL A   1      38.199  31.160  28.618  1.00  0.00    -0.203 F 
ATOM     71  F   UNL A   1      37.621  30.446  33.997  1.00  0.00    -0.200 F 
ATOM     72  C   UNL A   1      36.752  31.204  31.937  1.00  0.00     0.200 A 
ATOM     73  F   UNL A   1      35.922  31.939  29.853  1.00  0.00    -0.200 F 
ATOM     74  F   UNL A   1      35.608  31.565  32.535  1.00  0.00    -0.200 F 
ENDBRANCH  50  64
BRANCH  51  75
ATOM     75  C   UNL A   1      47.384  27.672  25.752  1.00  0.00     0.064 A 
ATOM     76  C   UNL A   1      47.402  27.733  24.352  1.00  0.00     0.173 A 
ATOM     77  C   UNL A   1      48.549  27.232  26.399  1.00  0.00     0.173 A 
ATOM     78  F   UNL A   1      46.306  28.127  23.685  1.00  0.00    -0.203 F 
ATOM     79  C   UNL A   1      48.528  27.348  23.628  1.00  0.00     0.198 A 
ATOM     80  C   UNL A   1      49.686  26.880  25.676  1.00  0.00     0.198 A 
ATOM     81  F   UNL A   1      48.587  27.160  27.738  1.00  0.00    -0.203 F 
ATOM     82  F   UNL A   1      48.501  27.370  22.288  1.00  0.00    -0.200 F 
ATOM     83  C   UNL A   1      49.672  26.930  24.291  1.00  0.00     0.200 A 
ATOM     84  F   UNL A   1      50.793  26.491  26.322  1.00  0.00    -0.200 F 
ATOM     85  F   UNL A   1      50.758  26.567  23.594  1.00  0.00    -0.200 F 
ENDBRANCH  51  75
BRANCH  63  86
ATOM     86  C   UNL A   1      45.450  33.514  29.027  1.00  0.00     0.064 A 
ATOM     87  C   UNL A   1      45.233  34.585  28.146  1.00  0.00     0.173 A 
ATOM     88  C   UNL A   1      46.297  33.731  30.125  1.00  0.00     0.173 A 
ATOM     89  F   UNL A   1      44.446  34.424  27.071  1.00  0.00    -0.203 F 
ATOM     90  C   UNL A   1      45.857  35.813  28.343  1.00  0.00     0.198 A 
ATOM     91  C   UNL A   1      46.892  34.971  30.338  1.00  0.00     0.198 A 
ATOM     92  F   UNL A   1      46.535  32.743  31.001  1.00  0.00    -0.203 F 
ATOM     93  F   UNL A   1      45.674  36.804  27.460  1.00  0.00    -0.200 F 
ATOM     94  C   UNL A   1      46.679  36.008  29.443  1.00  0.00     0.200 A 
ATOM     95  F   UNL A   1      47.673  35.162  31.411  1.00  0.00    -0.200 F 
ATOM     96  F   UNL A   1      47.271  37.194  29.636  1.00  0.00    -0.200 F 
ENDBRANCH  63  86
ENDBRANCH  37  38
ENDBRANCH  29  32
ENDBRANCH  27  28
ENDBRANCH  26  27
ENDBRANCH  25  26
ENDBRANCH  24  25
ENDBRANCH   1  24
TORSDOF 18
ENDMDL
MODEL 2
REMARK VINA RESULT:     -11.4      0.418      7.451
REMARK SMILES CC(C)[C@H]([NH2+]Cc1ccc(N(C)C)cc1)C(=O)NCCCCCCNC(=O)c1ccc(-c2c3nc(c(-c4c(F)c(F)c(F)c(F)c4F)c4ccc([nH]4)c(-c4c(F)c(F)c(F)c(F)c4F)c4nc(c(-c5c(F)c(F)c(F)c(F)c5F)c5ccc2[nH]5)C=C4)C=C3)cc1
REMARK SMILES IDX 20 1 19 2 18 3 16 4 17 5 4 7 2 8 1 9 3 10 5 11 6 14 7 15
REMARK SMILES IDX 8 16 15 17 9 18 14 19 10 20 11 21 12 22 13 23 21 24 22 25
REMARK SMILES IDX 23 26 24 27 25 28 26 29 27 31 28 32 29 33 90 34 30 35 89 36
REMARK SMILES IDX 31 37 32 38 33 39 83 40 34 41 88 42 82 43 84 44 35 45 87 46
REMARK SMILES IDX 81 47 80 48 36 50 68 51 48 52 67 53 49 54 52 55 66 56 85 57
REMARK SMILES IDX 50 58 51 59 65 61 86 62 53 63 37 64 38 65 46 66 39 67 40 68
REMARK SMILES IDX 44 69 47 70 41 71 42 72 45 73 43 74 69 75 70 76 78 77 71 78
REMARK SMILES IDX 72 79 76 80 79 81 73 82 74 83 77 84 75 85 54 86 55 87 63 88
REMARK SMILES IDX 56 89 57 90 61 91 64 92 58 93 59 94 62 95 60 96
REMARK H PARENT 18 6 5 12 5 13 25 30 84 49 52 60
REMARK Flexibility Score: inf
ROOT
ATOM      1  C   UNL A   1      32.555  21.851  24.897  1.00  0.00     0.021 C 
ENDROOT
BRANCH   1   2
ATOM      2  C   UNL A   1      32.696  22.325  26.340  1.00  0.00     0.116 C 
BRANCH   2   3
ATOM      3  N   UNL A   1      31.426  22.639  26.962  1.00  0.00    -0.351 N 
ATOM      4  C   UNL A   1      30.581  23.690  26.751  1.00  0.00     0.278 C 
ATOM      5  O   UNL A   1      29.492  23.663  27.338  1.00  0.00    -0.268 OA
ATOM      6  H   UNL A   1      31.127  21.993  27.643  1.00  0.00     0.163 HD
BRANCH   4   7
ATOM      7  C   UNL A   1      30.925  24.877  25.811  1.00  0.00     0.275 C 
BRANCH   7   8
ATOM      8  C   UNL A   1      31.984  25.837  26.433  1.00  0.00     0.051 C 
ATOM      9  C   UNL A   1      33.224  25.975  25.538  1.00  0.00     0.014 C 
ATOM     10  C   UNL A   1      31.500  27.238  26.803  1.00  0.00     0.014 C 
ENDBRANCH   7   8
BRANCH   7  11
ATOM     11  N   UNL A   1      29.714  25.545  25.286  1.00  0.00    -0.332 N 
ATOM     12  H   UNL A   1      29.632  26.463  25.725  1.00  0.00     0.347 HD
ATOM     13  H   UNL A   1      28.913  24.953  25.506  1.00  0.00     0.347 HD
BRANCH  11  14
ATOM     14  C   UNL A   1      29.756  25.720  23.827  1.00  0.00     0.297 C 
BRANCH  14  15
ATOM     15  C   UNL A   1      29.468  27.160  23.468  1.00  0.00     0.006 A 
ATOM     16  C   UNL A   1      28.151  27.600  23.341  1.00  0.00     0.012 A 
ATOM     17  C   UNL A   1      30.483  28.083  23.235  1.00  0.00     0.012 A 
ATOM     18  C   UNL A   1      27.851  28.930  23.023  1.00  0.00     0.026 A 
ATOM     19  C   UNL A   1      30.170  29.417  22.912  1.00  0.00     0.026 A 
ATOM     20  C   UNL A   1      28.846  29.889  22.808  1.00  0.00     0.036 A 
BRANCH  20  21
ATOM     21  N   UNL A   1      28.554  31.211  22.494  1.00  0.00    -0.378 N 
ATOM     22  C   UNL A   1      28.903  32.336  23.354  1.00  0.00     0.143 C 
ATOM     23  C   UNL A   1      28.109  31.565  21.150  1.00  0.00     0.143 C 
ENDBRANCH  20  21
ENDBRANCH  14  15
ENDBRANCH  11  14
ENDBRANCH   7  11
ENDBRANCH   4   7
ENDBRANCH   2   3
ENDBRANCH   1   2
BRANCH   1  24
ATOM     24  C   UNL A   1      33.756  21.082  24.345  1.00  0.00     0.002 C 
BRANCH  24  25
ATOM     25  C   UNL A   1      35.092  21.829  24.358  1.00  0.00     0.002 C 
BRANCH  25  26
ATOM     26  C   UNL A   1      36.080  21.417  25.454  1.00  0.00     0.021 C 
BRANCH  26  27
ATOM     27  C   UNL A   1      37.533  21.807  25.208  1.00  0.00     0.116 C 
BRANCH  27  28
ATOM     28  N   UNL A   1      38.471  20.824  25.725  1.00  0.00    -0.352 N 
ATOM     29  C   UNL A   1      39.667  21.002  26.373  1.00  0.00     0.251 C 
ATOM     30  H   UNL A   1      38.208  19.886  25.588  1.00  0.00     0.163 HD
ATOM     31  O   UNL A   1      40.397  20.043  26.593  1.00  0.00    -0.269 OA
BRANCH  29  32
ATOM     32  C   UNL A   1      40.096  22.358  26.780  1.00  0.00     0.039 A 
ATOM     33  C   UNL A   1      41.118  22.479  27.726  1.00  0.00     0.014 A 
ATOM     34  C   UNL A   1      39.499  23.501  26.243  1.00  0.00     0.014 A 
ATOM     35  C   UNL A   1      41.592  23.744  28.074  1.00  0.00     0.010 A 
ATOM     36  C   UNL A   1      40.022  24.760  26.537  1.00  0.00     0.010 A 
ATOM     37  C   UNL A   1      41.081  24.892  27.448  1.00  0.00    -0.014 A 
BRANCH  37  38
ATOM     38  C   UNL A   1      41.676  26.229  27.700  1.00  0.00     0.031 A 
ATOM     39  C   UNL A   1      43.062  26.555  27.224  1.00  0.00     0.074 A 
ATOM     40  C   UNL A   1      40.980  27.131  28.421  1.00  0.00     0.049 A 
ATOM     41  N   UNL A   1      43.762  27.648  27.400  1.00  0.00    -0.248 NA
ATOM     42  C   UNL A   1      43.765  25.507  26.469  1.00  0.00     0.031 C 
ATOM     43  C   UNL A   1      39.645  26.914  28.979  1.00  0.00     0.029 A 
ATOM     44  N   UNL A   1      41.303  28.405  28.818  1.00  0.00    -0.354 N 
ATOM     45  C   UNL A   1      44.985  27.417  26.786  1.00  0.00     0.074 A 
ATOM     46  C   UNL A   1      44.954  26.062  26.279  1.00  0.00     0.031 C 
ATOM     47  C   UNL A   1      39.254  28.022  29.627  1.00  0.00     0.029 A 
ATOM     48  C   UNL A   1      40.326  29.010  29.570  1.00  0.00     0.049 A 
ATOM     49  H   UNL A   1      42.154  28.843  28.585  1.00  0.00     0.167 HD
ATOM     50  C   UNL A   1      46.031  28.266  26.644  1.00  0.00     0.037 A 
ATOM     51  C   UNL A   1      40.301  30.220  30.161  1.00  0.00     0.037 A 
ATOM     52  C   UNL A   1      46.052  29.618  27.141  1.00  0.00     0.049 A 
ATOM     53  C   UNL A   1      41.488  31.132  30.011  1.00  0.00     0.074 A 
ATOM     54  C   UNL A   1      47.035  30.581  26.986  1.00  0.00     0.029 A 
ATOM     55  N   UNL A   1      45.046  30.196  27.904  1.00  0.00    -0.354 N 
ATOM     56  N   UNL A   1      42.608  30.934  29.358  1.00  0.00    -0.248 NA
ATOM     57  C   UNL A   1      41.409  32.438  30.682  1.00  0.00     0.031 C 
ATOM     58  C   UNL A   1      46.653  31.717  27.707  1.00  0.00     0.029 A 
ATOM     59  C   UNL A   1      45.404  31.487  28.261  1.00  0.00     0.049 A 
ATOM     60  H   UNL A   1      44.202  29.754  28.153  1.00  0.00     0.167 HD
ATOM     61  C   UNL A   1      43.356  32.092  29.522  1.00  0.00     0.074 A 
ATOM     62  C   UNL A   1      42.553  32.997  30.316  1.00  0.00     0.031 C 
ATOM     63  C   UNL A   1      44.599  32.376  29.061  1.00  0.00     0.037 A 
BRANCH  50  64
ATOM     64  C   UNL A   1      47.249  27.759  25.925  1.00  0.00     0.064 A 
ATOM     65  C   UNL A   1      47.353  27.805  24.525  1.00  0.00     0.173 A 
ATOM     66  C   UNL A   1      48.345  27.260  26.646  1.00  0.00     0.173 A 
ATOM     67  F   UNL A   1      46.332  28.266  23.786  1.00  0.00    -0.203 F 
ATOM     68  C   UNL A   1      48.495  27.343  23.875  1.00  0.00     0.198 A 
ATOM     69  C   UNL A   1      49.498  26.830  25.993  1.00  0.00     0.198 A 
ATOM     70  F   UNL A   1      48.303  27.200  27.985  1.00  0.00    -0.203 F 
ATOM     71  F   UNL A   1      48.550  27.350  22.536  1.00  0.00    -0.200 F 
ATOM     72  C   UNL A   1      49.569  26.863  24.609  1.00  0.00     0.200 A 
ATOM     73  F   UNL A   1      50.541  26.381  26.706  1.00  0.00    -0.200 F 
ATOM     74  F   UNL A   1      50.670  26.426  23.983  1.00  0.00    -0.200 F 
ENDBRANCH  50  64
BRANCH  51  75
ATOM     75  C   UNL A   1      39.110  30.639  30.945  1.00  0.00     0.064 A 
ATOM     76  C   UNL A   1      39.027  30.388  32.322  1.00  0.00     0.173 A 
ATOM     77  C   UNL A   1      38.030  31.297  30.338  1.00  0.00     0.173 A 
ATOM     78  F   UNL A   1      40.024  29.741  32.945  1.00  0.00    -0.203 F 
ATOM     79  C   UNL A   1      37.903  30.760  33.056  1.00  0.00     0.198 A 
ATOM     80  C   UNL A   1      36.921  31.699  31.079  1.00  0.00     0.198 A 
ATOM     81  F   UNL A   1      38.061  31.566  29.024  1.00  0.00    -0.203 F 
ATOM     82  F   UNL A   1      37.829  30.464  34.361  1.00  0.00    -0.200 F 
ATOM     83  C   UNL A   1      36.854  31.423  32.435  1.00  0.00     0.200 A 
ATOM     84  F   UNL A   1      35.918  32.353  30.477  1.00  0.00    -0.200 F 
ATOM     85  F   UNL A   1      35.777  31.786  33.143  1.00  0.00    -0.200 F 
ENDBRANCH  51  75
BRANCH  63  86
ATOM     86  C   UNL A   1      45.165  33.726  29.397  1.00  0.00     0.064 A 
ATOM     87  C   UNL A   1      45.958  33.927  30.537  1.00  0.00     0.173 A 
ATOM     88  C   UNL A   1      44.943  34.824  28.551  1.00  0.00     0.173 A 
ATOM     89  F   UNL A   1      46.186  32.915  31.387  1.00  0.00    -0.203 F 
ATOM     90  C   UNL A   1      46.486  35.182  30.830  1.00  0.00     0.198 A 
ATOM     91  C   UNL A   1      45.501  36.068  28.829  1.00  0.00     0.198 A 
ATOM     92  F   UNL A   1      44.196  34.685  27.445  1.00  0.00    -0.203 F 
ATOM     93  F   UNL A   1      47.198  35.360  31.951  1.00  0.00    -0.200 F 
ATOM     94  C   UNL A   1      46.265  36.248  29.972  1.00  0.00     0.200 A 
ATOM     95  F   UNL A   1      45.300  37.094  27.990  1.00  0.00    -0.200 F 
ATOM     96  F   UNL A   1      46.782  37.452  30.251  1.00  0.00    -0.200 F 
ENDBRANCH  63  86
ENDBRANCH  37  38
ENDBRANCH  29  32
ENDBRANCH  27  28
ENDBRANCH  26  27
ENDBRANCH  25  26
ENDBRANCH  24  25
ENDBRANCH   1  24
TORSDOF 18
ENDMDL
MODEL 3
REMARK VINA RESULT:     -11.2      2.453      4.225
REMARK SMILES CC(C)[C@H]([NH2+]Cc1ccc(N(C)C)cc1)C(=O)NCCCCCCNC(=O)c1ccc(-c2c3nc(c(-c4c(F)c(F)c(F)c(F)c4F)c4ccc([nH]4)c(-c4c(F)c(F)c(F)c(F)c4F)c4nc(c(-c5c(F)c(F)c(F)c(F)c5F)c5ccc2[nH]5)C=C4)C=C3)cc1
REMARK SMILES IDX 20 1 19 2 18 3 16 4 17 5 4 7 2 8 1 9 3 10 5 11 6 14 7 15
REMARK SMILES IDX 8 16 15 17 9 18 14 19 10 20 11 21 12 22 13 23 21 24 22 25
REMARK SMILES IDX 23 26 24 27 25 28 26 29 27 31 28 32 29 33 90 34 30 35 89 36
REMARK SMILES IDX 31 37 32 38 33 39 83 40 34 41 88 42 82 43 84 44 35 45 87 46
REMARK SMILES IDX 81 47 80 48 36 50 68 51 48 52 67 53 49 54 52 55 66 56 85 57
REMARK SMILES IDX 50 58 51 59 65 61 86 62 53 63 37 64 38 65 46 66 39 67 40 68
REMARK SMILES IDX 44 69 47 70 41 71 42 72 45 73 43 74 69 75 70 76 78 77 71 78
REMARK SMILES IDX 72 79 76 80 79 81 73 82 74 83 77 84 75 85 54 86 55 87 63 88
REMARK SMILES IDX 56 89 57 90 61 91 64 92 58 93 59 94 62 95 60 96
REMARK H PARENT 18 6 5 12 5 13 25 30 84 49 52 60
REMARK Flexibility Score: inf
ROOT
ATOM      1  C   UNL A   1      35.593  22.575  23.474  1.00  0.00     0.021 C 
ENDROOT
BRANCH   1   2
ATOM      2  C   UNL A   1      35.052  23.946  23.865  1.00  0.00     0.116 C 
BRANCH   2   3
ATOM      3  N   UNL A   1      34.364  24.616  22.779  1.00  0.00    -0.351 N 
ATOM      4  C   UNL A   1      33.422  25.605  22.814  1.00  0.00     0.278 C 
ATOM      5  O   UNL A   1      33.075  26.088  21.729  1.00  0.00    -0.268 OA
ATOM      6  H   UNL A   1      34.615  24.311  21.878  1.00  0.00     0.163 HD
BRANCH   4   7
ATOM      7  C   UNL A   1      32.804  26.139  24.134  1.00  0.00     0.275 C 
BRANCH   7   8
ATOM      8  C   UNL A   1      33.649  27.289  24.761  1.00  0.00     0.051 C 
ATOM      9  C   UNL A   1      33.327  28.647  24.122  1.00  0.00     0.014 C 
ATOM     10  C   UNL A   1      33.572  27.441  26.279  1.00  0.00     0.014 C 
ENDBRANCH   7   8
BRANCH   7  11
ATOM     11  N   UNL A   1      32.451  25.047  25.068  1.00  0.00    -0.332 N 
ATOM     12  H   UNL A   1      32.215  25.456  25.973  1.00  0.00     0.347 HD
ATOM     13  H   UNL A   1      33.257  24.426  25.137  1.00  0.00     0.347 HD
BRANCH  11  14
ATOM     14  C   UNL A   1      31.310  24.251  24.597  1.00  0.00     0.297 C 
BRANCH  14  15
ATOM     15  C   UNL A   1      31.738  22.821  24.357  1.00  0.00     0.006 A 
ATOM     16  C   UNL A   1      32.148  22.024  25.426  1.00  0.00     0.012 A 
ATOM     17  C   UNL A   1      31.757  22.255  23.086  1.00  0.00     0.012 A 
ATOM     18  C   UNL A   1      32.537  20.692  25.239  1.00  0.00     0.026 A 
ATOM     19  C   UNL A   1      32.153  20.918  22.908  1.00  0.00     0.026 A 
ATOM     20  C   UNL A   1      32.544  20.086  23.977  1.00  0.00     0.036 A 
BRANCH  20  21
ATOM     21  N   UNL A   1      32.927  18.764  23.786  1.00  0.00    -0.378 N 
ATOM     22  C   UNL A   1      32.531  17.973  22.626  1.00  0.00     0.143 C 
ATOM     23  C   UNL A   1      33.972  18.175  24.618  1.00  0.00     0.143 C 
ENDBRANCH  20  21
ENDBRANCH  14  15
ENDBRANCH  11  14
ENDBRANCH   7  11
ENDBRANCH   4   7
ENDBRANCH   2   3
ENDBRANCH   1   2
BRANCH   1  24
ATOM     24  C   UNL A   1      36.145  21.741  24.631  1.00  0.00     0.002 C 
BRANCH  24  25
ATOM     25  C   UNL A   1      37.671  21.671  24.737  1.00  0.00     0.002 C 
BRANCH  25  26
ATOM     26  C   UNL A   1      38.262  20.284  25.002  1.00  0.00     0.021 C 
BRANCH  26  27
ATOM     27  C   UNL A   1      39.170  20.180  26.223  1.00  0.00     0.116 C 
BRANCH  27  28
ATOM     28  N   UNL A   1      40.200  19.166  26.070  1.00  0.00    -0.352 N 
ATOM     29  C   UNL A   1      41.566  19.292  26.051  1.00  0.00     0.251 C 
ATOM     30  H   UNL A   1      39.865  18.246  25.965  1.00  0.00     0.163 HD
ATOM     31  O   UNL A   1      42.268  18.334  25.751  1.00  0.00    -0.269 OA
BRANCH  29  32
ATOM     32  C   UNL A   1      42.195  20.595  26.359  1.00  0.00     0.039 A 
ATOM     33  C   UNL A   1      42.602  21.408  25.298  1.00  0.00     0.014 A 
ATOM     34  C   UNL A   1      42.389  21.015  27.677  1.00  0.00     0.014 A 
ATOM     35  C   UNL A   1      43.131  22.672  25.557  1.00  0.00     0.010 A 
ATOM     36  C   UNL A   1      42.851  22.305  27.934  1.00  0.00     0.010 A 
ATOM     37  C   UNL A   1      43.216  23.150  26.875  1.00  0.00    -0.014 A 
BRANCH  37  38
ATOM     38  C   UNL A   1      43.639  24.545  27.156  1.00  0.00     0.031 A 
ATOM     39  C   UNL A   1      42.652  25.563  27.650  1.00  0.00     0.074 A 
ATOM     40  C   UNL A   1      44.912  24.909  26.901  1.00  0.00     0.049 A 
ATOM     41  N   UNL A   1      42.829  26.837  27.896  1.00  0.00    -0.248 NA
ATOM     42  C   UNL A   1      41.276  25.093  27.876  1.00  0.00     0.031 C 
ATOM     43  C   UNL A   1      45.951  24.023  26.374  1.00  0.00     0.029 A 
ATOM     44  N   UNL A   1      45.546  26.118  27.039  1.00  0.00    -0.354 N 
ATOM     45  C   UNL A   1      41.591  27.321  28.297  1.00  0.00     0.074 A 
ATOM     46  C   UNL A   1      40.659  26.217  28.212  1.00  0.00     0.031 C 
ATOM     47  C   UNL A   1      47.097  24.712  26.254  1.00  0.00     0.029 A 
ATOM     48  C   UNL A   1      46.863  26.097  26.650  1.00  0.00     0.049 A 
ATOM     49  H   UNL A   1      45.098  26.926  27.384  1.00  0.00     0.167 HD
ATOM     50  C   UNL A   1      41.269  28.568  28.717  1.00  0.00     0.037 A 
ATOM     51  C   UNL A   1      47.777  27.085  26.603  1.00  0.00     0.037 A 
ATOM     52  C   UNL A   1      42.205  29.659  28.811  1.00  0.00     0.049 A 
ATOM     53  C   UNL A   1      47.384  28.467  27.047  1.00  0.00     0.074 A 
ATOM     54  C   UNL A   1      41.993  30.940  29.291  1.00  0.00     0.029 A 
ATOM     55  N   UNL A   1      43.531  29.602  28.403  1.00  0.00    -0.354 N 
ATOM     56  N   UNL A   1      46.232  28.894  27.504  1.00  0.00    -0.248 NA
ATOM     57  C   UNL A   1      48.420  29.507  26.969  1.00  0.00     0.031 C 
ATOM     58  C   UNL A   1      43.170  31.675  29.114  1.00  0.00     0.029 A 
ATOM     59  C   UNL A   1      44.135  30.837  28.582  1.00  0.00     0.049 A 
ATOM     60  H   UNL A   1      43.976  28.802  28.040  1.00  0.00     0.167 HD
ATOM     61  C   UNL A   1      46.407  30.242  27.785  1.00  0.00     0.074 A 
ATOM     62  C   UNL A   1      47.785  30.557  27.470  1.00  0.00     0.031 C 
ATOM     63  C   UNL A   1      45.506  31.140  28.254  1.00  0.00     0.037 A 
BRANCH  50  64
ATOM     64  C   UNL A   1      39.840  28.827  29.103  1.00  0.00     0.064 A 
ATOM     65  C   UNL A   1      39.390  28.663  30.423  1.00  0.00     0.173 A 
ATOM     66  C   UNL A   1      38.918  29.286  28.150  1.00  0.00     0.173 A 
ATOM     67  F   UNL A   1      40.228  28.219  31.372  1.00  0.00    -0.203 F 
ATOM     68  C   UNL A   1      38.065  28.920  30.766  1.00  0.00     0.198 A 
ATOM     69  C   UNL A   1      37.602  29.574  28.505  1.00  0.00     0.198 A 
ATOM     70  F   UNL A   1      39.295  29.468  26.876  1.00  0.00    -0.203 F 
ATOM     71  F   UNL A   1      37.648  28.708  32.022  1.00  0.00    -0.200 F 
ATOM     72  C   UNL A   1      37.174  29.382  29.810  1.00  0.00     0.200 A 
ATOM     73  F   UNL A   1      36.747  30.037  27.582  1.00  0.00    -0.200 F 
ATOM     74  F   UNL A   1      35.902  29.638  30.144  1.00  0.00    -0.200 F 
ENDBRANCH  50  64
BRANCH  51  75
ATOM     75  C   UNL A   1      49.154  26.799  26.120  1.00  0.00     0.064 A 
ATOM     76  C   UNL A   1      50.144  26.335  26.996  1.00  0.00     0.173 A 
ATOM     77  C   UNL A   1      49.508  26.984  24.775  1.00  0.00     0.173 A 
ATOM     78  F   UNL A   1      49.861  26.164  28.297  1.00  0.00    -0.203 F 
ATOM     79  C   UNL A   1      51.441  26.086  26.551  1.00  0.00     0.198 A 
ATOM     80  C   UNL A   1      50.796  26.702  24.324  1.00  0.00     0.198 A 
ATOM     81  F   UNL A   1      48.597  27.422  23.894  1.00  0.00    -0.203 F 
ATOM     82  F   UNL A   1      52.381  25.689  27.420  1.00  0.00    -0.200 F 
ATOM     83  C   UNL A   1      51.763  26.262  25.214  1.00  0.00     0.200 A 
ATOM     84  F   UNL A   1      51.098  26.859  23.028  1.00  0.00    -0.200 F 
ATOM     85  F   UNL A   1      53.008  26.016  24.785  1.00  0.00    -0.200 F 
ENDBRANCH  51  75
BRANCH  63  86
ATOM     86  C   UNL A   1      45.985  32.548  28.466  1.00  0.00     0.064 A 
ATOM     87  C   UNL A   1      45.868  33.522  27.463  1.00  0.00     0.173 A 
ATOM     88  C   UNL A   1      46.532  32.939  29.698  1.00  0.00     0.173 A 
ATOM     89  F   UNL A   1      45.368  33.196  26.261  1.00  0.00    -0.203 F 
ATOM     90  C   UNL A   1      46.305  34.826  27.676  1.00  0.00     0.198 A 
ATOM     91  C   UNL A   1      46.935  34.252  29.920  1.00  0.00     0.198 A 
ATOM     92  F   UNL A   1      46.661  32.048  30.694  1.00  0.00    -0.203 F 
ATOM     93  F   UNL A   1      46.230  35.726  26.686  1.00  0.00    -0.200 F 
ATOM     94  C   UNL A   1      46.830  35.193  28.907  1.00  0.00     0.200 A 
ATOM     95  F   UNL A   1      47.427  34.608  31.115  1.00  0.00    -0.200 F 
ATOM     96  F   UNL A   1      47.240  36.451  29.114  1.00  0.00    -0.200 F 
ENDBRANCH  63  86
ENDBRANCH  37  38
ENDBRANCH  29  32
ENDBRANCH  27  28
ENDBRANCH  26  27
ENDBRANCH  25  26
ENDBRANCH  24  25
ENDBRANCH   1  24
TORSDOF 18
ENDMDL
