MODEL 1
REMARK VINA RESULT:     -11.8      0.000      0.000
REMARK SMILES C[C@@H](C(=O)NCCCCCCNC(=O)c1ccc(-c2c3nc(c(-c4c(F)c(F)c(F)c(F)c4F)c4ccc([nH]4)c(-c4c(F)c(F)c(F)c(F)c4F)c4nc(c(-c5c(F)c(F)c(F)c(F)c5F)c5ccc2[nH]5)C=C4)C=C3)cc1)c1ccc(C[C@@H]2CCC[C@@H]2O)cc1
REMARK SMILES IDX 7 1 6 2 5 3 3 4 4 5 2 7 1 8 78 9 79 10 90 11 80 12 89 13
REMARK SMILES IDX 81 14 82 15 83 16 84 17 87 18 85 19 86 20 88 21 8 23 9 24
REMARK SMILES IDX 10 25 11 26 12 27 13 28 14 30 15 31 16 32 77 33 17 34 76 35
REMARK SMILES IDX 18 36 19 37 20 38 70 39 21 40 75 41 69 42 71 43 22 44 74 45
REMARK SMILES IDX 68 46 67 47 23 49 55 50 35 51 54 52 36 53 39 54 53 55 72 56
REMARK SMILES IDX 37 57 38 58 52 60 73 61 40 62 24 63 25 64 33 65 26 66 27 67
REMARK SMILES IDX 31 68 34 69 28 70 29 71 32 72 30 73 56 74 57 75 65 76 58 77
REMARK SMILES IDX 59 78 63 79 66 80 60 81 61 82 64 83 62 84 41 85 42 86 50 87
REMARK SMILES IDX 43 88 44 89 48 90 51 91 45 92 46 93 49 94 47 95
REMARK H PARENT 5 6 88 22 12 29 71 48 39 59
REMARK Flexibility Score: inf
ROOT
ATOM      1  C   UNL A   1      33.434  26.171  26.069  1.00  0.00     0.021 C 
ENDROOT
BRANCH   1   2
ATOM      2  C   UNL A   1      33.756  24.688  25.872  1.00  0.00     0.116 C 
BRANCH   2   3
ATOM      3  N   UNL A   1      34.604  24.500  24.715  1.00  0.00    -0.356 N 
ATOM      4  C   UNL A   1      34.357  23.876  23.528  1.00  0.00     0.227 C 
ATOM      5  O   UNL A   1      35.324  23.724  22.780  1.00  0.00    -0.274 OA
ATOM      6  H   UNL A   1      35.506  24.885  24.798  1.00  0.00     0.163 HD
BRANCH   4   7
ATOM      7  C   UNL A   1      32.927  23.439  23.178  1.00  0.00     0.105 C 
ATOM      8  C   UNL A   1      32.843  22.709  21.831  1.00  0.00     0.023 C 
BRANCH   7   9
ATOM      9  C   UNL A   1      31.939  24.598  23.162  1.00  0.00    -0.036 A 
ATOM     10  C   UNL A   1      32.292  25.827  22.590  1.00  0.00     0.005 A 
ATOM     11  C   UNL A   1      30.683  24.479  23.776  1.00  0.00     0.005 A 
ATOM     12  C   UNL A   1      31.434  26.926  22.685  1.00  0.00     0.004 A 
ATOM     13  C   UNL A   1      29.833  25.577  23.876  1.00  0.00     0.004 A 
ATOM     14  C   UNL A   1      30.219  26.823  23.371  1.00  0.00    -0.048 A 
BRANCH  14  15
ATOM     15  C   UNL A   1      29.345  28.028  23.612  1.00  0.00     0.041 C 
BRANCH  15  16
ATOM     16  C   UNL A   1      28.890  28.836  22.375  1.00  0.00     0.022 C 
ATOM     17  C   UNL A   1      29.769  30.047  22.043  1.00  0.00     0.007 C 
ATOM     18  C   UNL A   1      27.483  29.442  22.396  1.00  0.00     0.117 C 
ATOM     19  C   UNL A   1      29.040  31.284  22.574  1.00  0.00     0.003 C 
ATOM     20  C   UNL A   1      27.655  30.823  23.016  1.00  0.00     0.032 C 
BRANCH  18  21
ATOM     21  O   UNL A   1      26.536  28.644  23.076  1.00  0.00    -0.393 OA
ATOM     22  H   UNL A   1      26.870  28.431  23.961  1.00  0.00     0.210 HD
ENDBRANCH  18  21
ENDBRANCH  15  16
ENDBRANCH  14  15
ENDBRANCH   7   9
ENDBRANCH   4   7
ENDBRANCH   2   3
ENDBRANCH   1   2
BRANCH   1  23
ATOM     23  C   UNL A   1      32.016  26.448  26.587  1.00  0.00     0.002 C 
BRANCH  23  24
ATOM     24  C   UNL A   1      31.756  27.886  27.044  1.00  0.00     0.002 C 
BRANCH  24  25
ATOM     25  C   UNL A   1      31.774  28.934  25.929  1.00  0.00     0.021 C 
BRANCH  25  26
ATOM     26  C   UNL A   1      33.018  29.813  25.901  1.00  0.00     0.116 C 
BRANCH  26  27
ATOM     27  N   UNL A   1      32.734  31.182  26.292  1.00  0.00    -0.352 N 
ATOM     28  C   UNL A   1      33.335  31.949  27.253  1.00  0.00     0.251 C 
ATOM     29  H   UNL A   1      32.005  31.621  25.794  1.00  0.00     0.163 HD
ATOM     30  O   UNL A   1      32.852  33.038  27.566  1.00  0.00    -0.269 OA
BRANCH  28  31
ATOM     31  C   UNL A   1      34.560  31.473  27.931  1.00  0.00     0.039 A 
ATOM     32  C   UNL A   1      34.621  30.140  28.348  1.00  0.00     0.014 A 
ATOM     33  C   UNL A   1      35.624  32.340  28.198  1.00  0.00     0.014 A 
ATOM     34  C   UNL A   1      35.758  29.670  29.008  1.00  0.00     0.010 A 
ATOM     35  C   UNL A   1      36.784  31.854  28.795  1.00  0.00     0.010 A 
ATOM     36  C   UNL A   1      36.853  30.522  29.228  1.00  0.00    -0.014 A 
BRANCH  36  37
ATOM     37  C   UNL A   1      38.051  30.047  29.964  1.00  0.00     0.031 A 
ATOM     38  C   UNL A   1      38.285  30.494  31.380  1.00  0.00     0.074 A 
ATOM     39  C   UNL A   1      38.946  29.250  29.350  1.00  0.00     0.049 A 
ATOM     40  N   UNL A   1      39.284  30.224  32.182  1.00  0.00    -0.248 NA
ATOM     41  C   UNL A   1      37.275  31.391  31.965  1.00  0.00     0.031 C 
ATOM     42  C   UNL A   1      38.853  28.783  27.967  1.00  0.00     0.029 A 
ATOM     43  N   UNL A   1      40.111  28.694  29.812  1.00  0.00    -0.354 N 
ATOM     44  C   UNL A   1      39.035  30.934  33.350  1.00  0.00     0.074 A 
ATOM     45  C   UNL A   1      37.817  31.685  33.138  1.00  0.00     0.031 C 
ATOM     46  C   UNL A   1      39.903  27.990  27.701  1.00  0.00     0.029 A 
ATOM     47  C   UNL A   1      40.754  27.912  28.884  1.00  0.00     0.049 A 
ATOM     48  H   UNL A   1      40.453  28.841  30.723  1.00  0.00     0.167 HD
ATOM     49  C   UNL A   1      39.744  30.941  34.504  1.00  0.00     0.037 A 
ATOM     50  C   UNL A   1      41.897  27.208  28.984  1.00  0.00     0.037 A 
ATOM     51  C   UNL A   1      40.929  30.157  34.728  1.00  0.00     0.049 A 
ATOM     52  C   UNL A   1      42.647  27.205  30.289  1.00  0.00     0.074 A 
ATOM     53  C   UNL A   1      41.684  30.042  35.883  1.00  0.00     0.029 A 
ATOM     54  N   UNL A   1      41.529  29.348  33.776  1.00  0.00    -0.354 N 
ATOM     55  N   UNL A   1      42.365  27.825  31.409  1.00  0.00    -0.248 NA
ATOM     56  C   UNL A   1      43.869  26.388  30.346  1.00  0.00     0.031 C 
ATOM     57  C   UNL A   1      42.760  29.188  35.619  1.00  0.00     0.029 A 
ATOM     58  C   UNL A   1      42.651  28.738  34.312  1.00  0.00     0.049 A 
ATOM     59  H   UNL A   1      41.206  29.224  32.854  1.00  0.00     0.167 HD
ATOM     60  C   UNL A   1      43.349  27.447  32.312  1.00  0.00     0.074 A 
ATOM     61  C   UNL A   1      44.232  26.537  31.613  1.00  0.00     0.031 C 
ATOM     62  C   UNL A   1      43.505  27.818  33.607  1.00  0.00     0.037 A 
BRANCH  49  63
ATOM     63  C   UNL A   1      39.251  31.823  35.613  1.00  0.00     0.064 A 
ATOM     64  C   UNL A   1      38.368  31.350  36.594  1.00  0.00     0.173 A 
ATOM     65  C   UNL A   1      39.687  33.153  35.710  1.00  0.00     0.173 A 
ATOM     66  F   UNL A   1      37.911  30.089  36.540  1.00  0.00    -0.203 F 
ATOM     67  C   UNL A   1      37.914  32.184  37.613  1.00  0.00     0.198 A 
ATOM     68  C   UNL A   1      39.254  33.976  36.747  1.00  0.00     0.198 A 
ATOM     69  F   UNL A   1      40.536  33.656  34.800  1.00  0.00    -0.203 F 
ATOM     70  F   UNL A   1      37.029  31.723  38.509  1.00  0.00    -0.200 F 
ATOM     71  C   UNL A   1      38.362  33.494  37.692  1.00  0.00     0.200 A 
ATOM     72  F   UNL A   1      39.696  35.238  36.828  1.00  0.00    -0.200 F 
ATOM     73  F   UNL A   1      37.926  34.294  38.674  1.00  0.00    -0.200 F 
ENDBRANCH  49  63
BRANCH  50  74
ATOM     74  C   UNL A   1      42.375  26.403  27.832  1.00  0.00     0.064 A 
ATOM     75  C   UNL A   1      43.335  26.917  26.949  1.00  0.00     0.173 A 
ATOM     76  C   UNL A   1      41.884  25.114  27.585  1.00  0.00     0.173 A 
ATOM     77  F   UNL A   1      43.819  28.154  27.134  1.00  0.00    -0.203 F 
ATOM     78  C   UNL A   1      43.771  26.180  25.850  1.00  0.00     0.198 A 
ATOM     79  C   UNL A   1      42.339  24.367  26.500  1.00  0.00     0.198 A 
ATOM     80  F   UNL A   1      40.968  24.575  28.403  1.00  0.00    -0.203 F 
ATOM     81  F   UNL A   1      44.658  26.713  24.998  1.00  0.00    -0.200 F 
ATOM     82  C   UNL A   1      43.276  24.904  25.629  1.00  0.00     0.200 A 
ATOM     83  F   UNL A   1      41.868  23.130  26.295  1.00  0.00    -0.200 F 
ATOM     84  F   UNL A   1      43.697  24.194  24.573  1.00  0.00    -0.200 F 
ENDBRANCH  50  74
BRANCH  62  85
ATOM     85  C   UNL A   1      44.642  27.200  34.364  1.00  0.00     0.064 A 
ATOM     86  C   UNL A   1      44.498  25.986  35.051  1.00  0.00     0.173 A 
ATOM     87  C   UNL A   1      45.904  27.815  34.373  1.00  0.00     0.173 A 
ATOM     88  F   UNL A   1      43.308  25.367  35.084  1.00  0.00    -0.203 F 
ATOM     89  C   UNL A   1      45.568  25.425  35.742  1.00  0.00     0.198 A 
ATOM     90  C   UNL A   1      46.978  27.238  35.041  1.00  0.00     0.198 A 
ATOM     91  F   UNL A   1      46.094  28.974  33.725  1.00  0.00    -0.203 F 
ATOM     92  F   UNL A   1      45.396  24.288  36.432  1.00  0.00    -0.200 F 
ATOM     93  C   UNL A   1      46.808  26.046  35.732  1.00  0.00     0.200 A 
ATOM     94  F   UNL A   1      48.179  27.834  35.020  1.00  0.00    -0.200 F 
ATOM     95  F   UNL A   1      47.838  25.502  36.393  1.00  0.00    -0.200 F 
ENDBRANCH  62  85
ENDBRANCH  36  37
ENDBRANCH  28  31
ENDBRANCH  26  27
ENDBRANCH  25  26
ENDBRANCH  24  25
ENDBRANCH  23  24
ENDBRANCH   1  23
TORSDOF 17
ENDMDL
MODEL 2
REMARK VINA RESULT:     -11.6      0.258      2.020
REMARK SMILES C[C@@H](C(=O)NCCCCCCNC(=O)c1ccc(-c2c3nc(c(-c4c(F)c(F)c(F)c(F)c4F)c4ccc([nH]4)c(-c4c(F)c(F)c(F)c(F)c4F)c4nc(c(-c5c(F)c(F)c(F)c(F)c5F)c5ccc2[nH]5)C=C4)C=C3)cc1)c1ccc(C[C@@H]2CCC[C@@H]2O)cc1
REMARK SMILES IDX 7 1 6 2 5 3 3 4 4 5 2 7 1 8 78 9 79 10 90 11 80 12 89 13
REMARK SMILES IDX 81 14 82 15 83 16 84 17 87 18 85 19 86 20 88 21 8 23 9 24
REMARK SMILES IDX 10 25 11 26 12 27 13 28 14 30 15 31 16 32 77 33 17 34 76 35
REMARK SMILES IDX 18 36 19 37 20 38 70 39 21 40 75 41 69 42 71 43 22 44 74 45
REMARK SMILES IDX 68 46 67 47 23 49 55 50 35 51 54 52 36 53 39 54 53 55 72 56
REMARK SMILES IDX 37 57 38 58 52 60 73 61 40 62 24 63 25 64 33 65 26 66 27 67
REMARK SMILES IDX 31 68 34 69 28 70 29 71 32 72 30 73 56 74 57 75 65 76 58 77
REMARK SMILES IDX 59 78 63 79 66 80 60 81 61 82 64 83 62 84 41 85 42 86 50 87
REMARK SMILES IDX 43 88 44 89 48 90 51 91 45 92 46 93 49 94 47 95
REMARK H PARENT 5 6 88 22 12 29 71 48 39 59
REMARK Flexibility Score: inf
ROOT
ATOM      1  C   UNL A   1      33.600  26.207  25.761  1.00  0.00     0.021 C 
ENDROOT
BRANCH   1   2
ATOM      2  C   UNL A   1      34.059  24.747  25.707  1.00  0.00     0.116 C 
BRANCH   2   3
ATOM      3  N   UNL A   1      34.668  24.453  24.428  1.00  0.00    -0.356 N 
ATOM      4  C   UNL A   1      34.199  23.734  23.369  1.00  0.00     0.227 C 
ATOM      5  O   UNL A   1      35.003  23.508  22.464  1.00  0.00    -0.274 OA
ATOM      6  H   UNL A   1      35.567  24.833  24.302  1.00  0.00     0.163 HD
BRANCH   4   7
ATOM      7  C   UNL A   1      32.730  23.287  23.340  1.00  0.00     0.105 C 
ATOM      8  C   UNL A   1      32.412  22.369  22.152  1.00  0.00     0.023 C 
BRANCH   7   9
ATOM      9  C   UNL A   1      31.753  24.455  23.323  1.00  0.00    -0.036 A 
ATOM     10  C   UNL A   1      32.010  25.586  22.536  1.00  0.00     0.005 A 
ATOM     11  C   UNL A   1      30.614  24.450  24.141  1.00  0.00     0.005 A 
ATOM     12  C   UNL A   1      31.180  26.707  22.616  1.00  0.00     0.004 A 
ATOM     13  C   UNL A   1      29.792  25.571  24.223  1.00  0.00     0.004 A 
ATOM     14  C   UNL A   1      30.091  26.727  23.495  1.00  0.00    -0.048 A 
BRANCH  14  15
ATOM     15  C   UNL A   1      29.269  27.974  23.705  1.00  0.00     0.041 C 
BRANCH  15  16
ATOM     16  C   UNL A   1      28.906  28.805  22.453  1.00  0.00     0.022 C 
ATOM     17  C   UNL A   1      29.819  30.009  22.197  1.00  0.00     0.007 C 
ATOM     18  C   UNL A   1      27.507  29.428  22.390  1.00  0.00     0.117 C 
ATOM     19  C   UNL A   1      29.070  31.247  22.698  1.00  0.00     0.003 C 
ATOM     20  C   UNL A   1      27.654  30.797  23.041  1.00  0.00     0.032 C 
BRANCH  18  21
ATOM     21  O   UNL A   1      26.509  28.631  22.994  1.00  0.00    -0.393 OA
ATOM     22  H   UNL A   1      25.786  28.488  22.364  1.00  0.00     0.210 HD
ENDBRANCH  18  21
ENDBRANCH  15  16
ENDBRANCH  14  15
ENDBRANCH   7   9
ENDBRANCH   4   7
ENDBRANCH   2   3
ENDBRANCH   1   2
BRANCH   1  23
ATOM     23  C   UNL A   1      32.329  26.439  26.589  1.00  0.00     0.002 C 
BRANCH  23  24
ATOM     24  C   UNL A   1      31.879  27.900  26.700  1.00  0.00     0.002 C 
BRANCH  24  25
ATOM     25  C   UNL A   1      32.232  28.779  25.499  1.00  0.00     0.021 C 
BRANCH  25  26
ATOM     26  C   UNL A   1      33.422  29.706  25.716  1.00  0.00     0.116 C 
BRANCH  26  27
ATOM     27  N   UNL A   1      33.017  31.024  26.169  1.00  0.00    -0.352 N 
ATOM     28  C   UNL A   1      33.479  31.752  27.232  1.00  0.00     0.251 C 
ATOM     29  H   UNL A   1      32.310  31.456  25.636  1.00  0.00     0.163 HD
ATOM     30  O   UNL A   1      32.901  32.785  27.571  1.00  0.00    -0.269 OA
BRANCH  28  31
ATOM     31  C   UNL A   1      34.665  31.298  27.990  1.00  0.00     0.039 A 
ATOM     32  C   UNL A   1      35.760  32.160  28.104  1.00  0.00     0.014 A 
ATOM     33  C   UNL A   1      34.721  30.017  28.548  1.00  0.00     0.014 A 
ATOM     34  C   UNL A   1      36.899  31.748  28.798  1.00  0.00     0.010 A 
ATOM     35  C   UNL A   1      35.831  29.633  29.297  1.00  0.00     0.010 A 
ATOM     36  C   UNL A   1      36.939  30.484  29.408  1.00  0.00    -0.014 A 
BRANCH  36  37
ATOM     37  C   UNL A   1      38.159  30.018  30.115  1.00  0.00     0.031 A 
ATOM     38  C   UNL A   1      38.421  30.463  31.527  1.00  0.00     0.074 A 
ATOM     39  C   UNL A   1      39.045  29.231  29.477  1.00  0.00     0.049 A 
ATOM     40  N   UNL A   1      39.441  30.199  32.305  1.00  0.00    -0.248 NA
ATOM     41  C   UNL A   1      37.417  31.349  32.138  1.00  0.00     0.031 C 
ATOM     42  C   UNL A   1      38.925  28.768  28.095  1.00  0.00     0.029 A 
ATOM     43  N   UNL A   1      40.226  28.684  29.911  1.00  0.00    -0.354 N 
ATOM     44  C   UNL A   1      39.212  30.903  33.480  1.00  0.00     0.074 A 
ATOM     45  C   UNL A   1      37.983  31.644  33.298  1.00  0.00     0.031 C 
ATOM     46  C   UNL A   1      39.975  27.984  27.802  1.00  0.00     0.029 A 
ATOM     47  C   UNL A   1      40.854  27.911  28.966  1.00  0.00     0.049 A 
ATOM     48  H   UNL A   1      40.588  28.831  30.815  1.00  0.00     0.167 HD
ATOM     49  C   UNL A   1      39.948  30.913  34.617  1.00  0.00     0.037 A 
ATOM     50  C   UNL A   1      42.005  27.217  29.037  1.00  0.00     0.037 A 
ATOM     51  C   UNL A   1      41.145  30.139  34.811  1.00  0.00     0.049 A 
ATOM     52  C   UNL A   1      42.785  27.216  30.324  1.00  0.00     0.074 A 
ATOM     53  C   UNL A   1      41.927  30.027  35.948  1.00  0.00     0.029 A 
ATOM     54  N   UNL A   1      41.730  29.338  33.843  1.00  0.00    -0.354 N 
ATOM     55  N   UNL A   1      42.524  27.830  31.452  1.00  0.00    -0.248 NA
ATOM     56  C   UNL A   1      44.015  26.410  30.350  1.00  0.00     0.031 C 
ATOM     57  C   UNL A   1      43.004  29.183  35.657  1.00  0.00     0.029 A 
ATOM     58  C   UNL A   1      42.869  28.736  34.351  1.00  0.00     0.049 A 
ATOM     59  H   UNL A   1      41.387  29.214  32.928  1.00  0.00     0.167 HD
ATOM     60  C   UNL A   1      43.532  27.458  32.331  1.00  0.00     0.074 A 
ATOM     61  C   UNL A   1      44.407  26.558  31.608  1.00  0.00     0.031 C 
ATOM     62  C   UNL A   1      43.715  27.827  33.623  1.00  0.00     0.037 A 
BRANCH  49  63
ATOM     63  C   UNL A   1      39.473  31.787  35.740  1.00  0.00     0.064 A 
ATOM     64  C   UNL A   1      39.967  33.088  35.921  1.00  0.00     0.173 A 
ATOM     65  C   UNL A   1      38.494  31.328  36.633  1.00  0.00     0.173 A 
ATOM     66  F   UNL A   1      40.914  33.570  35.103  1.00  0.00    -0.203 F 
ATOM     67  C   UNL A   1      39.521  33.884  36.974  1.00  0.00     0.198 A 
ATOM     68  C   UNL A   1      38.028  32.137  37.667  1.00  0.00     0.198 A 
ATOM     69  F   UNL A   1      37.984  30.093  36.504  1.00  0.00    -0.203 F 
ATOM     70  F   UNL A   1      40.046  35.103  37.157  1.00  0.00    -0.200 F 
ATOM     71  C   UNL A   1      38.549  33.411  37.841  1.00  0.00     0.200 A 
ATOM     72  F   UNL A   1      37.081  31.683  38.498  1.00  0.00    -0.200 F 
ATOM     73  F   UNL A   1      38.119  34.179  38.851  1.00  0.00    -0.200 F 
ENDBRANCH  49  63
BRANCH  50  74
ATOM     74  C   UNL A   1      42.464  26.420  27.871  1.00  0.00     0.064 A 
ATOM     75  C   UNL A   1      41.972  25.126  27.650  1.00  0.00     0.173 A 
ATOM     76  C   UNL A   1      43.401  26.927  26.961  1.00  0.00     0.173 A 
ATOM     77  F   UNL A   1      41.088  24.592  28.506  1.00  0.00    -0.203 F 
ATOM     78  C   UNL A   1      42.415  24.360  26.574  1.00  0.00     0.198 A 
ATOM     79  C   UNL A   1      43.826  26.170  25.870  1.00  0.00     0.198 A 
ATOM     80  F   UNL A   1      43.899  28.161  27.125  1.00  0.00    -0.203 F 
ATOM     81  F   UNL A   1      41.960  23.111  26.411  1.00  0.00    -0.200 F 
ATOM     82  C   UNL A   1      43.339  24.885  25.682  1.00  0.00     0.200 A 
ATOM     83  F   UNL A   1      44.709  26.683  25.003  1.00  0.00    -0.200 F 
ATOM     84  F   UNL A   1      43.764  24.149  24.646  1.00  0.00    -0.200 F 
ENDBRANCH  50  74
BRANCH  62  85
ATOM     85  C   UNL A   1      44.874  27.216  34.352  1.00  0.00     0.064 A 
ATOM     86  C   UNL A   1      46.110  27.872  34.455  1.00  0.00     0.173 A 
ATOM     87  C   UNL A   1      44.734  25.972  34.987  1.00  0.00     0.173 A 
ATOM     88  F   UNL A   1      46.297  29.056  33.853  1.00  0.00    -0.203 F 
ATOM     89  C   UNL A   1      47.171  27.291  35.143  1.00  0.00     0.198 A 
ATOM     90  C   UNL A   1      45.789  25.408  35.698  1.00  0.00     0.198 A 
ATOM     91  F   UNL A   1      43.570  25.309  34.924  1.00  0.00    -0.203 F 
ATOM     92  F   UNL A   1      48.358  27.913  35.188  1.00  0.00    -0.200 F 
ATOM     93  C   UNL A   1      47.009  26.064  35.769  1.00  0.00     0.200 A 
ATOM     94  F   UNL A   1      45.626  24.227  36.312  1.00  0.00    -0.200 F 
ATOM     95  F   UNL A   1      48.030  25.509  36.435  1.00  0.00    -0.200 F 
ENDBRANCH  62  85
ENDBRANCH  36  37
ENDBRANCH  28  31
ENDBRANCH  26  27
ENDBRANCH  25  26
ENDBRANCH  24  25
ENDBRANCH  23  24
ENDBRANCH   1  23
TORSDOF 17
ENDMDL
MODEL 3
REMARK VINA RESULT:     -11.5      4.494      9.017
REMARK SMILES C[C@@H](C(=O)NCCCCCCNC(=O)c1ccc(-c2c3nc(c(-c4c(F)c(F)c(F)c(F)c4F)c4ccc([nH]4)c(-c4c(F)c(F)c(F)c(F)c4F)c4nc(c(-c5c(F)c(F)c(F)c(F)c5F)c5ccc2[nH]5)C=C4)C=C3)cc1)c1ccc(C[C@@H]2CCC[C@@H]2O)cc1
REMARK SMILES IDX 7 1 6 2 5 3 3 4 4 5 2 7 1 8 78 9 79 10 90 11 80 12 89 13
REMARK SMILES IDX 81 14 82 15 83 16 84 17 87 18 85 19 86 20 88 21 8 23 9 24
REMARK SMILES IDX 10 25 11 26 12 27 13 28 14 30 15 31 16 32 77 33 17 34 76 35
REMARK SMILES IDX 18 36 19 37 20 38 70 39 21 40 75 41 69 42 71 43 22 44 74 45
REMARK SMILES IDX 68 46 67 47 23 49 55 50 35 51 54 52 36 53 39 54 53 55 72 56
REMARK SMILES IDX 37 57 38 58 52 60 73 61 40 62 24 63 25 64 33 65 26 66 27 67
REMARK SMILES IDX 31 68 34 69 28 70 29 71 32 72 30 73 56 74 57 75 65 76 58 77
REMARK SMILES IDX 59 78 63 79 66 80 60 81 61 82 64 83 62 84 41 85 42 86 50 87
REMARK SMILES IDX 43 88 44 89 48 90 51 91 45 92 46 93 49 94 47 95
REMARK H PARENT 5 6 88 22 12 29 71 48 39 59
REMARK Flexibility Score: inf
ROOT
ATOM      1  C   UNL A   1      38.074  33.838  31.319  1.00  0.00     0.021 C 
ENDROOT
BRANCH   1   2
ATOM      2  C   UNL A   1      37.369  34.538  32.484  1.00  0.00     0.116 C 
BRANCH   2   3
ATOM      3  N   UNL A   1      38.304  34.817  33.552  1.00  0.00    -0.356 N 
ATOM      4  C   UNL A   1      38.566  34.133  34.702  1.00  0.00     0.227 C 
ATOM      5  O   UNL A   1      39.304  34.692  35.514  1.00  0.00    -0.274 OA
ATOM      6  H   UNL A   1      38.840  35.634  33.428  1.00  0.00     0.163 HD
BRANCH   4   7
ATOM      7  C   UNL A   1      37.976  32.730  34.906  1.00  0.00     0.105 C 
ATOM      8  C   UNL A   1      37.650  32.431  36.376  1.00  0.00     0.023 C 
BRANCH   7   9
ATOM      9  C   UNL A   1      38.877  31.623  34.376  1.00  0.00    -0.036 A 
ATOM     10  C   UNL A   1      38.329  30.509  33.725  1.00  0.00     0.005 A 
ATOM     11  C   UNL A   1      40.263  31.663  34.586  1.00  0.00     0.005 A 
ATOM     12  C   UNL A   1      39.142  29.437  33.350  1.00  0.00     0.004 A 
ATOM     13  C   UNL A   1      41.071  30.590  34.218  1.00  0.00     0.004 A 
ATOM     14  C   UNL A   1      40.512  29.447  33.636  1.00  0.00    -0.048 A 
BRANCH  14  15
ATOM     15  C   UNL A   1      41.382  28.244  33.373  1.00  0.00     0.041 C 
BRANCH  15  16
ATOM     16  C   UNL A   1      42.465  27.907  34.423  1.00  0.00     0.022 C 
ATOM     17  C   UNL A   1      43.907  28.015  33.914  1.00  0.00     0.007 C 
ATOM     18  C   UNL A   1      42.439  26.510  35.053  1.00  0.00     0.117 C 
ATOM     19  C   UNL A   1      44.378  26.590  33.611  1.00  0.00     0.003 C 
ATOM     20  C   UNL A   1      43.304  25.648  34.142  1.00  0.00     0.032 C 
BRANCH  18  21
ATOM     21  O   UNL A   1      41.134  25.996  35.228  1.00  0.00    -0.393 OA
ATOM     22  H   UNL A   1      40.906  26.008  36.171  1.00  0.00     0.210 HD
ENDBRANCH  18  21
ENDBRANCH  15  16
ENDBRANCH  14  15
ENDBRANCH   7   9
ENDBRANCH   4   7
ENDBRANCH   2   3
ENDBRANCH   1   2
BRANCH   1  23
ATOM     23  C   UNL A   1      37.327  32.614  30.771  1.00  0.00     0.002 C 
BRANCH  23  24
ATOM     24  C   UNL A   1      36.037  32.250  31.513  1.00  0.00     0.002 C 
BRANCH  24  25
ATOM     25  C   UNL A   1      34.746  32.528  30.742  1.00  0.00     0.021 C 
BRANCH  25  26
ATOM     26  C   UNL A   1      34.891  32.504  29.225  1.00  0.00     0.116 C 
BRANCH  26  27
ATOM     27  N   UNL A   1      34.227  31.361  28.626  1.00  0.00    -0.352 N 
ATOM     28  C   UNL A   1      34.766  30.182  28.184  1.00  0.00     0.251 C 
ATOM     29  H   UNL A   1      33.251  31.445  28.524  1.00  0.00     0.163 HD
ATOM     30  O   UNL A   1      34.075  29.388  27.546  1.00  0.00    -0.269 OA
BRANCH  28  31
ATOM     31  C   UNL A   1      36.184  29.860  28.456  1.00  0.00     0.039 A 
ATOM     32  C   UNL A   1      37.136  30.136  27.471  1.00  0.00     0.014 A 
ATOM     33  C   UNL A   1      36.571  29.249  29.653  1.00  0.00     0.014 A 
ATOM     34  C   UNL A   1      38.478  29.824  27.694  1.00  0.00     0.010 A 
ATOM     35  C   UNL A   1      37.918  29.000  29.902  1.00  0.00     0.010 A 
ATOM     36  C   UNL A   1      38.881  29.262  28.917  1.00  0.00    -0.014 A 
BRANCH  36  37
ATOM     37  C   UNL A   1      40.298  28.888  29.153  1.00  0.00     0.031 A 
ATOM     38  C   UNL A   1      41.202  29.822  29.908  1.00  0.00     0.074 A 
ATOM     39  C   UNL A   1      40.780  27.733  28.657  1.00  0.00     0.049 A 
ATOM     40  N   UNL A   1      42.475  29.700  30.189  1.00  0.00    -0.248 NA
ATOM     41  C   UNL A   1      40.602  31.078  30.387  1.00  0.00     0.031 C 
ATOM     42  C   UNL A   1      40.015  26.765  27.872  1.00  0.00     0.029 A 
ATOM     43  N   UNL A   1      42.033  27.181  28.740  1.00  0.00    -0.354 N 
ATOM     44  C   UNL A   1      42.830  30.868  30.851  1.00  0.00     0.074 A 
ATOM     45  C   UNL A   1      41.654  31.708  30.890  1.00  0.00     0.031 C 
ATOM     46  C   UNL A   1      40.807  25.724  27.567  1.00  0.00     0.029 A 
ATOM     47  C   UNL A   1      42.139  25.963  28.113  1.00  0.00     0.049 A 
ATOM     48  H   UNL A   1      42.784  27.615  29.205  1.00  0.00     0.167 HD
ATOM     49  C   UNL A   1      44.024  31.200  31.399  1.00  0.00     0.037 A 
ATOM     50  C   UNL A   1      43.194  25.134  28.001  1.00  0.00     0.037 A 
ATOM     51  C   UNL A   1      45.179  30.343  31.399  1.00  0.00     0.049 A 
ATOM     52  C   UNL A   1      44.498  25.511  28.650  1.00  0.00     0.074 A 
ATOM     53  C   UNL A   1      46.415  30.558  31.985  1.00  0.00     0.029 A 
ATOM     54  N   UNL A   1      45.237  29.100  30.787  1.00  0.00    -0.354 N 
ATOM     55  N   UNL A   1      44.804  26.587  29.333  1.00  0.00    -0.248 NA
ATOM     56  C   UNL A   1      45.602  24.547  28.522  1.00  0.00     0.031 C 
ATOM     57  C   UNL A   1      47.232  29.459  31.699  1.00  0.00     0.029 A 
ATOM     58  C   UNL A   1      46.490  28.541  30.971  1.00  0.00     0.049 A 
ATOM     59  H   UNL A   1      44.497  28.677  30.294  1.00  0.00     0.167 HD
ATOM     60  C   UNL A   1      46.117  26.415  29.748  1.00  0.00     0.074 A 
ATOM     61  C   UNL A   1      46.550  25.128  29.246  1.00  0.00     0.031 C 
ATOM     62  C   UNL A   1      46.895  27.249  30.482  1.00  0.00     0.037 A 
BRANCH  49  63
ATOM     63  C   UNL A   1      44.135  32.549  32.047  1.00  0.00     0.064 A 
ATOM     64  C   UNL A   1      44.299  33.719  31.291  1.00  0.00     0.173 A 
ATOM     65  C   UNL A   1      44.052  32.677  33.442  1.00  0.00     0.173 A 
ATOM     66  F   UNL A   1      44.398  33.650  29.954  1.00  0.00    -0.203 F 
ATOM     67  C   UNL A   1      44.409  34.963  31.908  1.00  0.00     0.198 A 
ATOM     68  C   UNL A   1      44.132  33.925  34.054  1.00  0.00     0.198 A 
ATOM     69  F   UNL A   1      43.891  31.590  34.213  1.00  0.00    -0.203 F 
ATOM     70  F   UNL A   1      44.619  36.059  31.167  1.00  0.00    -0.200 F 
ATOM     71  C   UNL A   1      44.320  35.065  33.288  1.00  0.00     0.200 A 
ATOM     72  F   UNL A   1      44.035  34.024  35.387  1.00  0.00    -0.200 F 
ATOM     73  F   UNL A   1      44.422  36.263  33.880  1.00  0.00    -0.200 F 
ENDBRANCH  49  63
BRANCH  50  74
ATOM     74  C   UNL A   1      43.046  23.838  27.291  1.00  0.00     0.064 A 
ATOM     75  C   UNL A   1      42.528  22.716  27.950  1.00  0.00     0.173 A 
ATOM     76  C   UNL A   1      43.421  23.693  25.948  1.00  0.00     0.173 A 
ATOM     77  F   UNL A   1      42.174  22.802  29.241  1.00  0.00    -0.203 F 
ATOM     78  C   UNL A   1      42.410  21.489  27.300  1.00  0.00     0.198 A 
ATOM     79  C   UNL A   1      43.279  22.472  25.291  1.00  0.00     0.198 A 
ATOM     80  F   UNL A   1      43.917  24.739  25.271  1.00  0.00    -0.203 F 
ATOM     81  F   UNL A   1      41.952  20.421  27.967  1.00  0.00    -0.200 F 
ATOM     82  C   UNL A   1      42.781  21.370  25.969  1.00  0.00     0.200 A 
ATOM     83  F   UNL A   1      43.627  22.362  24.002  1.00  0.00    -0.200 F 
ATOM     84  F   UNL A   1      42.666  20.190  25.343  1.00  0.00    -0.200 F 
ENDBRANCH  50  74
BRANCH  62  85
ATOM     85  C   UNL A   1      48.273  26.771  30.830  1.00  0.00     0.064 A 
ATOM     86  C   UNL A   1      49.387  27.086  30.038  1.00  0.00     0.173 A 
ATOM     87  C   UNL A   1      48.487  26.016  31.994  1.00  0.00     0.173 A 
ATOM     88  F   UNL A   1      49.231  27.793  28.908  1.00  0.00    -0.203 F 
ATOM     89  C   UNL A   1      50.659  26.639  30.383  1.00  0.00     0.198 A 
ATOM     90  C   UNL A   1      49.763  25.594  32.351  1.00  0.00     0.198 A 
ATOM     91  F   UNL A   1      47.455  25.694  32.789  1.00  0.00    -0.203 F 
ATOM     92  F   UNL A   1      51.702  26.911  29.586  1.00  0.00    -0.200 F 
ATOM     93  C   UNL A   1      50.848  25.899  31.541  1.00  0.00     0.200 A 
ATOM     94  F   UNL A   1      49.945  24.890  33.477  1.00  0.00    -0.200 F 
ATOM     95  F   UNL A   1      52.074  25.474  31.874  1.00  0.00    -0.200 F 
ENDBRANCH  62  85
ENDBRANCH  36  37
ENDBRANCH  28  31
ENDBRANCH  26  27
ENDBRANCH  25  26
ENDBRANCH  24  25
ENDBRANCH  23  24
ENDBRANCH   1  23
TORSDOF 17
ENDMDL
