MODEL 1
REMARK VINA RESULT:     -12.3      0.000      0.000
REMARK SMILES COc1ccc(C(=O)C2=C(NCCCCCCNC(=O)c3ccc(-c4c5nc(c(-c6c(F)c(F)c(F)c(F)c6F)c6ccc([nH]6)c(-c6c(F)c(F)c(F)c(F)c6F)c6nc(c(-c7c(F)c(F)c(F)c(F)c7F)c7ccc4[nH]7)C=C6)C=C5)cc3)C(=O)N(CC(=O)[O-])[C@H]2c2ccccc2)cc1
REMARK SMILES IDX 14 1 13 2 12 3 11 4 10 6 9 7 91 8 84 9 86 10 85 11 7 12 8 13
REMARK SMILES IDX 6 14 3 15 4 16 99 17 5 18 98 19 2 20 1 21 92 22 93 23 97 24
REMARK SMILES IDX 94 25 96 26 95 27 87 28 88 29 89 30 90 31 15 32 16 33 17 34
REMARK SMILES IDX 18 35 19 36 20 38 21 39 22 40 83 41 23 42 82 43 24 44 25 45
REMARK SMILES IDX 26 46 76 47 27 48 81 49 75 50 77 51 28 52 80 53 74 54 73 55
REMARK SMILES IDX 29 57 61 58 41 59 60 60 42 61 45 62 59 63 78 64 43 65 44 66
REMARK SMILES IDX 58 68 79 69 46 70 30 71 31 72 39 73 32 74 33 75 37 76 40 77
REMARK SMILES IDX 34 78 35 79 38 80 36 81 62 82 63 83 71 84 64 85 65 86 69 87
REMARK SMILES IDX 72 88 66 89 67 90 70 91 68 92 47 93 48 94 56 95 49 96 50 97
REMARK SMILES IDX 54 98 57 99 51 100 52 101 55 102 53 103
REMARK H PARENT 11 5 18 37 77 56 45 67
REMARK Flexibility Score: inf
ROOT
ATOM      1  C   UNL A   1      33.248  28.125  24.189  1.00  0.00     0.002 C 
ENDROOT
BRANCH   1   2
ATOM      2  C   UNL A   1      33.531  26.672  23.789  1.00  0.00     0.021 C 
BRANCH   2   3
ATOM      3  C   UNL A   1      33.327  26.369  22.304  1.00  0.00     0.113 C 
BRANCH   3   4
ATOM      4  N   UNL A   1      33.084  24.961  22.125  1.00  0.00    -0.380 N 
ATOM      5  H   UNL A   1      32.928  24.681  21.193  1.00  0.00     0.160 HD
BRANCH   4   6
ATOM      6  C   UNL A   1      33.038  23.952  23.047  1.00  0.00     0.110 C 
ATOM      7  C   UNL A   1      33.891  23.046  23.542  1.00  0.00     0.056 C 
ATOM      8  C   UNL A   1      33.320  22.187  24.634  1.00  0.00     0.153 C 
ATOM      9  C   UNL A   1      31.764  23.726  23.808  1.00  0.00     0.271 C 
ATOM     10  N   UNL A   1      31.987  22.735  24.728  1.00  0.00    -0.320 N 
ATOM     11  O   UNL A   1      30.727  24.341  23.617  1.00  0.00    -0.267 OA
BRANCH   7  12
ATOM     12  C   UNL A   1      35.327  23.024  23.222  1.00  0.00     0.193 C 
ATOM     13  O   UNL A   1      35.686  23.188  22.059  1.00  0.00    -0.289 OA
BRANCH  12  14
ATOM     14  C   UNL A   1      36.339  22.835  24.304  1.00  0.00     0.023 A 
ATOM     15  C   UNL A   1      38.468  22.489  26.124  1.00  0.00     0.118 A 
ATOM     16  C   UNL A   1      38.101  21.457  25.258  1.00  0.00     0.047 A 
ATOM     17  C   UNL A   1      37.715  23.661  26.134  1.00  0.00     0.047 A 
ATOM     18  C   UNL A   1      37.054  21.631  24.346  1.00  0.00     0.016 A 
ATOM     19  C   UNL A   1      36.636  23.814  25.253  1.00  0.00     0.016 A 
BRANCH  15  20
ATOM     20  O   UNL A   1      39.559  22.234  26.905  1.00  0.00    -0.497 OA
ATOM     21  C   UNL A   1      40.275  21.035  26.629  1.00  0.00     0.278 C 
ENDBRANCH  15  20
ENDBRANCH  12  14
ENDBRANCH   7  12
BRANCH   8  22
ATOM     22  C   UNL A   1      33.296  20.706  24.291  1.00  0.00    -0.021 A 
ATOM     23  C   UNL A   1      34.115  19.777  24.965  1.00  0.00     0.006 A 
ATOM     24  C   UNL A   1      32.404  20.226  23.320  1.00  0.00     0.006 A 
ATOM     25  C   UNL A   1      34.019  18.412  24.703  1.00  0.00     0.000 A 
ATOM     26  C   UNL A   1      32.321  18.858  23.049  1.00  0.00     0.000 A 
ATOM     27  C   UNL A   1      33.120  17.953  23.745  1.00  0.00     0.000 A 
ENDBRANCH   8  22
BRANCH  10  28
ATOM     28  C   UNL A   1      30.969  22.271  25.660  1.00  0.00     0.173 C 
BRANCH  28  29
ATOM     29  C   UNL A   1      30.804  23.134  26.902  1.00  0.00     0.061 C 
ATOM     30  O   UNL A   1      29.754  23.646  27.266  1.00  0.00    -0.548 OA
ATOM     31  O   UNL A   1      31.903  23.236  27.674  1.00  0.00    -0.548 OA
ENDBRANCH  28  29
ENDBRANCH  10  28
ENDBRANCH   4   6
ENDBRANCH   3   4
ENDBRANCH   2   3
ENDBRANCH   1   2
BRANCH   1  32
ATOM     32  C   UNL A   1      31.960  28.344  24.988  1.00  0.00     0.002 C 
BRANCH  32  33
ATOM     33  C   UNL A   1      31.742  29.772  25.493  1.00  0.00     0.021 C 
BRANCH  33  34
ATOM     34  C   UNL A   1      32.747  30.240  26.539  1.00  0.00     0.116 C 
BRANCH  34  35
ATOM     35  N   UNL A   1      32.691  31.676  26.758  1.00  0.00    -0.352 N 
ATOM     36  C   UNL A   1      33.496  32.467  27.540  1.00  0.00     0.251 C 
ATOM     37  H   UNL A   1      31.973  32.148  26.279  1.00  0.00     0.163 HD
ATOM     38  O   UNL A   1      33.200  33.638  27.748  1.00  0.00    -0.269 OA
BRANCH  36  39
ATOM     39  C   UNL A   1      34.716  31.898  28.153  1.00  0.00     0.039 A 
ATOM     40  C   UNL A   1      35.861  32.693  28.236  1.00  0.00     0.014 A 
ATOM     41  C   UNL A   1      34.732  30.588  28.638  1.00  0.00     0.014 A 
ATOM     42  C   UNL A   1      37.005  32.196  28.861  1.00  0.00     0.010 A 
ATOM     43  C   UNL A   1      35.848  30.119  29.327  1.00  0.00     0.010 A 
ATOM     44  C   UNL A   1      36.998  30.917  29.442  1.00  0.00    -0.014 A 
BRANCH  44  45
ATOM     45  C   UNL A   1      38.181  30.398  30.176  1.00  0.00     0.031 A 
ATOM     46  C   UNL A   1      38.433  30.816  31.597  1.00  0.00     0.074 A 
ATOM     47  C   UNL A   1      39.060  29.599  29.541  1.00  0.00     0.049 A 
ATOM     48  N   UNL A   1      39.440  30.523  32.381  1.00  0.00    -0.248 NA
ATOM     49  C   UNL A   1      37.433  31.702  32.212  1.00  0.00     0.031 C 
ATOM     50  C   UNL A   1      38.951  29.160  28.148  1.00  0.00     0.029 A 
ATOM     51  N   UNL A   1      40.227  29.023  29.979  1.00  0.00    -0.354 N 
ATOM     52  C   UNL A   1      39.200  31.196  33.571  1.00  0.00     0.074 A 
ATOM     53  C   UNL A   1      37.984  31.957  33.390  1.00  0.00     0.031 C 
ATOM     54  C   UNL A   1      39.992  28.365  27.855  1.00  0.00     0.029 A 
ATOM     55  C   UNL A   1      40.865  28.274  29.021  1.00  0.00     0.049 A 
ATOM     56  H   UNL A   1      40.573  29.136  30.894  1.00  0.00     0.167 HD
ATOM     57  C   UNL A   1      39.919  31.163  34.721  1.00  0.00     0.037 A 
ATOM     58  C   UNL A   1      42.028  27.596  29.075  1.00  0.00     0.037 A 
ATOM     59  C   UNL A   1      41.118  30.389  34.903  1.00  0.00     0.049 A 
ATOM     60  C   UNL A   1      42.815  27.591  30.358  1.00  0.00     0.074 A 
ATOM     61  C   UNL A   1      41.886  30.244  36.045  1.00  0.00     0.029 A 
ATOM     62  N   UNL A   1      41.730  29.633  33.912  1.00  0.00    -0.354 N 
ATOM     63  N   UNL A   1      42.542  28.173  31.501  1.00  0.00    -0.248 NA
ATOM     64  C   UNL A   1      44.070  26.827  30.361  1.00  0.00     0.031 C 
ATOM     65  C   UNL A   1      42.991  29.445  35.732  1.00  0.00     0.029 A 
ATOM     66  C   UNL A   1      42.879  29.040  34.411  1.00  0.00     0.049 A 
ATOM     67  H   UNL A   1      41.395  29.532  32.992  1.00  0.00     0.167 HD
ATOM     68  C   UNL A   1      43.571  27.823  32.364  1.00  0.00     0.074 A 
ATOM     69  C   UNL A   1      44.466  26.963  31.618  1.00  0.00     0.031 C 
ATOM     70  C   UNL A   1      43.757  28.180  33.659  1.00  0.00     0.037 A 
BRANCH  57  71
ATOM     71  C   UNL A   1      39.424  31.990  35.873  1.00  0.00     0.064 A 
ATOM     72  C   UNL A   1      38.447  31.509  36.760  1.00  0.00     0.173 A 
ATOM     73  C   UNL A   1      39.961  33.263  36.119  1.00  0.00     0.173 A 
ATOM     74  F   UNL A   1      37.893  30.302  36.565  1.00  0.00    -0.203 F 
ATOM     75  C   UNL A   1      38.005  32.284  37.829  1.00  0.00     0.198 A 
ATOM     76  C   UNL A   1      39.540  34.021  37.210  1.00  0.00     0.198 A 
ATOM     77  F   UNL A   1      40.902  33.769  35.308  1.00  0.00    -0.203 F 
ATOM     78  F   UNL A   1      37.034  31.825  38.631  1.00  0.00    -0.200 F 
ATOM     79  C   UNL A   1      38.557  33.535  38.057  1.00  0.00     0.200 A 
ATOM     80  F   UNL A   1      40.086  35.223  37.437  1.00  0.00    -0.200 F 
ATOM     81  F   UNL A   1      38.137  34.277  39.092  1.00  0.00    -0.200 F 
ENDBRANCH  57  71
BRANCH  58  82
ATOM     82  C   UNL A   1      42.512  26.853  27.882  1.00  0.00     0.064 A 
ATOM     83  C   UNL A   1      43.294  27.489  26.906  1.00  0.00     0.173 A 
ATOM     84  C   UNL A   1      42.198  25.500  27.686  1.00  0.00     0.173 A 
ATOM     85  F   UNL A   1      43.603  28.787  27.037  1.00  0.00    -0.203 F 
ATOM     86  C   UNL A   1      43.721  26.806  25.768  1.00  0.00     0.198 A 
ATOM     87  C   UNL A   1      42.653  24.811  26.564  1.00  0.00     0.198 A 
ATOM     88  F   UNL A   1      41.458  24.844  28.592  1.00  0.00    -0.203 F 
ATOM     89  F   UNL A   1      44.421  27.452  24.826  1.00  0.00    -0.200 F 
ATOM     90  C   UNL A   1      43.405  25.466  25.601  1.00  0.00     0.200 A 
ATOM     91  F   UNL A   1      42.358  23.512  26.413  1.00  0.00    -0.200 F 
ATOM     92  F   UNL A   1      43.818  24.811  24.508  1.00  0.00    -0.200 F 
ENDBRANCH  58  82
BRANCH  70  93
ATOM     93  C   UNL A   1      44.953  27.611  34.366  1.00  0.00     0.064 A 
ATOM     94  C   UNL A   1      44.904  26.373  35.025  1.00  0.00     0.173 A 
ATOM     95  C   UNL A   1      46.179  28.295  34.348  1.00  0.00     0.173 A 
ATOM     96  F   UNL A   1      43.753  25.686  35.084  1.00  0.00    -0.203 F 
ATOM     97  C   UNL A   1      46.027  25.856  35.663  1.00  0.00     0.198 A 
ATOM     98  C   UNL A   1      47.309  27.760  34.957  1.00  0.00     0.198 A 
ATOM     99  F   UNL A   1      46.284  29.479  33.725  1.00  0.00    -0.203 F 
ATOM    100  F   UNL A   1      45.943  24.697  36.331  1.00  0.00    -0.200 F 
ATOM    101  C   UNL A   1      47.230  26.545  35.622  1.00  0.00     0.200 A 
ATOM    102  F   UNL A   1      48.475  28.419  34.903  1.00  0.00    -0.200 F 
ATOM    103  F   UNL A   1      48.314  26.042  36.230  1.00  0.00    -0.200 F 
ENDBRANCH  70  93
ENDBRANCH  44  45
ENDBRANCH  36  39
ENDBRANCH  34  35
ENDBRANCH  33  34
ENDBRANCH  32  33
ENDBRANCH   1  32
TORSDOF 19
ENDMDL
MODEL 2
REMARK VINA RESULT:     -12.1      0.497      6.965
REMARK SMILES COc1ccc(C(=O)C2=C(NCCCCCCNC(=O)c3ccc(-c4c5nc(c(-c6c(F)c(F)c(F)c(F)c6F)c6ccc([nH]6)c(-c6c(F)c(F)c(F)c(F)c6F)c6nc(c(-c7c(F)c(F)c(F)c(F)c7F)c7ccc4[nH]7)C=C6)C=C5)cc3)C(=O)N(CC(=O)[O-])[C@H]2c2ccccc2)cc1
REMARK SMILES IDX 14 1 13 2 12 3 11 4 10 6 9 7 91 8 84 9 86 10 85 11 7 12 8 13
REMARK SMILES IDX 6 14 3 15 4 16 99 17 5 18 98 19 2 20 1 21 92 22 93 23 97 24
REMARK SMILES IDX 94 25 96 26 95 27 87 28 88 29 89 30 90 31 15 32 16 33 17 34
REMARK SMILES IDX 18 35 19 36 20 38 21 39 22 40 83 41 23 42 82 43 24 44 25 45
REMARK SMILES IDX 26 46 76 47 27 48 81 49 75 50 77 51 28 52 80 53 74 54 73 55
REMARK SMILES IDX 29 57 61 58 41 59 60 60 42 61 45 62 59 63 78 64 43 65 44 66
REMARK SMILES IDX 58 68 79 69 46 70 30 71 31 72 39 73 32 74 33 75 37 76 40 77
REMARK SMILES IDX 34 78 35 79 38 80 36 81 62 82 63 83 71 84 64 85 65 86 69 87
REMARK SMILES IDX 72 88 66 89 67 90 70 91 68 92 47 93 48 94 56 95 49 96 50 97
REMARK SMILES IDX 54 98 57 99 51 100 52 101 55 102 53 103
REMARK H PARENT 11 5 18 37 77 56 45 67
REMARK Flexibility Score: inf
ROOT
ATOM      1  C   UNL A   1      33.158  28.173  24.465  1.00  0.00     0.002 C 
ENDROOT
BRANCH   1   2
ATOM      2  C   UNL A   1      33.284  26.707  24.036  1.00  0.00     0.021 C 
BRANCH   2   3
ATOM      3  C   UNL A   1      33.075  26.462  22.541  1.00  0.00     0.113 C 
BRANCH   3   4
ATOM      4  N   UNL A   1      32.750  25.076  22.317  1.00  0.00    -0.380 N 
ATOM      5  H   UNL A   1      32.507  24.851  21.389  1.00  0.00     0.160 HD
BRANCH   4   6
ATOM      6  C   UNL A   1      32.726  24.026  23.193  1.00  0.00     0.110 C 
ATOM      7  C   UNL A   1      33.588  23.094  23.617  1.00  0.00     0.056 C 
ATOM      8  C   UNL A   1      33.047  22.188  24.685  1.00  0.00     0.153 C 
ATOM      9  C   UNL A   1      31.476  23.772  23.984  1.00  0.00     0.271 C 
ATOM     10  N   UNL A   1      31.722  22.738  24.849  1.00  0.00    -0.320 N 
ATOM     11  O   UNL A   1      30.438  24.401  23.856  1.00  0.00    -0.267 OA
BRANCH   7  12
ATOM     12  C   UNL A   1      35.013  23.078  23.248  1.00  0.00     0.193 C 
ATOM     13  O   UNL A   1      35.333  23.270  22.078  1.00  0.00    -0.289 OA
BRANCH  12  14
ATOM     14  C   UNL A   1      36.061  22.863  24.291  1.00  0.00     0.023 A 
ATOM     15  C   UNL A   1      38.246  22.452  26.028  1.00  0.00     0.118 A 
ATOM     16  C   UNL A   1      37.794  21.421  25.202  1.00  0.00     0.047 A 
ATOM     17  C   UNL A   1      37.551  23.658  26.043  1.00  0.00     0.047 A 
ATOM     18  C   UNL A   1      36.718  21.626  24.331  1.00  0.00     0.016 A 
ATOM     19  C   UNL A   1      36.444  23.846  25.205  1.00  0.00     0.016 A 
BRANCH  15  20
ATOM     20  O   UNL A   1      39.357  22.160  26.769  1.00  0.00    -0.497 OA
ATOM     21  C   UNL A   1      40.159  21.076  26.315  1.00  0.00     0.278 C 
ENDBRANCH  15  20
ENDBRANCH  12  14
ENDBRANCH   7  12
BRANCH   8  22
ATOM     22  C   UNL A   1      33.002  20.724  24.275  1.00  0.00    -0.021 A 
ATOM     23  C   UNL A   1      32.272  20.295  23.147  1.00  0.00     0.006 A 
ATOM     24  C   UNL A   1      33.741  19.773  24.992  1.00  0.00     0.006 A 
ATOM     25  C   UNL A   1      32.311  18.966  22.731  1.00  0.00     0.000 A 
ATOM     26  C   UNL A   1      33.766  18.438  24.580  1.00  0.00     0.000 A 
ATOM     27  C   UNL A   1      33.060  18.037  23.447  1.00  0.00     0.000 A 
ENDBRANCH   8  22
BRANCH  10  28
ATOM     28  C   UNL A   1      30.732  22.237  25.792  1.00  0.00     0.173 C 
BRANCH  28  29
ATOM     29  C   UNL A   1      30.485  23.138  26.993  1.00  0.00     0.061 C 
ATOM     30  O   UNL A   1      29.393  23.338  27.506  1.00  0.00    -0.548 OA
ATOM     31  O   UNL A   1      31.595  23.657  27.552  1.00  0.00    -0.548 OA
ENDBRANCH  28  29
ENDBRANCH  10  28
ENDBRANCH   4   6
ENDBRANCH   3   4
ENDBRANCH   2   3
ENDBRANCH   1   2
BRANCH   1  32
ATOM     32  C   UNL A   1      31.927  28.502  25.316  1.00  0.00     0.002 C 
BRANCH  32  33
ATOM     33  C   UNL A   1      31.759  29.981  25.673  1.00  0.00     0.021 C 
BRANCH  33  34
ATOM     34  C   UNL A   1      32.786  30.522  26.660  1.00  0.00     0.116 C 
BRANCH  34  35
ATOM     35  N   UNL A   1      32.686  31.961  26.832  1.00  0.00    -0.352 N 
ATOM     36  C   UNL A   1      33.457  32.801  27.597  1.00  0.00     0.251 C 
ATOM     37  H   UNL A   1      31.960  32.396  26.329  1.00  0.00     0.163 HD
ATOM     38  O   UNL A   1      33.124  33.969  27.763  1.00  0.00    -0.269 OA
BRANCH  36  39
ATOM     39  C   UNL A   1      34.685  32.288  28.242  1.00  0.00     0.039 A 
ATOM     40  C   UNL A   1      35.818  33.104  28.277  1.00  0.00     0.014 A 
ATOM     41  C   UNL A   1      34.721  31.010  28.807  1.00  0.00     0.014 A 
ATOM     42  C   UNL A   1      36.969  32.662  28.930  1.00  0.00     0.010 A 
ATOM     43  C   UNL A   1      35.843  30.601  29.522  1.00  0.00     0.010 A 
ATOM     44  C   UNL A   1      36.981  31.421  29.588  1.00  0.00    -0.014 A 
BRANCH  44  45
ATOM     45  C   UNL A   1      38.171  30.966  30.351  1.00  0.00     0.031 A 
ATOM     46  C   UNL A   1      39.168  30.036  29.716  1.00  0.00     0.074 A 
ATOM     47  C   UNL A   1      38.323  31.343  31.635  1.00  0.00     0.049 A 
ATOM     48  N   UNL A   1      40.232  29.480  30.237  1.00  0.00    -0.248 NA
ATOM     49  C   UNL A   1      38.921  29.662  28.315  1.00  0.00     0.031 C 
ATOM     50  C   UNL A   1      37.401  32.204  32.377  1.00  0.00     0.029 A 
ATOM     51  N   UNL A   1      39.302  31.040  32.549  1.00  0.00    -0.354 N 
ATOM     52  C   UNL A   1      40.772  28.685  29.236  1.00  0.00     0.074 A 
ATOM     53  C   UNL A   1      39.889  28.784  28.094  1.00  0.00     0.031 C 
ATOM     54  C   UNL A   1      37.870  32.380  33.623  1.00  0.00     0.029 A 
ATOM     55  C   UNL A   1      39.100  31.610  33.782  1.00  0.00     0.049 A 
ATOM     56  H   UNL A   1      40.075  30.467  32.339  1.00  0.00     0.167 HD
ATOM     57  C   UNL A   1      41.914  27.955  29.260  1.00  0.00     0.037 A 
ATOM     58  C   UNL A   1      39.821  31.515  34.916  1.00  0.00     0.037 A 
ATOM     59  C   UNL A   1      42.799  27.874  30.391  1.00  0.00     0.049 A 
ATOM     60  C   UNL A   1      41.076  30.683  34.919  1.00  0.00     0.074 A 
ATOM     61  C   UNL A   1      44.008  27.209  30.495  1.00  0.00     0.029 A 
ATOM     62  N   UNL A   1      42.567  28.475  31.621  1.00  0.00    -0.354 N 
ATOM     63  N   UNL A   1      41.615  29.992  33.944  1.00  0.00    -0.248 NA
ATOM     64  C   UNL A   1      41.827  30.625  36.180  1.00  0.00     0.031 C 
ATOM     65  C   UNL A   1      44.481  27.362  31.803  1.00  0.00     0.029 A 
ATOM     66  C   UNL A   1      43.598  28.174  32.497  1.00  0.00     0.049 A 
ATOM     67  H   UNL A   1      41.786  29.033  31.838  1.00  0.00     0.167 HD
ATOM     68  C   UNL A   1      42.780  29.443  34.464  1.00  0.00     0.074 A 
ATOM     69  C   UNL A   1      42.879  29.896  35.836  1.00  0.00     0.031 C 
ATOM     70  C   UNL A   1      43.687  28.638  33.858  1.00  0.00     0.037 A 
BRANCH  57  71
ATOM     71  C   UNL A   1      42.272  27.184  28.021  1.00  0.00     0.064 A 
ATOM     72  C   UNL A   1      41.762  25.898  27.780  1.00  0.00     0.173 A 
ATOM     73  C   UNL A   1      43.103  27.752  27.044  1.00  0.00     0.173 A 
ATOM     74  F   UNL A   1      40.971  25.304  28.686  1.00  0.00    -0.203 F 
ATOM     75  C   UNL A   1      42.096  25.199  26.622  1.00  0.00     0.198 A 
ATOM     76  C   UNL A   1      43.408  27.064  25.871  1.00  0.00     0.198 A 
ATOM     77  F   UNL A   1      43.613  28.981  27.219  1.00  0.00    -0.203 F 
ATOM     78  F   UNL A   1      41.640  23.952  26.438  1.00  0.00    -0.200 F 
ATOM     79  C   UNL A   1      42.912  25.785  25.666  1.00  0.00     0.200 A 
ATOM     80  F   UNL A   1      44.184  27.637  24.942  1.00  0.00    -0.200 F 
ATOM     81  F   UNL A   1      43.226  25.115  24.549  1.00  0.00    -0.200 F 
ENDBRANCH  57  71
BRANCH  58  82
ATOM     82  C   UNL A   1      39.384  32.239  36.138  1.00  0.00     0.064 A 
ATOM     83  C   UNL A   1      38.408  31.696  36.986  1.00  0.00     0.173 A 
ATOM     84  C   UNL A   1      39.922  33.488  36.480  1.00  0.00     0.173 A 
ATOM     85  F   UNL A   1      37.847  30.513  36.691  1.00  0.00    -0.203 F 
ATOM     86  C   UNL A   1      37.969  32.386  38.115  1.00  0.00     0.198 A 
ATOM     87  C   UNL A   1      39.506  34.163  37.626  1.00  0.00     0.198 A 
ATOM     88  F   UNL A   1      40.862  34.049  35.706  1.00  0.00    -0.203 F 
ATOM     89  F   UNL A   1      36.997  31.868  38.878  1.00  0.00    -0.200 F 
ATOM     90  C   UNL A   1      38.522  33.616  38.437  1.00  0.00     0.200 A 
ATOM     91  F   UNL A   1      40.053  35.344  37.942  1.00  0.00    -0.200 F 
ATOM     92  F   UNL A   1      38.102  34.278  39.523  1.00  0.00    -0.200 F 
ENDBRANCH  58  82
BRANCH  70  93
ATOM     93  C   UNL A   1      44.887  28.225  34.661  1.00  0.00     0.064 A 
ATOM     94  C   UNL A   1      44.905  27.037  35.407  1.00  0.00     0.173 A 
ATOM     95  C   UNL A   1      46.051  29.010  34.651  1.00  0.00     0.173 A 
ATOM     96  F   UNL A   1      43.813  26.259  35.463  1.00  0.00    -0.203 F 
ATOM     97  C   UNL A   1      46.032  26.666  36.135  1.00  0.00     0.198 A 
ATOM     98  C   UNL A   1      47.187  28.619  35.352  1.00  0.00     0.198 A 
ATOM     99  F   UNL A   1      46.090  30.152  33.947  1.00  0.00    -0.203 F 
ATOM    100  F   UNL A   1      46.008  25.554  36.883  1.00  0.00    -0.200 F 
ATOM    101  C   UNL A   1      47.174  27.452  36.101  1.00  0.00     0.200 A 
ATOM    102  F   UNL A   1      48.295  29.372  35.304  1.00  0.00    -0.200 F 
ATOM    103  F   UNL A   1      48.261  27.088  36.795  1.00  0.00    -0.200 F 
ENDBRANCH  70  93
ENDBRANCH  44  45
ENDBRANCH  36  39
ENDBRANCH  34  35
ENDBRANCH  33  34
ENDBRANCH  32  33
ENDBRANCH   1  32
TORSDOF 19
ENDMDL
MODEL 3
REMARK VINA RESULT:     -11.9      1.481      7.213
REMARK SMILES COc1ccc(C(=O)C2=C(NCCCCCCNC(=O)c3ccc(-c4c5nc(c(-c6c(F)c(F)c(F)c(F)c6F)c6ccc([nH]6)c(-c6c(F)c(F)c(F)c(F)c6F)c6nc(c(-c7c(F)c(F)c(F)c(F)c7F)c7ccc4[nH]7)C=C6)C=C5)cc3)C(=O)N(CC(=O)[O-])[C@H]2c2ccccc2)cc1
REMARK SMILES IDX 14 1 13 2 12 3 11 4 10 6 9 7 91 8 84 9 86 10 85 11 7 12 8 13
REMARK SMILES IDX 6 14 3 15 4 16 99 17 5 18 98 19 2 20 1 21 92 22 93 23 97 24
REMARK SMILES IDX 94 25 96 26 95 27 87 28 88 29 89 30 90 31 15 32 16 33 17 34
REMARK SMILES IDX 18 35 19 36 20 38 21 39 22 40 83 41 23 42 82 43 24 44 25 45
REMARK SMILES IDX 26 46 76 47 27 48 81 49 75 50 77 51 28 52 80 53 74 54 73 55
REMARK SMILES IDX 29 57 61 58 41 59 60 60 42 61 45 62 59 63 78 64 43 65 44 66
REMARK SMILES IDX 58 68 79 69 46 70 30 71 31 72 39 73 32 74 33 75 37 76 40 77
REMARK SMILES IDX 34 78 35 79 38 80 36 81 62 82 63 83 71 84 64 85 65 86 69 87
REMARK SMILES IDX 72 88 66 89 67 90 70 91 68 92 47 93 48 94 56 95 49 96 50 97
REMARK SMILES IDX 54 98 57 99 51 100 52 101 55 102 53 103
REMARK H PARENT 11 5 18 37 77 56 45 67
REMARK Flexibility Score: inf
ROOT
ATOM      1  C   UNL A   1      32.430  29.385  25.063  1.00  0.00     0.002 C 
ENDROOT
BRANCH   1   2
ATOM      2  C   UNL A   1      32.023  28.006  24.530  1.00  0.00     0.021 C 
BRANCH   2   3
ATOM      3  C   UNL A   1      31.743  27.962  23.028  1.00  0.00     0.113 C 
BRANCH   3   4
ATOM      4  N   UNL A   1      31.666  26.593  22.588  1.00  0.00    -0.380 N 
ATOM      5  H   UNL A   1      31.501  26.474  21.624  1.00  0.00     0.160 HD
BRANCH   4   6
ATOM      6  C   UNL A   1      31.788  25.432  23.302  1.00  0.00     0.110 C 
ATOM      7  C   UNL A   1      32.756  24.543  23.554  1.00  0.00     0.056 C 
ATOM      8  C   UNL A   1      32.359  23.444  24.498  1.00  0.00     0.153 C 
ATOM      9  C   UNL A   1      30.610  24.941  24.091  1.00  0.00     0.271 C 
ATOM     10  N   UNL A   1      30.997  23.826  24.787  1.00  0.00    -0.320 N 
ATOM     11  O   UNL A   1      29.510  25.472  24.093  1.00  0.00    -0.267 OA
BRANCH   7  12
ATOM     12  C   UNL A   1      34.156  24.726  23.137  1.00  0.00     0.193 C 
ATOM     13  O   UNL A   1      34.412  25.498  22.217  1.00  0.00    -0.289 OA
BRANCH  12  14
ATOM     14  C   UNL A   1      35.256  24.005  23.846  1.00  0.00     0.023 A 
ATOM     15  C   UNL A   1      37.111  22.517  25.363  1.00  0.00     0.118 A 
ATOM     16  C   UNL A   1      36.463  23.620  25.921  1.00  0.00     0.047 A 
ATOM     17  C   UNL A   1      36.891  22.212  24.022  1.00  0.00     0.047 A 
ATOM     18  C   UNL A   1      35.533  24.353  25.174  1.00  0.00     0.016 A 
ATOM     19  C   UNL A   1      35.996  22.975  23.263  1.00  0.00     0.016 A 
BRANCH  15  20
ATOM     20  O   UNL A   1      37.930  21.830  26.216  1.00  0.00    -0.497 OA
ATOM     21  C   UNL A   1      39.235  21.525  25.739  1.00  0.00     0.278 C 
ENDBRANCH  15  20
ENDBRANCH  12  14
ENDBRANCH   7  12
BRANCH   8  22
ATOM     22  C   UNL A   1      32.435  22.056  23.880  1.00  0.00    -0.021 A 
ATOM     23  C   UNL A   1      32.916  20.948  24.608  1.00  0.00     0.006 A 
ATOM     24  C   UNL A   1      31.968  21.845  22.575  1.00  0.00     0.006 A 
ATOM     25  C   UNL A   1      32.897  19.667  24.060  1.00  0.00     0.000 A 
ATOM     26  C   UNL A   1      31.964  20.561  22.024  1.00  0.00     0.000 A 
ATOM     27  C   UNL A   1      32.418  19.474  22.768  1.00  0.00     0.000 A 
ENDBRANCH   8  22
BRANCH  10  28
ATOM     28  C   UNL A   1      30.108  23.098  25.682  1.00  0.00     0.173 C 
BRANCH  28  29
ATOM     29  C   UNL A   1      30.443  23.234  27.159  1.00  0.00     0.061 C 
ATOM     30  O   UNL A   1      31.415  23.826  27.606  1.00  0.00    -0.548 OA
ATOM     31  O   UNL A   1      29.521  22.727  28.001  1.00  0.00    -0.548 OA
ENDBRANCH  28  29
ENDBRANCH  10  28
ENDBRANCH   4   6
ENDBRANCH   3   4
ENDBRANCH   2   3
ENDBRANCH   1   2
BRANCH   1  32
ATOM     32  C   UNL A   1      31.705  29.834  26.336  1.00  0.00     0.002 C 
BRANCH  32  33
ATOM     33  C   UNL A   1      31.510  31.346  26.475  1.00  0.00     0.021 C 
BRANCH  33  34
ATOM     34  C   UNL A   1      32.753  32.114  26.907  1.00  0.00     0.116 C 
BRANCH  34  35
ATOM     35  N   UNL A   1      32.459  33.495  27.254  1.00  0.00    -0.352 N 
ATOM     36  C   UNL A   1      33.016  34.283  28.230  1.00  0.00     0.251 C 
ATOM     37  H   UNL A   1      31.760  33.926  26.711  1.00  0.00     0.163 HD
ATOM     38  O   UNL A   1      32.526  35.374  28.500  1.00  0.00    -0.269 OA
BRANCH  36  39
ATOM     39  C   UNL A   1      34.199  33.804  28.977  1.00  0.00     0.039 A 
ATOM     40  C   UNL A   1      34.004  33.028  30.121  1.00  0.00     0.014 A 
ATOM     41  C   UNL A   1      35.493  34.121  28.554  1.00  0.00     0.014 A 
ATOM     42  C   UNL A   1      35.107  32.519  30.809  1.00  0.00     0.010 A 
ATOM     43  C   UNL A   1      36.590  33.552  29.196  1.00  0.00     0.010 A 
ATOM     44  C   UNL A   1      36.408  32.749  30.332  1.00  0.00    -0.014 A 
BRANCH  44  45
ATOM     45  C   UNL A   1      37.590  32.154  31.008  1.00  0.00     0.031 A 
ATOM     46  C   UNL A   1      38.361  31.045  30.349  1.00  0.00     0.074 A 
ATOM     47  C   UNL A   1      37.933  32.573  32.242  1.00  0.00     0.049 A 
ATOM     48  N   UNL A   1      39.378  30.357  30.804  1.00  0.00    -0.248 NA
ATOM     49  C   UNL A   1      37.914  30.637  29.008  1.00  0.00     0.031 C 
ATOM     50  C   UNL A   1      37.236  33.610  33.006  1.00  0.00     0.029 A 
ATOM     51  N   UNL A   1      38.946  32.170  33.077  1.00  0.00    -0.354 N 
ATOM     52  C   UNL A   1      39.681  29.432  29.815  1.00  0.00     0.074 A 
ATOM     53  C   UNL A   1      38.708  29.606  28.759  1.00  0.00     0.031 C 
ATOM     54  C   UNL A   1      37.855  33.778  34.185  1.00  0.00     0.029 A 
ATOM     55  C   UNL A   1      38.964  32.833  34.280  1.00  0.00     0.049 A 
ATOM     56  H   UNL A   1      39.596  31.472  32.836  1.00  0.00     0.167 HD
ATOM     57  C   UNL A   1      40.696  28.533  29.781  1.00  0.00     0.037 A 
ATOM     58  C   UNL A   1      39.778  32.688  35.343  1.00  0.00     0.037 A 
ATOM     59  C   UNL A   1      41.674  28.376  30.825  1.00  0.00     0.049 A 
ATOM     60  C   UNL A   1      40.885  31.670  35.285  1.00  0.00     0.074 A 
ATOM     61  C   UNL A   1      42.771  27.535  30.860  1.00  0.00     0.029 A 
ATOM     62  N   UNL A   1      41.667  29.074  32.026  1.00  0.00    -0.354 N 
ATOM     63  N   UNL A   1      41.207  30.849  34.315  1.00  0.00    -0.248 NA
ATOM     64  C   UNL A   1      41.749  31.564  36.470  1.00  0.00     0.031 C 
ATOM     65  C   UNL A   1      43.398  27.683  32.102  1.00  0.00     0.029 A 
ATOM     66  C   UNL A   1      42.727  28.662  32.818  1.00  0.00     0.049 A 
ATOM     67  H   UNL A   1      41.006  29.760  32.276  1.00  0.00     0.167 HD
ATOM     68  C   UNL A   1      42.324  30.153  34.758  1.00  0.00     0.074 A 
ATOM     69  C   UNL A   1      42.634  30.659  36.079  1.00  0.00     0.031 C 
ATOM     70  C   UNL A   1      43.029  29.181  34.127  1.00  0.00     0.037 A 
BRANCH  57  71
ATOM     71  C   UNL A   1      40.799  27.648  28.572  1.00  0.00     0.064 A 
ATOM     72  C   UNL A   1      41.630  27.975  27.487  1.00  0.00     0.173 A 
ATOM     73  C   UNL A   1      40.091  26.438  28.512  1.00  0.00     0.173 A 
ATOM     74  F   UNL A   1      42.322  29.124  27.489  1.00  0.00    -0.203 F 
ATOM     75  C   UNL A   1      41.722  27.140  26.377  1.00  0.00     0.198 A 
ATOM     76  C   UNL A   1      40.212  25.589  27.414  1.00  0.00     0.198 A 
ATOM     77  F   UNL A   1      39.288  26.073  29.522  1.00  0.00    -0.203 F 
ATOM     78  F   UNL A   1      42.480  27.498  25.331  1.00  0.00    -0.200 F 
ATOM     79  C   UNL A   1      41.019  25.944  26.344  1.00  0.00     0.200 A 
ATOM     80  F   UNL A   1      39.544  24.428  27.391  1.00  0.00    -0.200 F 
ATOM     81  F   UNL A   1      41.115  25.137  25.279  1.00  0.00    -0.200 F 
ENDBRANCH  57  71
BRANCH  58  82
ATOM     82  C   UNL A   1      39.588  33.539  36.547  1.00  0.00     0.064 A 
ATOM     83  C   UNL A   1      38.784  33.109  37.613  1.00  0.00     0.173 A 
ATOM     84  C   UNL A   1      40.194  34.799  36.655  1.00  0.00     0.173 A 
ATOM     85  F   UNL A   1      38.166  31.920  37.548  1.00  0.00    -0.203 F 
ATOM     86  C   UNL A   1      38.574  33.917  38.729  1.00  0.00     0.198 A 
ATOM     87  C   UNL A   1      40.009  35.593  37.785  1.00  0.00     0.198 A 
ATOM     88  F   UNL A   1      40.976  35.256  35.666  1.00  0.00    -0.203 F 
ATOM     89  F   UNL A   1      37.759  33.503  39.709  1.00  0.00    -0.200 F 
ATOM     90  C   UNL A   1      39.191  35.156  38.817  1.00  0.00     0.200 A 
ATOM     91  F   UNL A   1      40.619  36.783  37.873  1.00  0.00    -0.200 F 
ATOM     92  F   UNL A   1      38.991  35.931  39.890  1.00  0.00    -0.200 F 
ENDBRANCH  58  82
BRANCH  70  93
ATOM     93  C   UNL A   1      44.230  28.629  34.839  1.00  0.00     0.064 A 
ATOM     94  C   UNL A   1      44.131  27.551  35.731  1.00  0.00     0.173 A 
ATOM     95  C   UNL A   1      45.506  29.161  34.593  1.00  0.00     0.173 A 
ATOM     96  F   UNL A   1      42.933  27.016  36.013  1.00  0.00    -0.203 F 
ATOM     97  C   UNL A   1      45.259  27.046  36.371  1.00  0.00     0.198 A 
ATOM     98  C   UNL A   1      46.636  28.632  35.208  1.00  0.00     0.198 A 
ATOM     99  F   UNL A   1      45.658  30.188  33.742  1.00  0.00    -0.203 F 
ATOM    100  F   UNL A   1      45.133  26.050  37.260  1.00  0.00    -0.200 F 
ATOM    101  C   UNL A   1      46.510  27.580  36.104  1.00  0.00     0.200 A 
ATOM    102  F   UNL A   1      47.846  29.139  34.936  1.00  0.00    -0.200 F 
ATOM    103  F   UNL A   1      47.597  27.086  36.714  1.00  0.00    -0.200 F 
ENDBRANCH  70  93
ENDBRANCH  44  45
ENDBRANCH  36  39
ENDBRANCH  34  35
ENDBRANCH  33  34
ENDBRANCH  32  33
ENDBRANCH   1  32
TORSDOF 19
ENDMDL
