MODEL 1
REMARK VINA RESULT:     -12.3      0.000      0.000
REMARK SMILES O=C(NCCCCCCNC(=O)c1nn(-c2ccc([N+](=O)[O-])cc2)cc1CCO)c1ccc(-c2c3nc(c(-c4c(F)c(F)c(F)c(F)c4F)c4ccc([nH]4)c(-c4c(F)c(F)c(F)c(F)c4F)c4nc(c(-c5c(F)c(F)c(F)c(F)c5F)c5ccc2[nH]5)C=C4)C=C3)cc1
REMARK SMILES IDX 7 1 6 2 5 3 4 4 3 5 1 6 2 7 30 9 31 10 92 11 32 12 91 13
REMARK SMILES IDX 33 14 34 15 35 16 85 17 36 18 90 19 84 20 86 21 37 22 89 23
REMARK SMILES IDX 83 24 82 25 38 27 70 28 50 29 69 30 51 31 54 32 68 33 87 34
REMARK SMILES IDX 52 35 53 36 67 38 88 39 55 40 39 41 40 42 48 43 41 44 42 45
REMARK SMILES IDX 46 46 49 47 43 48 44 49 47 50 45 51 71 52 72 53 80 54 73 55
REMARK SMILES IDX 74 56 78 57 81 58 75 59 76 60 79 61 77 62 56 63 57 64 65 65
REMARK SMILES IDX 58 66 59 67 63 68 66 69 60 70 61 71 64 72 62 73 8 74 9 75
REMARK SMILES IDX 10 76 11 77 12 79 13 80 14 81 26 82 15 83 25 84 27 85 28 86
REMARK SMILES IDX 29 87 16 89 17 90 24 91 18 92 23 93 19 94 20 95 21 96 22 97
REMARK H PARENT 3 8 86 26 54 37 10 78 29 88
REMARK Flexibility Score: inf
ROOT
ATOM      1  C   UNL A   1      35.977  23.869  25.451  1.00  0.00     0.002 C 
ENDROOT
BRANCH   1   2
ATOM      2  C   UNL A   1      36.141  22.735  24.434  1.00  0.00     0.002 C 
BRANCH   2   3
ATOM      3  C   UNL A   1      37.322  21.781  24.662  1.00  0.00     0.021 C 
BRANCH   3   4
ATOM      4  C   UNL A   1      38.108  22.017  25.950  1.00  0.00     0.116 C 
BRANCH   4   5
ATOM      5  N   UNL A   1      39.540  21.841  25.815  1.00  0.00    -0.352 N 
ATOM      6  O   UNL A   1      41.731  21.960  26.030  1.00  0.00    -0.269 OA
ATOM      7  C   UNL A   1      40.650  22.524  26.225  1.00  0.00     0.251 C 
ATOM      8  H   UNL A   1      39.769  21.032  25.303  1.00  0.00     0.163 HD
BRANCH   7   9
ATOM      9  C   UNL A   1      40.668  23.888  26.828  1.00  0.00     0.039 A 
ATOM     10  C   UNL A   1      39.837  24.954  26.485  1.00  0.00     0.014 A 
ATOM     11  C   UNL A   1      41.627  24.093  27.845  1.00  0.00     0.014 A 
ATOM     12  C   UNL A   1      39.994  26.197  27.108  1.00  0.00     0.010 A 
ATOM     13  C   UNL A   1      41.786  25.330  28.468  1.00  0.00     0.010 A 
ATOM     14  C   UNL A   1      40.978  26.393  28.088  1.00  0.00    -0.014 A 
BRANCH  14  15
ATOM     15  C   UNL A   1      40.976  27.654  28.837  1.00  0.00     0.031 A 
ATOM     16  C   UNL A   1      42.046  28.604  28.413  1.00  0.00     0.074 A 
ATOM     17  C   UNL A   1      40.043  28.042  29.731  1.00  0.00     0.049 A 
ATOM     18  N   UNL A   1      43.035  29.049  29.116  1.00  0.00    -0.248 NA
ATOM     19  C   UNL A   1      42.075  29.029  27.005  1.00  0.00     0.031 C 
ATOM     20  C   UNL A   1      38.770  27.394  30.043  1.00  0.00     0.029 A 
ATOM     21  N   UNL A   1      40.007  29.173  30.505  1.00  0.00    -0.354 N 
ATOM     22  C   UNL A   1      43.725  29.941  28.296  1.00  0.00     0.074 A 
ATOM     23  C   UNL A   1      43.176  29.784  26.976  1.00  0.00     0.031 C 
ATOM     24  C   UNL A   1      38.003  28.236  30.775  1.00  0.00     0.029 A 
ATOM     25  C   UNL A   1      38.773  29.426  31.099  1.00  0.00     0.049 A 
ATOM     26  H   UNL A   1      40.788  29.759  30.630  1.00  0.00     0.167 HD
ATOM     27  C   UNL A   1      44.545  30.891  28.827  1.00  0.00     0.037 A 
ATOM     28  C   UNL A   1      38.399  30.546  31.772  1.00  0.00     0.037 A 
ATOM     29  C   UNL A   1      44.922  30.547  30.176  1.00  0.00     0.049 A 
ATOM     30  C   UNL A   1      39.629  31.256  32.192  1.00  0.00     0.074 A 
ATOM     31  C   UNL A   1      45.589  29.495  30.771  1.00  0.00     0.029 A 
ATOM     32  N   UNL A   1      44.298  31.213  31.199  1.00  0.00    -0.354 N 
ATOM     33  N   UNL A   1      40.438  30.835  33.119  1.00  0.00    -0.248 NA
ATOM     34  C   UNL A   1      40.168  32.270  31.301  1.00  0.00     0.031 C 
ATOM     35  C   UNL A   1      44.944  29.310  32.030  1.00  0.00     0.029 A 
ATOM     36  C   UNL A   1      43.964  30.295  32.154  1.00  0.00     0.049 A 
ATOM     37  H   UNL A   1      44.121  32.181  31.237  1.00  0.00     0.167 HD
ATOM     38  C   UNL A   1      41.697  31.168  32.650  1.00  0.00     0.074 A 
ATOM     39  C   UNL A   1      41.464  32.152  31.598  1.00  0.00     0.031 C 
ATOM     40  C   UNL A   1      42.779  30.399  32.966  1.00  0.00     0.037 A 
BRANCH  27  41
ATOM     41  C   UNL A   1      44.671  32.310  28.307  1.00  0.00     0.064 A 
ATOM     42  C   UNL A   1      45.938  32.764  27.878  1.00  0.00     0.173 A 
ATOM     43  C   UNL A   1      43.715  33.324  28.528  1.00  0.00     0.173 A 
ATOM     44  F   UNL A   1      46.928  31.895  27.626  1.00  0.00    -0.203 F 
ATOM     45  C   UNL A   1      46.257  34.124  27.811  1.00  0.00     0.198 A 
ATOM     46  C   UNL A   1      44.022  34.679  28.409  1.00  0.00     0.198 A 
ATOM     47  F   UNL A   1      42.481  33.063  28.973  1.00  0.00    -0.203 F 
ATOM     48  F   UNL A   1      47.517  34.498  27.554  1.00  0.00    -0.200 F 
ATOM     49  C   UNL A   1      45.302  35.080  28.093  1.00  0.00     0.200 A 
ATOM     50  F   UNL A   1      43.084  35.593  28.696  1.00  0.00    -0.200 F 
ATOM     51  F   UNL A   1      45.623  36.380  28.107  1.00  0.00    -0.200 F 
ENDBRANCH  27  41
BRANCH  28  52
ATOM     52  C   UNL A   1      37.071  31.202  31.886  1.00  0.00     0.064 A 
ATOM     53  C   UNL A   1      36.631  31.751  33.106  1.00  0.00     0.173 A 
ATOM     54  C   UNL A   1      36.351  31.580  30.739  1.00  0.00     0.173 A 
ATOM     55  F   UNL A   1      37.285  31.479  34.245  1.00  0.00    -0.203 F 
ATOM     56  C   UNL A   1      35.563  32.653  33.166  1.00  0.00     0.198 A 
ATOM     57  C   UNL A   1      35.280  32.476  30.802  1.00  0.00     0.198 A 
ATOM     58  F   UNL A   1      36.734  31.169  29.522  1.00  0.00    -0.203 F 
ATOM     59  F   UNL A   1      35.225  33.213  34.337  1.00  0.00    -0.200 F 
ATOM     60  C   UNL A   1      34.898  33.026  32.011  1.00  0.00     0.200 A 
ATOM     61  F   UNL A   1      34.668  32.857  29.672  1.00  0.00    -0.200 F 
ATOM     62  F   UNL A   1      33.923  33.944  32.056  1.00  0.00    -0.200 F 
ENDBRANCH  28  52
BRANCH  40  63
ATOM     63  C   UNL A   1      42.644  29.432  34.106  1.00  0.00     0.064 A 
ATOM     64  C   UNL A   1      42.013  28.179  34.025  1.00  0.00     0.173 A 
ATOM     65  C   UNL A   1      43.287  29.755  35.310  1.00  0.00     0.173 A 
ATOM     66  F   UNL A   1      41.463  27.751  32.880  1.00  0.00    -0.203 F 
ATOM     67  C   UNL A   1      41.988  27.315  35.119  1.00  0.00     0.198 A 
ATOM     68  C   UNL A   1      43.297  28.873  36.385  1.00  0.00     0.198 A 
ATOM     69  F   UNL A   1      43.947  30.919  35.428  1.00  0.00    -0.203 F 
ATOM     70  F   UNL A   1      41.361  26.133  35.028  1.00  0.00    -0.200 F 
ATOM     71  C   UNL A   1      42.635  27.661  36.295  1.00  0.00     0.200 A 
ATOM     72  F   UNL A   1      43.968  29.191  37.500  1.00  0.00    -0.200 F 
ATOM     73  F   UNL A   1      42.644  26.812  37.332  1.00  0.00    -0.200 F 
ENDBRANCH  40  63
ENDBRANCH  14  15
ENDBRANCH   7   9
ENDBRANCH   4   5
ENDBRANCH   3   4
ENDBRANCH   2   3
ENDBRANCH   1   2
BRANCH   1  74
ATOM     74  C   UNL A   1      34.673  23.869  26.257  1.00  0.00     0.021 C 
BRANCH  74  75
ATOM     75  C   UNL A   1      33.667  24.964  25.889  1.00  0.00     0.116 C 
BRANCH  75  76
ATOM     76  N   UNL A   1      32.363  24.742  26.490  1.00  0.00    -0.351 N 
ATOM     77  C   UNL A   1      31.464  23.726  26.247  1.00  0.00     0.272 C 
ATOM     78  H   UNL A   1      32.083  25.407  27.160  1.00  0.00     0.163 HD
ATOM     79  O   UNL A   1      30.355  23.755  26.772  1.00  0.00    -0.267 OA
BRANCH  77  80
ATOM     80  C   UNL A   1      31.845  22.665  25.309  1.00  0.00     0.153 A 
ATOM     81  N   UNL A   1      32.059  21.405  25.724  1.00  0.00    -0.162 NA
ATOM     82  C   UNL A   1      32.001  22.777  23.896  1.00  0.00     0.006 A 
ATOM     83  N   UNL A   1      32.546  20.763  24.645  1.00  0.00    -0.240 N 
ATOM     84  C   UNL A   1      32.538  21.559  23.526  1.00  0.00     0.119 A 
BRANCH  82  85
ATOM     85  C   UNL A   1      31.730  23.957  23.013  1.00  0.00     0.068 C 
BRANCH  85  86
ATOM     86  C   UNL A   1      32.799  24.174  21.935  1.00  0.00     0.161 C 
BRANCH  86  87
ATOM     87  O   UNL A   1      33.997  24.715  22.476  1.00  0.00    -0.396 OA
ATOM     88  H   UNL A   1      34.754  24.186  22.180  1.00  0.00     0.210 HD
ENDBRANCH  86  87
ENDBRANCH  85  86
ENDBRANCH  82  85
BRANCH  83  89
ATOM     89  C   UNL A   1      33.032  19.440  24.763  1.00  0.00     0.065 A 
ATOM     90  C   UNL A   1      32.190  18.450  25.294  1.00  0.00     0.035 A 
ATOM     91  C   UNL A   1      34.346  19.133  24.388  1.00  0.00     0.035 A 
ATOM     92  C   UNL A   1      32.651  17.138  25.420  1.00  0.00     0.088 A 
ATOM     93  C   UNL A   1      34.828  17.833  24.569  1.00  0.00     0.088 A 
ATOM     94  C   UNL A   1      33.974  16.838  25.071  1.00  0.00     0.269 A 
BRANCH  94  95
ATOM     95  N   UNL A   1      34.476  15.467  25.239  1.00  0.00     0.062 N 
ATOM     96  O   UNL A   1      33.642  14.557  25.332  1.00  0.00    -0.258 OA
ATOM     97  O   UNL A   1      35.703  15.306  25.277  1.00  0.00    -0.258 OA
ENDBRANCH  94  95
ENDBRANCH  83  89
ENDBRANCH  77  80
ENDBRANCH  75  76
ENDBRANCH  74  75
ENDBRANCH   1  74
TORSDOF 18
ENDMDL
MODEL 2
REMARK VINA RESULT:     -12.2      3.358      8.542
REMARK SMILES O=C(NCCCCCCNC(=O)c1nn(-c2ccc([N+](=O)[O-])cc2)cc1CCO)c1ccc(-c2c3nc(c(-c4c(F)c(F)c(F)c(F)c4F)c4ccc([nH]4)c(-c4c(F)c(F)c(F)c(F)c4F)c4nc(c(-c5c(F)c(F)c(F)c(F)c5F)c5ccc2[nH]5)C=C4)C=C3)cc1
REMARK SMILES IDX 7 1 6 2 5 3 4 4 3 5 1 6 2 7 30 9 31 10 92 11 32 12 91 13
REMARK SMILES IDX 33 14 34 15 35 16 85 17 36 18 90 19 84 20 86 21 37 22 89 23
REMARK SMILES IDX 83 24 82 25 38 27 70 28 50 29 69 30 51 31 54 32 68 33 87 34
REMARK SMILES IDX 52 35 53 36 67 38 88 39 55 40 39 41 40 42 48 43 41 44 42 45
REMARK SMILES IDX 46 46 49 47 43 48 44 49 47 50 45 51 71 52 72 53 80 54 73 55
REMARK SMILES IDX 74 56 78 57 81 58 75 59 76 60 79 61 77 62 56 63 57 64 65 65
REMARK SMILES IDX 58 66 59 67 63 68 66 69 60 70 61 71 64 72 62 73 8 74 9 75
REMARK SMILES IDX 10 76 11 77 12 79 13 80 14 81 26 82 15 83 25 84 27 85 28 86
REMARK SMILES IDX 29 87 16 89 17 90 24 91 18 92 23 93 19 94 20 95 21 96 22 97
REMARK H PARENT 3 8 86 26 54 37 10 78 29 88
REMARK Flexibility Score: inf
ROOT
ATOM      1  C   UNL A   1      35.440  30.256  27.654  1.00  0.00     0.002 C 
ENDROOT
BRANCH   1   2
ATOM      2  C   UNL A   1      35.546  31.771  27.857  1.00  0.00     0.002 C 
BRANCH   2   3
ATOM      3  C   UNL A   1      34.254  32.496  28.262  1.00  0.00     0.021 C 
BRANCH   3   4
ATOM      4  C   UNL A   1      34.435  33.637  29.260  1.00  0.00     0.116 C 
BRANCH   4   5
ATOM      5  N   UNL A   1      34.316  33.239  30.648  1.00  0.00    -0.352 N 
ATOM      6  O   UNL A   1      34.701  32.574  32.715  1.00  0.00    -0.269 OA
ATOM      7  C   UNL A   1      35.118  32.601  31.553  1.00  0.00     0.251 C 
ATOM      8  H   UNL A   1      33.445  33.487  31.033  1.00  0.00     0.163 HD
BRANCH   7   9
ATOM      9  C   UNL A   1      36.402  31.905  31.250  1.00  0.00     0.039 A 
ATOM     10  C   UNL A   1      37.632  32.512  31.000  1.00  0.00     0.014 A 
ATOM     11  C   UNL A   1      36.339  30.494  31.223  1.00  0.00     0.014 A 
ATOM     12  C   UNL A   1      38.751  31.734  30.687  1.00  0.00     0.010 A 
ATOM     13  C   UNL A   1      37.452  29.715  30.912  1.00  0.00     0.010 A 
ATOM     14  C   UNL A   1      38.660  30.335  30.625  1.00  0.00    -0.014 A 
BRANCH  14  15
ATOM     15  C   UNL A   1      39.898  29.562  30.478  1.00  0.00     0.031 A 
ATOM     16  C   UNL A   1      40.617  29.333  31.765  1.00  0.00     0.074 A 
ATOM     17  C   UNL A   1      40.327  28.963  29.347  1.00  0.00     0.049 A 
ATOM     18  N   UNL A   1      41.795  29.749  32.100  1.00  0.00    -0.248 NA
ATOM     19  C   UNL A   1      39.898  28.645  32.847  1.00  0.00     0.031 C 
ATOM     20  C   UNL A   1      39.612  28.811  28.081  1.00  0.00     0.029 A 
ATOM     21  N   UNL A   1      41.493  28.276  29.124  1.00  0.00    -0.354 N 
ATOM     22  C   UNL A   1      42.039  29.239  33.374  1.00  0.00     0.074 A 
ATOM     23  C   UNL A   1      40.793  28.690  33.836  1.00  0.00     0.031 C 
ATOM     24  C   UNL A   1      40.262  27.914  27.301  1.00  0.00     0.029 A 
ATOM     25  C   UNL A   1      41.504  27.528  27.950  1.00  0.00     0.049 A 
ATOM     26  H   UNL A   1      42.258  28.309  29.742  1.00  0.00     0.167 HD
ATOM     27  C   UNL A   1      43.310  29.122  33.850  1.00  0.00     0.037 A 
ATOM     28  C   UNL A   1      42.445  26.628  27.558  1.00  0.00     0.037 A 
ATOM     29  C   UNL A   1      44.215  29.966  33.109  1.00  0.00     0.049 A 
ATOM     30  C   UNL A   1      43.683  26.903  28.322  1.00  0.00     0.074 A 
ATOM     31  C   UNL A   1      44.323  31.322  32.873  1.00  0.00     0.029 A 
ATOM     32  N   UNL A   1      45.029  29.365  32.183  1.00  0.00    -0.354 N 
ATOM     33  N   UNL A   1      44.443  27.943  28.139  1.00  0.00    -0.248 NA
ATOM     34  C   UNL A   1      43.882  26.194  29.575  1.00  0.00     0.031 C 
ATOM     35  C   UNL A   1      44.805  31.429  31.534  1.00  0.00     0.029 A 
ATOM     36  C   UNL A   1      45.021  30.136  31.056  1.00  0.00     0.049 A 
ATOM     37  H   UNL A   1      45.530  28.527  32.309  1.00  0.00     0.167 HD
ATOM     38  C   UNL A   1      44.863  28.287  29.412  1.00  0.00     0.074 A 
ATOM     39  C   UNL A   1      44.592  27.112  30.233  1.00  0.00     0.031 C 
ATOM     40  C   UNL A   1      45.120  29.590  29.726  1.00  0.00     0.037 A 
BRANCH  27  41
ATOM     41  C   UNL A   1      43.815  27.961  34.685  1.00  0.00     0.064 A 
ATOM     42  C   UNL A   1      43.644  26.648  34.193  1.00  0.00     0.173 A 
ATOM     43  C   UNL A   1      44.133  28.049  36.057  1.00  0.00     0.173 A 
ATOM     44  F   UNL A   1      43.347  26.433  32.902  1.00  0.00    -0.203 F 
ATOM     45  C   UNL A   1      43.654  25.531  35.034  1.00  0.00     0.198 A 
ATOM     46  C   UNL A   1      44.195  26.927  36.883  1.00  0.00     0.198 A 
ATOM     47  F   UNL A   1      44.289  29.220  36.684  1.00  0.00    -0.203 F 
ATOM     48  F   UNL A   1      43.328  24.328  34.545  1.00  0.00    -0.200 F 
ATOM     49  C   UNL A   1      43.914  25.675  36.383  1.00  0.00     0.200 A 
ATOM     50  F   UNL A   1      44.441  27.088  38.192  1.00  0.00    -0.200 F 
ATOM     51  F   UNL A   1      43.847  24.620  37.205  1.00  0.00    -0.200 F 
ENDBRANCH  27  41
BRANCH  28  52
ATOM     52  C   UNL A   1      42.312  25.386  26.754  1.00  0.00     0.064 A 
ATOM     53  C   UNL A   1      43.170  25.125  25.668  1.00  0.00     0.173 A 
ATOM     54  C   UNL A   1      41.558  24.297  27.225  1.00  0.00     0.173 A 
ATOM     55  F   UNL A   1      43.958  26.094  25.180  1.00  0.00    -0.203 F 
ATOM     56  C   UNL A   1      43.294  23.845  25.117  1.00  0.00     0.198 A 
ATOM     57  C   UNL A   1      41.678  23.020  26.670  1.00  0.00     0.198 A 
ATOM     58  F   UNL A   1      40.767  24.425  28.300  1.00  0.00    -0.203 F 
ATOM     59  F   UNL A   1      44.179  23.622  24.134  1.00  0.00    -0.200 F 
ATOM     60  C   UNL A   1      42.558  22.790  25.629  1.00  0.00     0.200 A 
ATOM     61  F   UNL A   1      40.988  22.000  27.198  1.00  0.00    -0.200 F 
ATOM     62  F   UNL A   1      42.728  21.549  25.151  1.00  0.00    -0.200 F 
ENDBRANCH  28  52
BRANCH  40  63
ATOM     63  C   UNL A   1      45.299  30.562  28.598  1.00  0.00     0.064 A 
ATOM     64  C   UNL A   1      44.250  31.212  27.924  1.00  0.00     0.173 A 
ATOM     65  C   UNL A   1      46.610  30.933  28.263  1.00  0.00     0.173 A 
ATOM     66  F   UNL A   1      42.970  30.990  28.255  1.00  0.00    -0.203 F 
ATOM     67  C   UNL A   1      44.509  32.150  26.926  1.00  0.00     0.198 A 
ATOM     68  C   UNL A   1      46.864  31.901  27.298  1.00  0.00     0.198 A 
ATOM     69  F   UNL A   1      47.650  30.381  28.908  1.00  0.00    -0.203 F 
ATOM     70  F   UNL A   1      43.494  32.741  26.280  1.00  0.00    -0.200 F 
ATOM     71  C   UNL A   1      45.815  32.498  26.620  1.00  0.00     0.200 A 
ATOM     72  F   UNL A   1      48.126  32.269  27.042  1.00  0.00    -0.200 F 
ATOM     73  F   UNL A   1      46.062  33.430  25.688  1.00  0.00    -0.200 F 
ENDBRANCH  40  63
ENDBRANCH  14  15
ENDBRANCH   7   9
ENDBRANCH   4   5
ENDBRANCH   3   4
ENDBRANCH   2   3
ENDBRANCH   1   2
BRANCH   1  74
ATOM     74  C   UNL A   1      34.057  29.721  27.266  1.00  0.00     0.021 C 
BRANCH  74  75
ATOM     75  C   UNL A   1      34.051  28.551  26.279  1.00  0.00     0.116 C 
BRANCH  75  76
ATOM     76  N   UNL A   1      34.200  28.989  24.901  1.00  0.00    -0.351 N 
ATOM     77  C   UNL A   1      33.615  28.470  23.765  1.00  0.00     0.272 C 
ATOM     78  H   UNL A   1      34.797  29.757  24.760  1.00  0.00     0.163 HD
ATOM     79  O   UNL A   1      33.940  28.901  22.663  1.00  0.00    -0.267 OA
BRANCH  77  80
ATOM     80  C   UNL A   1      32.662  27.366  23.910  1.00  0.00     0.153 A 
ATOM     81  N   UNL A   1      33.076  26.112  24.161  1.00  0.00    -0.162 NA
ATOM     82  C   UNL A   1      31.240  27.440  23.853  1.00  0.00     0.006 A 
ATOM     83  N   UNL A   1      31.965  25.355  24.061  1.00  0.00    -0.240 N 
ATOM     84  C   UNL A   1      30.840  26.117  23.863  1.00  0.00     0.119 A 
BRANCH  82  85
ATOM     85  C   UNL A   1      30.367  28.651  23.728  1.00  0.00     0.068 C 
BRANCH  85  86
ATOM     86  C   UNL A   1      30.086  29.058  22.277  1.00  0.00     0.161 C 
BRANCH  86  87
ATOM     87  O   UNL A   1      31.149  29.825  21.726  1.00  0.00    -0.396 OA
ATOM     88  H   UNL A   1      31.741  30.116  22.436  1.00  0.00     0.210 HD
ENDBRANCH  86  87
ENDBRANCH  85  86
ENDBRANCH  82  85
BRANCH  83  89
ATOM     89  C   UNL A   1      32.058  23.945  24.113  1.00  0.00     0.065 A 
ATOM     90  C   UNL A   1      32.638  23.260  23.034  1.00  0.00     0.035 A 
ATOM     91  C   UNL A   1      31.546  23.242  25.211  1.00  0.00     0.035 A 
ATOM     92  C   UNL A   1      32.738  21.868  23.065  1.00  0.00     0.088 A 
ATOM     93  C   UNL A   1      31.593  21.844  25.218  1.00  0.00     0.088 A 
ATOM     94  C   UNL A   1      32.201  21.164  24.151  1.00  0.00     0.269 A 
BRANCH  94  95
ATOM     95  N   UNL A   1      32.269  19.697  24.170  1.00  0.00     0.062 N 
ATOM     96  O   UNL A   1      32.292  19.136  25.274  1.00  0.00    -0.258 OA
ATOM     97  O   UNL A   1      32.299  19.109  23.080  1.00  0.00    -0.258 OA
ENDBRANCH  94  95
ENDBRANCH  83  89
ENDBRANCH  77  80
ENDBRANCH  75  76
ENDBRANCH  74  75
ENDBRANCH   1  74
TORSDOF 18
ENDMDL
MODEL 3
REMARK VINA RESULT:     -12.2      3.214      5.633
REMARK SMILES O=C(NCCCCCCNC(=O)c1nn(-c2ccc([N+](=O)[O-])cc2)cc1CCO)c1ccc(-c2c3nc(c(-c4c(F)c(F)c(F)c(F)c4F)c4ccc([nH]4)c(-c4c(F)c(F)c(F)c(F)c4F)c4nc(c(-c5c(F)c(F)c(F)c(F)c5F)c5ccc2[nH]5)C=C4)C=C3)cc1
REMARK SMILES IDX 7 1 6 2 5 3 4 4 3 5 1 6 2 7 30 9 31 10 92 11 32 12 91 13
REMARK SMILES IDX 33 14 34 15 35 16 85 17 36 18 90 19 84 20 86 21 37 22 89 23
REMARK SMILES IDX 83 24 82 25 38 27 70 28 50 29 69 30 51 31 54 32 68 33 87 34
REMARK SMILES IDX 52 35 53 36 67 38 88 39 55 40 39 41 40 42 48 43 41 44 42 45
REMARK SMILES IDX 46 46 49 47 43 48 44 49 47 50 45 51 71 52 72 53 80 54 73 55
REMARK SMILES IDX 74 56 78 57 81 58 75 59 76 60 79 61 77 62 56 63 57 64 65 65
REMARK SMILES IDX 58 66 59 67 63 68 66 69 60 70 61 71 64 72 62 73 8 74 9 75
REMARK SMILES IDX 10 76 11 77 12 79 13 80 14 81 26 82 15 83 25 84 27 85 28 86
REMARK SMILES IDX 29 87 16 89 17 90 24 91 18 92 23 93 19 94 20 95 21 96 22 97
REMARK H PARENT 3 8 86 26 54 37 10 78 29 88
REMARK Flexibility Score: inf
ROOT
ATOM      1  C   UNL A   1      35.326  23.762  23.913  1.00  0.00     0.002 C 
ENDROOT
BRANCH   1   2
ATOM      2  C   UNL A   1      34.835  22.331  24.155  1.00  0.00     0.002 C 
BRANCH   2   3
ATOM      3  C   UNL A   1      35.776  21.413  24.950  1.00  0.00     0.021 C 
BRANCH   3   4
ATOM      4  C   UNL A   1      36.853  22.132  25.759  1.00  0.00     0.116 C 
BRANCH   4   5
ATOM      5  N   UNL A   1      38.165  21.523  25.678  1.00  0.00    -0.352 N 
ATOM      6  O   UNL A   1      40.266  20.939  26.000  1.00  0.00    -0.269 OA
ATOM      7  C   UNL A   1      39.405  21.804  26.180  1.00  0.00     0.251 C 
ATOM      8  H   UNL A   1      38.163  20.707  25.127  1.00  0.00     0.163 HD
BRANCH   7   9
ATOM      9  C   UNL A   1      39.807  23.065  26.869  1.00  0.00     0.039 A 
ATOM     10  C   UNL A   1      40.948  23.253  27.648  1.00  0.00     0.014 A 
ATOM     11  C   UNL A   1      38.932  24.160  26.696  1.00  0.00     0.014 A 
ATOM     12  C   UNL A   1      41.179  24.483  28.272  1.00  0.00     0.010 A 
ATOM     13  C   UNL A   1      39.159  25.388  27.316  1.00  0.00     0.010 A 
ATOM     14  C   UNL A   1      40.278  25.548  28.121  1.00  0.00    -0.014 A 
BRANCH  14  15
ATOM     15  C   UNL A   1      40.662  26.865  28.640  1.00  0.00     0.031 A 
ATOM     16  C   UNL A   1      41.909  27.409  28.029  1.00  0.00     0.074 A 
ATOM     17  C   UNL A   1      39.930  27.630  29.478  1.00  0.00     0.049 A 
ATOM     18  N   UNL A   1      43.029  27.676  28.618  1.00  0.00    -0.248 NA
ATOM     19  C   UNL A   1      41.948  27.579  26.569  1.00  0.00     0.031 C 
ATOM     20  C   UNL A   1      38.557  27.409  29.931  1.00  0.00     0.029 A 
ATOM     21  N   UNL A   1      40.248  28.837  30.044  1.00  0.00    -0.354 N 
ATOM     22  C   UNL A   1      43.867  28.204  27.637  1.00  0.00     0.074 A 
ATOM     23  C   UNL A   1      43.202  27.993  26.380  1.00  0.00     0.031 C 
ATOM     24  C   UNL A   1      38.093  28.534  30.526  1.00  0.00     0.029 A 
ATOM     25  C   UNL A   1      39.170  29.506  30.618  1.00  0.00     0.049 A 
ATOM     26  H   UNL A   1      41.163  29.201  30.045  1.00  0.00     0.167 HD
ATOM     27  C   UNL A   1      44.944  28.969  27.973  1.00  0.00     0.037 A 
ATOM     28  C   UNL A   1      39.153  30.779  31.096  1.00  0.00     0.037 A 
ATOM     29  C   UNL A   1      45.314  28.756  29.351  1.00  0.00     0.049 A 
ATOM     30  C   UNL A   1      40.554  31.186  31.354  1.00  0.00     0.074 A 
ATOM     31  C   UNL A   1      45.724  27.672  30.102  1.00  0.00     0.029 A 
ATOM     32  N   UNL A   1      44.963  29.721  30.259  1.00  0.00    -0.354 N 
ATOM     33  N   UNL A   1      41.289  30.716  32.318  1.00  0.00    -0.248 NA
ATOM     34  C   UNL A   1      41.274  31.860  30.286  1.00  0.00     0.031 C 
ATOM     35  C   UNL A   1      45.145  27.873  31.391  1.00  0.00     0.029 A 
ATOM     36  C   UNL A   1      44.470  29.093  31.368  1.00  0.00     0.049 A 
ATOM     37  H   UNL A   1      45.050  30.694  30.134  1.00  0.00     0.167 HD
ATOM     38  C   UNL A   1      42.554  30.616  31.765  1.00  0.00     0.074 A 
ATOM     39  C   UNL A   1      42.511  31.445  30.565  1.00  0.00     0.031 C 
ATOM     40  C   UNL A   1      43.415  29.643  32.181  1.00  0.00     0.037 A 
BRANCH  27  41
ATOM     41  C   UNL A   1      45.400  30.198  27.212  1.00  0.00     0.064 A 
ATOM     42  C   UNL A   1      46.785  30.405  27.026  1.00  0.00     0.173 A 
ATOM     43  C   UNL A   1      44.589  31.327  26.967  1.00  0.00     0.173 A 
ATOM     44  F   UNL A   1      47.659  29.405  27.219  1.00  0.00    -0.203 F 
ATOM     45  C   UNL A   1      47.319  31.668  26.753  1.00  0.00     0.198 A 
ATOM     46  C   UNL A   1      45.122  32.574  26.643  1.00  0.00     0.198 A 
ATOM     47  F   UNL A   1      43.262  31.307  27.135  1.00  0.00    -0.203 F 
ATOM     48  F   UNL A   1      48.647  31.840  26.745  1.00  0.00    -0.200 F 
ATOM     49  C   UNL A   1      46.486  32.755  26.578  1.00  0.00     0.200 A 
ATOM     50  F   UNL A   1      44.297  33.620  26.485  1.00  0.00    -0.200 F 
ATOM     51  F   UNL A   1      46.995  33.980  26.395  1.00  0.00    -0.200 F 
ENDBRANCH  27  41
BRANCH  28  52
ATOM     52  C   UNL A   1      38.056  31.779  31.130  1.00  0.00     0.064 A 
ATOM     53  C   UNL A   1      37.454  32.240  29.942  1.00  0.00     0.173 A 
ATOM     54  C   UNL A   1      37.369  32.060  32.324  1.00  0.00     0.173 A 
ATOM     55  F   UNL A   1      38.016  31.981  28.753  1.00  0.00    -0.203 F 
ATOM     56  C   UNL A   1      36.222  32.904  29.950  1.00  0.00     0.198 A 
ATOM     57  C   UNL A   1      36.143  32.729  32.331  1.00  0.00     0.198 A 
ATOM     58  F   UNL A   1      37.822  31.601  33.499  1.00  0.00    -0.203 F 
ATOM     59  F   UNL A   1      35.646  33.260  28.792  1.00  0.00    -0.200 F 
ATOM     60  C   UNL A   1      35.561  33.135  31.144  1.00  0.00     0.200 A 
ATOM     61  F   UNL A   1      35.494  32.914  33.489  1.00  0.00    -0.200 F 
ATOM     62  F   UNL A   1      34.348  33.706  31.149  1.00  0.00    -0.200 F 
ENDBRANCH  28  52
BRANCH  40  63
ATOM     63  C   UNL A   1      43.114  28.944  33.475  1.00  0.00     0.064 A 
ATOM     64  C   UNL A   1      42.223  27.867  33.616  1.00  0.00     0.173 A 
ATOM     65  C   UNL A   1      43.855  29.322  34.604  1.00  0.00     0.173 A 
ATOM     66  F   UNL A   1      41.551  27.379  32.564  1.00  0.00    -0.203 F 
ATOM     67  C   UNL A   1      42.049  27.235  34.846  1.00  0.00     0.198 A 
ATOM     68  C   UNL A   1      43.712  28.661  35.819  1.00  0.00     0.198 A 
ATOM     69  F   UNL A   1      44.757  30.313  34.515  1.00  0.00    -0.203 F 
ATOM     70  F   UNL A   1      41.176  26.224  34.965  1.00  0.00    -0.200 F 
ATOM     71  C   UNL A   1      42.799  27.629  35.944  1.00  0.00     0.200 A 
ATOM     72  F   UNL A   1      44.475  29.013  36.861  1.00  0.00    -0.200 F 
ATOM     73  F   UNL A   1      42.660  26.994  37.116  1.00  0.00    -0.200 F 
ENDBRANCH  40  63
ENDBRANCH  14  15
ENDBRANCH   7   9
ENDBRANCH   4   5
ENDBRANCH   3   4
ENDBRANCH   2   3
ENDBRANCH   1   2
BRANCH   1  74
ATOM     74  C   UNL A   1      34.547  24.873  24.625  1.00  0.00     0.021 C 
BRANCH  74  75
ATOM     75  C   UNL A   1      33.142  25.150  24.082  1.00  0.00     0.116 C 
BRANCH  75  76
ATOM     76  N   UNL A   1      32.101  24.782  25.027  1.00  0.00    -0.351 N 
ATOM     77  C   UNL A   1      31.209  25.600  25.688  1.00  0.00     0.272 C 
ATOM     78  H   UNL A   1      32.021  23.821  25.221  1.00  0.00     0.163 HD
ATOM     79  O   UNL A   1      30.462  25.124  26.538  1.00  0.00    -0.267 OA
BRANCH  77  80
ATOM     80  C   UNL A   1      31.228  27.036  25.395  1.00  0.00     0.153 A 
ATOM     81  N   UNL A   1      30.245  27.621  24.688  1.00  0.00    -0.162 NA
ATOM     82  C   UNL A   1      32.201  27.990  25.813  1.00  0.00     0.006 A 
ATOM     83  N   UNL A   1      30.674  28.880  24.474  1.00  0.00    -0.240 N 
ATOM     84  C   UNL A   1      31.856  29.138  25.125  1.00  0.00     0.119 A 
BRANCH  82  85
ATOM     85  C   UNL A   1      33.378  27.794  26.719  1.00  0.00     0.068 C 
BRANCH  85  86
ATOM     86  C   UNL A   1      34.252  29.045  26.869  1.00  0.00     0.161 C 
BRANCH  86  87
ATOM     87  O   UNL A   1      33.815  29.873  27.940  1.00  0.00    -0.396 OA
ATOM     88  H   UNL A   1      34.540  29.993  28.572  1.00  0.00     0.210 HD
ENDBRANCH  86  87
ENDBRANCH  85  86
ENDBRANCH  82  85
BRANCH  83  89
ATOM     89  C   UNL A   1      29.949  29.743  23.621  1.00  0.00     0.065 A 
ATOM     90  C   UNL A   1      29.577  29.286  22.347  1.00  0.00     0.035 A 
ATOM     91  C   UNL A   1      29.640  31.047  24.029  1.00  0.00     0.035 A 
ATOM     92  C   UNL A   1      28.861  30.123  21.488  1.00  0.00     0.088 A 
ATOM     93  C   UNL A   1      28.976  31.906  23.148  1.00  0.00     0.088 A 
ATOM     94  C   UNL A   1      28.577  31.436  21.887  1.00  0.00     0.269 A 
BRANCH  94  95
ATOM     95  N   UNL A   1      27.859  32.333  20.971  1.00  0.00     0.062 N 
ATOM     96  O   UNL A   1      27.519  31.879  19.870  1.00  0.00    -0.258 OA
ATOM     97  O   UNL A   1      27.638  33.489  21.356  1.00  0.00    -0.258 OA
ENDBRANCH  94  95
ENDBRANCH  83  89
ENDBRANCH  77  80
ENDBRANCH  75  76
ENDBRANCH  74  75
ENDBRANCH   1  74
TORSDOF 18
ENDMDL
