MODEL 1
REMARK VINA RESULT:     -13.8      0.000      0.000
REMARK SMILES COc1ccc(-c2cc(CC3(C(=O)NCCCCCCNC(=O)c4ccc(-c5c6nc(c(-c7c(F)c(F)c(F)c(F)c7F)c7ccc([nH]7)c(-c7c(F)c(F)c(F)c(F)c7F)c7nc(c(-c8c(F)c(F)c(F)c(F)c8F)c8ccc5[nH]8)C=C7)C=C6)cc4)CCN(C(=O)C4CCCC4)CC3)on2)cc1
REMARK SMILES IDX 16 1 15 2 14 3 12 4 13 5 11 7 87 8 98 9 88 10 97 11 89 12
REMARK SMILES IDX 90 13 91 14 10 15 9 16 7 17 8 18 100 19 99 20 6 21 3 22 4 23
REMARK SMILES IDX 102 24 5 25 101 26 2 27 1 28 92 29 93 30 96 31 94 32 95 33
REMARK SMILES IDX 17 34 18 35 19 36 20 37 21 38 22 39 23 41 24 42 25 43 86 44
REMARK SMILES IDX 26 45 85 46 27 47 28 48 29 49 79 50 30 51 84 52 78 53 80 54
REMARK SMILES IDX 31 55 83 56 77 57 76 58 32 60 64 61 44 62 63 63 45 64 48 65
REMARK SMILES IDX 62 66 81 67 46 68 47 69 61 71 82 72 49 73 33 74 34 75 42 76
REMARK SMILES IDX 35 77 36 78 40 79 43 80 37 81 38 82 41 83 39 84 65 85 66 86
REMARK SMILES IDX 74 87 67 88 68 89 72 90 75 91 69 92 70 93 73 94 71 95 50 96
REMARK SMILES IDX 51 97 59 98 52 99 53 100 57 101 60 102 54 103 55 104 58 105
REMARK SMILES IDX 56 106
REMARK H PARENT 14 6 21 40 80 59 48 70
REMARK Flexibility Score: inf
ROOT
ATOM      1  C   UNL A   1      32.908  28.593  27.083  1.00  0.00     0.021 C 
ENDROOT
BRANCH   1   2
ATOM      2  C   UNL A   1      32.536  27.405  26.198  1.00  0.00     0.116 C 
BRANCH   2   3
ATOM      3  N   UNL A   1      33.670  26.513  26.025  1.00  0.00    -0.356 N 
ATOM      4  C   UNL A   1      33.922  25.527  25.122  1.00  0.00     0.226 C 
ATOM      5  O   UNL A   1      34.977  24.906  25.284  1.00  0.00    -0.274 OA
ATOM      6  H   UNL A   1      34.388  26.647  26.684  1.00  0.00     0.163 HD
BRANCH   4   7
ATOM      7  C   UNL A   1      32.977  25.231  23.932  1.00  0.00     0.060 C 
ATOM      8  C   UNL A   1      31.669  24.583  24.468  1.00  0.00     0.039 C 
ATOM      9  C   UNL A   1      32.773  26.569  23.168  1.00  0.00     0.039 C 
ATOM     10  C   UNL A   1      30.384  24.924  23.716  1.00  0.00     0.120 C 
ATOM     11  C   UNL A   1      31.452  26.700  22.427  1.00  0.00     0.120 C 
ATOM     12  N   UNL A   1      30.328  26.308  23.261  1.00  0.00    -0.342 N 
ATOM     13  C   UNL A   1      29.149  27.014  23.455  1.00  0.00     0.225 C 
ATOM     14  O   UNL A   1      28.212  26.524  24.096  1.00  0.00    -0.275 OA
BRANCH   7  15
ATOM     15  C   UNL A   1      33.746  24.210  23.028  1.00  0.00     0.095 C 
BRANCH  15  16
ATOM     16  C   UNL A   1      33.303  22.804  23.157  1.00  0.00     0.138 A 
ATOM     17  C   UNL A   1      32.900  20.665  23.484  1.00  0.00     0.114 A 
ATOM     18  C   UNL A   1      33.726  21.733  23.906  1.00  0.00     0.077 A 
ATOM     19  N   UNL A   1      32.017  21.075  22.564  1.00  0.00    -0.080 NA
ATOM     20  O   UNL A   1      32.245  22.425  22.396  1.00  0.00    -0.361 OA
BRANCH  17  21
ATOM     21  C   UNL A   1      32.915  19.298  23.958  1.00  0.00     0.004 A 
ATOM     22  C   UNL A   1      33.048  16.655  24.846  1.00  0.00     0.118 A 
ATOM     23  C   UNL A   1      32.709  17.674  25.738  1.00  0.00     0.047 A 
ATOM     24  C   UNL A   1      33.270  16.949  23.501  1.00  0.00     0.047 A 
ATOM     25  C   UNL A   1      32.656  19.000  25.300  1.00  0.00     0.014 A 
ATOM     26  C   UNL A   1      33.207  18.269  23.058  1.00  0.00     0.014 A 
BRANCH  22  27
ATOM     27  O   UNL A   1      33.097  15.388  25.361  1.00  0.00    -0.497 OA
ATOM     28  C   UNL A   1      31.951  15.050  26.143  1.00  0.00     0.278 C 
ENDBRANCH  22  27
ENDBRANCH  17  21
ENDBRANCH  15  16
ENDBRANCH   7  15
BRANCH  13  29
ATOM     29  C   UNL A   1      28.967  28.436  22.927  1.00  0.00     0.078 C 
ATOM     30  C   UNL A   1      27.537  28.958  23.005  1.00  0.00     0.013 C 
ATOM     31  C   UNL A   1      29.863  29.509  23.544  1.00  0.00     0.013 C 
ATOM     32  C   UNL A   1      27.687  30.468  22.925  1.00  0.00     0.001 C 
ATOM     33  C   UNL A   1      29.039  30.796  23.548  1.00  0.00     0.001 C 
ENDBRANCH  13  29
ENDBRANCH   4   7
ENDBRANCH   2   3
ENDBRANCH   1   2
BRANCH   1  34
ATOM     34  C   UNL A   1      31.780  29.618  27.253  1.00  0.00     0.002 C 
BRANCH  34  35
ATOM     35  C   UNL A   1      31.700  30.678  26.150  1.00  0.00     0.002 C 
BRANCH  35  36
ATOM     36  C   UNL A   1      31.467  32.108  26.643  1.00  0.00     0.021 C 
BRANCH  36  37
ATOM     37  C   UNL A   1      32.695  32.776  27.250  1.00  0.00     0.116 C 
BRANCH  37  38
ATOM     38  N   UNL A   1      32.440  34.158  27.622  1.00  0.00    -0.352 N 
ATOM     39  C   UNL A   1      33.007  34.908  28.620  1.00  0.00     0.251 C 
ATOM     40  H   UNL A   1      31.763  34.622  27.079  1.00  0.00     0.163 HD
ATOM     41  O   UNL A   1      32.540  36.001  28.916  1.00  0.00    -0.269 OA
BRANCH  39  42
ATOM     42  C   UNL A   1      34.176  34.381  29.358  1.00  0.00     0.039 A 
ATOM     43  C   UNL A   1      33.959  33.652  30.529  1.00  0.00     0.014 A 
ATOM     44  C   UNL A   1      35.476  34.607  28.900  1.00  0.00     0.014 A 
ATOM     45  C   UNL A   1      35.045  33.100  31.210  1.00  0.00     0.010 A 
ATOM     46  C   UNL A   1      36.551  33.993  29.537  1.00  0.00     0.010 A 
ATOM     47  C   UNL A   1      36.346  33.237  30.700  1.00  0.00    -0.014 A 
BRANCH  47  48
ATOM     48  C   UNL A   1      37.505  32.596  31.372  1.00  0.00     0.031 A 
ATOM     49  C   UNL A   1      38.214  31.441  30.720  1.00  0.00     0.074 A 
ATOM     50  C   UNL A   1      37.881  33.016  32.595  1.00  0.00     0.049 A 
ATOM     51  N   UNL A   1      39.204  30.714  31.174  1.00  0.00    -0.248 NA
ATOM     52  C   UNL A   1      37.728  31.032  29.393  1.00  0.00     0.031 C 
ATOM     53  C   UNL A   1      37.244  34.097  33.350  1.00  0.00     0.029 A 
ATOM     54  N   UNL A   1      38.883  32.577  33.425  1.00  0.00    -0.354 N 
ATOM     55  C   UNL A   1      39.449  29.758  30.196  1.00  0.00     0.074 A 
ATOM     56  C   UNL A   1      38.469  29.961  29.151  1.00  0.00     0.031 C 
ATOM     57  C   UNL A   1      37.886  34.253  34.519  1.00  0.00     0.029 A 
ATOM     58  C   UNL A   1      38.950  33.258  34.616  1.00  0.00     0.049 A 
ATOM     59  H   UNL A   1      39.496  31.844  33.188  1.00  0.00     0.167 HD
ATOM     60  C   UNL A   1      40.417  28.812  30.165  1.00  0.00     0.037 A 
ATOM     61  C   UNL A   1      39.770  33.092  35.671  1.00  0.00     0.037 A 
ATOM     62  C   UNL A   1      41.401  28.627  31.199  1.00  0.00     0.049 A 
ATOM     63  C   UNL A   1      40.827  32.021  35.616  1.00  0.00     0.074 A 
ATOM     64  C   UNL A   1      42.460  27.737  31.232  1.00  0.00     0.029 A 
ATOM     65  N   UNL A   1      41.442  29.342  32.387  1.00  0.00    -0.354 N 
ATOM     66  N   UNL A   1      41.097  31.172  34.655  1.00  0.00    -0.248 NA
ATOM     67  C   UNL A   1      41.698  31.891  36.792  1.00  0.00     0.031 C 
ATOM     68  C   UNL A   1      43.110  27.875  32.463  1.00  0.00     0.029 A 
ATOM     69  C   UNL A   1      42.493  28.893  33.173  1.00  0.00     0.049 A 
ATOM     70  H   UNL A   1      40.818  30.061  32.635  1.00  0.00     0.167 HD
ATOM     71  C   UNL A   1      42.184  30.431  35.095  1.00  0.00     0.074 A 
ATOM     72  C   UNL A   1      42.535  30.940  36.403  1.00  0.00     0.031 C 
ATOM     73  C   UNL A   1      42.835  29.418  34.470  1.00  0.00     0.037 A 
BRANCH  60  74
ATOM     74  C   UNL A   1      40.459  27.899  28.972  1.00  0.00     0.064 A 
ATOM     75  C   UNL A   1      41.252  28.187  27.850  1.00  0.00     0.173 A 
ATOM     76  C   UNL A   1      39.730  26.700  28.967  1.00  0.00     0.173 A 
ATOM     77  F   UNL A   1      41.963  29.324  27.799  1.00  0.00    -0.203 F 
ATOM     78  C   UNL A   1      41.288  27.326  26.757  1.00  0.00     0.198 A 
ATOM     79  C   UNL A   1      39.794  25.826  27.885  1.00  0.00     0.198 A 
ATOM     80  F   UNL A   1      38.960  26.371  30.016  1.00  0.00    -0.203 F 
ATOM     81  F   UNL A   1      42.012  27.648  25.676  1.00  0.00    -0.200 F 
ATOM     82  C   UNL A   1      40.566  26.143  26.778  1.00  0.00     0.200 A 
ATOM     83  F   UNL A   1      39.108  24.674  27.914  1.00  0.00    -0.200 F 
ATOM     84  F   UNL A   1      40.609  25.310  25.729  1.00  0.00    -0.200 F 
ENDBRANCH  60  74
BRANCH  61  85
ATOM     85  C   UNL A   1      39.641  33.975  36.861  1.00  0.00     0.064 A 
ATOM     86  C   UNL A   1      40.296  35.212  36.913  1.00  0.00     0.173 A 
ATOM     87  C   UNL A   1      38.872  33.596  37.972  1.00  0.00     0.173 A 
ATOM     88  F   UNL A   1      41.060  35.609  35.884  1.00  0.00    -0.203 F 
ATOM     89  C   UNL A   1      40.208  36.028  38.040  1.00  0.00     0.198 A 
ATOM     90  C   UNL A   1      38.759  34.427  39.085  1.00  0.00     0.198 A 
ATOM     91  F   UNL A   1      38.220  32.425  37.971  1.00  0.00    -0.203 F 
ATOM     92  F   UNL A   1      40.886  37.183  38.082  1.00  0.00    -0.200 F 
ATOM     93  C   UNL A   1      39.435  35.637  39.122  1.00  0.00     0.200 A 
ATOM     94  F   UNL A   1      37.998  34.053  40.122  1.00  0.00    -0.200 F 
ATOM     95  F   UNL A   1      39.347  36.423  40.204  1.00  0.00    -0.200 F 
ENDBRANCH  61  85
BRANCH  73  96
ATOM     96  C   UNL A   1      44.020  28.820  35.175  1.00  0.00     0.064 A 
ATOM     97  C   UNL A   1      43.890  27.721  36.037  1.00  0.00     0.173 A 
ATOM     98  C   UNL A   1      45.307  29.331  34.954  1.00  0.00     0.173 A 
ATOM     99  F   UNL A   1      42.678  27.205  36.295  1.00  0.00    -0.203 F 
ATOM    100  C   UNL A   1      45.002  27.175  36.672  1.00  0.00     0.198 A 
ATOM    101  C   UNL A   1      46.421  28.761  35.563  1.00  0.00     0.198 A 
ATOM    102  F   UNL A   1      45.488  30.378  34.133  1.00  0.00    -0.203 F 
ATOM    103  F   UNL A   1      44.848  26.158  37.532  1.00  0.00    -0.200 F 
ATOM    104  C   UNL A   1      46.266  27.689  36.429  1.00  0.00     0.200 A 
ATOM    105  F   UNL A   1      47.643  29.250  35.314  1.00  0.00    -0.200 F 
ATOM    106  F   UNL A   1      47.336  27.156  37.034  1.00  0.00    -0.200 F 
ENDBRANCH  73  96
ENDBRANCH  47  48
ENDBRANCH  39  42
ENDBRANCH  37  38
ENDBRANCH  36  37
ENDBRANCH  35  36
ENDBRANCH  34  35
ENDBRANCH   1  34
TORSDOF 18
ENDMDL
MODEL 2
REMARK VINA RESULT:     -13.8      1.831      2.559
REMARK SMILES COc1ccc(-c2cc(CC3(C(=O)NCCCCCCNC(=O)c4ccc(-c5c6nc(c(-c7c(F)c(F)c(F)c(F)c7F)c7ccc([nH]7)c(-c7c(F)c(F)c(F)c(F)c7F)c7nc(c(-c8c(F)c(F)c(F)c(F)c8F)c8ccc5[nH]8)C=C7)C=C6)cc4)CCN(C(=O)C4CCCC4)CC3)on2)cc1
REMARK SMILES IDX 16 1 15 2 14 3 12 4 13 5 11 7 87 8 98 9 88 10 97 11 89 12
REMARK SMILES IDX 90 13 91 14 10 15 9 16 7 17 8 18 100 19 99 20 6 21 3 22 4 23
REMARK SMILES IDX 102 24 5 25 101 26 2 27 1 28 92 29 93 30 96 31 94 32 95 33
REMARK SMILES IDX 17 34 18 35 19 36 20 37 21 38 22 39 23 41 24 42 25 43 86 44
REMARK SMILES IDX 26 45 85 46 27 47 28 48 29 49 79 50 30 51 84 52 78 53 80 54
REMARK SMILES IDX 31 55 83 56 77 57 76 58 32 60 64 61 44 62 63 63 45 64 48 65
REMARK SMILES IDX 62 66 81 67 46 68 47 69 61 71 82 72 49 73 33 74 34 75 42 76
REMARK SMILES IDX 35 77 36 78 40 79 43 80 37 81 38 82 41 83 39 84 65 85 66 86
REMARK SMILES IDX 74 87 67 88 68 89 72 90 75 91 69 92 70 93 73 94 71 95 50 96
REMARK SMILES IDX 51 97 59 98 52 99 53 100 57 101 60 102 54 103 55 104 58 105
REMARK SMILES IDX 56 106
REMARK H PARENT 14 6 21 40 80 59 48 70
REMARK Flexibility Score: inf
ROOT
ATOM      1  C   UNL A   1      33.375  28.705  26.342  1.00  0.00     0.021 C 
ENDROOT
BRANCH   1   2
ATOM      2  C   UNL A   1      32.985  27.547  25.426  1.00  0.00     0.116 C 
BRANCH   2   3
ATOM      3  N   UNL A   1      32.209  26.554  26.149  1.00  0.00    -0.356 N 
ATOM      4  C   UNL A   1      31.081  25.866  25.822  1.00  0.00     0.226 C 
ATOM      5  O   UNL A   1      30.633  25.120  26.698  1.00  0.00    -0.274 OA
ATOM      6  H   UNL A   1      32.565  26.339  27.041  1.00  0.00     0.163 HD
BRANCH   4   7
ATOM      7  C   UNL A   1      30.425  25.967  24.423  1.00  0.00     0.060 C 
ATOM      8  C   UNL A   1      28.881  26.037  24.590  1.00  0.00     0.039 C 
ATOM      9  C   UNL A   1      31.059  27.193  23.710  1.00  0.00     0.039 C 
ATOM     10  C   UNL A   1      28.126  26.887  23.568  1.00  0.00     0.120 C 
ATOM     11  C   UNL A   1      30.174  27.875  22.679  1.00  0.00     0.120 C 
ATOM     12  N   UNL A   1      28.834  28.106  23.192  1.00  0.00    -0.342 N 
ATOM     13  C   UNL A   1      28.112  29.290  23.134  1.00  0.00     0.225 C 
ATOM     14  O   UNL A   1      26.932  29.335  23.500  1.00  0.00    -0.275 OA
BRANCH   7  15
ATOM     15  C   UNL A   1      30.821  24.648  23.678  1.00  0.00     0.095 C 
BRANCH  15  16
ATOM     16  C   UNL A   1      32.256  24.294  23.754  1.00  0.00     0.138 A 
ATOM     17  C   UNL A   1      34.321  23.623  24.113  1.00  0.00     0.114 A 
ATOM     18  C   UNL A   1      32.976  23.371  24.472  1.00  0.00     0.077 A 
ATOM     19  N   UNL A   1      34.401  24.611  23.213  1.00  0.00    -0.080 NA
ATOM     20  O   UNL A   1      33.102  24.998  22.959  1.00  0.00    -0.361 OA
BRANCH  17  21
ATOM     21  C   UNL A   1      35.503  22.928  24.578  1.00  0.00     0.004 A 
ATOM     22  C   UNL A   1      37.789  21.541  25.378  1.00  0.00     0.118 A 
ATOM     23  C   UNL A   1      37.776  22.937  25.400  1.00  0.00     0.047 A 
ATOM     24  C   UNL A   1      36.644  20.838  25.003  1.00  0.00     0.047 A 
ATOM     25  C   UNL A   1      36.638  23.635  24.987  1.00  0.00     0.014 A 
ATOM     26  C   UNL A   1      35.503  21.530  24.602  1.00  0.00     0.014 A 
BRANCH  22  27
ATOM     27  O   UNL A   1      38.950  20.938  25.779  1.00  0.00    -0.497 OA
ATOM     28  C   UNL A   1      39.946  21.862  26.216  1.00  0.00     0.278 C 
ENDBRANCH  22  27
ENDBRANCH  17  21
ENDBRANCH  15  16
ENDBRANCH   7  15
BRANCH  13  29
ATOM     29  C   UNL A   1      28.747  30.596  22.658  1.00  0.00     0.078 C 
ATOM     30  C   UNL A   1      28.027  31.256  21.488  1.00  0.00     0.013 C 
ATOM     31  C   UNL A   1      28.950  31.677  23.719  1.00  0.00     0.013 C 
ATOM     32  C   UNL A   1      28.492  32.702  21.532  1.00  0.00     0.001 C 
ATOM     33  C   UNL A   1      28.777  33.013  22.997  1.00  0.00     0.001 C 
ENDBRANCH  13  29
ENDBRANCH   4   7
ENDBRANCH   2   3
ENDBRANCH   1   2
BRANCH   1  34
ATOM     34  C   UNL A   1      32.183  29.516  26.862  1.00  0.00     0.002 C 
BRANCH  34  35
ATOM     35  C   UNL A   1      31.680  30.607  25.911  1.00  0.00     0.002 C 
BRANCH  35  36
ATOM     36  C   UNL A   1      31.401  31.960  26.570  1.00  0.00     0.021 C 
BRANCH  36  37
ATOM     37  C   UNL A   1      32.608  32.594  27.250  1.00  0.00     0.116 C 
BRANCH  37  38
ATOM     38  N   UNL A   1      32.385  33.994  27.569  1.00  0.00    -0.352 N 
ATOM     39  C   UNL A   1      32.978  34.772  28.532  1.00  0.00     0.251 C 
ATOM     40  H   UNL A   1      31.711  34.451  27.016  1.00  0.00     0.163 HD
ATOM     41  O   UNL A   1      32.535  35.885  28.789  1.00  0.00    -0.269 OA
BRANCH  39  42
ATOM     42  C   UNL A   1      34.143  34.251  29.278  1.00  0.00     0.039 A 
ATOM     43  C   UNL A   1      33.924  33.553  30.468  1.00  0.00     0.014 A 
ATOM     44  C   UNL A   1      35.444  34.452  28.809  1.00  0.00     0.014 A 
ATOM     45  C   UNL A   1      35.007  33.006  31.158  1.00  0.00     0.010 A 
ATOM     46  C   UNL A   1      36.515  33.842  29.456  1.00  0.00     0.010 A 
ATOM     47  C   UNL A   1      36.308  33.117  30.639  1.00  0.00    -0.014 A 
BRANCH  47  48
ATOM     48  C   UNL A   1      37.463  32.481  31.321  1.00  0.00     0.031 A 
ATOM     49  C   UNL A   1      38.174  31.321  30.682  1.00  0.00     0.074 A 
ATOM     50  C   UNL A   1      37.832  32.910  32.544  1.00  0.00     0.049 A 
ATOM     51  N   UNL A   1      39.162  30.596  31.146  1.00  0.00    -0.248 NA
ATOM     52  C   UNL A   1      37.695  30.902  29.356  1.00  0.00     0.031 C 
ATOM     53  C   UNL A   1      37.192  33.997  33.287  1.00  0.00     0.029 A 
ATOM     54  N   UNL A   1      38.830  32.477  33.382  1.00  0.00    -0.354 N 
ATOM     55  C   UNL A   1      39.411  29.633  30.178  1.00  0.00     0.074 A 
ATOM     56  C   UNL A   1      38.437  29.829  29.125  1.00  0.00     0.031 C 
ATOM     57  C   UNL A   1      37.828  34.161  34.458  1.00  0.00     0.029 A 
ATOM     58  C   UNL A   1      38.890  33.167  34.568  1.00  0.00     0.049 A 
ATOM     59  H   UNL A   1      39.444  31.742  33.154  1.00  0.00     0.167 HD
ATOM     60  C   UNL A   1      40.379  28.686  30.158  1.00  0.00     0.037 A 
ATOM     61  C   UNL A   1      39.705  33.007  35.629  1.00  0.00     0.037 A 
ATOM     62  C   UNL A   1      41.358  28.509  31.199  1.00  0.00     0.049 A 
ATOM     63  C   UNL A   1      40.762  31.936  35.588  1.00  0.00     0.074 A 
ATOM     64  C   UNL A   1      42.416  27.619  31.244  1.00  0.00     0.029 A 
ATOM     65  N   UNL A   1      41.392  29.232  32.382  1.00  0.00    -0.354 N 
ATOM     66  N   UNL A   1      41.036  31.080  34.634  1.00  0.00    -0.248 NA
ATOM     67  C   UNL A   1      41.626  31.815  36.769  1.00  0.00     0.031 C 
ATOM     68  C   UNL A   1      43.059  27.766  32.478  1.00  0.00     0.029 A 
ATOM     69  C   UNL A   1      42.439  28.789  33.177  1.00  0.00     0.049 A 
ATOM     70  H   UNL A   1      40.767  29.954  32.621  1.00  0.00     0.167 HD
ATOM     71  C   UNL A   1      42.121  30.341  35.085  1.00  0.00     0.074 A 
ATOM     72  C   UNL A   1      42.465  30.860  36.392  1.00  0.00     0.031 C 
ATOM     73  C   UNL A   1      42.774  29.324  34.472  1.00  0.00     0.037 A 
BRANCH  60  74
ATOM     74  C   UNL A   1      40.427  27.765  28.973  1.00  0.00     0.064 A 
ATOM     75  C   UNL A   1      41.236  28.038  27.858  1.00  0.00     0.173 A 
ATOM     76  C   UNL A   1      39.687  26.572  28.967  1.00  0.00     0.173 A 
ATOM     77  F   UNL A   1      41.957  29.168  27.807  1.00  0.00    -0.203 F 
ATOM     78  C   UNL A   1      41.277  27.168  26.772  1.00  0.00     0.198 A 
ATOM     79  C   UNL A   1      39.757  25.689  27.893  1.00  0.00     0.198 A 
ATOM     80  F   UNL A   1      38.903  26.257  30.009  1.00  0.00    -0.203 F 
ATOM     81  F   UNL A   1      42.016  27.476  25.697  1.00  0.00    -0.200 F 
ATOM     82  C   UNL A   1      40.544  25.992  26.792  1.00  0.00     0.200 A 
ATOM     83  F   UNL A   1      39.060  24.544  27.922  1.00  0.00    -0.200 F 
ATOM     84  F   UNL A   1      40.593  25.151  25.750  1.00  0.00    -0.200 F 
ENDBRANCH  60  74
BRANCH  61  85
ATOM     85  C   UNL A   1      39.570  33.899  36.812  1.00  0.00     0.064 A 
ATOM     86  C   UNL A   1      38.801  33.515  37.918  1.00  0.00     0.173 A 
ATOM     87  C   UNL A   1      40.195  35.154  36.856  1.00  0.00     0.173 A 
ATOM     88  F   UNL A   1      38.166  32.334  37.914  1.00  0.00    -0.203 F 
ATOM     89  C   UNL A   1      38.641  34.362  39.014  1.00  0.00     0.198 A 
ATOM     90  C   UNL A   1      40.062  35.986  37.966  1.00  0.00     0.198 A 
ATOM     91  F   UNL A   1      40.948  35.567  35.826  1.00  0.00    -0.203 F 
ATOM     92  F   UNL A   1      37.859  33.990  40.036  1.00  0.00    -0.200 F 
ATOM     93  C   UNL A   1      39.276  35.594  39.039  1.00  0.00     0.200 A 
ATOM     94  F   UNL A   1      40.690  37.169  37.993  1.00  0.00    -0.200 F 
ATOM     95  F   UNL A   1      39.126  36.406  40.094  1.00  0.00    -0.200 F 
ENDBRANCH  61  85
BRANCH  73  96
ATOM     96  C   UNL A   1      43.955  28.730  35.188  1.00  0.00     0.064 A 
ATOM     97  C   UNL A   1      43.823  27.626  36.042  1.00  0.00     0.173 A 
ATOM     98  C   UNL A   1      45.241  29.252  34.984  1.00  0.00     0.173 A 
ATOM     99  F   UNL A   1      42.613  27.099  36.283  1.00  0.00    -0.203 F 
ATOM    100  C   UNL A   1      44.931  27.084  36.687  1.00  0.00     0.198 A 
ATOM    101  C   UNL A   1      46.352  28.686  35.604  1.00  0.00     0.198 A 
ATOM    102  F   UNL A   1      45.424  30.304  34.171  1.00  0.00    -0.203 F 
ATOM    103  F   UNL A   1      44.775  26.062  37.540  1.00  0.00    -0.200 F 
ATOM    104  C   UNL A   1      46.195  27.609  36.462  1.00  0.00     0.200 A 
ATOM    105  F   UNL A   1      47.574  29.186  35.372  1.00  0.00    -0.200 F 
ATOM    106  F   UNL A   1      47.262  27.081  37.077  1.00  0.00    -0.200 F 
ENDBRANCH  73  96
ENDBRANCH  47  48
ENDBRANCH  39  42
ENDBRANCH  37  38
ENDBRANCH  36  37
ENDBRANCH  35  36
ENDBRANCH  34  35
ENDBRANCH   1  34
TORSDOF 18
ENDMDL
MODEL 3
REMARK VINA RESULT:     -13.7      1.690      7.242
REMARK SMILES COc1ccc(-c2cc(CC3(C(=O)NCCCCCCNC(=O)c4ccc(-c5c6nc(c(-c7c(F)c(F)c(F)c(F)c7F)c7ccc([nH]7)c(-c7c(F)c(F)c(F)c(F)c7F)c7nc(c(-c8c(F)c(F)c(F)c(F)c8F)c8ccc5[nH]8)C=C7)C=C6)cc4)CCN(C(=O)C4CCCC4)CC3)on2)cc1
REMARK SMILES IDX 16 1 15 2 14 3 12 4 13 5 11 7 87 8 98 9 88 10 97 11 89 12
REMARK SMILES IDX 90 13 91 14 10 15 9 16 7 17 8 18 100 19 99 20 6 21 3 22 4 23
REMARK SMILES IDX 102 24 5 25 101 26 2 27 1 28 92 29 93 30 96 31 94 32 95 33
REMARK SMILES IDX 17 34 18 35 19 36 20 37 21 38 22 39 23 41 24 42 25 43 86 44
REMARK SMILES IDX 26 45 85 46 27 47 28 48 29 49 79 50 30 51 84 52 78 53 80 54
REMARK SMILES IDX 31 55 83 56 77 57 76 58 32 60 64 61 44 62 63 63 45 64 48 65
REMARK SMILES IDX 62 66 81 67 46 68 47 69 61 71 82 72 49 73 33 74 34 75 42 76
REMARK SMILES IDX 35 77 36 78 40 79 43 80 37 81 38 82 41 83 39 84 65 85 66 86
REMARK SMILES IDX 74 87 67 88 68 89 72 90 75 91 69 92 70 93 73 94 71 95 50 96
REMARK SMILES IDX 51 97 59 98 52 99 53 100 57 101 60 102 54 103 55 104 58 105
REMARK SMILES IDX 56 106
REMARK H PARENT 14 6 21 40 80 59 48 70
REMARK Flexibility Score: inf
ROOT
ATOM      1  C   UNL A   1      33.847  31.580  27.568  1.00  0.00     0.021 C 
ENDROOT
BRANCH   1   2
ATOM      2  C   UNL A   1      34.059  30.110  27.212  1.00  0.00     0.116 C 
BRANCH   2   3
ATOM      3  N   UNL A   1      33.052  29.274  27.842  1.00  0.00    -0.356 N 
ATOM      4  C   UNL A   1      32.192  28.348  27.337  1.00  0.00     0.226 C 
ATOM      5  O   UNL A   1      31.409  27.843  28.147  1.00  0.00    -0.274 OA
ATOM      6  H   UNL A   1      32.977  29.402  28.815  1.00  0.00     0.163 HD
BRANCH   4   7
ATOM      7  C   UNL A   1      32.224  27.910  25.852  1.00  0.00     0.060 C 
ATOM      8  C   UNL A   1      30.977  27.031  25.553  1.00  0.00     0.039 C 
ATOM      9  C   UNL A   1      32.327  29.204  24.998  1.00  0.00     0.039 C 
ATOM     10  C   UNL A   1      30.381  27.151  24.152  1.00  0.00     0.120 C 
ATOM     11  C   UNL A   1      31.728  29.112  23.603  1.00  0.00     0.120 C 
ATOM     12  N   UNL A   1      30.404  28.512  23.627  1.00  0.00    -0.342 N 
ATOM     13  C   UNL A   1      29.260  28.994  23.007  1.00  0.00     0.225 C 
ATOM     14  O   UNL A   1      28.215  28.334  22.998  1.00  0.00    -0.275 OA
BRANCH   7  15
ATOM     15  C   UNL A   1      33.528  27.058  25.693  1.00  0.00     0.095 C 
BRANCH  15  16
ATOM     16  C   UNL A   1      33.375  25.826  24.886  1.00  0.00     0.138 A 
ATOM     17  C   UNL A   1      33.166  23.850  23.940  1.00  0.00     0.114 A 
ATOM     18  C   UNL A   1      33.082  24.518  25.185  1.00  0.00     0.077 A 
ATOM     19  N   UNL A   1      33.458  24.707  22.954  1.00  0.00    -0.080 NA
ATOM     20  O   UNL A   1      33.544  25.950  23.545  1.00  0.00    -0.361 OA
BRANCH  17  21
ATOM     21  C   UNL A   1      32.943  22.444  23.678  1.00  0.00     0.004 A 
ATOM     22  C   UNL A   1      32.452  19.729  23.259  1.00  0.00     0.118 A 
ATOM     23  C   UNL A   1      32.057  20.665  22.301  1.00  0.00     0.047 A 
ATOM     24  C   UNL A   1      33.137  20.144  24.401  1.00  0.00     0.047 A 
ATOM     25  C   UNL A   1      32.288  22.026  22.514  1.00  0.00     0.014 A 
ATOM     26  C   UNL A   1      33.380  21.501  24.611  1.00  0.00     0.014 A 
BRANCH  22  27
ATOM     27  O   UNL A   1      32.169  18.419  22.981  1.00  0.00    -0.497 OA
ATOM     28  C   UNL A   1      33.203  17.520  23.379  1.00  0.00     0.278 C 
ENDBRANCH  22  27
ENDBRANCH  17  21
ENDBRANCH  15  16
ENDBRANCH   7  15
BRANCH  13  29
ATOM     29  C   UNL A   1      29.224  30.370  22.344  1.00  0.00     0.078 C 
ATOM     30  C   UNL A   1      28.155  30.523  21.269  1.00  0.00     0.013 C 
ATOM     31  C   UNL A   1      29.084  31.570  23.280  1.00  0.00     0.013 C 
ATOM     32  C   UNL A   1      27.972  32.026  21.136  1.00  0.00     0.001 C 
ATOM     33  C   UNL A   1      28.279  32.615  22.509  1.00  0.00     0.001 C 
ENDBRANCH  13  29
ENDBRANCH   4   7
ENDBRANCH   2   3
ENDBRANCH   1   2
BRANCH   1  34
ATOM     34  C   UNL A   1      34.516  32.005  28.880  1.00  0.00     0.002 C 
BRANCH  34  35
ATOM     35  C   UNL A   1      34.667  33.518  29.068  1.00  0.00     0.002 C 
BRANCH  35  36
ATOM     36  C   UNL A   1      33.361  34.312  28.989  1.00  0.00     0.021 C 
BRANCH  36  37
ATOM     37  C   UNL A   1      33.486  35.777  29.392  1.00  0.00     0.116 C 
BRANCH  37  38
ATOM     38  N   UNL A   1      32.614  36.116  30.504  1.00  0.00    -0.352 N 
ATOM     39  C   UNL A   1      32.698  35.739  31.821  1.00  0.00     0.251 C 
ATOM     40  H   UNL A   1      31.854  36.700  30.282  1.00  0.00     0.163 HD
ATOM     41  O   UNL A   1      31.771  35.962  32.590  1.00  0.00    -0.269 OA
BRANCH  39  42
ATOM     42  C   UNL A   1      33.907  35.038  32.305  1.00  0.00     0.039 A 
ATOM     43  C   UNL A   1      33.776  33.744  32.814  1.00  0.00     0.014 A 
ATOM     44  C   UNL A   1      35.161  35.653  32.261  1.00  0.00     0.014 A 
ATOM     45  C   UNL A   1      34.912  33.045  33.225  1.00  0.00     0.010 A 
ATOM     46  C   UNL A   1      36.300  34.929  32.600  1.00  0.00     0.010 A 
ATOM     47  C   UNL A   1      36.187  33.620  33.089  1.00  0.00    -0.014 A 
BRANCH  47  48
ATOM     48  C   UNL A   1      37.412  32.864  33.454  1.00  0.00     0.031 A 
ATOM     49  C   UNL A   1      38.135  33.169  34.737  1.00  0.00     0.074 A 
ATOM     50  C   UNL A   1      37.906  31.945  32.601  1.00  0.00     0.049 A 
ATOM     51  N   UNL A   1      39.250  32.661  35.200  1.00  0.00    -0.248 NA
ATOM     52  C   UNL A   1      37.540  34.199  35.601  1.00  0.00     0.031 C 
ATOM     53  C   UNL A   1      37.320  31.593  31.307  1.00  0.00     0.029 A 
ATOM     54  N   UNL A   1      39.019  31.148  32.690  1.00  0.00    -0.354 N 
ATOM     55  C   UNL A   1      39.494  33.318  36.399  1.00  0.00     0.074 A 
ATOM     56  C   UNL A   1      38.443  34.299  36.565  1.00  0.00     0.031 C 
ATOM     57  C   UNL A   1      38.065  30.634  30.734  1.00  0.00     0.029 A 
ATOM     58  C   UNL A   1      39.202  30.333  31.599  1.00  0.00     0.049 A 
ATOM     59  H   UNL A   1      39.629  31.158  33.463  1.00  0.00     0.167 HD
ATOM     60  C   UNL A   1      40.492  33.107  37.289  1.00  0.00     0.037 A 
ATOM     61  C   UNL A   1      40.182  29.451  31.323  1.00  0.00     0.037 A 
ATOM     62  C   UNL A   1      41.523  32.115  37.128  1.00  0.00     0.049 A 
ATOM     63  C   UNL A   1      41.287  29.247  32.323  1.00  0.00     0.074 A 
ATOM     64  C   UNL A   1      42.542  31.781  38.002  1.00  0.00     0.029 A 
ATOM     65  N   UNL A   1      41.670  31.303  36.013  1.00  0.00    -0.354 N 
ATOM     66  N   UNL A   1      41.467  29.821  33.488  1.00  0.00    -0.248 NA
ATOM     67  C   UNL A   1      42.324  28.267  31.972  1.00  0.00     0.031 C 
ATOM     68  C   UNL A   1      43.339  30.806  37.393  1.00  0.00     0.029 A 
ATOM     69  C   UNL A   1      42.781  30.487  36.165  1.00  0.00     0.049 A 
ATOM     70  H   UNL A   1      41.074  31.305  35.230  1.00  0.00     0.167 HD
ATOM     71  C   UNL A   1      42.614  29.251  34.021  1.00  0.00     0.074 A 
ATOM     72  C   UNL A   1      43.081  28.275  33.060  1.00  0.00     0.031 C 
ATOM     73  C   UNL A   1      43.227  29.513  35.202  1.00  0.00     0.037 A 
BRANCH  60  74
ATOM     74  C   UNL A   1      40.518  33.965  38.522  1.00  0.00     0.064 A 
ATOM     75  C   UNL A   1      41.246  35.165  38.569  1.00  0.00     0.173 A 
ATOM     76  C   UNL A   1      39.774  33.607  39.656  1.00  0.00     0.173 A 
ATOM     77  F   UNL A   1      41.983  35.551  37.516  1.00  0.00    -0.203 F 
ATOM     78  C   UNL A   1      41.252  35.955  39.716  1.00  0.00     0.198 A 
ATOM     79  C   UNL A   1      39.756  34.416  40.789  1.00  0.00     0.198 A 
ATOM     80  F   UNL A   1      39.054  32.474  39.663  1.00  0.00    -0.203 F 
ATOM     81  F   UNL A   1      41.997  37.069  39.755  1.00  0.00    -0.200 F 
ATOM     82  C   UNL A   1      40.502  35.585  40.821  1.00  0.00     0.200 A 
ATOM     83  F   UNL A   1      39.017  34.065  41.850  1.00  0.00    -0.200 F 
ATOM     84  F   UNL A   1      40.501  36.351  41.921  1.00  0.00    -0.200 F 
ENDBRANCH  60  74
BRANCH  61  85
ATOM     85  C   UNL A   1      40.150  28.676  30.054  1.00  0.00     0.064 A 
ATOM     86  C   UNL A   1      40.744  29.180  28.889  1.00  0.00     0.173 A 
ATOM     87  C   UNL A   1      39.518  27.427  29.976  1.00  0.00     0.173 A 
ATOM     88  F   UNL A   1      41.342  30.380  28.907  1.00  0.00    -0.203 F 
ATOM     89  C   UNL A   1      40.686  28.475  27.687  1.00  0.00     0.198 A 
ATOM     90  C   UNL A   1      39.489  26.708  28.783  1.00  0.00     0.198 A 
ATOM     91  F   UNL A   1      38.939  26.896  31.064  1.00  0.00    -0.203 F 
ATOM     92  F   UNL A   1      41.219  29.003  26.577  1.00  0.00    -0.200 F 
ATOM     93  C   UNL A   1      40.064  27.237  27.637  1.00  0.00     0.200 A 
ATOM     94  F   UNL A   1      38.901  25.505  28.742  1.00  0.00    -0.200 F 
ATOM     95  F   UNL A   1      40.012  26.558  26.483  1.00  0.00    -0.200 F 
ENDBRANCH  61  85
BRANCH  73  96
ATOM     96  C   UNL A   1      44.447  28.703  35.542  1.00  0.00     0.064 A 
ATOM     97  C   UNL A   1      45.736  29.125  35.187  1.00  0.00     0.173 A 
ATOM     98  C   UNL A   1      44.323  27.508  36.266  1.00  0.00     0.173 A 
ATOM     99  F   UNL A   1      45.908  30.252  34.480  1.00  0.00    -0.203 F 
ATOM    100  C   UNL A   1      46.854  28.365  35.521  1.00  0.00     0.198 A 
ATOM    101  C   UNL A   1      45.445  26.769  36.628  1.00  0.00     0.198 A 
ATOM    102  F   UNL A   1      43.112  27.063  36.636  1.00  0.00    -0.203 F 
ATOM    103  F   UNL A   1      48.073  28.760  35.126  1.00  0.00    -0.200 F 
ATOM    104  C   UNL A   1      46.709  27.192  36.248  1.00  0.00     0.200 A 
ATOM    105  F   UNL A   1      45.303  25.644  37.344  1.00  0.00    -0.200 F 
ATOM    106  F   UNL A   1      47.787  26.467  36.576  1.00  0.00    -0.200 F 
ENDBRANCH  73  96
ENDBRANCH  47  48
ENDBRANCH  39  42
ENDBRANCH  37  38
ENDBRANCH  36  37
ENDBRANCH  35  36
ENDBRANCH  34  35
ENDBRANCH   1  34
TORSDOF 18
ENDMDL
