MODEL 1
REMARK VINA RESULT:     -13.6      0.000      0.000
REMARK SMILES O=C(NCCCCCCNC(=O)C1CC[NH+]([C@H]2CC(=O)N(c3ccc4c(c3)OCCO4)C2=O)CC1)c1ccc(-c2c3nc(c(-c4c(F)c(F)c(F)c(F)c4F)c4ccc([nH]4)c(-c4c(F)c(F)c(F)c(F)c4F)c4nc(c(-c5c(F)c(F)c(F)c(F)c5F)c5ccc2[nH]5)C=C4)C=C3)cc1
REMARK SMILES IDX 6 1 5 2 4 3 3 4 1 5 2 6 36 8 37 9 98 10 38 11 97 12 39 13
REMARK SMILES IDX 40 14 41 15 91 16 42 17 96 18 90 19 92 20 43 21 95 22 89 23
REMARK SMILES IDX 88 24 44 26 76 27 56 28 75 29 57 30 60 31 74 32 93 33 58 34
REMARK SMILES IDX 59 35 73 37 94 38 61 39 45 40 46 41 54 42 47 43 48 44 52 45
REMARK SMILES IDX 55 46 49 47 50 48 53 49 51 50 77 51 78 52 86 53 79 54 80 55
REMARK SMILES IDX 84 56 87 57 81 58 82 59 85 60 83 61 62 62 63 63 71 64 64 65
REMARK SMILES IDX 65 66 69 67 72 68 66 69 67 70 70 71 68 72 7 73 8 74 9 75
REMARK SMILES IDX 10 76 11 77 12 79 13 80 14 81 35 82 15 83 34 84 16 85 17 87
REMARK SMILES IDX 18 88 32 89 19 90 21 91 33 92 20 93 22 94 23 95 27 96 24 97
REMARK SMILES IDX 26 98 25 99 28 100 31 101 29 102 30 103
REMARK H PARENT 3 7 92 25 60 36 10 78 16 86
REMARK Flexibility Score: inf
ROOT
ATOM      1  C   UNL A   1      31.308  31.117  26.527  1.00  0.00     0.002 C 
ENDROOT
BRANCH   1   2
ATOM      2  C   UNL A   1      31.386  32.642  26.618  1.00  0.00     0.021 C 
BRANCH   2   3
ATOM      3  C   UNL A   1      32.642  33.147  27.315  1.00  0.00     0.116 C 
BRANCH   3   4
ATOM      4  N   UNL A   1      32.475  34.518  27.775  1.00  0.00    -0.352 N 
ATOM      5  O   UNL A   1      32.581  36.199  29.280  1.00  0.00    -0.269 OA
ATOM      6  C   UNL A   1      33.032  35.134  28.865  1.00  0.00     0.251 C 
ATOM      7  H   UNL A   1      31.882  35.081  27.228  1.00  0.00     0.163 HD
BRANCH   6   8
ATOM      8  C   UNL A   1      34.187  34.508  29.533  1.00  0.00     0.039 A 
ATOM      9  C   UNL A   1      33.996  33.776  30.707  1.00  0.00     0.014 A 
ATOM     10  C   UNL A   1      35.461  34.630  28.972  1.00  0.00     0.014 A 
ATOM     11  C   UNL A   1      35.092  33.272  31.390  1.00  0.00     0.010 A 
ATOM     12  C   UNL A   1      36.552  34.037  29.610  1.00  0.00     0.010 A 
ATOM     13  C   UNL A   1      36.376  33.366  30.830  1.00  0.00    -0.014 A 
BRANCH  13  14
ATOM     14  C   UNL A   1      37.496  32.660  31.496  1.00  0.00     0.031 A 
ATOM     15  C   UNL A   1      38.210  31.525  30.825  1.00  0.00     0.074 A 
ATOM     16  C   UNL A   1      37.871  33.082  32.720  1.00  0.00     0.049 A 
ATOM     17  N   UNL A   1      39.206  30.803  31.273  1.00  0.00    -0.248 NA
ATOM     18  C   UNL A   1      37.746  31.142  29.483  1.00  0.00     0.031 C 
ATOM     19  C   UNL A   1      37.235  34.172  33.465  1.00  0.00     0.029 A 
ATOM     20  N   UNL A   1      38.880  32.662  33.547  1.00  0.00    -0.354 N 
ATOM     21  C   UNL A   1      39.477  29.872  30.279  1.00  0.00     0.074 A 
ATOM     22  C   UNL A   1      38.526  30.102  29.213  1.00  0.00     0.031 C 
ATOM     23  C   UNL A   1      37.893  34.362  34.617  1.00  0.00     0.029 A 
ATOM     24  C   UNL A   1      38.947  33.364  34.725  1.00  0.00     0.049 A 
ATOM     25  H   UNL A   1      39.497  31.930  33.318  1.00  0.00     0.167 HD
ATOM     26  C   UNL A   1      40.439  28.918  30.265  1.00  0.00     0.037 A 
ATOM     27  C   UNL A   1      39.752  33.202  35.790  1.00  0.00     0.037 A 
ATOM     28  C   UNL A   1      41.388  28.710  31.330  1.00  0.00     0.049 A 
ATOM     29  C   UNL A   1      40.785  32.113  35.753  1.00  0.00     0.074 A 
ATOM     30  C   UNL A   1      42.426  27.797  31.394  1.00  0.00     0.029 A 
ATOM     31  N   UNL A   1      41.411  29.423  32.521  1.00  0.00    -0.354 N 
ATOM     32  N   UNL A   1      41.059  31.266  34.792  1.00  0.00    -0.248 NA
ATOM     33  C   UNL A   1      41.619  31.955  36.951  1.00  0.00     0.031 C 
ATOM     34  C   UNL A   1      43.039  27.916  32.646  1.00  0.00     0.029 A 
ATOM     35  C   UNL A   1      42.426  28.948  33.338  1.00  0.00     0.049 A 
ATOM     36  H   UNL A   1      40.797  30.157  32.752  1.00  0.00     0.167 HD
ATOM     37  C   UNL A   1      42.110  30.490  35.257  1.00  0.00     0.074 A 
ATOM     38  C   UNL A   1      42.440  30.985  36.578  1.00  0.00     0.031 C 
ATOM     39  C   UNL A   1      42.743  29.458  34.647  1.00  0.00     0.037 A 
BRANCH  26  40
ATOM     40  C   UNL A   1      40.514  28.008  29.073  1.00  0.00     0.064 A 
ATOM     41  C   UNL A   1      39.762  26.826  28.996  1.00  0.00     0.173 A 
ATOM     42  C   UNL A   1      41.290  28.364  27.958  1.00  0.00     0.173 A 
ATOM     43  F   UNL A   1      39.012  26.434  30.037  1.00  0.00    -0.203 F 
ATOM     44  C   UNL A   1      39.797  26.027  27.855  1.00  0.00     0.198 A 
ATOM     45  C   UNL A   1      41.301  27.577  26.809  1.00  0.00     0.198 A 
ATOM     46  F   UNL A   1      42.023  29.487  27.976  1.00  0.00    -0.203 F 
ATOM     47  F   UNL A   1      39.096  24.886  27.816  1.00  0.00    -0.200 F 
ATOM     48  C   UNL A   1      40.557  26.409  26.759  1.00  0.00     0.200 A 
ATOM     49  F   UNL A   1      42.024  27.957  25.745  1.00  0.00    -0.200 F 
ATOM     50  F   UNL A   1      40.574  25.648  25.656  1.00  0.00    -0.200 F 
ENDBRANCH  26  40
BRANCH  27  51
ATOM     51  C   UNL A   1      39.594  34.077  36.981  1.00  0.00     0.064 A 
ATOM     52  C   UNL A   1      40.223  35.327  37.050  1.00  0.00     0.173 A 
ATOM     53  C   UNL A   1      38.820  33.675  38.080  1.00  0.00     0.173 A 
ATOM     54  F   UNL A   1      40.987  35.750  36.032  1.00  0.00    -0.203 F 
ATOM     55  C   UNL A   1      40.106  36.130  38.182  1.00  0.00     0.198 A 
ATOM     56  C   UNL A   1      38.673  34.494  39.197  1.00  0.00     0.198 A 
ATOM     57  F   UNL A   1      38.189  32.492  38.063  1.00  0.00    -0.203 F 
ATOM     58  F   UNL A   1      40.762  37.296  38.245  1.00  0.00    -0.200 F 
ATOM     59  C   UNL A   1      39.326  35.715  39.252  1.00  0.00     0.200 A 
ATOM     60  F   UNL A   1      37.902  34.098  40.219  1.00  0.00    -0.200 F 
ATOM     61  F   UNL A   1      39.213  36.489  40.340  1.00  0.00    -0.200 F 
ENDBRANCH  27  51
BRANCH  39  62
ATOM     62  C   UNL A   1      43.883  28.825  35.391  1.00  0.00     0.064 A 
ATOM     63  C   UNL A   1      45.209  29.242  35.204  1.00  0.00     0.173 A 
ATOM     64  C   UNL A   1      43.640  27.802  36.321  1.00  0.00     0.173 A 
ATOM     65  F   UNL A   1      45.495  30.204  34.312  1.00  0.00    -0.203 F 
ATOM     66  C   UNL A   1      46.253  28.637  35.898  1.00  0.00     0.198 A 
ATOM     67  C   UNL A   1      44.683  27.224  37.038  1.00  0.00     0.198 A 
ATOM     68  F   UNL A   1      42.389  27.371  36.541  1.00  0.00    -0.203 F 
ATOM     69  F   UNL A   1      47.518  29.011  35.659  1.00  0.00    -0.200 F 
ATOM     70  C   UNL A   1      45.989  27.635  36.819  1.00  0.00     0.200 A 
ATOM     71  F   UNL A   1      44.423  26.266  37.938  1.00  0.00    -0.200 F 
ATOM     72  F   UNL A   1      46.995  27.057  37.488  1.00  0.00    -0.200 F 
ENDBRANCH  39  62
ENDBRANCH  13  14
ENDBRANCH   6   8
ENDBRANCH   3   4
ENDBRANCH   2   3
ENDBRANCH   1   2
BRANCH   1  73
ATOM     73  C   UNL A   1      32.551  30.448  25.923  1.00  0.00     0.002 C 
BRANCH  73  74
ATOM     74  C   UNL A   1      33.407  29.685  26.936  1.00  0.00     0.021 C 
BRANCH  74  75
ATOM     75  C   UNL A   1      34.383  28.722  26.268  1.00  0.00     0.116 C 
BRANCH  75  76
ATOM     76  N   UNL A   1      34.418  28.917  24.843  1.00  0.00    -0.356 N 
ATOM     77  C   UNL A   1      33.891  28.171  23.842  1.00  0.00     0.223 C 
ATOM     78  H   UNL A   1      34.902  29.722  24.546  1.00  0.00     0.163 HD
ATOM     79  O   UNL A   1      34.105  28.553  22.688  1.00  0.00    -0.275 OA
BRANCH  77  80
ATOM     80  C   UNL A   1      33.013  26.942  24.092  1.00  0.00     0.089 C 
ATOM     81  C   UNL A   1      31.605  27.316  24.568  1.00  0.00     0.075 C 
ATOM     82  C   UNL A   1      33.688  25.768  24.813  1.00  0.00     0.075 C 
ATOM     83  C   UNL A   1      31.269  26.944  26.008  1.00  0.00     0.263 C 
ATOM     84  C   UNL A   1      33.163  25.423  26.209  1.00  0.00     0.263 C 
ATOM     85  N   UNL A   1      31.736  25.628  26.431  1.00  0.00    -0.324 N 
ATOM     86  H   UNL A   1      31.687  25.613  27.450  1.00  0.00     0.348 HD
BRANCH  85  87
ATOM     87  C   UNL A   1      30.810  24.518  26.131  1.00  0.00     0.284 C 
ATOM     88  C   UNL A   1      30.338  24.368  24.699  1.00  0.00     0.176 C 
ATOM     89  C   UNL A   1      31.474  23.167  26.405  1.00  0.00     0.292 C 
ATOM     90  C   UNL A   1      31.240  23.316  24.139  1.00  0.00     0.240 C 
ATOM     91  N   UNL A   1      31.784  22.605  25.183  1.00  0.00    -0.245 N 
ATOM     92  O   UNL A   1      31.753  22.754  27.523  1.00  0.00    -0.267 OA
ATOM     93  O   UNL A   1      31.354  23.124  22.936  1.00  0.00    -0.274 OA
BRANCH  91  94
ATOM     94  C   UNL A   1      32.609  21.467  25.016  1.00  0.00     0.056 A 
ATOM     95  C   UNL A   1      33.992  21.599  24.830  1.00  0.00     0.031 A 
ATOM     96  C   UNL A   1      32.051  20.181  25.032  1.00  0.00     0.077 A 
ATOM     97  C   UNL A   1      34.807  20.469  24.714  1.00  0.00     0.052 A 
ATOM     98  C   UNL A   1      32.859  19.055  24.871  1.00  0.00     0.163 A 
ATOM     99  C   UNL A   1      34.238  19.199  24.720  1.00  0.00     0.161 A 
ATOM    100  O   UNL A   1      32.218  17.843  24.850  1.00  0.00    -0.486 OA
ATOM    101  O   UNL A   1      35.093  18.137  24.581  1.00  0.00    -0.486 OA
ATOM    102  C   UNL A   1      33.135  16.763  25.046  1.00  0.00     0.271 C 
ATOM    103  C   UNL A   1      34.390  16.947  24.209  1.00  0.00     0.271 C 
ENDBRANCH  91  94
ENDBRANCH  85  87
ENDBRANCH  77  80
ENDBRANCH  75  76
ENDBRANCH  74  75
ENDBRANCH  73  74
ENDBRANCH   1  73
TORSDOF 15
ENDMDL
MODEL 2
REMARK VINA RESULT:     -13.5      0.631      7.006
REMARK SMILES O=C(NCCCCCCNC(=O)C1CC[NH+]([C@H]2CC(=O)N(c3ccc4c(c3)OCCO4)C2=O)CC1)c1ccc(-c2c3nc(c(-c4c(F)c(F)c(F)c(F)c4F)c4ccc([nH]4)c(-c4c(F)c(F)c(F)c(F)c4F)c4nc(c(-c5c(F)c(F)c(F)c(F)c5F)c5ccc2[nH]5)C=C4)C=C3)cc1
REMARK SMILES IDX 6 1 5 2 4 3 3 4 1 5 2 6 36 8 37 9 98 10 38 11 97 12 39 13
REMARK SMILES IDX 40 14 41 15 91 16 42 17 96 18 90 19 92 20 43 21 95 22 89 23
REMARK SMILES IDX 88 24 44 26 76 27 56 28 75 29 57 30 60 31 74 32 93 33 58 34
REMARK SMILES IDX 59 35 73 37 94 38 61 39 45 40 46 41 54 42 47 43 48 44 52 45
REMARK SMILES IDX 55 46 49 47 50 48 53 49 51 50 77 51 78 52 86 53 79 54 80 55
REMARK SMILES IDX 84 56 87 57 81 58 82 59 85 60 83 61 62 62 63 63 71 64 64 65
REMARK SMILES IDX 65 66 69 67 72 68 66 69 67 70 70 71 68 72 7 73 8 74 9 75
REMARK SMILES IDX 10 76 11 77 12 79 13 80 14 81 35 82 15 83 34 84 16 85 17 87
REMARK SMILES IDX 18 88 32 89 19 90 21 91 33 92 20 93 22 94 23 95 27 96 24 97
REMARK SMILES IDX 26 98 25 99 28 100 31 101 29 102 30 103
REMARK H PARENT 3 7 92 25 60 36 10 78 16 86
REMARK Flexibility Score: inf
ROOT
ATOM      1  C   UNL A   1      31.604  31.071  26.582  1.00  0.00     0.002 C 
ENDROOT
BRANCH   1   2
ATOM      2  C   UNL A   1      31.500  32.586  26.760  1.00  0.00     0.021 C 
BRANCH   2   3
ATOM      3  C   UNL A   1      32.802  33.239  27.202  1.00  0.00     0.116 C 
BRANCH   3   4
ATOM      4  N   UNL A   1      32.564  34.549  27.789  1.00  0.00    -0.352 N 
ATOM      5  O   UNL A   1      32.565  36.077  29.453  1.00  0.00    -0.269 OA
ATOM      6  C   UNL A   1      33.073  35.079  28.946  1.00  0.00     0.251 C 
ATOM      7  H   UNL A   1      31.954  35.135  27.287  1.00  0.00     0.163 HD
BRANCH   6   8
ATOM      8  C   UNL A   1      34.245  34.443  29.573  1.00  0.00     0.039 A 
ATOM      9  C   UNL A   1      34.070  33.598  30.672  1.00  0.00     0.014 A 
ATOM     10  C   UNL A   1      35.520  34.670  29.049  1.00  0.00     0.014 A 
ATOM     11  C   UNL A   1      35.178  33.081  31.325  1.00  0.00     0.010 A 
ATOM     12  C   UNL A   1      36.626  34.068  29.649  1.00  0.00     0.010 A 
ATOM     13  C   UNL A   1      36.463  33.280  30.799  1.00  0.00    -0.014 A 
BRANCH  13  14
ATOM     14  C   UNL A   1      37.604  32.563  31.416  1.00  0.00     0.031 A 
ATOM     15  C   UNL A   1      38.099  32.919  32.787  1.00  0.00     0.074 A 
ATOM     16  C   UNL A   1      38.176  31.564  30.716  1.00  0.00     0.049 A 
ATOM     17  N   UNL A   1      39.086  32.391  33.466  1.00  0.00    -0.248 NA
ATOM     18  C   UNL A   1      37.406  34.012  33.485  1.00  0.00     0.031 C 
ATOM     19  C   UNL A   1      37.777  31.145  29.370  1.00  0.00     0.029 A 
ATOM     20  N   UNL A   1      39.198  30.709  31.038  1.00  0.00    -0.354 N 
ATOM     21  C   UNL A   1      39.144  33.095  34.661  1.00  0.00     0.074 A 
ATOM     22  C   UNL A   1      38.110  34.106  34.607  1.00  0.00     0.031 C 
ATOM     23  C   UNL A   1      38.514  30.089  28.999  1.00  0.00     0.029 A 
ATOM     24  C   UNL A   1      39.486  29.804  30.046  1.00  0.00     0.049 A 
ATOM     25  H   UNL A   1      39.679  30.741  31.896  1.00  0.00     0.167 HD
ATOM     26  C   UNL A   1      39.986  32.903  35.705  1.00  0.00     0.037 A 
ATOM     27  C   UNL A   1      40.446  28.866  29.975  1.00  0.00     0.037 A 
ATOM     28  C   UNL A   1      41.003  31.883  35.748  1.00  0.00     0.049 A 
ATOM     29  C   UNL A   1      41.382  28.704  31.137  1.00  0.00     0.074 A 
ATOM     30  C   UNL A   1      41.880  31.583  36.776  1.00  0.00     0.029 A 
ATOM     31  N   UNL A   1      41.284  31.000  34.714  1.00  0.00    -0.354 N 
ATOM     32  N   UNL A   1      41.401  29.348  32.278  1.00  0.00    -0.248 NA
ATOM     33  C   UNL A   1      42.432  27.688  31.000  1.00  0.00     0.031 C 
ATOM     34  C   UNL A   1      42.729  30.559  36.343  1.00  0.00     0.029 A 
ATOM     35  C   UNL A   1      42.340  30.175  35.070  1.00  0.00     0.049 A 
ATOM     36  H   UNL A   1      40.803  30.965  33.856  1.00  0.00     0.167 HD
ATOM     37  C   UNL A   1      42.448  28.801  33.005  1.00  0.00     0.074 A 
ATOM     38  C   UNL A   1      43.024  27.755  32.184  1.00  0.00     0.031 C 
ATOM     39  C   UNL A   1      42.895  29.136  34.241  1.00  0.00     0.037 A 
BRANCH  26  40
ATOM     40  C   UNL A   1      39.864  33.822  36.887  1.00  0.00     0.064 A 
ATOM     41  C   UNL A   1      40.515  35.064  36.929  1.00  0.00     0.173 A 
ATOM     42  C   UNL A   1      39.023  33.486  37.960  1.00  0.00     0.173 A 
ATOM     43  F   UNL A   1      41.338  35.430  35.935  1.00  0.00    -0.203 F 
ATOM     44  C   UNL A   1      40.339  35.929  38.008  1.00  0.00     0.198 A 
ATOM     45  C   UNL A   1      38.829  34.365  39.023  1.00  0.00     0.198 A 
ATOM     46  F   UNL A   1      38.373  32.313  37.968  1.00  0.00    -0.203 F 
ATOM     47  F   UNL A   1      40.995  37.097  38.042  1.00  0.00    -0.200 F 
ATOM     48  C   UNL A   1      39.488  35.584  39.047  1.00  0.00     0.200 A 
ATOM     49  F   UNL A   1      37.993  34.036  40.019  1.00  0.00    -0.200 F 
ATOM     50  F   UNL A   1      39.306  36.426  40.074  1.00  0.00    -0.200 F 
ENDBRANCH  26  40
BRANCH  27  51
ATOM     51  C   UNL A   1      40.579  28.028  28.754  1.00  0.00     0.064 A 
ATOM     52  C   UNL A   1      41.363  28.446  27.672  1.00  0.00     0.173 A 
ATOM     53  C   UNL A   1      39.915  26.797  28.643  1.00  0.00     0.173 A 
ATOM     54  F   UNL A   1      42.005  29.622  27.723  1.00  0.00    -0.203 F 
ATOM     55  C   UNL A   1      41.458  27.678  26.513  1.00  0.00     0.198 A 
ATOM     56  C   UNL A   1      40.039  26.013  27.498  1.00  0.00     0.198 A 
ATOM     57  F   UNL A   1      39.158  26.346  29.653  1.00  0.00    -0.203 F 
ATOM     58  F   UNL A   1      42.169  28.127  25.471  1.00  0.00    -0.200 F 
ATOM     59  C   UNL A   1      40.799  26.460  26.430  1.00  0.00     0.200 A 
ATOM     60  F   UNL A   1      39.419  24.826  27.431  1.00  0.00    -0.200 F 
ATOM     61  F   UNL A   1      40.892  25.721  25.315  1.00  0.00    -0.200 F 
ENDBRANCH  27  51
BRANCH  39  62
ATOM     62  C   UNL A   1      44.039  28.334  34.790  1.00  0.00     0.064 A 
ATOM     63  C   UNL A   1      45.373  28.725  34.600  1.00  0.00     0.173 A 
ATOM     64  C   UNL A   1      43.794  27.173  35.539  1.00  0.00     0.173 A 
ATOM     65  F   UNL A   1      45.659  29.818  33.875  1.00  0.00    -0.203 F 
ATOM     66  C   UNL A   1      46.420  27.964  35.110  1.00  0.00     0.198 A 
ATOM     67  C   UNL A   1      44.844  26.434  36.078  1.00  0.00     0.198 A 
ATOM     68  F   UNL A   1      42.537  26.760  35.755  1.00  0.00    -0.203 F 
ATOM     69  F   UNL A   1      47.688  28.324  34.864  1.00  0.00    -0.200 F 
ATOM     70  C   UNL A   1      46.155  26.825  35.855  1.00  0.00     0.200 A 
ATOM     71  F   UNL A   1      44.584  25.342  36.809  1.00  0.00    -0.200 F 
ATOM     72  F   UNL A   1      47.165  26.096  36.349  1.00  0.00    -0.200 F 
ENDBRANCH  39  62
ENDBRANCH  13  14
ENDBRANCH   6   8
ENDBRANCH   3   4
ENDBRANCH   2   3
ENDBRANCH   1   2
BRANCH   1  73
ATOM     73  C   UNL A   1      32.852  30.436  27.211  1.00  0.00     0.002 C 
BRANCH  73  74
ATOM     74  C   UNL A   1      32.850  28.906  27.203  1.00  0.00     0.021 C 
BRANCH  74  75
ATOM     75  C   UNL A   1      34.083  28.325  26.518  1.00  0.00     0.116 C 
BRANCH  75  76
ATOM     76  N   UNL A   1      34.262  28.880  25.203  1.00  0.00    -0.356 N 
ATOM     77  C   UNL A   1      33.916  28.388  23.988  1.00  0.00     0.223 C 
ATOM     78  H   UNL A   1      34.707  29.759  25.180  1.00  0.00     0.163 HD
ATOM     79  O   UNL A   1      34.226  29.064  23.003  1.00  0.00    -0.275 OA
BRANCH  77  80
ATOM     80  C   UNL A   1      33.122  27.091  23.809  1.00  0.00     0.089 C 
ATOM     81  C   UNL A   1      31.617  27.295  24.012  1.00  0.00     0.075 C 
ATOM     82  C   UNL A   1      33.733  25.835  24.443  1.00  0.00     0.075 C 
ATOM     83  C   UNL A   1      31.017  26.633  25.248  1.00  0.00     0.263 C 
ATOM     84  C   UNL A   1      32.957  25.200  25.600  1.00  0.00     0.263 C 
ATOM     85  N   UNL A   1      31.502  25.285  25.525  1.00  0.00    -0.324 N 
ATOM     86  H   UNL A   1      31.239  25.071  26.487  1.00  0.00     0.348 HD
BRANCH  85  87
ATOM     87  C   UNL A   1      30.768  24.210  24.830  1.00  0.00     0.284 C 
ATOM     88  C   UNL A   1      30.911  24.126  23.324  1.00  0.00     0.176 C 
ATOM     89  C   UNL A   1      31.257  22.835  25.287  1.00  0.00     0.292 C 
ATOM     90  C   UNL A   1      31.955  23.074  23.127  1.00  0.00     0.240 C 
ATOM     91  N   UNL A   1      32.028  22.311  24.270  1.00  0.00    -0.245 N 
ATOM     92  O   UNL A   1      31.060  22.373  26.404  1.00  0.00    -0.267 OA
ATOM     93  O   UNL A   1      32.542  22.925  22.064  1.00  0.00    -0.274 OA
BRANCH  91  94
ATOM     94  C   UNL A   1      32.843  21.161  24.398  1.00  0.00     0.056 A 
ATOM     95  C   UNL A   1      34.226  21.276  24.598  1.00  0.00     0.031 A 
ATOM     96  C   UNL A   1      32.277  19.881  24.325  1.00  0.00     0.077 A 
ATOM     97  C   UNL A   1      35.017  20.136  24.772  1.00  0.00     0.052 A 
ATOM     98  C   UNL A   1      33.073  18.744  24.454  1.00  0.00     0.163 A 
ATOM     99  C   UNL A   1      34.442  18.871  24.685  1.00  0.00     0.161 A 
ATOM    100  O   UNL A   1      32.438  17.536  24.317  1.00  0.00    -0.486 OA
ATOM    101  O   UNL A   1      35.280  17.798  24.845  1.00  0.00    -0.486 OA
ATOM    102  C   UNL A   1      33.242  16.463  24.817  1.00  0.00     0.271 C 
ATOM    103  C   UNL A   1      34.684  16.593  24.354  1.00  0.00     0.271 C 
ENDBRANCH  91  94
ENDBRANCH  85  87
ENDBRANCH  77  80
ENDBRANCH  75  76
ENDBRANCH  74  75
ENDBRANCH  73  74
ENDBRANCH   1  73
TORSDOF 15
ENDMDL
MODEL 3
REMARK VINA RESULT:     -13.3      6.162     11.060
REMARK SMILES O=C(NCCCCCCNC(=O)C1CC[NH+]([C@H]2CC(=O)N(c3ccc4c(c3)OCCO4)C2=O)CC1)c1ccc(-c2c3nc(c(-c4c(F)c(F)c(F)c(F)c4F)c4ccc([nH]4)c(-c4c(F)c(F)c(F)c(F)c4F)c4nc(c(-c5c(F)c(F)c(F)c(F)c5F)c5ccc2[nH]5)C=C4)C=C3)cc1
REMARK SMILES IDX 6 1 5 2 4 3 3 4 1 5 2 6 36 8 37 9 98 10 38 11 97 12 39 13
REMARK SMILES IDX 40 14 41 15 91 16 42 17 96 18 90 19 92 20 43 21 95 22 89 23
REMARK SMILES IDX 88 24 44 26 76 27 56 28 75 29 57 30 60 31 74 32 93 33 58 34
REMARK SMILES IDX 59 35 73 37 94 38 61 39 45 40 46 41 54 42 47 43 48 44 52 45
REMARK SMILES IDX 55 46 49 47 50 48 53 49 51 50 77 51 78 52 86 53 79 54 80 55
REMARK SMILES IDX 84 56 87 57 81 58 82 59 85 60 83 61 62 62 63 63 71 64 64 65
REMARK SMILES IDX 65 66 69 67 72 68 66 69 67 70 70 71 68 72 7 73 8 74 9 75
REMARK SMILES IDX 10 76 11 77 12 79 13 80 14 81 35 82 15 83 34 84 16 85 17 87
REMARK SMILES IDX 18 88 32 89 19 90 21 91 33 92 20 93 22 94 23 95 27 96 24 97
REMARK SMILES IDX 26 98 25 99 28 100 31 101 29 102 30 103
REMARK H PARENT 3 7 92 25 60 36 10 78 16 86
REMARK Flexibility Score: inf
ROOT
ATOM      1  C   UNL A   1      41.894  20.523  27.065  1.00  0.00     0.002 C 
ENDROOT
BRANCH   1   2
ATOM      2  C   UNL A   1      42.142  19.359  26.104  1.00  0.00     0.021 C 
BRANCH   2   3
ATOM      3  C   UNL A   1      43.539  18.764  26.216  1.00  0.00     0.116 C 
BRANCH   3   4
ATOM      4  N   UNL A   1      44.161  18.626  24.907  1.00  0.00    -0.352 N 
ATOM      5  O   UNL A   1      44.822  19.340  22.869  1.00  0.00    -0.269 OA
ATOM      6  C   UNL A   1      44.579  19.604  24.044  1.00  0.00     0.251 C 
ATOM      7  H   UNL A   1      44.301  17.701  24.599  1.00  0.00     0.163 HD
BRANCH   6   8
ATOM      8  C   UNL A   1      44.743  20.981  24.544  1.00  0.00     0.039 A 
ATOM      9  C   UNL A   1      45.415  21.206  25.748  1.00  0.00     0.014 A 
ATOM     10  C   UNL A   1      44.247  22.053  23.797  1.00  0.00     0.014 A 
ATOM     11  C   UNL A   1      45.482  22.488  26.269  1.00  0.00     0.010 A 
ATOM     12  C   UNL A   1      44.403  23.354  24.277  1.00  0.00     0.010 A 
ATOM     13  C   UNL A   1      45.009  23.579  25.522  1.00  0.00    -0.014 A 
BRANCH  13  14
ATOM     14  C   UNL A   1      45.260  24.949  26.027  1.00  0.00     0.031 A 
ATOM     15  C   UNL A   1      46.621  25.575  25.940  1.00  0.00     0.074 A 
ATOM     16  C   UNL A   1      44.222  25.630  26.551  1.00  0.00     0.049 A 
ATOM     17  N   UNL A   1      47.005  26.762  26.338  1.00  0.00    -0.248 NA
ATOM     18  C   UNL A   1      47.692  24.767  25.339  1.00  0.00     0.031 C 
ATOM     19  C   UNL A   1      42.859  25.108  26.691  1.00  0.00     0.029 A 
ATOM     20  N   UNL A   1      44.139  26.905  27.047  1.00  0.00    -0.354 N 
ATOM     21  C   UNL A   1      48.361  26.838  26.051  1.00  0.00     0.074 A 
ATOM     22  C   UNL A   1      48.742  25.569  25.469  1.00  0.00     0.031 C 
ATOM     23  C   UNL A   1      42.070  26.066  27.196  1.00  0.00     0.029 A 
ATOM     24  C   UNL A   1      42.881  27.240  27.484  1.00  0.00     0.049 A 
ATOM     25  H   UNL A   1      44.907  27.520  27.086  1.00  0.00     0.167 HD
ATOM     26  C   UNL A   1      49.203  27.879  26.255  1.00  0.00     0.037 A 
ATOM     27  C   UNL A   1      42.436  28.361  28.078  1.00  0.00     0.037 A 
ATOM     28  C   UNL A   1      48.805  29.142  26.825  1.00  0.00     0.049 A 
ATOM     29  C   UNL A   1      43.405  29.483  28.318  1.00  0.00     0.074 A 
ATOM     30  C   UNL A   1      49.574  30.273  27.036  1.00  0.00     0.029 A 
ATOM     31  N   UNL A   1      47.527  29.438  27.280  1.00  0.00    -0.354 N 
ATOM     32  N   UNL A   1      44.675  29.558  28.006  1.00  0.00    -0.248 NA
ATOM     33  C   UNL A   1      42.879  30.673  28.997  1.00  0.00     0.031 C 
ATOM     34  C   UNL A   1      48.778  31.232  27.672  1.00  0.00     0.029 A 
ATOM     35  C   UNL A   1      47.496  30.724  27.799  1.00  0.00     0.049 A 
ATOM     36  H   UNL A   1      46.758  28.826  27.240  1.00  0.00     0.167 HD
ATOM     37  C   UNL A   1      45.096  30.810  28.428  1.00  0.00     0.074 A 
ATOM     38  C   UNL A   1      43.938  31.470  28.997  1.00  0.00     0.031 C 
ATOM     39  C   UNL A   1      46.332  31.364  28.354  1.00  0.00     0.037 A 
BRANCH  26  40
ATOM     40  C   UNL A   1      50.647  27.704  25.880  1.00  0.00     0.064 A 
ATOM     41  C   UNL A   1      51.615  27.326  26.821  1.00  0.00     0.173 A 
ATOM     42  C   UNL A   1      51.052  27.841  24.542  1.00  0.00     0.173 A 
ATOM     43  F   UNL A   1      51.285  27.191  28.114  1.00  0.00    -0.203 F 
ATOM     44  C   UNL A   1      52.938  27.107  26.440  1.00  0.00     0.198 A 
ATOM     45  C   UNL A   1      52.368  27.595  24.161  1.00  0.00     0.198 A 
ATOM     46  F   UNL A   1      50.164  28.195  23.600  1.00  0.00    -0.203 F 
ATOM     47  F   UNL A   1      53.854  26.778  27.362  1.00  0.00    -0.200 F 
ATOM     48  C   UNL A   1      53.311  27.231  25.110  1.00  0.00     0.200 A 
ATOM     49  F   UNL A   1      52.723  27.699  22.872  1.00  0.00    -0.200 F 
ATOM     50  F   UNL A   1      54.580  27.002  24.744  1.00  0.00    -0.200 F 
ENDBRANCH  26  40
BRANCH  27  51
ATOM     51  C   UNL A   1      41.015  28.464  28.502  1.00  0.00     0.064 A 
ATOM     52  C   UNL A   1      40.036  28.968  27.636  1.00  0.00     0.173 A 
ATOM     53  C   UNL A   1      40.611  28.070  29.786  1.00  0.00     0.173 A 
ATOM     54  F   UNL A   1      40.374  29.374  26.404  1.00  0.00    -0.203 F 
ATOM     55  C   UNL A   1      38.711  29.100  28.048  1.00  0.00     0.198 A 
ATOM     56  C   UNL A   1      39.279  28.167  30.184  1.00  0.00     0.198 A 
ATOM     57  F   UNL A   1      41.506  27.572  30.651  1.00  0.00    -0.203 F 
ATOM     58  F   UNL A   1      37.805  29.637  27.220  1.00  0.00    -0.200 F 
ATOM     59  C   UNL A   1      38.334  28.694  29.320  1.00  0.00     0.200 A 
ATOM     60  F   UNL A   1      38.916  27.754  31.406  1.00  0.00    -0.200 F 
ATOM     61  F   UNL A   1      37.059  28.819  29.713  1.00  0.00    -0.200 F 
ENDBRANCH  27  51
BRANCH  39  62
ATOM     62  C   UNL A   1      46.479  32.767  28.868  1.00  0.00     0.064 A 
ATOM     63  C   UNL A   1      46.261  33.882  28.043  1.00  0.00     0.173 A 
ATOM     64  C   UNL A   1      46.820  32.998  30.210  1.00  0.00     0.173 A 
ATOM     65  F   UNL A   1      45.952  33.713  26.749  1.00  0.00    -0.203 F 
ATOM     66  C   UNL A   1      46.411  35.175  28.536  1.00  0.00     0.198 A 
ATOM     67  C   UNL A   1      46.934  34.293  30.707  1.00  0.00     0.198 A 
ATOM     68  F   UNL A   1      47.033  31.967  31.040  1.00  0.00    -0.203 F 
ATOM     69  F   UNL A   1      46.256  36.223  27.715  1.00  0.00    -0.200 F 
ATOM     70  C   UNL A   1      46.739  35.379  29.867  1.00  0.00     0.200 A 
ATOM     71  F   UNL A   1      47.236  34.488  31.997  1.00  0.00    -0.200 F 
ATOM     72  F   UNL A   1      46.878  36.625  30.341  1.00  0.00    -0.200 F 
ENDBRANCH  39  62
ENDBRANCH  13  14
ENDBRANCH   6   8
ENDBRANCH   3   4
ENDBRANCH   2   3
ENDBRANCH   1   2
BRANCH   1  73
ATOM     73  C   UNL A   1      41.357  21.798  26.402  1.00  0.00     0.002 C 
BRANCH  73  74
ATOM     74  C   UNL A   1      40.356  22.577  27.258  1.00  0.00     0.021 C 
BRANCH  74  75
ATOM     75  C   UNL A   1      39.074  22.907  26.502  1.00  0.00     0.116 C 
BRANCH  75  76
ATOM     76  N   UNL A   1      38.717  21.853  25.589  1.00  0.00    -0.356 N 
ATOM     77  C   UNL A   1      37.501  21.440  25.160  1.00  0.00     0.223 C 
ATOM     78  H   UNL A   1      39.479  21.352  25.216  1.00  0.00     0.163 HD
ATOM     79  O   UNL A   1      37.479  20.472  24.393  1.00  0.00    -0.275 OA
BRANCH  77  80
ATOM     80  C   UNL A   1      36.198  22.150  25.535  1.00  0.00     0.089 C 
ATOM     81  C   UNL A   1      35.009  21.185  25.615  1.00  0.00     0.075 C 
ATOM     82  C   UNL A   1      35.940  23.494  24.842  1.00  0.00     0.075 C 
ATOM     83  C   UNL A   1      33.940  21.356  24.542  1.00  0.00     0.263 C 
ATOM     84  C   UNL A   1      34.751  23.557  23.880  1.00  0.00     0.263 C 
ATOM     85  N   UNL A   1      33.595  22.739  24.228  1.00  0.00    -0.324 N 
ATOM     86  H   UNL A   1      33.089  22.720  23.342  1.00  0.00     0.348 HD
BRANCH  85  87
ATOM     87  C   UNL A   1      32.550  23.326  25.089  1.00  0.00     0.284 C 
ATOM     88  C   UNL A   1      32.997  24.265  26.190  1.00  0.00     0.176 C 
ATOM     89  C   UNL A   1      31.599  24.201  24.271  1.00  0.00     0.292 C 
ATOM     90  C   UNL A   1      32.793  25.623  25.599  1.00  0.00     0.240 C 
ATOM     91  N   UNL A   1      31.901  25.517  24.557  1.00  0.00    -0.245 N 
ATOM     92  O   UNL A   1      30.805  23.767  23.447  1.00  0.00    -0.267 OA
ATOM     93  O   UNL A   1      33.303  26.628  26.076  1.00  0.00    -0.274 OA
BRANCH  91  94
ATOM     94  C   UNL A   1      31.401  26.625  23.833  1.00  0.00     0.056 A 
ATOM     95  C   UNL A   1      32.238  27.381  23.001  1.00  0.00     0.031 A 
ATOM     96  C   UNL A   1      30.051  26.987  23.938  1.00  0.00     0.077 A 
ATOM     97  C   UNL A   1      31.726  28.445  22.252  1.00  0.00     0.052 A 
ATOM     98  C   UNL A   1      29.550  28.076  23.225  1.00  0.00     0.163 A 
ATOM     99  C   UNL A   1      30.386  28.800  22.375  1.00  0.00     0.161 A 
ATOM    100  O   UNL A   1      28.230  28.385  23.430  1.00  0.00    -0.486 OA
ATOM    101  O   UNL A   1      29.957  29.866  21.627  1.00  0.00    -0.486 OA
ATOM    102  C   UNL A   1      27.731  29.256  22.411  1.00  0.00     0.271 C 
ATOM    103  C   UNL A   1      28.713  30.378  22.116  1.00  0.00     0.271 C 
ENDBRANCH  91  94
ENDBRANCH  85  87
ENDBRANCH  77  80
ENDBRANCH  75  76
ENDBRANCH  74  75
ENDBRANCH  73  74
ENDBRANCH   1  73
TORSDOF 15
ENDMDL
