MODEL 1
REMARK VINA RESULT:     -12.3      0.000      0.000
REMARK SMILES CC[C@](O)(C(=O)NCCCCCCNC(=O)c1ccc(-c2c3nc(c(-c4c(F)c(F)c(F)c(F)c4F)c4ccc([nH]4)c(-c4c(F)c(F)c(F)c(F)c4F)c4nc(c(-c5c(F)c(F)c(F)c(F)c5F)c5ccc2[nH]5)C=C4)C=C3)cc1)[C@@H](C)c1ccc2c(c1)OCCO2
REMARK SMILES IDX 10 1 9 2 8 3 7 4 5 5 6 6 3 8 2 9 1 10 80 11 81 12 82 13
REMARK SMILES IDX 83 14 87 15 84 16 86 17 85 18 88 19 91 20 89 21 90 22 4 23
REMARK SMILES IDX 11 25 12 26 13 27 14 28 15 29 16 31 17 32 18 33 79 34 19 35
REMARK SMILES IDX 78 36 20 37 21 38 22 39 72 40 23 41 77 42 71 43 73 44 24 45
REMARK SMILES IDX 76 46 70 47 69 48 25 50 57 51 37 52 56 53 38 54 41 55 55 56
REMARK SMILES IDX 74 57 39 58 40 59 54 61 75 62 42 63 26 64 27 65 35 66 28 67
REMARK SMILES IDX 29 68 33 69 36 70 30 71 31 72 34 73 32 74 58 75 59 76 67 77
REMARK SMILES IDX 60 78 61 79 65 80 68 81 62 82 63 83 66 84 64 85 43 86 44 87
REMARK SMILES IDX 52 88 45 89 46 90 50 91 53 92 47 93 48 94 51 95 49 96
REMARK H PARENT 7 7 4 24 14 30 73 49 41 60
REMARK Flexibility Score: inf
ROOT
ATOM      1  C   UNL A   1      37.316  22.407  24.744  1.00  0.00     0.002 C 
ENDROOT
BRANCH   1   2
ATOM      2  C   UNL A   1      36.322  23.246  23.934  1.00  0.00     0.021 C 
BRANCH   2   3
ATOM      3  C   UNL A   1      35.377  24.081  24.791  1.00  0.00     0.116 C 
BRANCH   3   4
ATOM      4  N   UNL A   1      34.131  24.340  24.092  1.00  0.00    -0.354 N 
ATOM      5  C   UNL A   1      32.852  23.962  24.382  1.00  0.00     0.252 C 
ATOM      6  O   UNL A   1      31.969  24.365  23.621  1.00  0.00    -0.272 OA
ATOM      7  H   UNL A   1      34.225  24.876  23.271  1.00  0.00     0.163 HD
BRANCH   5   8
ATOM      8  C   UNL A   1      32.537  23.147  25.680  1.00  0.00     0.149 C 
BRANCH   8   9
ATOM      9  C   UNL A   1      30.994  22.910  25.557  1.00  0.00     0.043 C 
ATOM     10  C   UNL A   1      30.118  22.848  26.794  1.00  0.00     0.007 C 
ENDBRANCH   8   9
BRANCH   8  11
ATOM     11  C   UNL A   1      33.438  21.847  25.694  1.00  0.00     0.058 C 
ATOM     12  C   UNL A   1      33.894  21.406  27.094  1.00  0.00     0.016 C 
BRANCH  11  13
ATOM     13  C   UNL A   1      32.833  20.635  24.989  1.00  0.00    -0.038 A 
ATOM     14  C   UNL A   1      32.471  20.640  23.629  1.00  0.00     0.008 A 
ATOM     15  C   UNL A   1      32.817  19.423  25.691  1.00  0.00     0.054 A 
ATOM     16  C   UNL A   1      32.369  19.436  22.928  1.00  0.00     0.051 A 
ATOM     17  C   UNL A   1      32.772  18.230  24.988  1.00  0.00     0.161 A 
ATOM     18  C   UNL A   1      32.632  18.249  23.598  1.00  0.00     0.161 A 
ATOM     19  O   UNL A   1      33.061  17.101  25.708  1.00  0.00    -0.486 OA
ATOM     20  O   UNL A   1      32.917  17.137  22.839  1.00  0.00    -0.486 OA
ATOM     21  C   UNL A   1      33.471  15.999  24.890  1.00  0.00     0.271 C 
ATOM     22  C   UNL A   1      33.970  16.433  23.519  1.00  0.00     0.271 C 
ENDBRANCH  11  13
ENDBRANCH   8  11
BRANCH   8  23
ATOM     23  O   UNL A   1      32.821  23.930  26.844  1.00  0.00    -0.379 OA
ATOM     24  H   UNL A   1      33.239  23.370  27.517  1.00  0.00     0.212 HD
ENDBRANCH   8  23
ENDBRANCH   5   8
ENDBRANCH   3   4
ENDBRANCH   2   3
ENDBRANCH   1   2
BRANCH   1  25
ATOM     25  C   UNL A   1      36.882  20.962  25.009  1.00  0.00     0.002 C 
BRANCH  25  26
ATOM     26  C   UNL A   1      38.004  19.925  24.942  1.00  0.00     0.021 C 
BRANCH  26  27
ATOM     27  C   UNL A   1      39.247  20.287  25.741  1.00  0.00     0.116 C 
BRANCH  27  28
ATOM     28  N   UNL A   1      40.172  19.171  25.861  1.00  0.00    -0.352 N 
ATOM     29  C   UNL A   1      41.523  19.204  26.098  1.00  0.00     0.251 C 
ATOM     30  H   UNL A   1      39.778  18.276  25.756  1.00  0.00     0.163 HD
ATOM     31  O   UNL A   1      42.204  18.187  26.014  1.00  0.00    -0.269 OA
BRANCH  29  32
ATOM     32  C   UNL A   1      42.157  20.493  26.436  1.00  0.00     0.039 A 
ATOM     33  C   UNL A   1      42.583  21.335  25.406  1.00  0.00     0.014 A 
ATOM     34  C   UNL A   1      42.292  20.879  27.773  1.00  0.00     0.014 A 
ATOM     35  C   UNL A   1      43.090  22.599  25.715  1.00  0.00     0.010 A 
ATOM     36  C   UNL A   1      42.728  22.161  28.075  1.00  0.00     0.010 A 
ATOM     37  C   UNL A   1      43.135  23.032  27.050  1.00  0.00    -0.014 A 
BRANCH  37  38
ATOM     38  C   UNL A   1      43.625  24.381  27.424  1.00  0.00     0.031 A 
ATOM     39  C   UNL A   1      42.649  25.403  27.933  1.00  0.00     0.074 A 
ATOM     40  C   UNL A   1      44.905  24.722  27.194  1.00  0.00     0.049 A 
ATOM     41  N   UNL A   1      42.816  26.684  28.134  1.00  0.00    -0.248 NA
ATOM     42  C   UNL A   1      41.289  24.919  28.214  1.00  0.00     0.031 C 
ATOM     43  C   UNL A   1      45.937  23.828  26.667  1.00  0.00     0.029 A 
ATOM     44  N   UNL A   1      45.549  25.927  27.338  1.00  0.00    -0.354 N 
ATOM     45  C   UNL A   1      41.575  27.164  28.527  1.00  0.00     0.074 A 
ATOM     46  C   UNL A   1      40.657  26.048  28.495  1.00  0.00     0.031 C 
ATOM     47  C   UNL A   1      47.082  24.515  26.528  1.00  0.00     0.029 A 
ATOM     48  C   UNL A   1      46.853  25.906  26.911  1.00  0.00     0.049 A 
ATOM     49  H   UNL A   1      45.116  26.728  27.714  1.00  0.00     0.167 HD
ATOM     50  C   UNL A   1      41.238  28.423  28.897  1.00  0.00     0.037 A 
ATOM     51  C   UNL A   1      47.754  26.903  26.812  1.00  0.00     0.037 A 
ATOM     52  C   UNL A   1      42.166  29.520  28.955  1.00  0.00     0.049 A 
ATOM     53  C   UNL A   1      47.364  28.292  27.234  1.00  0.00     0.074 A 
ATOM     54  C   UNL A   1      41.946  30.816  29.387  1.00  0.00     0.029 A 
ATOM     55  N   UNL A   1      43.496  29.447  28.565  1.00  0.00    -0.354 N 
ATOM     56  N   UNL A   1      46.205  28.729  27.665  1.00  0.00    -0.248 NA
ATOM     57  C   UNL A   1      48.405  29.328  27.163  1.00  0.00     0.031 C 
ATOM     58  C   UNL A   1      43.129  31.540  29.210  1.00  0.00     0.029 A 
ATOM     59  C   UNL A   1      44.102  30.683  28.723  1.00  0.00     0.049 A 
ATOM     60  H   UNL A   1      43.943  28.638  28.225  1.00  0.00     0.167 HD
ATOM     61  C   UNL A   1      46.382  30.077  27.944  1.00  0.00     0.074 A 
ATOM     62  C   UNL A   1      47.762  30.389  27.633  1.00  0.00     0.031 C 
ATOM     63  C   UNL A   1      45.484  30.971  28.423  1.00  0.00     0.037 A 
BRANCH  50  64
ATOM     64  C   UNL A   1      39.799  28.676  29.246  1.00  0.00     0.064 A 
ATOM     65  C   UNL A   1      38.878  29.147  28.297  1.00  0.00     0.173 A 
ATOM     66  C   UNL A   1      39.335  28.447  30.550  1.00  0.00     0.173 A 
ATOM     67  F   UNL A   1      39.272  29.393  27.038  1.00  0.00    -0.203 F 
ATOM     68  C   UNL A   1      37.561  29.427  28.653  1.00  0.00     0.198 A 
ATOM     69  C   UNL A   1      38.008  28.693  30.893  1.00  0.00     0.198 A 
ATOM     70  F   UNL A   1      40.168  27.989  31.495  1.00  0.00    -0.203 F 
ATOM     71  F   UNL A   1      36.720  29.945  27.747  1.00  0.00    -0.200 F 
ATOM     72  C   UNL A   1      37.126  29.197  29.949  1.00  0.00     0.200 A 
ATOM     73  F   UNL A   1      37.586  28.456  32.143  1.00  0.00    -0.200 F 
ATOM     74  F   UNL A   1      35.860  29.470  30.291  1.00  0.00    -0.200 F 
ENDBRANCH  50  64
BRANCH  51  75
ATOM     75  C   UNL A   1      49.116  26.604  26.301  1.00  0.00     0.064 A 
ATOM     76  C   UNL A   1      49.449  26.834  24.961  1.00  0.00     0.173 A 
ATOM     77  C   UNL A   1      50.125  26.127  27.152  1.00  0.00     0.173 A 
ATOM     78  F   UNL A   1      48.514  27.273  24.105  1.00  0.00    -0.203 F 
ATOM     79  C   UNL A   1      50.738  26.596  24.487  1.00  0.00     0.198 A 
ATOM     80  C   UNL A   1      51.419  25.912  26.684  1.00  0.00     0.198 A 
ATOM     81  F   UNL A   1      49.858  25.898  28.447  1.00  0.00    -0.203 F 
ATOM     82  F   UNL A   1      51.024  26.801  23.195  1.00  0.00    -0.200 F 
ATOM     83  C   UNL A   1      51.724  26.142  25.352  1.00  0.00     0.200 A 
ATOM     84  F   UNL A   1      52.373  25.491  27.527  1.00  0.00    -0.200 F 
ATOM     85  F   UNL A   1      52.967  25.930  24.901  1.00  0.00    -0.200 F 
ENDBRANCH  51  75
BRANCH  63  86
ATOM     86  C   UNL A   1      45.963  32.368  28.692  1.00  0.00     0.064 A 
ATOM     87  C   UNL A   1      45.923  33.364  27.707  1.00  0.00     0.173 A 
ATOM     88  C   UNL A   1      46.380  32.732  29.981  1.00  0.00     0.173 A 
ATOM     89  F   UNL A   1      45.544  33.063  26.455  1.00  0.00    -0.203 F 
ATOM     90  C   UNL A   1      46.288  34.676  28.004  1.00  0.00     0.198 A 
ATOM     91  C   UNL A   1      46.719  34.047  30.281  1.00  0.00     0.198 A 
ATOM     92  F   UNL A   1      46.430  31.814  30.959  1.00  0.00    -0.203 F 
ATOM     93  F   UNL A   1      46.265  35.609  27.041  1.00  0.00    -0.200 F 
ATOM     94  C   UNL A   1      46.674  35.018  29.291  1.00  0.00     0.200 A 
ATOM     95  F   UNL A   1      47.077  34.379  31.528  1.00  0.00    -0.200 F 
ATOM     96  F   UNL A   1      47.003  36.285  29.579  1.00  0.00    -0.200 F 
ENDBRANCH  63  86
ENDBRANCH  37  38
ENDBRANCH  29  32
ENDBRANCH  27  28
ENDBRANCH  26  27
ENDBRANCH  25  26
ENDBRANCH   1  25
TORSDOF 17
ENDMDL
MODEL 2
REMARK VINA RESULT:     -12.2      0.257      1.594
REMARK SMILES CC[C@](O)(C(=O)NCCCCCCNC(=O)c1ccc(-c2c3nc(c(-c4c(F)c(F)c(F)c(F)c4F)c4ccc([nH]4)c(-c4c(F)c(F)c(F)c(F)c4F)c4nc(c(-c5c(F)c(F)c(F)c(F)c5F)c5ccc2[nH]5)C=C4)C=C3)cc1)[C@@H](C)c1ccc2c(c1)OCCO2
REMARK SMILES IDX 10 1 9 2 8 3 7 4 5 5 6 6 3 8 2 9 1 10 80 11 81 12 82 13
REMARK SMILES IDX 83 14 87 15 84 16 86 17 85 18 88 19 91 20 89 21 90 22 4 23
REMARK SMILES IDX 11 25 12 26 13 27 14 28 15 29 16 31 17 32 18 33 79 34 19 35
REMARK SMILES IDX 78 36 20 37 21 38 22 39 72 40 23 41 77 42 71 43 73 44 24 45
REMARK SMILES IDX 76 46 70 47 69 48 25 50 57 51 37 52 56 53 38 54 41 55 55 56
REMARK SMILES IDX 74 57 39 58 40 59 54 61 75 62 42 63 26 64 27 65 35 66 28 67
REMARK SMILES IDX 29 68 33 69 36 70 30 71 31 72 34 73 32 74 58 75 59 76 67 77
REMARK SMILES IDX 60 78 61 79 65 80 68 81 62 82 63 83 66 84 64 85 43 86 44 87
REMARK SMILES IDX 52 88 45 89 46 90 50 91 53 92 47 93 48 94 51 95 49 96
REMARK H PARENT 7 7 4 24 14 30 73 49 41 60
REMARK Flexibility Score: inf
ROOT
ATOM      1  C   UNL A   1      37.292  22.399  25.214  1.00  0.00     0.002 C 
ENDROOT
BRANCH   1   2
ATOM      2  C   UNL A   1      36.544  23.353  24.277  1.00  0.00     0.021 C 
BRANCH   2   3
ATOM      3  C   UNL A   1      35.539  24.252  24.986  1.00  0.00     0.116 C 
BRANCH   3   4
ATOM      4  N   UNL A   1      34.338  24.421  24.188  1.00  0.00    -0.354 N 
ATOM      5  C   UNL A   1      33.056  24.010  24.409  1.00  0.00     0.252 C 
ATOM      6  O   UNL A   1      32.215  24.333  23.566  1.00  0.00    -0.272 OA
ATOM      7  H   UNL A   1      34.471  24.914  23.345  1.00  0.00     0.163 HD
BRANCH   5   8
ATOM      8  C   UNL A   1      32.678  23.257  25.728  1.00  0.00     0.149 C 
BRANCH   8   9
ATOM      9  C   UNL A   1      31.126  23.099  25.587  1.00  0.00     0.043 C 
ATOM     10  C   UNL A   1      30.247  22.955  26.815  1.00  0.00     0.007 C 
ENDBRANCH   8   9
BRANCH   8  11
ATOM     11  C   UNL A   1      33.507  21.912  25.800  1.00  0.00     0.058 C 
ATOM     12  C   UNL A   1      33.837  21.446  27.227  1.00  0.00     0.016 C 
BRANCH  11  13
ATOM     13  C   UNL A   1      32.892  20.734  25.046  1.00  0.00    -0.038 A 
ATOM     14  C   UNL A   1      32.537  20.794  23.686  1.00  0.00     0.008 A 
ATOM     15  C   UNL A   1      32.859  19.497  25.703  1.00  0.00     0.054 A 
ATOM     16  C   UNL A   1      32.426  19.620  22.939  1.00  0.00     0.051 A 
ATOM     17  C   UNL A   1      32.805  18.331  24.954  1.00  0.00     0.161 A 
ATOM     18  C   UNL A   1      32.672  18.405  23.565  1.00  0.00     0.161 A 
ATOM     19  O   UNL A   1      33.078  17.173  25.632  1.00  0.00    -0.486 OA
ATOM     20  O   UNL A   1      32.949  17.319  22.766  1.00  0.00    -0.486 OA
ATOM     21  C   UNL A   1      33.481  16.099  24.775  1.00  0.00     0.271 C 
ATOM     22  C   UNL A   1      33.991  16.578  23.423  1.00  0.00     0.271 C 
ENDBRANCH  11  13
ENDBRANCH   8  11
BRANCH   8  23
ATOM     23  O   UNL A   1      32.987  24.063  26.870  1.00  0.00    -0.379 OA
ATOM     24  H   UNL A   1      33.906  24.367  26.811  1.00  0.00     0.212 HD
ENDBRANCH   8  23
ENDBRANCH   5   8
ENDBRANCH   3   4
ENDBRANCH   2   3
ENDBRANCH   1   2
BRANCH   1  25
ATOM     25  C   UNL A   1      36.894  20.924  25.094  1.00  0.00     0.002 C 
BRANCH  25  26
ATOM     26  C   UNL A   1      38.061  19.947  24.950  1.00  0.00     0.021 C 
BRANCH  26  27
ATOM     27  C   UNL A   1      39.300  20.320  25.751  1.00  0.00     0.116 C 
BRANCH  27  28
ATOM     28  N   UNL A   1      40.222  19.205  25.894  1.00  0.00    -0.352 N 
ATOM     29  C   UNL A   1      41.575  19.241  26.124  1.00  0.00     0.251 C 
ATOM     30  H   UNL A   1      39.826  18.308  25.813  1.00  0.00     0.163 HD
ATOM     31  O   UNL A   1      42.253  18.220  26.062  1.00  0.00    -0.269 OA
BRANCH  29  32
ATOM     32  C   UNL A   1      42.213  20.536  26.428  1.00  0.00     0.039 A 
ATOM     33  C   UNL A   1      42.645  21.348  25.376  1.00  0.00     0.014 A 
ATOM     34  C   UNL A   1      42.347  20.958  27.754  1.00  0.00     0.014 A 
ATOM     35  C   UNL A   1      43.157  22.617  25.651  1.00  0.00     0.010 A 
ATOM     36  C   UNL A   1      42.787  22.246  28.021  1.00  0.00     0.010 A 
ATOM     37  C   UNL A   1      43.200  23.087  26.974  1.00  0.00    -0.014 A 
BRANCH  37  38
ATOM     38  C   UNL A   1      43.695  24.443  27.311  1.00  0.00     0.031 A 
ATOM     39  C   UNL A   1      42.726  25.477  27.810  1.00  0.00     0.074 A 
ATOM     40  C   UNL A   1      44.972  24.779  27.057  1.00  0.00     0.049 A 
ATOM     41  N   UNL A   1      42.895  26.762  27.980  1.00  0.00    -0.248 NA
ATOM     42  C   UNL A   1      41.369  25.000  28.120  1.00  0.00     0.031 C 
ATOM     43  C   UNL A   1      45.997  23.873  26.538  1.00  0.00     0.029 A 
ATOM     44  N   UNL A   1      45.617  25.986  27.167  1.00  0.00    -0.354 N 
ATOM     45  C   UNL A   1      41.659  27.251  28.379  1.00  0.00     0.074 A 
ATOM     46  C   UNL A   1      40.741  26.134  28.383  1.00  0.00     0.031 C 
ATOM     47  C   UNL A   1      47.140  24.557  26.369  1.00  0.00     0.029 A 
ATOM     48  C   UNL A   1      46.916  25.956  26.724  1.00  0.00     0.049 A 
ATOM     49  H   UNL A   1      45.189  26.796  27.531  1.00  0.00     0.167 HD
ATOM     50  C   UNL A   1      41.326  28.518  28.725  1.00  0.00     0.037 A 
ATOM     51  C   UNL A   1      47.816  26.950  26.591  1.00  0.00     0.037 A 
ATOM     52  C   UNL A   1      42.256  29.616  28.747  1.00  0.00     0.049 A 
ATOM     53  C   UNL A   1      47.431  28.349  26.988  1.00  0.00     0.074 A 
ATOM     54  C   UNL A   1      42.041  30.921  29.153  1.00  0.00     0.029 A 
ATOM     55  N   UNL A   1      43.581  29.534  28.342  1.00  0.00    -0.354 N 
ATOM     56  N   UNL A   1      46.278  28.795  27.423  1.00  0.00    -0.248 NA
ATOM     57  C   UNL A   1      48.471  29.383  26.880  1.00  0.00     0.031 C 
ATOM     58  C   UNL A   1      43.221  31.641  28.944  1.00  0.00     0.029 A 
ATOM     59  C   UNL A   1      44.189  30.772  28.464  1.00  0.00     0.049 A 
ATOM     60  H   UNL A   1      44.023  28.717  28.014  1.00  0.00     0.167 HD
ATOM     61  C   UNL A   1      46.458  30.149  27.670  1.00  0.00     0.074 A 
ATOM     62  C   UNL A   1      47.835  30.454  27.335  1.00  0.00     0.031 C 
ATOM     63  C   UNL A   1      45.566  31.054  28.140  1.00  0.00     0.037 A 
BRANCH  50  64
ATOM     64  C   UNL A   1      39.892  28.779  29.086  1.00  0.00     0.064 A 
ATOM     65  C   UNL A   1      39.422  28.640  30.402  1.00  0.00     0.173 A 
ATOM     66  C   UNL A   1      38.973  29.170  28.102  1.00  0.00     0.173 A 
ATOM     67  F   UNL A   1      40.257  28.257  31.380  1.00  0.00    -0.203 F 
ATOM     68  C   UNL A   1      38.077  28.833  30.707  1.00  0.00     0.198 A 
ATOM     69  C   UNL A   1      37.636  29.399  28.418  1.00  0.00     0.198 A 
ATOM     70  F   UNL A   1      39.368  29.327  26.830  1.00  0.00    -0.203 F 
ATOM     71  F   UNL A   1      37.639  28.622  31.956  1.00  0.00    -0.200 F 
ATOM     72  C   UNL A   1      37.187  29.215  29.716  1.00  0.00     0.200 A 
ATOM     73  F   UNL A   1      36.779  29.783  27.461  1.00  0.00    -0.200 F 
ATOM     74  F   UNL A   1      35.892  29.397  30.011  1.00  0.00    -0.200 F 
ENDBRANCH  50  64
BRANCH  51  75
ATOM     75  C   UNL A   1      49.172  26.639  26.070  1.00  0.00     0.064 A 
ATOM     76  C   UNL A   1      50.146  26.066  26.897  1.00  0.00     0.173 A 
ATOM     77  C   UNL A   1      49.504  26.864  24.726  1.00  0.00     0.173 A 
ATOM     78  F   UNL A   1      49.880  25.849  28.193  1.00  0.00    -0.203 F 
ATOM     79  C   UNL A   1      51.405  25.733  26.401  1.00  0.00     0.198 A 
ATOM     80  C   UNL A   1      50.754  26.508  24.225  1.00  0.00     0.198 A 
ATOM     81  F   UNL A   1      48.603  27.403  23.892  1.00  0.00    -0.203 F 
ATOM     82  F   UNL A   1      52.328  25.209  27.219  1.00  0.00    -0.200 F 
ATOM     83  C   UNL A   1      51.705  25.947  25.064  1.00  0.00     0.200 A 
ATOM     84  F   UNL A   1      51.035  26.700  22.929  1.00  0.00    -0.200 F 
ATOM     85  F   UNL A   1      52.910  25.610  24.583  1.00  0.00    -0.200 F 
ENDBRANCH  51  75
BRANCH  63  86
ATOM     86  C   UNL A   1      46.049  32.456  28.372  1.00  0.00     0.064 A 
ATOM     87  C   UNL A   1      45.940  33.446  27.386  1.00  0.00     0.173 A 
ATOM     88  C   UNL A   1      46.540  32.831  29.632  1.00  0.00     0.173 A 
ATOM     89  F   UNL A   1      45.489  33.134  26.161  1.00  0.00    -0.203 F 
ATOM     90  C   UNL A   1      46.312  34.762  27.653  1.00  0.00     0.198 A 
ATOM     91  C   UNL A   1      46.885  34.151  29.903  1.00  0.00     0.198 A 
ATOM     92  F   UNL A   1      46.657  31.919  30.610  1.00  0.00    -0.203 F 
ATOM     93  F   UNL A   1      46.222  35.689  26.689  1.00  0.00    -0.200 F 
ATOM     94  C   UNL A   1      46.772  35.116  28.913  1.00  0.00     0.200 A 
ATOM     95  F   UNL A   1      47.315  34.493  31.125  1.00  0.00    -0.200 F 
ATOM     96  F   UNL A   1      47.107  36.387  29.173  1.00  0.00    -0.200 F 
ENDBRANCH  63  86
ENDBRANCH  37  38
ENDBRANCH  29  32
ENDBRANCH  27  28
ENDBRANCH  26  27
ENDBRANCH  25  26
ENDBRANCH   1  25
TORSDOF 17
ENDMDL
MODEL 3
REMARK VINA RESULT:     -12.1      6.057     11.532
REMARK SMILES CC[C@](O)(C(=O)NCCCCCCNC(=O)c1ccc(-c2c3nc(c(-c4c(F)c(F)c(F)c(F)c4F)c4ccc([nH]4)c(-c4c(F)c(F)c(F)c(F)c4F)c4nc(c(-c5c(F)c(F)c(F)c(F)c5F)c5ccc2[nH]5)C=C4)C=C3)cc1)[C@@H](C)c1ccc2c(c1)OCCO2
REMARK SMILES IDX 10 1 9 2 8 3 7 4 5 5 6 6 3 8 2 9 1 10 80 11 81 12 82 13
REMARK SMILES IDX 83 14 87 15 84 16 86 17 85 18 88 19 91 20 89 21 90 22 4 23
REMARK SMILES IDX 11 25 12 26 13 27 14 28 15 29 16 31 17 32 18 33 79 34 19 35
REMARK SMILES IDX 78 36 20 37 21 38 22 39 72 40 23 41 77 42 71 43 73 44 24 45
REMARK SMILES IDX 76 46 70 47 69 48 25 50 57 51 37 52 56 53 38 54 41 55 55 56
REMARK SMILES IDX 74 57 39 58 40 59 54 61 75 62 42 63 26 64 27 65 35 66 28 67
REMARK SMILES IDX 29 68 33 69 36 70 30 71 31 72 34 73 32 74 58 75 59 76 67 77
REMARK SMILES IDX 60 78 61 79 65 80 68 81 62 82 63 83 66 84 64 85 43 86 44 87
REMARK SMILES IDX 52 88 45 89 46 90 50 91 53 92 47 93 48 94 51 95 49 96
REMARK H PARENT 7 7 4 24 14 30 73 49 41 60
REMARK Flexibility Score: inf
ROOT
ATOM      1  C   UNL A   1      32.201  29.414  27.220  1.00  0.00     0.002 C 
ENDROOT
BRANCH   1   2
ATOM      2  C   UNL A   1      33.257  28.371  26.841  1.00  0.00     0.021 C 
BRANCH   2   3
ATOM      3  C   UNL A   1      32.677  27.006  26.489  1.00  0.00     0.116 C 
BRANCH   3   4
ATOM      4  N   UNL A   1      33.605  26.239  25.677  1.00  0.00    -0.354 N 
ATOM      5  C   UNL A   1      33.494  25.772  24.400  1.00  0.00     0.252 C 
ATOM      6  O   UNL A   1      34.472  25.175  23.941  1.00  0.00    -0.272 OA
ATOM      7  H   UNL A   1      34.455  26.019  26.123  1.00  0.00     0.163 HD
BRANCH   5   8
ATOM      8  C   UNL A   1      32.221  26.083  23.545  1.00  0.00     0.149 C 
BRANCH   8   9
ATOM      9  C   UNL A   1      31.154  25.126  24.178  1.00  0.00     0.043 C 
ATOM     10  C   UNL A   1      30.676  23.896  23.430  1.00  0.00     0.007 C 
ENDBRANCH   8   9
BRANCH   8  11
ATOM     11  C   UNL A   1      31.908  27.630  23.644  1.00  0.00     0.058 C 
ATOM     12  C   UNL A   1      32.972  28.535  23.003  1.00  0.00     0.016 C 
BRANCH  11  13
ATOM     13  C   UNL A   1      30.541  28.048  23.104  1.00  0.00    -0.038 A 
ATOM     14  C   UNL A   1      29.343  27.411  23.473  1.00  0.00     0.008 A 
ATOM     15  C   UNL A   1      30.480  29.231  22.356  1.00  0.00     0.054 A 
ATOM     16  C   UNL A   1      28.125  28.082  23.342  1.00  0.00     0.051 A 
ATOM     17  C   UNL A   1      29.282  29.922  22.276  1.00  0.00     0.161 A 
ATOM     18  C   UNL A   1      28.127  29.378  22.845  1.00  0.00     0.161 A 
ATOM     19  O   UNL A   1      29.361  31.201  21.794  1.00  0.00    -0.486 OA
ATOM     20  O   UNL A   1      27.018  30.156  23.085  1.00  0.00    -0.486 OA
ATOM     21  C   UNL A   1      28.245  32.017  22.168  1.00  0.00     0.271 C 
ATOM     22  C   UNL A   1      27.498  31.478  23.380  1.00  0.00     0.271 C 
ENDBRANCH  11  13
ENDBRANCH   8  11
BRANCH   8  23
ATOM     23  O   UNL A   1      32.441  25.733  22.175  1.00  0.00    -0.379 OA
ATOM     24  H   UNL A   1      31.603  25.455  21.773  1.00  0.00     0.212 HD
ENDBRANCH   8  23
ENDBRANCH   5   8
ENDBRANCH   3   4
ENDBRANCH   2   3
ENDBRANCH   1   2
BRANCH   1  25
ATOM     25  C   UNL A   1      31.914  30.468  26.144  1.00  0.00     0.002 C 
BRANCH  25  26
ATOM     26  C   UNL A   1      31.560  31.857  26.675  1.00  0.00     0.021 C 
BRANCH  26  27
ATOM     27  C   UNL A   1      32.716  32.596  27.333  1.00  0.00     0.116 C 
BRANCH  27  28
ATOM     28  N   UNL A   1      32.401  33.990  27.601  1.00  0.00    -0.352 N 
ATOM     29  C   UNL A   1      32.978  34.835  28.515  1.00  0.00     0.251 C 
ATOM     30  H   UNL A   1      31.678  34.377  27.057  1.00  0.00     0.163 HD
ATOM     31  O   UNL A   1      32.500  35.942  28.742  1.00  0.00    -0.269 OA
BRANCH  29  32
ATOM     32  C   UNL A   1      34.178  34.384  29.246  1.00  0.00     0.039 A 
ATOM     33  C   UNL A   1      34.028  33.767  30.491  1.00  0.00     0.014 A 
ATOM     34  C   UNL A   1      35.445  34.539  28.676  1.00  0.00     0.014 A 
ATOM     35  C   UNL A   1      35.149  33.247  31.141  1.00  0.00     0.010 A 
ATOM     36  C   UNL A   1      36.547  33.958  29.289  1.00  0.00     0.010 A 
ATOM     37  C   UNL A   1      36.411  33.310  30.528  1.00  0.00    -0.014 A 
BRANCH  37  38
ATOM     38  C   UNL A   1      37.622  32.734  31.159  1.00  0.00     0.031 A 
ATOM     39  C   UNL A   1      38.339  31.603  30.479  1.00  0.00     0.074 A 
ATOM     40  C   UNL A   1      38.002  33.137  32.385  1.00  0.00     0.049 A 
ATOM     41  N   UNL A   1      39.289  30.828  30.933  1.00  0.00    -0.248 NA
ATOM     42  C   UNL A   1      37.892  31.276  29.116  1.00  0.00     0.031 C 
ATOM     43  C   UNL A   1      37.363  34.201  33.161  1.00  0.00     0.029 A 
ATOM     44  N   UNL A   1      38.998  32.674  33.209  1.00  0.00    -0.354 N 
ATOM     45  C   UNL A   1      39.527  29.901  29.928  1.00  0.00     0.074 A 
ATOM     46  C   UNL A   1      38.592  30.182  28.861  1.00  0.00     0.031 C 
ATOM     47  C   UNL A   1      37.978  34.305  34.349  1.00  0.00     0.029 A 
ATOM     48  C   UNL A   1      39.022  33.287  34.437  1.00  0.00     0.049 A 
ATOM     49  H   UNL A   1      39.634  31.970  32.944  1.00  0.00     0.167 HD
ATOM     50  C   UNL A   1      40.453  28.913  29.894  1.00  0.00     0.037 A 
ATOM     51  C   UNL A   1      39.781  33.037  35.522  1.00  0.00     0.037 A 
ATOM     52  C   UNL A   1      41.399  28.661  30.949  1.00  0.00     0.049 A 
ATOM     53  C   UNL A   1      40.810  31.942  35.464  1.00  0.00     0.074 A 
ATOM     54  C   UNL A   1      42.426  27.736  30.985  1.00  0.00     0.029 A 
ATOM     55  N   UNL A   1      41.428  29.341  32.159  1.00  0.00    -0.354 N 
ATOM     56  N   UNL A   1      41.072  31.107  34.487  1.00  0.00    -0.248 NA
ATOM     57  C   UNL A   1      41.652  31.753  36.654  1.00  0.00     0.031 C 
ATOM     58  C   UNL A   1      43.044  27.821  32.236  1.00  0.00     0.029 A 
ATOM     59  C   UNL A   1      42.440  28.838  32.959  1.00  0.00     0.049 A 
ATOM     60  H   UNL A   1      40.818  30.072  32.412  1.00  0.00     0.167 HD
ATOM     61  C   UNL A   1      42.125  30.317  34.929  1.00  0.00     0.074 A 
ATOM     62  C   UNL A   1      42.454  30.771  36.265  1.00  0.00     0.031 C 
ATOM     63  C   UNL A   1      42.765  29.314  34.281  1.00  0.00     0.037 A 
BRANCH  50  64
ATOM     64  C   UNL A   1      40.468  28.024  28.684  1.00  0.00     0.064 A 
ATOM     65  C   UNL A   1      39.758  26.813  28.646  1.00  0.00     0.173 A 
ATOM     66  C   UNL A   1      41.205  28.386  27.548  1.00  0.00     0.173 A 
ATOM     67  F   UNL A   1      39.046  26.414  29.711  1.00  0.00    -0.203 F 
ATOM     68  C   UNL A   1      39.829  25.976  27.535  1.00  0.00     0.198 A 
ATOM     69  C   UNL A   1      41.243  27.564  26.424  1.00  0.00     0.198 A 
ATOM     70  F   UNL A   1      41.895  29.536  27.525  1.00  0.00    -0.203 F 
ATOM     71  F   UNL A   1      39.202  24.791  27.551  1.00  0.00    -0.200 F 
ATOM     72  C   UNL A   1      40.567  26.353  26.425  1.00  0.00     0.200 A 
ATOM     73  F   UNL A   1      41.946  27.937  25.346  1.00  0.00    -0.200 F 
ATOM     74  F   UNL A   1      40.637  25.544  25.358  1.00  0.00    -0.200 F 
ENDBRANCH  50  64
BRANCH  51  75
ATOM     75  C   UNL A   1      39.595  33.859  36.745  1.00  0.00     0.064 A 
ATOM     76  C   UNL A   1      40.185  35.124  36.858  1.00  0.00     0.173 A 
ATOM     77  C   UNL A   1      38.786  33.417  37.803  1.00  0.00     0.173 A 
ATOM     78  F   UNL A   1      40.980  35.581  35.880  1.00  0.00    -0.203 F 
ATOM     79  C   UNL A   1      39.978  35.916  37.986  1.00  0.00     0.198 A 
ATOM     80  C   UNL A   1      38.559  34.220  38.918  1.00  0.00     0.198 A 
ATOM     81  F   UNL A   1      38.192  32.217  37.738  1.00  0.00    -0.203 F 
ATOM     82  F   UNL A   1      40.574  37.112  38.081  1.00  0.00    -0.200 F 
ATOM     83  C   UNL A   1      39.158  35.467  39.011  1.00  0.00     0.200 A 
ATOM     84  F   UNL A   1      37.753  33.790  39.899  1.00  0.00    -0.200 F 
ATOM     85  F   UNL A   1      38.945  36.237  40.087  1.00  0.00    -0.200 F 
ENDBRANCH  51  75
BRANCH  63  86
ATOM     86  C   UNL A   1      43.921  28.658  34.978  1.00  0.00     0.064 A 
ATOM     87  C   UNL A   1      43.762  27.488  35.731  1.00  0.00     0.173 A 
ATOM     88  C   UNL A   1      45.220  29.161  34.808  1.00  0.00     0.173 A 
ATOM     89  F   UNL A   1      42.538  26.975  35.934  1.00  0.00    -0.203 F 
ATOM     90  C   UNL A   1      44.863  26.846  36.294  1.00  0.00     0.198 A 
ATOM     91  C   UNL A   1      46.320  28.504  35.350  1.00  0.00     0.198 A 
ATOM     92  F   UNL A   1      45.424  30.277  34.090  1.00  0.00    -0.203 F 
ATOM     93  F   UNL A   1      44.686  25.740  37.032  1.00  0.00    -0.200 F 
ATOM     94  C   UNL A   1      46.141  27.347  36.094  1.00  0.00     0.200 A 
ATOM     95  F   UNL A   1      47.555  28.982  35.142  1.00  0.00    -0.200 F 
ATOM     96  F   UNL A   1      47.200  26.716  36.617  1.00  0.00    -0.200 F 
ENDBRANCH  63  86
ENDBRANCH  37  38
ENDBRANCH  29  32
ENDBRANCH  27  28
ENDBRANCH  26  27
ENDBRANCH  25  26
ENDBRANCH   1  25
TORSDOF 17
ENDMDL
