MODEL 1
REMARK VINA RESULT:     -12.4      0.000      0.000
REMARK SMILES CCc1nc(C(=O)N2CC[NH+]([C@H](C)C(=O)NCCCCCCNC(=O)c3ccc(-c4c5nc(c(-c6c(F)c(F)c(F)c(F)c6F)c6ccc([nH]6)c(-c6c(F)c(F)c(F)c(F)c6F)c6nc(c(-c7c(F)c(F)c(F)c(F)c7F)c7ccc4[nH]7)C=C6)C=C5)cc3)CC2)n[nH]1
REMARK SMILES IDX 19 1 18 2 17 3 16 4 14 5 15 6 12 8 13 9 11 10 6 11 7 12 8 13
REMARK SMILES IDX 9 14 90 15 10 16 89 17 5 19 3 20 4 21 92 22 91 23 2 25 1 26
REMARK SMILES IDX 20 27 21 28 22 29 23 30 24 31 25 33 26 34 27 35 88 36 28 37
REMARK SMILES IDX 87 38 29 39 30 40 31 41 81 42 32 43 86 44 80 45 82 46 33 47
REMARK SMILES IDX 85 48 79 49 78 50 34 52 66 53 46 54 65 55 47 56 50 57 64 58
REMARK SMILES IDX 83 59 48 60 49 61 63 63 84 64 51 65 35 66 36 67 44 68 37 69
REMARK SMILES IDX 38 70 42 71 45 72 39 73 40 74 43 75 41 76 67 77 68 78 76 79
REMARK SMILES IDX 69 80 70 81 74 82 77 83 71 84 72 85 75 86 73 87 52 88 53 89
REMARK SMILES IDX 61 90 54 91 55 92 59 93 62 94 56 95 57 96 60 97 58 98
REMARK H PARENT 16 7 11 18 92 24 23 32 82 51 50 62
REMARK Flexibility Score: inf
ROOT
ATOM      1  C   UNL A   1      32.399  29.797  27.181  1.00  0.00     0.002 C 
ENDROOT
BRANCH   1   2
ATOM      2  C   UNL A   1      31.819  28.427  27.536  1.00  0.00     0.021 C 
BRANCH   2   3
ATOM      3  C   UNL A   1      31.508  27.532  26.346  1.00  0.00     0.116 C 
BRANCH   3   4
ATOM      4  N   UNL A   1      30.575  26.467  26.637  1.00  0.00    -0.351 N 
ATOM      5  C   UNL A   1      30.581  25.160  26.229  1.00  0.00     0.278 C 
ATOM      6  O   UNL A   1      29.801  24.397  26.809  1.00  0.00    -0.268 OA
ATOM      7  H   UNL A   1      29.819  26.720  27.215  1.00  0.00     0.163 HD
BRANCH   5   8
ATOM      8  C   UNL A   1      31.493  24.647  25.083  1.00  0.00     0.271 C 
ATOM      9  C   UNL A   1      31.187  25.324  23.737  1.00  0.00     0.086 C 
BRANCH   8  10
ATOM     10  N   UNL A   1      32.925  24.456  25.468  1.00  0.00    -0.322 N 
ATOM     11  C   UNL A   1      36.067  22.014  24.717  1.00  0.00     0.293 C 
ATOM     12  O   UNL A   1      36.965  22.267  23.910  1.00  0.00    -0.265 OA
ATOM     13  N   UNL A   1      35.460  23.045  25.441  1.00  0.00    -0.325 N 
ATOM     14  C   UNL A   1      35.366  24.355  24.821  1.00  0.00     0.181 C 
ATOM     15  C   UNL A   1      34.599  22.909  26.613  1.00  0.00     0.181 C 
ATOM     16  C   UNL A   1      33.903  24.564  24.373  1.00  0.00     0.284 C 
ATOM     17  C   UNL A   1      33.127  23.215  26.260  1.00  0.00     0.284 C 
ATOM     18  H   UNL A   1      33.125  25.261  26.063  1.00  0.00     0.348 HD
BRANCH  11  19
ATOM     19  C   UNL A   1      35.522  20.638  24.850  1.00  0.00     0.239 A 
ATOM     20  C   UNL A   1      34.171  18.999  24.631  1.00  0.00     0.124 A 
ATOM     21  N   UNL A   1      34.191  20.314  24.625  1.00  0.00    -0.208 NA
ATOM     22  N   UNL A   1      35.433  18.544  24.877  1.00  0.00    -0.263 N 
ATOM     23  N   UNL A   1      36.303  19.551  25.016  1.00  0.00    -0.148 NA
ATOM     24  H   UNL A   1      35.673  17.592  24.943  1.00  0.00     0.192 HD
BRANCH  20  25
ATOM     25  C   UNL A   1      33.018  18.103  24.361  1.00  0.00     0.073 C 
ATOM     26  C   UNL A   1      32.627  17.307  25.595  1.00  0.00     0.012 C 
ENDBRANCH  20  25
ENDBRANCH  11  19
ENDBRANCH   8  10
ENDBRANCH   5   8
ENDBRANCH   3   4
ENDBRANCH   2   3
ENDBRANCH   1   2
BRANCH   1  27
ATOM     27  C   UNL A   1      31.574  30.650  26.212  1.00  0.00     0.002 C 
BRANCH  27  28
ATOM     28  C   UNL A   1      31.406  32.126  26.582  1.00  0.00     0.021 C 
BRANCH  28  29
ATOM     29  C   UNL A   1      32.612  32.779  27.247  1.00  0.00     0.116 C 
BRANCH  29  30
ATOM     30  N   UNL A   1      32.367  34.158  27.627  1.00  0.00    -0.352 N 
ATOM     31  C   UNL A   1      32.978  34.922  28.588  1.00  0.00     0.251 C 
ATOM     32  H   UNL A   1      31.656  34.613  27.118  1.00  0.00     0.163 HD
ATOM     33  O   UNL A   1      32.539  36.033  28.865  1.00  0.00    -0.269 OA
BRANCH  31  34
ATOM     34  C   UNL A   1      34.154  34.396  29.313  1.00  0.00     0.039 A 
ATOM     35  C   UNL A   1      33.956  33.767  30.545  1.00  0.00     0.014 A 
ATOM     36  C   UNL A   1      35.445  34.527  28.792  1.00  0.00     0.014 A 
ATOM     37  C   UNL A   1      35.043  33.221  31.227  1.00  0.00     0.010 A 
ATOM     38  C   UNL A   1      36.517  33.914  29.433  1.00  0.00     0.010 A 
ATOM     39  C   UNL A   1      36.328  33.260  30.661  1.00  0.00    -0.014 A 
BRANCH  39  40
ATOM     40  C   UNL A   1      37.483  32.620  31.340  1.00  0.00     0.031 A 
ATOM     41  C   UNL A   1      38.190  31.459  30.704  1.00  0.00     0.074 A 
ATOM     42  C   UNL A   1      37.847  33.041  32.566  1.00  0.00     0.049 A 
ATOM     43  N   UNL A   1      39.179  30.735  31.165  1.00  0.00    -0.248 NA
ATOM     44  C   UNL A   1      37.698  31.032  29.386  1.00  0.00     0.031 C 
ATOM     45  C   UNL A   1      37.196  34.117  33.315  1.00  0.00     0.029 A 
ATOM     46  N   UNL A   1      38.843  32.605  33.403  1.00  0.00    -0.354 N 
ATOM     47  C   UNL A   1      39.415  29.761  30.204  1.00  0.00     0.074 A 
ATOM     48  C   UNL A   1      38.427  29.948  29.165  1.00  0.00     0.031 C 
ATOM     49  C   UNL A   1      37.818  34.266  34.495  1.00  0.00     0.029 A 
ATOM     50  C   UNL A   1      38.884  33.274  34.601  1.00  0.00     0.049 A 
ATOM     51  H   UNL A   1      39.468  31.882  33.168  1.00  0.00     0.167 HD
ATOM     52  C   UNL A   1      40.381  28.811  30.183  1.00  0.00     0.037 A 
ATOM     53  C   UNL A   1      39.683  33.101  35.671  1.00  0.00     0.037 A 
ATOM     54  C   UNL A   1      41.369  28.642  31.217  1.00  0.00     0.049 A 
ATOM     55  C   UNL A   1      40.754  32.048  35.625  1.00  0.00     0.074 A 
ATOM     56  C   UNL A   1      42.439  27.765  31.254  1.00  0.00     0.029 A 
ATOM     57  N   UNL A   1      41.399  29.359  32.406  1.00  0.00    -0.354 N 
ATOM     58  N   UNL A   1      41.028  31.189  34.674  1.00  0.00    -0.248 NA
ATOM     59  C   UNL A   1      41.633  31.947  36.797  1.00  0.00     0.031 C 
ATOM     60  C   UNL A   1      43.076  27.905  32.493  1.00  0.00     0.029 A 
ATOM     61  C   UNL A   1      42.447  28.917  33.201  1.00  0.00     0.049 A 
ATOM     62  H   UNL A   1      40.770  30.076  32.650  1.00  0.00     0.167 HD
ATOM     63  C   UNL A   1      42.121  30.458  35.119  1.00  0.00     0.074 A 
ATOM     64  C   UNL A   1      42.470  30.987  36.422  1.00  0.00     0.031 C 
ATOM     65  C   UNL A   1      42.776  29.443  34.503  1.00  0.00     0.037 A 
BRANCH  52  66
ATOM     66  C   UNL A   1      40.398  27.872  29.009  1.00  0.00     0.064 A 
ATOM     67  C   UNL A   1      41.148  28.141  27.852  1.00  0.00     0.173 A 
ATOM     68  C   UNL A   1      39.646  26.688  29.037  1.00  0.00     0.173 A 
ATOM     69  F   UNL A   1      41.879  29.262  27.766  1.00  0.00    -0.203 F 
ATOM     70  C   UNL A   1      41.104  27.287  26.752  1.00  0.00     0.198 A 
ATOM     71  C   UNL A   1      39.634  25.817  27.949  1.00  0.00     0.198 A 
ATOM     72  F   UNL A   1      38.916  26.374  30.117  1.00  0.00    -0.203 F 
ATOM     73  F   UNL A   1      41.769  27.605  25.632  1.00  0.00    -0.200 F 
ATOM     74  C   UNL A   1      40.349  26.125  26.803  1.00  0.00     0.200 A 
ATOM     75  F   UNL A   1      38.917  24.687  28.007  1.00  0.00    -0.200 F 
ATOM     76  F   UNL A   1      40.302  25.308  25.742  1.00  0.00    -0.200 F 
ENDBRANCH  52  66
BRANCH  53  77
ATOM     77  C   UNL A   1      39.498  33.969  36.862  1.00  0.00     0.064 A 
ATOM     78  C   UNL A   1      38.750  33.535  37.964  1.00  0.00     0.173 A 
ATOM     79  C   UNL A   1      40.106  35.231  36.940  1.00  0.00     0.173 A 
ATOM     80  F   UNL A   1      38.132  32.345  37.928  1.00  0.00    -0.203 F 
ATOM     81  C   UNL A   1      38.612  34.333  39.099  1.00  0.00     0.198 A 
ATOM     82  C   UNL A   1      39.991  36.016  38.086  1.00  0.00     0.198 A 
ATOM     83  F   UNL A   1      40.837  35.688  35.913  1.00  0.00    -0.203 F 
ATOM     84  F   UNL A   1      37.866  33.907  40.128  1.00  0.00    -0.200 F 
ATOM     85  C   UNL A   1      39.241  35.567  39.163  1.00  0.00     0.200 A 
ATOM     86  F   UNL A   1      40.612  37.200  38.150  1.00  0.00    -0.200 F 
ATOM     87  F   UNL A   1      39.123  36.325  40.261  1.00  0.00    -0.200 F 
ENDBRANCH  53  77
BRANCH  65  88
ATOM     88  C   UNL A   1      43.952  28.846  35.222  1.00  0.00     0.064 A 
ATOM     89  C   UNL A   1      43.813  27.744  36.079  1.00  0.00     0.173 A 
ATOM     90  C   UNL A   1      45.244  29.358  35.017  1.00  0.00     0.173 A 
ATOM     91  F   UNL A   1      42.600  27.226  36.321  1.00  0.00    -0.203 F 
ATOM     92  C   UNL A   1      44.919  27.194  36.725  1.00  0.00     0.198 A 
ATOM     93  C   UNL A   1      46.351  28.784  35.637  1.00  0.00     0.198 A 
ATOM     94  F   UNL A   1      45.435  30.406  34.202  1.00  0.00    -0.203 F 
ATOM     95  F   UNL A   1      44.754  26.173  37.577  1.00  0.00    -0.200 F 
ATOM     96  C   UNL A   1      46.186  27.708  36.496  1.00  0.00     0.200 A 
ATOM     97  F   UNL A   1      47.576  29.272  35.402  1.00  0.00    -0.200 F 
ATOM     98  F   UNL A   1      47.250  27.170  37.109  1.00  0.00    -0.200 F 
ENDBRANCH  65  88
ENDBRANCH  39  40
ENDBRANCH  31  34
ENDBRANCH  29  30
ENDBRANCH  28  29
ENDBRANCH  27  28
ENDBRANCH   1  27
TORSDOF 16
ENDMDL
MODEL 2
REMARK VINA RESULT:     -12.3      1.394      2.178
REMARK SMILES CCc1nc(C(=O)N2CC[NH+]([C@H](C)C(=O)NCCCCCCNC(=O)c3ccc(-c4c5nc(c(-c6c(F)c(F)c(F)c(F)c6F)c6ccc([nH]6)c(-c6c(F)c(F)c(F)c(F)c6F)c6nc(c(-c7c(F)c(F)c(F)c(F)c7F)c7ccc4[nH]7)C=C6)C=C5)cc3)CC2)n[nH]1
REMARK SMILES IDX 19 1 18 2 17 3 16 4 14 5 15 6 12 8 13 9 11 10 6 11 7 12 8 13
REMARK SMILES IDX 9 14 90 15 10 16 89 17 5 19 3 20 4 21 92 22 91 23 2 25 1 26
REMARK SMILES IDX 20 27 21 28 22 29 23 30 24 31 25 33 26 34 27 35 88 36 28 37
REMARK SMILES IDX 87 38 29 39 30 40 31 41 81 42 32 43 86 44 80 45 82 46 33 47
REMARK SMILES IDX 85 48 79 49 78 50 34 52 66 53 46 54 65 55 47 56 50 57 64 58
REMARK SMILES IDX 83 59 48 60 49 61 63 63 84 64 51 65 35 66 36 67 44 68 37 69
REMARK SMILES IDX 38 70 42 71 45 72 39 73 40 74 43 75 41 76 67 77 68 78 76 79
REMARK SMILES IDX 69 80 70 81 74 82 77 83 71 84 72 85 75 86 73 87 52 88 53 89
REMARK SMILES IDX 61 90 54 91 55 92 59 93 62 94 56 95 57 96 60 97 58 98
REMARK H PARENT 16 7 11 18 92 24 23 32 82 51 50 62
REMARK Flexibility Score: inf
ROOT
ATOM      1  C   UNL A   1      32.904  30.139  26.158  1.00  0.00     0.002 C 
ENDROOT
BRANCH   1   2
ATOM      2  C   UNL A   1      33.054  28.846  25.354  1.00  0.00     0.021 C 
BRANCH   2   3
ATOM      3  C   UNL A   1      33.315  29.040  23.868  1.00  0.00     0.116 C 
BRANCH   3   4
ATOM      4  N   UNL A   1      32.118  29.093  23.061  1.00  0.00    -0.351 N 
ATOM      5  C   UNL A   1      31.388  28.075  22.507  1.00  0.00     0.278 C 
ATOM      6  O   UNL A   1      30.274  28.373  22.061  1.00  0.00    -0.268 OA
ATOM      7  H   UNL A   1      31.775  29.998  22.882  1.00  0.00     0.163 HD
BRANCH   5   8
ATOM      8  C   UNL A   1      31.922  26.622  22.408  1.00  0.00     0.271 C 
ATOM      9  C   UNL A   1      33.455  26.559  22.335  1.00  0.00     0.086 C 
BRANCH   8  10
ATOM     10  N   UNL A   1      31.216  25.641  23.290  1.00  0.00    -0.322 N 
ATOM     11  C   UNL A   1      31.903  23.256  26.491  1.00  0.00     0.293 C 
ATOM     12  O   UNL A   1      31.624  23.559  27.655  1.00  0.00    -0.265 OA
ATOM     13  N   UNL A   1      31.094  23.693  25.437  1.00  0.00    -0.325 N 
ATOM     14  C   UNL A   1      30.401  24.961  25.583  1.00  0.00     0.181 C 
ATOM     15  C   UNL A   1      31.109  23.211  24.058  1.00  0.00     0.181 C 
ATOM     16  C   UNL A   1      31.134  26.005  24.715  1.00  0.00     0.284 C 
ATOM     17  C   UNL A   1      31.732  24.259  23.110  1.00  0.00     0.284 C 
ATOM     18  H   UNL A   1      30.250  25.676  22.966  1.00  0.00     0.348 HD
BRANCH  11  19
ATOM     19  C   UNL A   1      33.161  22.536  26.168  1.00  0.00     0.239 A 
ATOM     20  C   UNL A   1      35.246  22.216  25.832  1.00  0.00     0.124 A 
ATOM     21  N   UNL A   1      34.345  23.174  25.821  1.00  0.00    -0.208 NA
ATOM     22  N   UNL A   1      34.630  21.040  26.145  1.00  0.00    -0.263 N 
ATOM     23  N   UNL A   1      33.321  21.211  26.364  1.00  0.00    -0.148 NA
ATOM     24  H   UNL A   1      35.092  20.173  26.203  1.00  0.00     0.192 HD
BRANCH  20  25
ATOM     25  C   UNL A   1      36.709  22.337  25.610  1.00  0.00     0.073 C 
ATOM     26  C   UNL A   1      37.124  23.783  25.395  1.00  0.00     0.012 C 
ENDBRANCH  20  25
ENDBRANCH  11  19
ENDBRANCH   8  10
ENDBRANCH   5   8
ENDBRANCH   3   4
ENDBRANCH   2   3
ENDBRANCH   1   2
BRANCH   1  27
ATOM     27  C   UNL A   1      31.489  30.720  26.249  1.00  0.00     0.002 C 
BRANCH  27  28
ATOM     28  C   UNL A   1      31.388  32.221  26.533  1.00  0.00     0.021 C 
BRANCH  28  29
ATOM     29  C   UNL A   1      32.562  32.827  27.291  1.00  0.00     0.116 C 
BRANCH  29  30
ATOM     30  N   UNL A   1      32.343  34.216  27.651  1.00  0.00    -0.352 N 
ATOM     31  C   UNL A   1      32.970  34.983  28.599  1.00  0.00     0.251 C 
ATOM     32  H   UNL A   1      31.638  34.675  27.139  1.00  0.00     0.163 HD
ATOM     33  O   UNL A   1      32.552  36.105  28.861  1.00  0.00    -0.269 OA
BRANCH  31  34
ATOM     34  C   UNL A   1      34.141  34.447  29.327  1.00  0.00     0.039 A 
ATOM     35  C   UNL A   1      33.934  33.826  30.562  1.00  0.00     0.014 A 
ATOM     36  C   UNL A   1      35.433  34.562  28.806  1.00  0.00     0.014 A 
ATOM     37  C   UNL A   1      35.015  33.271  31.247  1.00  0.00     0.010 A 
ATOM     38  C   UNL A   1      36.498  33.940  29.451  1.00  0.00     0.010 A 
ATOM     39  C   UNL A   1      36.301  33.294  30.682  1.00  0.00    -0.014 A 
BRANCH  39  40
ATOM     40  C   UNL A   1      37.448  32.645  31.364  1.00  0.00     0.031 A 
ATOM     41  C   UNL A   1      38.146  31.475  30.732  1.00  0.00     0.074 A 
ATOM     42  C   UNL A   1      37.814  33.064  32.590  1.00  0.00     0.049 A 
ATOM     43  N   UNL A   1      39.128  30.744  31.197  1.00  0.00    -0.248 NA
ATOM     44  C   UNL A   1      37.654  31.051  29.414  1.00  0.00     0.031 C 
ATOM     45  C   UNL A   1      37.171  34.147  33.336  1.00  0.00     0.029 A 
ATOM     46  N   UNL A   1      38.804  32.620  33.431  1.00  0.00    -0.354 N 
ATOM     47  C   UNL A   1      39.357  29.766  30.238  1.00  0.00     0.074 A 
ATOM     48  C   UNL A   1      38.372  29.960  29.196  1.00  0.00     0.031 C 
ATOM     49  C   UNL A   1      37.792  34.293  34.517  1.00  0.00     0.029 A 
ATOM     50  C   UNL A   1      38.848  33.291  34.628  1.00  0.00     0.049 A 
ATOM     51  H   UNL A   1      39.423  31.891  33.198  1.00  0.00     0.167 HD
ATOM     52  C   UNL A   1      40.314  28.807  30.220  1.00  0.00     0.037 A 
ATOM     53  C   UNL A   1      39.643  33.113  35.700  1.00  0.00     0.037 A 
ATOM     54  C   UNL A   1      41.298  28.630  31.257  1.00  0.00     0.049 A 
ATOM     55  C   UNL A   1      40.705  32.050  35.658  1.00  0.00     0.074 A 
ATOM     56  C   UNL A   1      42.360  27.744  31.298  1.00  0.00     0.029 A 
ATOM     57  N   UNL A   1      41.332  29.349  32.445  1.00  0.00    -0.354 N 
ATOM     58  N   UNL A   1      40.973  31.186  34.709  1.00  0.00    -0.248 NA
ATOM     59  C   UNL A   1      41.580  31.942  36.831  1.00  0.00     0.031 C 
ATOM     60  C   UNL A   1      42.995  27.880  32.538  1.00  0.00     0.029 A 
ATOM     61  C   UNL A   1      42.374  28.899  33.242  1.00  0.00     0.049 A 
ATOM     62  H   UNL A   1      40.709  30.072  32.686  1.00  0.00     0.167 HD
ATOM     63  C   UNL A   1      42.058  30.446  35.158  1.00  0.00     0.074 A 
ATOM     64  C   UNL A   1      42.409  30.974  36.460  1.00  0.00     0.031 C 
ATOM     65  C   UNL A   1      42.705  29.424  34.544  1.00  0.00     0.037 A 
BRANCH  52  66
ATOM     66  C   UNL A   1      40.324  27.866  29.047  1.00  0.00     0.064 A 
ATOM     67  C   UNL A   1      41.051  28.143  27.878  1.00  0.00     0.173 A 
ATOM     68  C   UNL A   1      39.591  26.670  29.091  1.00  0.00     0.173 A 
ATOM     69  F   UNL A   1      41.763  29.275  27.777  1.00  0.00    -0.203 F 
ATOM     70  C   UNL A   1      41.000  27.287  26.780  1.00  0.00     0.198 A 
ATOM     71  C   UNL A   1      39.574  25.798  28.005  1.00  0.00     0.198 A 
ATOM     72  F   UNL A   1      38.885  26.348  30.184  1.00  0.00    -0.203 F 
ATOM     73  F   UNL A   1      41.641  27.612  25.649  1.00  0.00    -0.200 F 
ATOM     74  C   UNL A   1      40.265  26.114  26.846  1.00  0.00     0.200 A 
ATOM     75  F   UNL A   1      38.875  24.657  28.077  1.00  0.00    -0.200 F 
ATOM     76  F   UNL A   1      40.212  25.293  25.788  1.00  0.00    -0.200 F 
ENDBRANCH  52  66
BRANCH  53  77
ATOM     77  C   UNL A   1      39.464  33.985  36.889  1.00  0.00     0.064 A 
ATOM     78  C   UNL A   1      38.730  33.549  38.000  1.00  0.00     0.173 A 
ATOM     79  C   UNL A   1      40.062  35.251  36.955  1.00  0.00     0.173 A 
ATOM     80  F   UNL A   1      38.123  32.354  37.975  1.00  0.00    -0.203 F 
ATOM     81  C   UNL A   1      38.598  34.350  39.133  1.00  0.00     0.198 A 
ATOM     82  C   UNL A   1      39.952  36.040  38.099  1.00  0.00     0.198 A 
ATOM     83  F   UNL A   1      40.778  35.710  35.918  1.00  0.00    -0.203 F 
ATOM     84  F   UNL A   1      37.867  33.924  40.172  1.00  0.00    -0.200 F 
ATOM     85  C   UNL A   1      39.218  35.590  39.186  1.00  0.00     0.200 A 
ATOM     86  F   UNL A   1      40.565  37.230  38.150  1.00  0.00    -0.200 F 
ATOM     87  F   UNL A   1      39.105  36.352  40.281  1.00  0.00    -0.200 F 
ENDBRANCH  53  77
BRANCH  65  88
ATOM     88  C   UNL A   1      43.874  28.817  35.267  1.00  0.00     0.064 A 
ATOM     89  C   UNL A   1      43.712  27.772  36.189  1.00  0.00     0.173 A 
ATOM     90  C   UNL A   1      45.180  29.260  35.002  1.00  0.00     0.173 A 
ATOM     91  F   UNL A   1      42.485  27.321  36.489  1.00  0.00    -0.203 F 
ATOM     92  C   UNL A   1      44.810  27.211  36.837  1.00  0.00     0.198 A 
ATOM     93  C   UNL A   1      46.278  28.674  35.626  1.00  0.00     0.198 A 
ATOM     94  F   UNL A   1      45.393  30.252  34.124  1.00  0.00    -0.203 F 
ATOM     95  F   UNL A   1      44.626  26.248  37.750  1.00  0.00    -0.200 F 
ATOM     96  C   UNL A   1      46.092  27.656  36.548  1.00  0.00     0.200 A 
ATOM     97  F   UNL A   1      47.516  29.094  35.333  1.00  0.00    -0.200 F 
ATOM     98  F   UNL A   1      47.148  27.108  37.165  1.00  0.00    -0.200 F 
ENDBRANCH  65  88
ENDBRANCH  39  40
ENDBRANCH  31  34
ENDBRANCH  29  30
ENDBRANCH  28  29
ENDBRANCH  27  28
ENDBRANCH   1  27
TORSDOF 16
ENDMDL
MODEL 3
REMARK VINA RESULT:     -12.3      5.421     11.222
REMARK SMILES CCc1nc(C(=O)N2CC[NH+]([C@H](C)C(=O)NCCCCCCNC(=O)c3ccc(-c4c5nc(c(-c6c(F)c(F)c(F)c(F)c6F)c6ccc([nH]6)c(-c6c(F)c(F)c(F)c(F)c6F)c6nc(c(-c7c(F)c(F)c(F)c(F)c7F)c7ccc4[nH]7)C=C6)C=C5)cc3)CC2)n[nH]1
REMARK SMILES IDX 19 1 18 2 17 3 16 4 14 5 15 6 12 8 13 9 11 10 6 11 7 12 8 13
REMARK SMILES IDX 9 14 90 15 10 16 89 17 5 19 3 20 4 21 92 22 91 23 2 25 1 26
REMARK SMILES IDX 20 27 21 28 22 29 23 30 24 31 25 33 26 34 27 35 88 36 28 37
REMARK SMILES IDX 87 38 29 39 30 40 31 41 81 42 32 43 86 44 80 45 82 46 33 47
REMARK SMILES IDX 85 48 79 49 78 50 34 52 66 53 46 54 65 55 47 56 50 57 64 58
REMARK SMILES IDX 83 59 48 60 49 61 63 63 84 64 51 65 35 66 36 67 44 68 37 69
REMARK SMILES IDX 38 70 42 71 45 72 39 73 40 74 43 75 41 76 67 77 68 78 76 79
REMARK SMILES IDX 69 80 70 81 74 82 77 83 71 84 72 85 75 86 73 87 52 88 53 89
REMARK SMILES IDX 61 90 54 91 55 92 59 93 62 94 56 95 57 96 60 97 58 98
REMARK H PARENT 16 7 11 18 92 24 23 32 82 51 50 62
REMARK Flexibility Score: inf
ROOT
ATOM      1  C   UNL A   1      36.940  22.092  25.661  1.00  0.00     0.002 C 
ENDROOT
BRANCH   1   2
ATOM      2  C   UNL A   1      35.705  22.770  26.257  1.00  0.00     0.021 C 
BRANCH   2   3
ATOM      3  C   UNL A   1      34.509  21.855  26.470  1.00  0.00     0.116 C 
BRANCH   3   4
ATOM      4  N   UNL A   1      33.428  22.461  27.214  1.00  0.00    -0.351 N 
ATOM      5  C   UNL A   1      32.341  23.163  26.767  1.00  0.00     0.278 C 
ATOM      6  O   UNL A   1      31.441  23.369  27.588  1.00  0.00    -0.268 OA
ATOM      7  H   UNL A   1      33.481  22.352  28.191  1.00  0.00     0.163 HD
BRANCH   5   8
ATOM      8  C   UNL A   1      32.236  23.706  25.316  1.00  0.00     0.271 C 
ATOM      9  C   UNL A   1      30.796  23.692  24.783  1.00  0.00     0.086 C 
BRANCH   8  10
ATOM     10  N   UNL A   1      33.079  24.911  25.044  1.00  0.00    -0.322 N 
ATOM     11  C   UNL A   1      32.735  28.912  24.514  1.00  0.00     0.293 C 
ATOM     12  O   UNL A   1      32.925  29.748  25.401  1.00  0.00    -0.265 OA
ATOM     13  N   UNL A   1      33.483  27.730  24.489  1.00  0.00    -0.325 N 
ATOM     14  C   UNL A   1      33.939  27.179  25.753  1.00  0.00     0.181 C 
ATOM     15  C   UNL A   1      33.590  26.780  23.384  1.00  0.00     0.181 C 
ATOM     16  C   UNL A   1      33.057  25.956  26.082  1.00  0.00     0.284 C 
ATOM     17  C   UNL A   1      32.818  25.478  23.695  1.00  0.00     0.284 C 
ATOM     18  H   UNL A   1      34.033  24.551  25.070  1.00  0.00     0.348 HD
BRANCH  11  19
ATOM     19  C   UNL A   1      31.631  29.073  23.532  1.00  0.00     0.239 A 
ATOM     20  C   UNL A   1      29.657  29.400  22.788  1.00  0.00     0.124 A 
ATOM     21  N   UNL A   1      30.287  28.989  23.867  1.00  0.00    -0.208 NA
ATOM     22  N   UNL A   1      30.580  29.696  21.829  1.00  0.00    -0.263 N 
ATOM     23  N   UNL A   1      31.829  29.503  22.269  1.00  0.00    -0.148 NA
ATOM     24  H   UNL A   1      30.355  30.012  20.925  1.00  0.00     0.192 HD
BRANCH  20  25
ATOM     25  C   UNL A   1      28.196  29.591  22.602  1.00  0.00     0.073 C 
ATOM     26  C   UNL A   1      27.757  30.985  23.015  1.00  0.00     0.012 C 
ENDBRANCH  20  25
ENDBRANCH  11  19
ENDBRANCH   8  10
ENDBRANCH   5   8
ENDBRANCH   3   4
ENDBRANCH   2   3
ENDBRANCH   1   2
BRANCH   1  27
ATOM     27  C   UNL A   1      36.703  20.752  24.957  1.00  0.00     0.002 C 
BRANCH  27  28
ATOM     28  C   UNL A   1      37.838  19.728  25.044  1.00  0.00     0.021 C 
BRANCH  28  29
ATOM     29  C   UNL A   1      39.096  20.202  25.761  1.00  0.00     0.116 C 
BRANCH  29  30
ATOM     30  N   UNL A   1      40.113  19.170  25.855  1.00  0.00    -0.352 N 
ATOM     31  C   UNL A   1      41.461  19.289  26.077  1.00  0.00     0.251 C 
ATOM     32  H   UNL A   1      39.786  18.249  25.741  1.00  0.00     0.163 HD
ATOM     33  O   UNL A   1      42.191  18.308  25.982  1.00  0.00    -0.269 OA
BRANCH  31  34
ATOM     34  C   UNL A   1      42.043  20.608  26.406  1.00  0.00     0.039 A 
ATOM     35  C   UNL A   1      42.401  21.462  25.360  1.00  0.00     0.014 A 
ATOM     36  C   UNL A   1      42.245  21.000  27.733  1.00  0.00     0.014 A 
ATOM     37  C   UNL A   1      42.908  22.730  25.644  1.00  0.00     0.010 A 
ATOM     38  C   UNL A   1      42.676  22.293  28.016  1.00  0.00     0.010 A 
ATOM     39  C   UNL A   1      43.019  23.169  26.974  1.00  0.00    -0.014 A 
BRANCH  39  40
ATOM     40  C   UNL A   1      43.489  24.541  27.290  1.00  0.00     0.031 A 
ATOM     41  C   UNL A   1      42.524  25.579  27.785  1.00  0.00     0.074 A 
ATOM     42  C   UNL A   1      44.773  24.871  27.062  1.00  0.00     0.049 A 
ATOM     43  N   UNL A   1      42.732  26.842  28.061  1.00  0.00    -0.248 NA
ATOM     44  C   UNL A   1      41.129  25.149  27.962  1.00  0.00     0.031 C 
ATOM     45  C   UNL A   1      45.791  23.968  26.521  1.00  0.00     0.029 A 
ATOM     46  N   UNL A   1      45.439  26.057  27.239  1.00  0.00    -0.354 N 
ATOM     47  C   UNL A   1      41.496  27.358  28.427  1.00  0.00     0.074 A 
ATOM     48  C   UNL A   1      40.533  26.289  28.278  1.00  0.00     0.031 C 
ATOM     49  C   UNL A   1      46.955  24.629  26.425  1.00  0.00     0.029 A 
ATOM     50  C   UNL A   1      46.757  26.009  26.859  1.00  0.00     0.049 A 
ATOM     51  H   UNL A   1      45.012  26.866  27.604  1.00  0.00     0.167 HD
ATOM     52  C   UNL A   1      41.198  28.605  28.866  1.00  0.00     0.037 A 
ATOM     53  C   UNL A   1      47.699  26.971  26.848  1.00  0.00     0.037 A 
ATOM     54  C   UNL A   1      42.166  29.659  29.023  1.00  0.00     0.049 A 
ATOM     55  C   UNL A   1      47.350  28.346  27.347  1.00  0.00     0.074 A 
ATOM     56  C   UNL A   1      41.983  30.931  29.536  1.00  0.00     0.029 A 
ATOM     57  N   UNL A   1      43.502  29.566  28.654  1.00  0.00    -0.354 N 
ATOM     58  N   UNL A   1      46.199  28.802  27.776  1.00  0.00    -0.248 NA
ATOM     59  C   UNL A   1      48.434  29.336  27.369  1.00  0.00     0.031 C 
ATOM     60  C   UNL A   1      43.190  31.629  29.416  1.00  0.00     0.029 A 
ATOM     61  C   UNL A   1      44.145  30.771  28.893  1.00  0.00     0.049 A 
ATOM     62  H   UNL A   1      43.930  28.763  28.279  1.00  0.00     0.167 HD
ATOM     63  C   UNL A   1      46.419  30.123  28.138  1.00  0.00     0.074 A 
ATOM     64  C   UNL A   1      47.822  30.391  27.893  1.00  0.00     0.031 C 
ATOM     65  C   UNL A   1      45.540  31.030  28.632  1.00  0.00     0.037 A 
BRANCH  52  66
ATOM     66  C   UNL A   1      39.757  28.895  29.187  1.00  0.00     0.064 A 
ATOM     67  C   UNL A   1      39.230  28.708  30.476  1.00  0.00     0.173 A 
ATOM     68  C   UNL A   1      38.887  29.361  28.190  1.00  0.00     0.173 A 
ATOM     69  F   UNL A   1      40.014  28.256  31.467  1.00  0.00    -0.203 F 
ATOM     70  C   UNL A   1      37.880  28.926  30.739  1.00  0.00     0.198 A 
ATOM     71  C   UNL A   1      37.546  29.614  28.466  1.00  0.00     0.198 A 
ATOM     72  F   UNL A   1      39.335  29.567  26.942  1.00  0.00    -0.203 F 
ATOM     73  F   UNL A   1      37.387  28.666  31.958  1.00  0.00    -0.200 F 
ATOM     74  C   UNL A   1      37.040  29.382  29.735  1.00  0.00     0.200 A 
ATOM     75  F   UNL A   1      36.740  30.070  27.498  1.00  0.00    -0.200 F 
ATOM     76  F   UNL A   1      35.740  29.585  29.988  1.00  0.00    -0.200 F 
ENDBRANCH  52  66
BRANCH  53  77
ATOM     77  C   UNL A   1      49.064  26.644  26.364  1.00  0.00     0.064 A 
ATOM     78  C   UNL A   1      49.437  26.886  25.035  1.00  0.00     0.173 A 
ATOM     79  C   UNL A   1      50.037  26.128  27.232  1.00  0.00     0.173 A 
ATOM     80  F   UNL A   1      48.535  27.360  24.162  1.00  0.00    -0.203 F 
ATOM     81  C   UNL A   1      50.731  26.620  24.591  1.00  0.00     0.198 A 
ATOM     82  C   UNL A   1      51.339  25.887  26.794  1.00  0.00     0.198 A 
ATOM     83  F   UNL A   1      49.730  25.884  28.515  1.00  0.00    -0.203 F 
ATOM     84  F   UNL A   1      51.054  26.832  23.308  1.00  0.00    -0.200 F 
ATOM     85  C   UNL A   1      51.683  26.131  25.473  1.00  0.00     0.200 A 
ATOM     86  F   UNL A   1      52.258  25.430  27.653  1.00  0.00    -0.200 F 
ATOM     87  F   UNL A   1      52.931  25.891  25.050  1.00  0.00    -0.200 F 
ENDBRANCH  53  77
BRANCH  65  88
ATOM     88  C   UNL A   1      46.071  32.397  28.958  1.00  0.00     0.064 A 
ATOM     89  C   UNL A   1      46.043  33.443  28.024  1.00  0.00     0.173 A 
ATOM     90  C   UNL A   1      46.578  32.675  30.238  1.00  0.00     0.173 A 
ATOM     91  F   UNL A   1      45.582  33.228  26.783  1.00  0.00    -0.203 F 
ATOM     92  C   UNL A   1      46.526  34.709  28.351  1.00  0.00     0.198 A 
ATOM     93  C   UNL A   1      47.028  33.950  30.571  1.00  0.00     0.198 A 
ATOM     94  F   UNL A   1      46.622  31.713  31.172  1.00  0.00    -0.203 F 
ATOM     95  F   UNL A   1      46.533  35.679  27.427  1.00  0.00    -0.200 F 
ATOM     96  C   UNL A   1      47.008  34.963  29.626  1.00  0.00     0.200 A 
ATOM     97  F   UNL A   1      47.479  34.197  31.809  1.00  0.00    -0.200 F 
ATOM     98  F   UNL A   1      47.462  36.184  29.941  1.00  0.00    -0.200 F 
ENDBRANCH  65  88
ENDBRANCH  39  40
ENDBRANCH  31  34
ENDBRANCH  29  30
ENDBRANCH  28  29
ENDBRANCH  27  28
ENDBRANCH   1  27
TORSDOF 16
ENDMDL
