MODEL 1
REMARK VINA RESULT:     -12.0      0.000      0.000
REMARK SMILES CC[NH+]1CC[NH+]([C@@H]2CC(=O)N(c3ccc(C(=O)NCCCCCCNC(=O)c4ccc(-c5c6nc(c(-c7c(F)c(F)c(F)c(F)c7F)c7ccc([nH]7)c(-c7c(F)c(F)c(F)c(F)c7F)c7nc(c(-c8c(F)c(F)c(F)c(F)c8F)c8ccc5[nH]8)C=C7)C=C6)cc4)cc3)C2=O)CC1
REMARK SMILES IDX 21 1 20 2 19 3 18 4 16 5 17 6 15 8 12 9 13 10 92 11 14 12
REMARK SMILES IDX 91 13 11 14 7 15 8 16 93 17 9 18 94 19 10 20 6 21 3 22 4 23
REMARK SMILES IDX 96 24 5 26 95 27 2 29 1 30 22 31 23 32 24 33 25 34 26 35
REMARK SMILES IDX 27 37 28 38 29 39 90 40 30 41 89 42 31 43 32 44 33 45 83 46
REMARK SMILES IDX 34 47 88 48 82 49 84 50 35 51 87 52 81 53 80 54 36 56 68 57
REMARK SMILES IDX 48 58 67 59 49 60 52 61 66 62 85 63 50 64 51 65 65 67 86 68
REMARK SMILES IDX 53 69 37 70 38 71 46 72 39 73 40 74 44 75 47 76 41 77 42 78
REMARK SMILES IDX 45 79 43 80 69 81 70 82 78 83 71 84 72 85 76 86 79 87 73 88
REMARK SMILES IDX 74 89 77 90 75 91 54 92 55 93 63 94 56 95 57 96 61 97 64 98
REMARK SMILES IDX 58 99 59 100 62 101 60 102
REMARK H PARENT 18 7 3 25 6 28 25 36 84 55 52 66
REMARK Flexibility Score: inf
ROOT
ATOM      1  C   UNL A   1      35.171  32.760  28.021  1.00  0.00     0.002 C 
ENDROOT
BRANCH   1   2
ATOM      2  C   UNL A   1      34.033  31.803  28.388  1.00  0.00     0.021 C 
BRANCH   2   3
ATOM      3  C   UNL A   1      33.889  30.650  27.390  1.00  0.00     0.116 C 
BRANCH   3   4
ATOM      4  N   UNL A   1      32.668  30.815  26.627  1.00  0.00    -0.352 N 
ATOM      5  C   UNL A   1      32.023  29.986  25.746  1.00  0.00     0.251 C 
ATOM      6  O   UNL A   1      30.994  30.400  25.212  1.00  0.00    -0.269 OA
ATOM      7  H   UNL A   1      32.219  31.680  26.770  1.00  0.00     0.163 HD
BRANCH   5   8
ATOM      8  C   UNL A   1      32.481  28.597  25.469  1.00  0.00     0.039 A 
ATOM      9  C   UNL A   1      33.242  26.011  24.706  1.00  0.00     0.052 A 
ATOM     10  C   UNL A   1      33.717  27.114  23.991  1.00  0.00     0.027 A 
ATOM     11  C   UNL A   1      32.450  26.201  25.833  1.00  0.00     0.027 A 
ATOM     12  C   UNL A   1      33.305  28.401  24.352  1.00  0.00     0.016 A 
ATOM     13  C   UNL A   1      32.139  27.490  26.249  1.00  0.00     0.016 A 
BRANCH   9  14
ATOM     14  N   UNL A   1      33.573  24.708  24.321  1.00  0.00    -0.245 N 
ATOM     15  C   UNL A   1      33.403  22.567  23.402  1.00  0.00     0.285 C 
ATOM     16  C   UNL A   1      34.788  22.745  24.016  1.00  0.00     0.176 C 
ATOM     17  C   UNL A   1      32.795  23.960  23.473  1.00  0.00     0.292 C 
ATOM     18  C   UNL A   1      34.749  24.093  24.659  1.00  0.00     0.240 C 
ATOM     19  O   UNL A   1      31.792  24.324  22.874  1.00  0.00    -0.267 OA
ATOM     20  O   UNL A   1      35.654  24.530  25.357  1.00  0.00    -0.274 OA
BRANCH  15  21
ATOM     21  N   UNL A   1      32.468  21.586  23.975  1.00  0.00    -0.315 N 
ATOM     22  N   UNL A   1      33.446  19.090  25.329  1.00  0.00    -0.326 N 
ATOM     23  C   UNL A   1      33.361  19.193  23.867  1.00  0.00     0.324 C 
ATOM     24  C   UNL A   1      33.465  20.398  25.992  1.00  0.00     0.324 C 
ATOM     25  H   UNL A   1      34.363  18.684  25.516  1.00  0.00     0.348 HD
ATOM     26  C   UNL A   1      32.433  20.288  23.294  1.00  0.00     0.325 C 
ATOM     27  C   UNL A   1      32.463  21.428  25.434  1.00  0.00     0.325 C 
ATOM     28  H   UNL A   1      31.588  22.058  23.770  1.00  0.00     0.349 HD
BRANCH  22  29
ATOM     29  C   UNL A   1      32.531  18.114  25.926  1.00  0.00     0.259 C 
ATOM     30  C   UNL A   1      32.572  16.682  25.405  1.00  0.00     0.071 C 
ENDBRANCH  22  29
ENDBRANCH  15  21
ENDBRANCH   9  14
ENDBRANCH   5   8
ENDBRANCH   3   4
ENDBRANCH   2   3
ENDBRANCH   1   2
BRANCH   1  31
ATOM     31  C   UNL A   1      34.993  34.180  28.570  1.00  0.00     0.002 C 
BRANCH  31  32
ATOM     32  C   UNL A   1      33.564  34.519  28.996  1.00  0.00     0.021 C 
BRANCH  32  33
ATOM     33  C   UNL A   1      33.317  36.013  29.146  1.00  0.00     0.116 C 
BRANCH  33  34
ATOM     34  N   UNL A   1      32.536  36.301  30.339  1.00  0.00    -0.352 N 
ATOM     35  C   UNL A   1      32.640  35.738  31.587  1.00  0.00     0.251 C 
ATOM     36  H   UNL A   1      31.840  36.992  30.238  1.00  0.00     0.163 HD
ATOM     37  O   UNL A   1      31.764  35.889  32.425  1.00  0.00    -0.269 OA
BRANCH  35  38
ATOM     38  C   UNL A   1      33.839  34.936  31.896  1.00  0.00     0.039 A 
ATOM     39  C   UNL A   1      35.077  35.568  32.017  1.00  0.00     0.014 A 
ATOM     40  C   UNL A   1      33.718  33.557  32.089  1.00  0.00     0.014 A 
ATOM     41  C   UNL A   1      36.196  34.819  32.385  1.00  0.00     0.010 A 
ATOM     42  C   UNL A   1      34.813  32.830  32.533  1.00  0.00     0.010 A 
ATOM     43  C   UNL A   1      36.065  33.451  32.673  1.00  0.00    -0.014 A 
BRANCH  43  44
ATOM     44  C   UNL A   1      37.222  32.620  33.084  1.00  0.00     0.031 A 
ATOM     45  C   UNL A   1      37.903  32.908  34.393  1.00  0.00     0.074 A 
ATOM     46  C   UNL A   1      37.715  31.686  32.250  1.00  0.00     0.049 A 
ATOM     47  N   UNL A   1      39.021  32.426  34.872  1.00  0.00    -0.248 NA
ATOM     48  C   UNL A   1      37.256  33.904  35.264  1.00  0.00     0.031 C 
ATOM     49  C   UNL A   1      37.157  31.339  30.943  1.00  0.00     0.029 A 
ATOM     50  N   UNL A   1      38.815  30.874  32.370  1.00  0.00    -0.354 N 
ATOM     51  C   UNL A   1      39.222  33.079  36.082  1.00  0.00     0.074 A 
ATOM     52  C   UNL A   1      38.144  34.029  36.238  1.00  0.00     0.031 C 
ATOM     53  C   UNL A   1      37.911  30.378  30.385  1.00  0.00     0.029 A 
ATOM     54  C   UNL A   1      39.031  30.077  31.273  1.00  0.00     0.049 A 
ATOM     55  H   UNL A   1      39.393  30.865  33.166  1.00  0.00     0.167 HD
ATOM     56  C   UNL A   1      40.207  32.885  36.988  1.00  0.00     0.037 A 
ATOM     57  C   UNL A   1      40.034  29.217  31.008  1.00  0.00     0.037 A 
ATOM     58  C   UNL A   1      41.259  31.916  36.837  1.00  0.00     0.049 A 
ATOM     59  C   UNL A   1      41.128  29.031  32.026  1.00  0.00     0.074 A 
ATOM     60  C   UNL A   1      42.277  31.603  37.720  1.00  0.00     0.029 A 
ATOM     61  N   UNL A   1      41.427  31.102  35.726  1.00  0.00    -0.354 N 
ATOM     62  N   UNL A   1      41.284  29.615  33.191  1.00  0.00    -0.248 NA
ATOM     63  C   UNL A   1      42.183  28.063  31.697  1.00  0.00     0.031 C 
ATOM     64  C   UNL A   1      43.091  30.636  37.121  1.00  0.00     0.029 A 
ATOM     65  C   UNL A   1      42.543  30.300  35.893  1.00  0.00     0.049 A 
ATOM     66  H   UNL A   1      40.840  31.095  34.936  1.00  0.00     0.167 HD
ATOM     67  C   UNL A   1      42.425  29.055  33.749  1.00  0.00     0.074 A 
ATOM     68  C   UNL A   1      42.922  28.084  32.798  1.00  0.00     0.031 C 
ATOM     69  C   UNL A   1      43.008  29.319  34.945  1.00  0.00     0.037 A 
BRANCH  56  70
ATOM     70  C   UNL A   1      40.195  33.741  38.223  1.00  0.00     0.064 A 
ATOM     71  C   UNL A   1      39.416  33.413  39.343  1.00  0.00     0.173 A 
ATOM     72  C   UNL A   1      40.996  34.891  38.298  1.00  0.00     0.173 A 
ATOM     73  F   UNL A   1      38.622  32.330  39.319  1.00  0.00    -0.203 F 
ATOM     74  C   UNL A   1      39.412  34.221  40.477  1.00  0.00     0.198 A 
ATOM     75  C   UNL A   1      41.017  35.677  39.447  1.00  0.00     0.198 A 
ATOM     76  F   UNL A   1      41.765  35.249  37.259  1.00  0.00    -0.203 F 
ATOM     77  F   UNL A   1      38.615  33.917  41.511  1.00  0.00    -0.200 F 
ATOM     78  C   UNL A   1      40.218  35.347  40.531  1.00  0.00     0.200 A 
ATOM     79  F   UNL A   1      41.810  36.757  39.503  1.00  0.00    -0.200 F 
ATOM     80  F   UNL A   1      40.220  36.120  41.625  1.00  0.00    -0.200 F 
ENDBRANCH  56  70
BRANCH  57  81
ATOM     81  C   UNL A   1      40.043  28.455  29.731  1.00  0.00     0.064 A 
ATOM     82  C   UNL A   1      39.422  27.201  29.639  1.00  0.00     0.173 A 
ATOM     83  C   UNL A   1      40.678  28.953  28.584  1.00  0.00     0.173 A 
ATOM     84  F   UNL A   1      38.818  26.673  30.713  1.00  0.00    -0.203 F 
ATOM     85  C   UNL A   1      39.459  26.464  28.456  1.00  0.00     0.198 A 
ATOM     86  C   UNL A   1      40.687  28.229  27.394  1.00  0.00     0.198 A 
ATOM     87  F   UNL A   1      41.283  30.150  28.617  1.00  0.00    -0.203 F 
ATOM     88  F   UNL A   1      38.902  25.247  28.412  1.00  0.00    -0.200 F 
ATOM     89  C   UNL A   1      40.087  26.981  27.334  1.00  0.00     0.200 A 
ATOM     90  F   UNL A   1      41.282  28.740  26.306  1.00  0.00    -0.200 F 
ATOM     91  F   UNL A   1      40.121  26.273  26.197  1.00  0.00    -0.200 F 
ENDBRANCH  57  81
BRANCH  69  92
ATOM     92  C   UNL A   1      44.207  28.503  35.330  1.00  0.00     0.064 A 
ATOM     93  C   UNL A   1      44.089  27.288  36.019  1.00  0.00     0.173 A 
ATOM     94  C   UNL A   1      45.491  28.914  34.938  1.00  0.00     0.173 A 
ATOM     95  F   UNL A   1      42.885  26.857  36.426  1.00  0.00    -0.203 F 
ATOM     96  C   UNL A   1      45.214  26.524  36.320  1.00  0.00     0.198 A 
ATOM     97  C   UNL A   1      46.609  28.133  35.212  1.00  0.00     0.198 A 
ATOM     98  F   UNL A   1      45.658  30.065  34.269  1.00  0.00    -0.203 F 
ATOM     99  F   UNL A   1      45.082  25.386  37.015  1.00  0.00    -0.200 F 
ATOM    100  C   UNL A   1      46.471  26.941  35.906  1.00  0.00     0.200 A 
ATOM    101  F   UNL A   1      47.820  28.530  34.795  1.00  0.00    -0.200 F 
ATOM    102  F   UNL A   1      47.549  26.196  36.181  1.00  0.00    -0.200 F 
ENDBRANCH  69  92
ENDBRANCH  43  44
ENDBRANCH  35  38
ENDBRANCH  33  34
ENDBRANCH  32  33
ENDBRANCH  31  32
ENDBRANCH   1  31
TORSDOF 16
ENDMDL
MODEL 2
REMARK VINA RESULT:     -11.7      1.238      7.304
REMARK SMILES CC[NH+]1CC[NH+]([C@@H]2CC(=O)N(c3ccc(C(=O)NCCCCCCNC(=O)c4ccc(-c5c6nc(c(-c7c(F)c(F)c(F)c(F)c7F)c7ccc([nH]7)c(-c7c(F)c(F)c(F)c(F)c7F)c7nc(c(-c8c(F)c(F)c(F)c(F)c8F)c8ccc5[nH]8)C=C7)C=C6)cc4)cc3)C2=O)CC1
REMARK SMILES IDX 21 1 20 2 19 3 18 4 16 5 17 6 15 8 12 9 13 10 92 11 14 12
REMARK SMILES IDX 91 13 11 14 7 15 8 16 93 17 9 18 94 19 10 20 6 21 3 22 4 23
REMARK SMILES IDX 96 24 5 26 95 27 2 29 1 30 22 31 23 32 24 33 25 34 26 35
REMARK SMILES IDX 27 37 28 38 29 39 90 40 30 41 89 42 31 43 32 44 33 45 83 46
REMARK SMILES IDX 34 47 88 48 82 49 84 50 35 51 87 52 81 53 80 54 36 56 68 57
REMARK SMILES IDX 48 58 67 59 49 60 52 61 66 62 85 63 50 64 51 65 65 67 86 68
REMARK SMILES IDX 53 69 37 70 38 71 46 72 39 73 40 74 44 75 47 76 41 77 42 78
REMARK SMILES IDX 45 79 43 80 69 81 70 82 78 83 71 84 72 85 76 86 79 87 73 88
REMARK SMILES IDX 74 89 77 90 75 91 54 92 55 93 63 94 56 95 57 96 61 97 64 98
REMARK SMILES IDX 58 99 59 100 62 101 60 102
REMARK H PARENT 18 7 3 25 6 28 25 36 84 55 52 66
REMARK Flexibility Score: inf
ROOT
ATOM      1  C   UNL A   1      35.368  32.448  28.073  1.00  0.00     0.002 C 
ENDROOT
BRANCH   1   2
ATOM      2  C   UNL A   1      34.358  31.371  28.483  1.00  0.00     0.021 C 
BRANCH   2   3
ATOM      3  C   UNL A   1      34.098  30.354  27.367  1.00  0.00     0.116 C 
BRANCH   3   4
ATOM      4  N   UNL A   1      32.852  30.672  26.699  1.00  0.00    -0.352 N 
ATOM      5  C   UNL A   1      32.102  29.976  25.786  1.00  0.00     0.251 C 
ATOM      6  O   UNL A   1      31.078  30.507  25.356  1.00  0.00    -0.269 OA
ATOM      7  H   UNL A   1      32.474  31.547  26.947  1.00  0.00     0.163 HD
BRANCH   5   8
ATOM      8  C   UNL A   1      32.443  28.592  25.356  1.00  0.00     0.039 A 
ATOM      9  C   UNL A   1      32.955  25.903  24.761  1.00  0.00     0.052 A 
ATOM     10  C   UNL A   1      31.636  26.351  24.874  1.00  0.00     0.027 A 
ATOM     11  C   UNL A   1      34.008  26.804  24.877  1.00  0.00     0.027 A 
ATOM     12  C   UNL A   1      31.385  27.685  25.208  1.00  0.00     0.016 A 
ATOM     13  C   UNL A   1      33.742  28.150  25.098  1.00  0.00     0.016 A 
BRANCH   9  14
ATOM     14  N   UNL A   1      33.240  24.557  24.507  1.00  0.00    -0.245 N 
ATOM     15  C   UNL A   1      33.565  22.268  24.839  1.00  0.00     0.285 C 
ATOM     16  C   UNL A   1      33.797  22.603  23.369  1.00  0.00     0.176 C 
ATOM     17  C   UNL A   1      33.008  23.560  25.421  1.00  0.00     0.292 C 
ATOM     18  C   UNL A   1      33.668  24.090  23.293  1.00  0.00     0.240 C 
ATOM     19  O   UNL A   1      32.459  23.665  26.509  1.00  0.00    -0.267 OA
ATOM     20  O   UNL A   1      33.910  24.733  22.280  1.00  0.00    -0.274 OA
BRANCH  15  21
ATOM     21  N   UNL A   1      34.683  21.791  25.667  1.00  0.00    -0.315 N 
ATOM     22  N   UNL A   1      37.525  22.540  25.053  1.00  0.00    -0.326 N 
ATOM     23  C   UNL A   1      36.836  21.466  24.328  1.00  0.00     0.324 C 
ATOM     24  C   UNL A   1      36.601  23.462  25.720  1.00  0.00     0.324 C 
ATOM     25  H   UNL A   1      37.983  23.099  24.333  1.00  0.00     0.348 HD
ATOM     26  C   UNL A   1      35.591  20.849  25.005  1.00  0.00     0.325 C 
ATOM     27  C   UNL A   1      35.420  22.790  26.450  1.00  0.00     0.325 C 
ATOM     28  H   UNL A   1      34.158  21.263  26.365  1.00  0.00     0.349 HD
BRANCH  22  29
ATOM     29  C   UNL A   1      38.649  22.094  25.880  1.00  0.00     0.259 C 
ATOM     30  C   UNL A   1      39.482  23.155  26.589  1.00  0.00     0.071 C 
ENDBRANCH  22  29
ENDBRANCH  15  21
ENDBRANCH   9  14
ENDBRANCH   5   8
ENDBRANCH   3   4
ENDBRANCH   2   3
ENDBRANCH   1   2
BRANCH   1  31
ATOM     31  C   UNL A   1      35.227  33.763  28.848  1.00  0.00     0.002 C 
BRANCH  31  32
ATOM     32  C   UNL A   1      33.785  34.247  29.013  1.00  0.00     0.021 C 
BRANCH  32  33
ATOM     33  C   UNL A   1      33.683  35.700  29.454  1.00  0.00     0.116 C 
BRANCH  33  34
ATOM     34  N   UNL A   1      32.710  35.860  30.523  1.00  0.00    -0.352 N 
ATOM     35  C   UNL A   1      32.727  35.319  31.785  1.00  0.00     0.251 C 
ATOM     36  H   UNL A   1      31.935  36.433  30.314  1.00  0.00     0.163 HD
ATOM     37  O   UNL A   1      31.732  35.329  32.492  1.00  0.00    -0.269 OA
BRANCH  35  38
ATOM     38  C   UNL A   1      33.983  34.715  32.271  1.00  0.00     0.039 A 
ATOM     39  C   UNL A   1      34.028  33.346  32.539  1.00  0.00     0.014 A 
ATOM     40  C   UNL A   1      35.118  35.514  32.434  1.00  0.00     0.014 A 
ATOM     41  C   UNL A   1      35.236  32.764  32.925  1.00  0.00     0.010 A 
ATOM     42  C   UNL A   1      36.333  34.920  32.738  1.00  0.00     0.010 A 
ATOM     43  C   UNL A   1      36.403  33.542  32.999  1.00  0.00    -0.014 A 
BRANCH  43  44
ATOM     44  C   UNL A   1      37.711  32.962  33.387  1.00  0.00     0.031 A 
ATOM     45  C   UNL A   1      38.360  31.948  32.486  1.00  0.00     0.074 A 
ATOM     46  C   UNL A   1      38.260  33.267  34.577  1.00  0.00     0.049 A 
ATOM     47  N   UNL A   1      39.407  31.195  32.701  1.00  0.00    -0.248 NA
ATOM     48  C   UNL A   1      37.718  31.725  31.180  1.00  0.00     0.031 C 
ATOM     49  C   UNL A   1      37.708  34.213  35.547  1.00  0.00     0.029 A 
ATOM     50  N   UNL A   1      39.396  32.792  35.183  1.00  0.00    -0.354 N 
ATOM     51  C   UNL A   1      39.531  30.394  31.573  1.00  0.00     0.074 A 
ATOM     52  C   UNL A   1      38.423  30.712  30.702  1.00  0.00     0.031 C 
ATOM     53  C   UNL A   1      38.511  34.257  36.623  1.00  0.00     0.029 A 
ATOM     54  C   UNL A   1      39.605  33.308  36.439  1.00  0.00     0.049 A 
ATOM     55  H   UNL A   1      40.002  32.142  34.759  1.00  0.00     0.167 HD
ATOM     56  C   UNL A   1      40.496  29.491  31.284  1.00  0.00     0.037 A 
ATOM     57  C   UNL A   1      40.562  33.028  37.345  1.00  0.00     0.037 A 
ATOM     58  C   UNL A   1      41.611  29.203  32.145  1.00  0.00     0.049 A 
ATOM     59  C   UNL A   1      41.616  32.006  37.006  1.00  0.00     0.074 A 
ATOM     60  C   UNL A   1      42.673  28.344  31.925  1.00  0.00     0.029 A 
ATOM     61  N   UNL A   1      41.808  29.771  33.396  1.00  0.00    -0.354 N 
ATOM     62  N   UNL A   1      41.755  31.290  35.916  1.00  0.00    -0.248 NA
ATOM     63  C   UNL A   1      42.649  31.757  38.021  1.00  0.00     0.031 C 
ATOM     64  C   UNL A   1      43.484  28.353  33.063  1.00  0.00     0.029 A 
ATOM     65  C   UNL A   1      42.964  29.266  33.967  1.00  0.00     0.049 A 
ATOM     66  H   UNL A   1      41.214  30.434  33.816  1.00  0.00     0.167 HD
ATOM     67  C   UNL A   1      42.910  30.541  36.096  1.00  0.00     0.074 A 
ATOM     68  C   UNL A   1      43.436  30.891  37.398  1.00  0.00     0.031 C 
ATOM     69  C   UNL A   1      43.487  29.647  35.255  1.00  0.00     0.037 A 
BRANCH  56  70
ATOM     70  C   UNL A   1      40.385  28.746  29.984  1.00  0.00     0.064 A 
ATOM     71  C   UNL A   1      41.041  29.183  28.823  1.00  0.00     0.173 A 
ATOM     72  C   UNL A   1      39.635  27.562  29.906  1.00  0.00     0.173 A 
ATOM     73  F   UNL A   1      41.761  30.316  28.840  1.00  0.00    -0.203 F 
ATOM     74  C   UNL A   1      40.922  28.483  27.625  1.00  0.00     0.198 A 
ATOM     75  C   UNL A   1      39.549  26.845  28.716  1.00  0.00     0.198 A 
ATOM     76  F   UNL A   1      38.992  27.095  30.987  1.00  0.00    -0.203 F 
ATOM     77  F   UNL A   1      41.511  28.953  26.516  1.00  0.00    -0.200 F 
ATOM     78  C   UNL A   1      40.183  27.312  27.574  1.00  0.00     0.200 A 
ATOM     79  F   UNL A   1      38.846  25.704  28.672  1.00  0.00    -0.200 F 
ATOM     80  F   UNL A   1      40.076  26.635  26.423  1.00  0.00    -0.200 F 
ENDBRANCH  56  70
BRANCH  57  81
ATOM     81  C   UNL A   1      40.577  33.734  38.654  1.00  0.00     0.064 A 
ATOM     82  C   UNL A   1      39.728  33.334  39.695  1.00  0.00     0.173 A 
ATOM     83  C   UNL A   1      41.427  34.824  38.890  1.00  0.00     0.173 A 
ATOM     84  F   UNL A   1      38.882  32.309  39.513  1.00  0.00    -0.203 F 
ATOM     85  C   UNL A   1      39.710  34.013  40.912  1.00  0.00     0.198 A 
ATOM     86  C   UNL A   1      41.431  35.483  40.117  1.00  0.00     0.198 A 
ATOM     87  F   UNL A   1      42.264  35.243  37.929  1.00  0.00    -0.203 F 
ATOM     88  F   UNL A   1      38.851  33.642  41.871  1.00  0.00    -0.200 F 
ATOM     89  C   UNL A   1      40.565  35.083  41.124  1.00  0.00     0.200 A 
ATOM     90  F   UNL A   1      42.271  36.507  40.323  1.00  0.00    -0.200 F 
ATOM     91  F   UNL A   1      40.549  35.736  42.294  1.00  0.00    -0.200 F 
ENDBRANCH  57  81
BRANCH  69  92
ATOM     92  C   UNL A   1      44.787  29.031  35.680  1.00  0.00     0.064 A 
ATOM     93  C   UNL A   1      44.842  27.824  36.391  1.00  0.00     0.173 A 
ATOM     94  C   UNL A   1      46.003  29.629  35.306  1.00  0.00     0.173 A 
ATOM     95  F   UNL A   1      43.709  27.220  36.782  1.00  0.00    -0.203 F 
ATOM     96  C   UNL A   1      46.064  27.248  36.729  1.00  0.00     0.198 A 
ATOM     97  C   UNL A   1      47.220  29.033  35.617  1.00  0.00     0.198 A 
ATOM     98  F   UNL A   1      46.006  30.781  34.618  1.00  0.00    -0.203 F 
ATOM     99  F   UNL A   1      46.092  26.114  37.444  1.00  0.00    -0.200 F 
ATOM    100  C   UNL A   1      47.251  27.847  36.333  1.00  0.00     0.200 A 
ATOM    101  F   UNL A   1      48.365  29.605  35.218  1.00  0.00    -0.200 F 
ATOM    102  F   UNL A   1      48.424  27.281  36.644  1.00  0.00    -0.200 F 
ENDBRANCH  69  92
ENDBRANCH  43  44
ENDBRANCH  35  38
ENDBRANCH  33  34
ENDBRANCH  32  33
ENDBRANCH  31  32
ENDBRANCH   1  31
TORSDOF 16
ENDMDL
MODEL 3
REMARK VINA RESULT:     -11.6      6.237     12.132
REMARK SMILES CC[NH+]1CC[NH+]([C@@H]2CC(=O)N(c3ccc(C(=O)NCCCCCCNC(=O)c4ccc(-c5c6nc(c(-c7c(F)c(F)c(F)c(F)c7F)c7ccc([nH]7)c(-c7c(F)c(F)c(F)c(F)c7F)c7nc(c(-c8c(F)c(F)c(F)c(F)c8F)c8ccc5[nH]8)C=C7)C=C6)cc4)cc3)C2=O)CC1
REMARK SMILES IDX 21 1 20 2 19 3 18 4 16 5 17 6 15 8 12 9 13 10 92 11 14 12
REMARK SMILES IDX 91 13 11 14 7 15 8 16 93 17 9 18 94 19 10 20 6 21 3 22 4 23
REMARK SMILES IDX 96 24 5 26 95 27 2 29 1 30 22 31 23 32 24 33 25 34 26 35
REMARK SMILES IDX 27 37 28 38 29 39 90 40 30 41 89 42 31 43 32 44 33 45 83 46
REMARK SMILES IDX 34 47 88 48 82 49 84 50 35 51 87 52 81 53 80 54 36 56 68 57
REMARK SMILES IDX 48 58 67 59 49 60 52 61 66 62 85 63 50 64 51 65 65 67 86 68
REMARK SMILES IDX 53 69 37 70 38 71 46 72 39 73 40 74 44 75 47 76 41 77 42 78
REMARK SMILES IDX 45 79 43 80 69 81 70 82 78 83 71 84 72 85 76 86 79 87 73 88
REMARK SMILES IDX 74 89 77 90 75 91 54 92 55 93 63 94 56 95 57 96 61 97 64 98
REMARK SMILES IDX 58 99 59 100 62 101 60 102
REMARK H PARENT 18 7 3 25 6 28 25 36 84 55 52 66
REMARK Flexibility Score: inf
ROOT
ATOM      1  C   UNL A   1      39.554  21.762  26.388  1.00  0.00     0.002 C 
ENDROOT
BRANCH   1   2
ATOM      2  C   UNL A   1      38.588  20.970  25.502  1.00  0.00     0.021 C 
BRANCH   2   3
ATOM      3  C   UNL A   1      37.313  21.754  25.176  1.00  0.00     0.116 C 
BRANCH   3   4
ATOM      4  N   UNL A   1      36.198  20.837  25.042  1.00  0.00    -0.352 N 
ATOM      5  C   UNL A   1      34.847  21.050  24.959  1.00  0.00     0.251 C 
ATOM      6  O   UNL A   1      34.112  20.065  24.874  1.00  0.00    -0.269 OA
ATOM      7  H   UNL A   1      36.460  19.888  25.003  1.00  0.00     0.163 HD
BRANCH   5   8
ATOM      8  C   UNL A   1      34.251  22.413  24.897  1.00  0.00     0.039 A 
ATOM      9  C   UNL A   1      32.903  24.868  24.856  1.00  0.00     0.052 A 
ATOM     10  C   UNL A   1      32.960  24.127  26.040  1.00  0.00     0.027 A 
ATOM     11  C   UNL A   1      33.570  24.420  23.722  1.00  0.00     0.027 A 
ATOM     12  C   UNL A   1      33.602  22.884  26.046  1.00  0.00     0.016 A 
ATOM     13  C   UNL A   1      34.300  23.238  23.772  1.00  0.00     0.016 A 
BRANCH   9  14
ATOM     14  N   UNL A   1      32.201  26.076  24.797  1.00  0.00    -0.245 N 
ATOM     15  C   UNL A   1      30.473  27.612  24.458  1.00  0.00     0.285 C 
ATOM     16  C   UNL A   1      31.711  28.347  24.962  1.00  0.00     0.176 C 
ATOM     17  C   UNL A   1      30.844  26.142  24.597  1.00  0.00     0.292 C 
ATOM     18  C   UNL A   1      32.771  27.296  25.042  1.00  0.00     0.240 C 
ATOM     19  O   UNL A   1      30.058  25.207  24.535  1.00  0.00    -0.267 OA
ATOM     20  O   UNL A   1      33.942  27.544  25.298  1.00  0.00    -0.274 OA
BRANCH  15  21
ATOM     21  N   UNL A   1      29.967  27.872  23.102  1.00  0.00    -0.315 N 
ATOM     22  N   UNL A   1      28.547  30.428  22.418  1.00  0.00    -0.326 N 
ATOM     23  C   UNL A   1      27.861  29.320  23.094  1.00  0.00     0.324 C 
ATOM     24  C   UNL A   1      30.005  30.353  22.539  1.00  0.00     0.324 C 
ATOM     25  H   UNL A   1      28.280  31.265  22.937  1.00  0.00     0.348 HD
ATOM     26  C   UNL A   1      28.507  27.921  22.980  1.00  0.00     0.325 C 
ATOM     27  C   UNL A   1      30.608  28.948  22.336  1.00  0.00     0.325 C 
ATOM     28  H   UNL A   1      30.280  27.017  22.643  1.00  0.00     0.349 HD
BRANCH  22  29
ATOM     29  C   UNL A   1      28.057  30.715  21.068  1.00  0.00     0.259 C 
ATOM     30  C   UNL A   1      27.948  32.174  20.641  1.00  0.00     0.071 C 
ENDBRANCH  22  29
ENDBRANCH  15  21
ENDBRANCH   9  14
ENDBRANCH   5   8
ENDBRANCH   3   4
ENDBRANCH   2   3
ENDBRANCH   1   2
BRANCH   1  31
ATOM     31  C   UNL A   1      41.001  21.257  26.340  1.00  0.00     0.002 C 
BRANCH  31  32
ATOM     32  C   UNL A   1      41.151  19.820  25.838  1.00  0.00     0.021 C 
BRANCH  32  33
ATOM     33  C   UNL A   1      42.376  19.110  26.398  1.00  0.00     0.116 C 
BRANCH  33  34
ATOM     34  N   UNL A   1      43.337  18.807  25.349  1.00  0.00    -0.352 N 
ATOM     35  C   UNL A   1      44.091  19.677  24.602  1.00  0.00     0.251 C 
ATOM     36  H   UNL A   1      43.463  17.850  25.148  1.00  0.00     0.163 HD
ATOM     37  O   UNL A   1      44.667  19.308  23.590  1.00  0.00    -0.269 OA
BRANCH  35  38
ATOM     38  C   UNL A   1      44.189  21.081  25.047  1.00  0.00     0.039 A 
ATOM     39  C   UNL A   1      44.684  21.365  26.321  1.00  0.00     0.014 A 
ATOM     40  C   UNL A   1      43.809  22.110  24.181  1.00  0.00     0.014 A 
ATOM     41  C   UNL A   1      44.847  22.695  26.711  1.00  0.00     0.010 A 
ATOM     42  C   UNL A   1      44.047  23.428  24.540  1.00  0.00     0.010 A 
ATOM     43  C   UNL A   1      44.556  23.735  25.812  1.00  0.00    -0.014 A 
BRANCH  43  44
ATOM     44  C   UNL A   1      44.732  25.161  26.177  1.00  0.00     0.031 A 
ATOM     45  C   UNL A   1      46.099  25.779  26.085  1.00  0.00     0.074 A 
ATOM     46  C   UNL A   1      43.698  25.862  26.678  1.00  0.00     0.049 A 
ATOM     47  N   UNL A   1      46.514  26.946  26.505  1.00  0.00    -0.248 NA
ATOM     48  C   UNL A   1      47.151  24.954  25.468  1.00  0.00     0.031 C 
ATOM     49  C   UNL A   1      42.334  25.361  26.844  1.00  0.00     0.029 A 
ATOM     50  N   UNL A   1      43.644  27.145  27.165  1.00  0.00    -0.354 N 
ATOM     51  C   UNL A   1      47.874  26.982  26.229  1.00  0.00     0.074 A 
ATOM     52  C   UNL A   1      48.227  25.702  25.657  1.00  0.00     0.031 C 
ATOM     53  C   UNL A   1      41.573  26.327  27.383  1.00  0.00     0.029 A 
ATOM     54  C   UNL A   1      42.407  27.497  27.647  1.00  0.00     0.049 A 
ATOM     55  H   UNL A   1      44.417  27.753  27.169  1.00  0.00     0.167 HD
ATOM     56  C   UNL A   1      48.744  28.001  26.418  1.00  0.00     0.037 A 
ATOM     57  C   UNL A   1      42.000  28.629  28.252  1.00  0.00     0.037 A 
ATOM     58  C   UNL A   1      48.378  29.281  26.961  1.00  0.00     0.049 A 
ATOM     59  C   UNL A   1      42.992  29.743  28.466  1.00  0.00     0.074 A 
ATOM     60  C   UNL A   1      49.171  30.399  27.145  1.00  0.00     0.029 A 
ATOM     61  N   UNL A   1      47.106  29.612  27.407  1.00  0.00    -0.354 N 
ATOM     62  N   UNL A   1      44.265  29.788  28.156  1.00  0.00    -0.248 NA
ATOM     63  C   UNL A   1      42.489  30.965  29.108  1.00  0.00     0.031 C 
ATOM     64  C   UNL A   1      48.392  31.390  27.751  1.00  0.00     0.029 A 
ATOM     65  C   UNL A   1      47.098  30.912  27.885  1.00  0.00     0.049 A 
ATOM     66  H   UNL A   1      46.326  29.013  27.388  1.00  0.00     0.167 HD
ATOM     67  C   UNL A   1      44.704  31.053  28.525  1.00  0.00     0.074 A 
ATOM     68  C   UNL A   1      43.560  31.745  29.080  1.00  0.00     0.031 C 
ATOM     69  C   UNL A   1      45.942  31.594  28.409  1.00  0.00     0.037 A 
BRANCH  56  70
ATOM     70  C   UNL A   1      50.180  27.769  26.037  1.00  0.00     0.064 A 
ATOM     71  C   UNL A   1      50.610  27.834  24.703  1.00  0.00     0.173 A 
ATOM     72  C   UNL A   1      51.143  27.508  27.024  1.00  0.00     0.173 A 
ATOM     73  F   UNL A   1      49.728  28.069  23.720  1.00  0.00    -0.203 F 
ATOM     74  C   UNL A   1      51.943  27.611  24.368  1.00  0.00     0.198 A 
ATOM     75  C   UNL A   1      52.481  27.322  26.688  1.00  0.00     0.198 A 
ATOM     76  F   UNL A   1      50.788  27.441  28.316  1.00  0.00    -0.203 F 
ATOM     77  F   UNL A   1      52.319  27.621  23.081  1.00  0.00    -0.200 F 
ATOM     78  C   UNL A   1      52.878  27.363  25.361  1.00  0.00     0.200 A 
ATOM     79  F   UNL A   1      53.386  27.097  27.652  1.00  0.00    -0.200 F 
ATOM     80  F   UNL A   1      54.162  27.157  25.038  1.00  0.00    -0.200 F 
ENDBRANCH  56  70
BRANCH  57  81
ATOM     81  C   UNL A   1      40.586  28.775  28.687  1.00  0.00     0.064 A 
ATOM     82  C   UNL A   1      40.208  28.493  30.008  1.00  0.00     0.173 A 
ATOM     83  C   UNL A   1      39.583  29.185  27.797  1.00  0.00     0.173 A 
ATOM     84  F   UNL A   1      41.127  28.079  30.893  1.00  0.00    -0.203 F 
ATOM     85  C   UNL A   1      38.878  28.592  30.414  1.00  0.00     0.198 A 
ATOM     86  C   UNL A   1      38.259  29.313  28.213  1.00  0.00     0.198 A 
ATOM     87  F   UNL A   1      39.891  29.472  26.524  1.00  0.00    -0.203 F 
ATOM     88  F   UNL A   1      38.539  28.266  31.669  1.00  0.00    -0.200 F 
ATOM     89  C   UNL A   1      37.906  29.006  29.518  1.00  0.00     0.200 A 
ATOM     90  F   UNL A   1      37.324  29.730  27.346  1.00  0.00    -0.200 F 
ATOM     91  F   UNL A   1      36.628  29.102  29.908  1.00  0.00    -0.200 F 
ENDBRANCH  57  81
BRANCH  69  92
ATOM     92  C   UNL A   1      46.117  33.025  28.826  1.00  0.00     0.064 A 
ATOM     93  C   UNL A   1      46.524  33.378  30.120  1.00  0.00     0.173 A 
ATOM     94  C   UNL A   1      45.939  34.057  27.889  1.00  0.00     0.173 A 
ATOM     95  F   UNL A   1      46.696  32.431  31.056  1.00  0.00    -0.203 F 
ATOM     96  C   UNL A   1      46.729  34.711  30.467  1.00  0.00     0.198 A 
ATOM     97  C   UNL A   1      46.176  35.384  28.230  1.00  0.00     0.198 A 
ATOM     98  F   UNL A   1      45.557  33.772  26.635  1.00  0.00    -0.203 F 
ATOM     99  F   UNL A   1      47.079  35.029  31.721  1.00  0.00    -0.200 F 
ATOM    100  C   UNL A   1      46.565  35.711  29.519  1.00  0.00     0.200 A 
ATOM    101  F   UNL A   1      46.035  36.346  27.307  1.00  0.00    -0.200 F 
ATOM    102  F   UNL A   1      46.780  36.991  29.851  1.00  0.00    -0.200 F 
ENDBRANCH  69  92
ENDBRANCH  43  44
ENDBRANCH  35  38
ENDBRANCH  33  34
ENDBRANCH  32  33
ENDBRANCH  31  32
ENDBRANCH   1  31
TORSDOF 16
ENDMDL
