MODEL 1
REMARK VINA RESULT:     -12.2      0.000      0.000
REMARK SMILES C[C@@H]1CCCN(C(=O)N[C@]2(C(=O)NCCCCCCNC(=O)c3ccc(-c4c5nc(c(-c6c(F)c(F)c(F)c(F)c6F)c6ccc([nH]6)c(-c6c(F)c(F)c(F)c(F)c6F)c6nc(c(-c7c(F)c(F)c(F)c(F)c7F)c7ccc4[nH]7)C=C6)C=C5)cc3)CCCC[C@@H]2C)C1
REMARK SMILES IDX 16 1 15 2 14 3 13 4 11 5 12 6 10 8 86 9 90 10 87 11 89 12
REMARK SMILES IDX 91 13 88 14 9 15 7 16 8 17 6 19 1 20 2 21 3 22 92 23 4 24
REMARK SMILES IDX 5 25 17 26 18 27 19 28 20 29 21 30 22 32 23 33 24 34 85 35
REMARK SMILES IDX 25 36 84 37 26 38 27 39 28 40 78 41 29 42 83 43 77 44 79 45
REMARK SMILES IDX 30 46 82 47 76 48 75 49 31 51 63 52 43 53 62 54 44 55 47 56
REMARK SMILES IDX 61 57 80 58 45 59 46 60 60 62 81 63 48 64 32 65 33 66 41 67
REMARK SMILES IDX 34 68 35 69 39 70 42 71 36 72 37 73 40 74 38 75 64 76 65 77
REMARK SMILES IDX 73 78 66 79 67 80 71 81 74 82 68 83 69 84 72 85 70 86 49 87
REMARK SMILES IDX 50 88 58 89 51 90 52 91 56 92 59 93 53 94 54 95 57 96 55 97
REMARK H PARENT 13 7 9 18 20 31 79 50 47 61
REMARK Flexibility Score: inf
ROOT
ATOM      1  C   UNL A   1      33.295  27.139  24.625  1.00  0.00     0.002 C 
ENDROOT
BRANCH   1   2
ATOM      2  C   UNL A   1      33.853  26.319  25.802  1.00  0.00     0.021 C 
BRANCH   2   3
ATOM      3  C   UNL A   1      34.324  24.882  25.517  1.00  0.00     0.116 C 
BRANCH   3   4
ATOM      4  N   UNL A   1      34.211  23.868  26.584  1.00  0.00    -0.354 N 
ATOM      5  C   UNL A   1      34.565  22.501  26.605  1.00  0.00     0.246 C 
ATOM      6  O   UNL A   1      34.371  21.906  27.673  1.00  0.00    -0.272 OA
ATOM      7  H   UNL A   1      33.824  24.202  27.425  1.00  0.00     0.163 HD
BRANCH   5   8
ATOM      8  C   UNL A   1      34.908  21.669  25.254  1.00  0.00     0.123 C 
ATOM      9  C   UNL A   1      34.685  21.940  23.723  1.00  0.00     0.039 C 
ATOM     10  C   UNL A   1      36.487  21.582  25.427  1.00  0.00     0.021 C 
ATOM     11  C   UNL A   1      35.383  23.094  23.050  1.00  0.00     0.003 C 
ATOM     12  C   UNL A   1      37.181  22.813  24.730  1.00  0.00     0.006 C 
ATOM     13  C   UNL A   1      37.162  20.286  25.001  1.00  0.00     0.011 C 
ATOM     14  C   UNL A   1      36.874  22.951  23.242  1.00  0.00     0.000 C 
BRANCH   8  15
ATOM     15  N   UNL A   1      33.993  20.544  25.393  1.00  0.00    -0.323 N 
ATOM     16  C   UNL A   1      32.708  20.465  24.882  1.00  0.00     0.318 C 
ATOM     17  O   UNL A   1      32.153  19.368  24.997  1.00  0.00    -0.249 OA
ATOM     18  H   UNL A   1      34.320  19.764  25.897  1.00  0.00     0.166 HD
BRANCH  16  19
ATOM     19  N   UNL A   1      32.009  21.617  24.490  1.00  0.00    -0.325 N 
ATOM     20  C   UNL A   1      30.264  24.393  26.501  1.00  0.00     0.009 C 
ATOM     21  C   UNL A   1      31.125  23.738  25.428  1.00  0.00     0.005 C 
ATOM     22  C   UNL A   1      30.663  24.211  24.049  1.00  0.00     0.007 C 
ATOM     23  C   UNL A   1      31.094  22.194  25.482  1.00  0.00     0.124 C 
ATOM     24  C   UNL A   1      31.574  23.631  22.995  1.00  0.00     0.022 C 
ATOM     25  C   UNL A   1      31.725  22.115  23.124  1.00  0.00     0.121 C 
ENDBRANCH  16  19
ENDBRANCH   8  15
ENDBRANCH   5   8
ENDBRANCH   3   4
ENDBRANCH   2   3
ENDBRANCH   1   2
BRANCH   1  26
ATOM     26  C   UNL A   1      31.875  27.705  24.730  1.00  0.00     0.002 C 
BRANCH  26  27
ATOM     27  C   UNL A   1      31.671  29.152  25.169  1.00  0.00     0.021 C 
BRANCH  27  28
ATOM     28  C   UNL A   1      32.721  29.705  26.117  1.00  0.00     0.116 C 
BRANCH  28  29
ATOM     29  N   UNL A   1      32.543  31.121  26.407  1.00  0.00    -0.352 N 
ATOM     30  C   UNL A   1      33.252  31.944  27.250  1.00  0.00     0.251 C 
ATOM     31  H   UNL A   1      31.801  31.555  25.926  1.00  0.00     0.163 HD
ATOM     32  O   UNL A   1      32.862  33.079  27.479  1.00  0.00    -0.269 OA
BRANCH  30  33
ATOM     33  C   UNL A   1      34.485  31.445  27.897  1.00  0.00     0.039 A 
ATOM     34  C   UNL A   1      35.560  32.321  28.078  1.00  0.00     0.014 A 
ATOM     35  C   UNL A   1      34.585  30.118  28.318  1.00  0.00     0.014 A 
ATOM     36  C   UNL A   1      36.710  31.876  28.732  1.00  0.00     0.010 A 
ATOM     37  C   UNL A   1      35.686  29.705  29.058  1.00  0.00     0.010 A 
ATOM     38  C   UNL A   1      36.769  30.573  29.256  1.00  0.00    -0.014 A 
BRANCH  38  39
ATOM     39  C   UNL A   1      37.968  30.089  29.984  1.00  0.00     0.031 A 
ATOM     40  C   UNL A   1      38.226  30.556  31.392  1.00  0.00     0.074 A 
ATOM     41  C   UNL A   1      38.844  29.275  29.362  1.00  0.00     0.049 A 
ATOM     42  N   UNL A   1      39.238  30.293  32.179  1.00  0.00    -0.248 NA
ATOM     43  C   UNL A   1      37.231  31.466  31.984  1.00  0.00     0.031 C 
ATOM     44  C   UNL A   1      38.727  28.806  27.979  1.00  0.00     0.029 A 
ATOM     45  N   UNL A   1      40.006  28.701  29.808  1.00  0.00    -0.354 N 
ATOM     46  C   UNL A   1      39.003  31.008  33.347  1.00  0.00     0.074 A 
ATOM     47  C   UNL A   1      37.796  31.774  33.142  1.00  0.00     0.031 C 
ATOM     48  C   UNL A   1      39.758  27.991  27.703  1.00  0.00     0.029 A 
ATOM     49  C   UNL A   1      40.627  27.912  28.871  1.00  0.00     0.049 A 
ATOM     50  H   UNL A   1      40.361  28.841  30.716  1.00  0.00     0.167 HD
ATOM     51  C   UNL A   1      39.712  30.999  34.500  1.00  0.00     0.037 A 
ATOM     52  C   UNL A   1      41.772  27.208  28.949  1.00  0.00     0.037 A 
ATOM     53  C   UNL A   1      40.899  30.213  34.704  1.00  0.00     0.049 A 
ATOM     54  C   UNL A   1      42.540  27.218  30.245  1.00  0.00     0.074 A 
ATOM     55  C   UNL A   1      41.674  30.097  35.846  1.00  0.00     0.029 A 
ATOM     56  N   UNL A   1      41.483  29.403  33.741  1.00  0.00    -0.354 N 
ATOM     57  N   UNL A   1      42.271  27.845  31.364  1.00  0.00    -0.248 NA
ATOM     58  C   UNL A   1      43.766  26.410  30.292  1.00  0.00     0.031 C 
ATOM     59  C   UNL A   1      42.750  29.255  35.558  1.00  0.00     0.029 A 
ATOM     60  C   UNL A   1      42.614  28.795  34.257  1.00  0.00     0.049 A 
ATOM     61  H   UNL A   1      41.142  29.279  32.824  1.00  0.00     0.167 HD
ATOM     62  C   UNL A   1      43.268  27.477  32.258  1.00  0.00     0.074 A 
ATOM     63  C   UNL A   1      44.137  26.557  31.555  1.00  0.00     0.031 C 
ATOM     64  C   UNL A   1      43.452  27.865  33.545  1.00  0.00     0.037 A 
BRANCH  51  65
ATOM     65  C   UNL A   1      39.213  31.845  35.635  1.00  0.00     0.064 A 
ATOM     66  C   UNL A   1      38.336  31.332  36.604  1.00  0.00     0.173 A 
ATOM     67  C   UNL A   1      39.653  33.169  35.789  1.00  0.00     0.173 A 
ATOM     68  F   UNL A   1      37.871  30.078  36.499  1.00  0.00    -0.203 F 
ATOM     69  C   UNL A   1      37.902  32.118  37.669  1.00  0.00     0.198 A 
ATOM     70  C   UNL A   1      39.244  33.941  36.873  1.00  0.00     0.198 A 
ATOM     71  F   UNL A   1      40.493  33.711  34.893  1.00  0.00    -0.203 F 
ATOM     72  F   UNL A   1      37.029  31.619  38.555  1.00  0.00    -0.200 F 
ATOM     73  C   UNL A   1      38.364  33.418  37.809  1.00  0.00     0.200 A 
ATOM     74  F   UNL A   1      39.703  35.192  37.013  1.00  0.00    -0.200 F 
ATOM     75  F   UNL A   1      37.959  34.167  38.842  1.00  0.00    -0.200 F 
ENDBRANCH  51  65
BRANCH  52  76
ATOM     76  C   UNL A   1      42.253  26.418  27.784  1.00  0.00     0.064 A 
ATOM     77  C   UNL A   1      41.787  25.115  27.551  1.00  0.00     0.173 A 
ATOM     78  C   UNL A   1      43.214  26.929  26.900  1.00  0.00     0.173 A 
ATOM     79  F   UNL A   1      40.880  24.571  28.375  1.00  0.00    -0.203 F 
ATOM     80  C   UNL A   1      42.294  24.343  26.507  1.00  0.00     0.198 A 
ATOM     81  C   UNL A   1      43.693  26.170  25.835  1.00  0.00     0.198 A 
ATOM     82  F   UNL A   1      43.688  28.172  27.070  1.00  0.00    -0.203 F 
ATOM     83  F   UNL A   1      41.881  23.077  26.351  1.00  0.00    -0.200 F 
ATOM     84  C   UNL A   1      43.243  24.872  25.647  1.00  0.00     0.200 A 
ATOM     85  F   UNL A   1      44.600  26.692  24.997  1.00  0.00    -0.200 F 
ATOM     86  F   UNL A   1      43.736  24.128  24.648  1.00  0.00    -0.200 F 
ENDBRANCH  52  76
BRANCH  64  87
ATOM     87  C   UNL A   1      44.600  27.248  34.290  1.00  0.00     0.064 A 
ATOM     88  C   UNL A   1      45.864  27.853  34.340  1.00  0.00     0.173 A 
ATOM     89  C   UNL A   1      44.421  26.044  34.990  1.00  0.00     0.173 A 
ATOM     90  F   UNL A   1      46.091  28.999  33.678  1.00  0.00    -0.203 F 
ATOM     91  C   UNL A   1      46.916  27.256  35.028  1.00  0.00     0.198 A 
ATOM     92  C   UNL A   1      45.463  25.470  35.708  1.00  0.00     0.198 A 
ATOM     93  F   UNL A   1      43.227  25.430  34.984  1.00  0.00    -0.203 F 
ATOM     94  F   UNL A   1      48.131  27.819  35.008  1.00  0.00    -0.200 F 
ATOM     95  C   UNL A   1      46.713  26.069  35.717  1.00  0.00     0.200 A 
ATOM     96  F   UNL A   1      45.260  24.334  36.390  1.00  0.00    -0.200 F 
ATOM     97  F   UNL A   1      47.727  25.499  36.383  1.00  0.00    -0.200 F 
ENDBRANCH  64  87
ENDBRANCH  38  39
ENDBRANCH  30  33
ENDBRANCH  28  29
ENDBRANCH  27  28
ENDBRANCH  26  27
ENDBRANCH   1  26
TORSDOF 15
ENDMDL
MODEL 2
REMARK VINA RESULT:     -12.2      1.966      3.290
REMARK SMILES C[C@@H]1CCCN(C(=O)N[C@]2(C(=O)NCCCCCCNC(=O)c3ccc(-c4c5nc(c(-c6c(F)c(F)c(F)c(F)c6F)c6ccc([nH]6)c(-c6c(F)c(F)c(F)c(F)c6F)c6nc(c(-c7c(F)c(F)c(F)c(F)c7F)c7ccc4[nH]7)C=C6)C=C5)cc3)CCCC[C@@H]2C)C1
REMARK SMILES IDX 16 1 15 2 14 3 13 4 11 5 12 6 10 8 86 9 90 10 87 11 89 12
REMARK SMILES IDX 91 13 88 14 9 15 7 16 8 17 6 19 1 20 2 21 3 22 92 23 4 24
REMARK SMILES IDX 5 25 17 26 18 27 19 28 20 29 21 30 22 32 23 33 24 34 85 35
REMARK SMILES IDX 25 36 84 37 26 38 27 39 28 40 78 41 29 42 83 43 77 44 79 45
REMARK SMILES IDX 30 46 82 47 76 48 75 49 31 51 63 52 43 53 62 54 44 55 47 56
REMARK SMILES IDX 61 57 80 58 45 59 46 60 60 62 81 63 48 64 32 65 33 66 41 67
REMARK SMILES IDX 34 68 35 69 39 70 42 71 36 72 37 73 40 74 38 75 64 76 65 77
REMARK SMILES IDX 73 78 66 79 67 80 71 81 74 82 68 83 69 84 72 85 70 86 49 87
REMARK SMILES IDX 50 88 58 89 51 90 52 91 56 92 59 93 53 94 54 95 57 96 55 97
REMARK H PARENT 13 7 9 18 20 31 79 50 47 61
REMARK Flexibility Score: inf
ROOT
ATOM      1  C   UNL A   1      32.212  29.609  27.185  1.00  0.00     0.002 C 
ENDROOT
BRANCH   1   2
ATOM      2  C   UNL A   1      31.482  28.282  27.453  1.00  0.00     0.021 C 
BRANCH   2   3
ATOM      3  C   UNL A   1      31.644  27.152  26.422  1.00  0.00     0.116 C 
BRANCH   3   4
ATOM      4  N   UNL A   1      32.965  26.513  26.261  1.00  0.00    -0.354 N 
ATOM      5  C   UNL A   1      33.748  26.277  25.110  1.00  0.00     0.246 C 
ATOM      6  O   UNL A   1      34.844  25.735  25.299  1.00  0.00    -0.272 OA
ATOM      7  H   UNL A   1      33.371  26.199  27.101  1.00  0.00     0.163 HD
BRANCH   5   8
ATOM      8  C   UNL A   1      33.147  26.409  23.607  1.00  0.00     0.123 C 
ATOM      9  C   UNL A   1      31.699  26.340  23.005  1.00  0.00     0.039 C 
ATOM     10  C   UNL A   1      33.656  27.880  23.280  1.00  0.00     0.021 C 
ATOM     11  C   UNL A   1      30.674  27.380  23.380  1.00  0.00     0.003 C 
ATOM     12  C   UNL A   1      32.569  28.940  23.704  1.00  0.00     0.006 C 
ATOM     13  C   UNL A   1      34.130  28.152  21.860  1.00  0.00     0.011 C 
ATOM     14  C   UNL A   1      31.209  28.749  23.039  1.00  0.00     0.000 C 
BRANCH   8  15
ATOM     15  N   UNL A   1      33.673  25.194  23.001  1.00  0.00    -0.323 N 
ATOM     16  C   UNL A   1      33.212  23.905  23.214  1.00  0.00     0.318 C 
ATOM     17  O   UNL A   1      33.709  23.033  22.495  1.00  0.00    -0.249 OA
ATOM     18  H   UNL A   1      34.430  25.299  22.379  1.00  0.00     0.166 HD
BRANCH  16  19
ATOM     19  N   UNL A   1      32.421  23.591  24.329  1.00  0.00    -0.325 N 
ATOM     20  C   UNL A   1      33.306  22.318  27.849  1.00  0.00     0.009 C 
ATOM     21  C   UNL A   1      32.626  23.140  26.761  1.00  0.00     0.005 C 
ATOM     22  C   UNL A   1      31.109  23.032  26.918  1.00  0.00     0.007 C 
ATOM     23  C   UNL A   1      33.030  22.711  25.333  1.00  0.00     0.124 C 
ATOM     24  C   UNL A   1      30.441  23.917  25.895  1.00  0.00     0.022 C 
ATOM     25  C   UNL A   1      30.949  23.658  24.477  1.00  0.00     0.121 C 
ENDBRANCH  16  19
ENDBRANCH   8  15
ENDBRANCH   5   8
ENDBRANCH   3   4
ENDBRANCH   2   3
ENDBRANCH   1   2
BRANCH   1  26
ATOM     26  C   UNL A   1      31.523  30.666  26.315  1.00  0.00     0.002 C 
BRANCH  26  27
ATOM     27  C   UNL A   1      31.381  32.094  26.835  1.00  0.00     0.021 C 
BRANCH  27  28
ATOM     28  C   UNL A   1      32.684  32.840  27.069  1.00  0.00     0.116 C 
BRANCH  28  29
ATOM     29  N   UNL A   1      32.489  34.178  27.609  1.00  0.00    -0.352 N 
ATOM     30  C   UNL A   1      33.121  34.807  28.656  1.00  0.00     0.251 C 
ATOM     31  H   UNL A   1      31.799  34.715  27.155  1.00  0.00     0.163 HD
ATOM     32  O   UNL A   1      32.719  35.887  29.063  1.00  0.00    -0.269 OA
BRANCH  30  33
ATOM     33  C   UNL A   1      34.285  34.163  29.304  1.00  0.00     0.039 A 
ATOM     34  C   UNL A   1      34.066  33.158  30.251  1.00  0.00     0.014 A 
ATOM     35  C   UNL A   1      35.587  34.552  28.984  1.00  0.00     0.014 A 
ATOM     36  C   UNL A   1      35.156  32.509  30.832  1.00  0.00     0.010 A 
ATOM     37  C   UNL A   1      36.667  33.838  29.485  1.00  0.00     0.010 A 
ATOM     38  C   UNL A   1      36.466  32.821  30.429  1.00  0.00    -0.014 A 
BRANCH  38  39
ATOM     39  C   UNL A   1      37.638  32.121  31.009  1.00  0.00     0.031 A 
ATOM     40  C   UNL A   1      38.133  32.500  32.379  1.00  0.00     0.074 A 
ATOM     41  C   UNL A   1      38.281  31.185  30.284  1.00  0.00     0.049 A 
ATOM     42  N   UNL A   1      39.168  32.048  33.041  1.00  0.00    -0.248 NA
ATOM     43  C   UNL A   1      37.386  33.552  33.089  1.00  0.00     0.031 C 
ATOM     44  C   UNL A   1      37.927  30.778  28.922  1.00  0.00     0.029 A 
ATOM     45  N   UNL A   1      39.370  30.408  30.588  1.00  0.00    -0.354 N 
ATOM     46  C   UNL A   1      39.196  32.762  34.231  1.00  0.00     0.074 A 
ATOM     47  C   UNL A   1      38.124  33.729  34.174  1.00  0.00     0.031 C 
ATOM     48  C   UNL A   1      38.762  29.805  28.522  1.00  0.00     0.029 A 
ATOM     49  C   UNL A   1      39.733  29.548  29.580  1.00  0.00     0.049 A 
ATOM     50  H   UNL A   1      39.846  30.461  31.448  1.00  0.00     0.167 HD
ATOM     51  C   UNL A   1      40.020  32.602  35.293  1.00  0.00     0.037 A 
ATOM     52  C   UNL A   1      40.739  28.656  29.520  1.00  0.00     0.037 A 
ATOM     53  C   UNL A   1      41.069  31.619  35.352  1.00  0.00     0.049 A 
ATOM     54  C   UNL A   1      41.642  28.501  30.715  1.00  0.00     0.074 A 
ATOM     55  C   UNL A   1      41.937  31.344  36.394  1.00  0.00     0.029 A 
ATOM     56  N   UNL A   1      41.389  30.747  34.323  1.00  0.00    -0.354 N 
ATOM     57  N   UNL A   1      41.616  29.137  31.862  1.00  0.00    -0.248 NA
ATOM     58  C   UNL A   1      42.706  27.494  30.614  1.00  0.00     0.031 C 
ATOM     59  C   UNL A   1      42.811  30.336  35.977  1.00  0.00     0.029 A 
ATOM     60  C   UNL A   1      42.449  29.939  34.700  1.00  0.00     0.049 A 
ATOM     61  H   UNL A   1      40.928  30.706  33.452  1.00  0.00     0.167 HD
ATOM     62  C   UNL A   1      42.631  28.581  32.631  1.00  0.00     0.074 A 
ATOM     63  C   UNL A   1      43.240  27.544  31.825  1.00  0.00     0.031 C 
ATOM     64  C   UNL A   1      43.025  28.898  33.889  1.00  0.00     0.037 A 
BRANCH  51  65
ATOM     65  C   UNL A   1      39.810  33.493  36.483  1.00  0.00     0.064 A 
ATOM     66  C   UNL A   1      40.456  34.734  36.596  1.00  0.00     0.173 A 
ATOM     67  C   UNL A   1      38.913  33.130  37.500  1.00  0.00     0.173 A 
ATOM     68  F   UNL A   1      41.335  35.125  35.660  1.00  0.00    -0.203 F 
ATOM     69  C   UNL A   1      40.232  35.565  37.690  1.00  0.00     0.198 A 
ATOM     70  C   UNL A   1      38.665  33.979  38.576  1.00  0.00     0.198 A 
ATOM     71  F   UNL A   1      38.265  31.956  37.444  1.00  0.00    -0.203 F 
ATOM     72  F   UNL A   1      40.897  36.724  37.796  1.00  0.00    -0.200 F 
ATOM     73  C   UNL A   1      39.329  35.193  38.674  1.00  0.00     0.200 A 
ATOM     74  F   UNL A   1      37.782  33.622  39.519  1.00  0.00    -0.200 F 
ATOM     75  F   UNL A   1      39.101  36.000  39.717  1.00  0.00    -0.200 F 
ENDBRANCH  51  65
BRANCH  52  76
ATOM     76  C   UNL A   1      40.940  27.825  28.302  1.00  0.00     0.064 A 
ATOM     77  C   UNL A   1      40.362  26.551  28.192  1.00  0.00     0.173 A 
ATOM     78  C   UNL A   1      41.740  28.267  27.238  1.00  0.00     0.173 A 
ATOM     79  F   UNL A   1      39.601  26.073  29.188  1.00  0.00    -0.203 F 
ATOM     80  C   UNL A   1      40.611  25.738  27.088  1.00  0.00     0.198 A 
ATOM     81  C   UNL A   1      41.958  27.467  26.118  1.00  0.00     0.198 A 
ATOM     82  F   UNL A   1      42.310  29.480  27.285  1.00  0.00    -0.203 F 
ATOM     83  F   UNL A   1      40.102  24.498  27.043  1.00  0.00    -0.200 F 
ATOM     84  C   UNL A   1      41.406  26.198  26.050  1.00  0.00     0.200 A 
ATOM     85  F   UNL A   1      42.714  27.923  25.109  1.00  0.00    -0.200 F 
ATOM     86  F   UNL A   1      41.651  25.413  24.992  1.00  0.00    -0.200 F 
ENDBRANCH  52  76
BRANCH  64  87
ATOM     87  C   UNL A   1      44.127  28.074  34.491  1.00  0.00     0.064 A 
ATOM     88  C   UNL A   1      45.473  28.459  34.406  1.00  0.00     0.173 A 
ATOM     89  C   UNL A   1      43.824  26.895  35.189  1.00  0.00     0.173 A 
ATOM     90  F   UNL A   1      45.816  29.573  33.739  1.00  0.00    -0.203 F 
ATOM     91  C   UNL A   1      46.477  27.673  34.962  1.00  0.00     0.198 A 
ATOM     92  C   UNL A   1      44.827  26.132  35.777  1.00  0.00     0.198 A 
ATOM     93  F   UNL A   1      42.550  26.489  35.310  1.00  0.00    -0.203 F 
ATOM     94  F   UNL A   1      47.761  28.027  34.813  1.00  0.00    -0.200 F 
ATOM     95  C   UNL A   1      46.153  26.514  35.653  1.00  0.00     0.200 A 
ATOM     96  F   UNL A   1      44.510  25.024  36.461  1.00  0.00    -0.200 F 
ATOM     97  F   UNL A   1      47.123  25.762  36.192  1.00  0.00    -0.200 F 
ENDBRANCH  64  87
ENDBRANCH  38  39
ENDBRANCH  30  33
ENDBRANCH  28  29
ENDBRANCH  27  28
ENDBRANCH  26  27
ENDBRANCH   1  26
TORSDOF 15
ENDMDL
MODEL 3
REMARK VINA RESULT:     -12.2      4.438      9.848
REMARK SMILES C[C@@H]1CCCN(C(=O)N[C@]2(C(=O)NCCCCCCNC(=O)c3ccc(-c4c5nc(c(-c6c(F)c(F)c(F)c(F)c6F)c6ccc([nH]6)c(-c6c(F)c(F)c(F)c(F)c6F)c6nc(c(-c7c(F)c(F)c(F)c(F)c7F)c7ccc4[nH]7)C=C6)C=C5)cc3)CCCC[C@@H]2C)C1
REMARK SMILES IDX 16 1 15 2 14 3 13 4 11 5 12 6 10 8 86 9 90 10 87 11 89 12
REMARK SMILES IDX 91 13 88 14 9 15 7 16 8 17 6 19 1 20 2 21 3 22 92 23 4 24
REMARK SMILES IDX 5 25 17 26 18 27 19 28 20 29 21 30 22 32 23 33 24 34 85 35
REMARK SMILES IDX 25 36 84 37 26 38 27 39 28 40 78 41 29 42 83 43 77 44 79 45
REMARK SMILES IDX 30 46 82 47 76 48 75 49 31 51 63 52 43 53 62 54 44 55 47 56
REMARK SMILES IDX 61 57 80 58 45 59 46 60 60 62 81 63 48 64 32 65 33 66 41 67
REMARK SMILES IDX 34 68 35 69 39 70 42 71 36 72 37 73 40 74 38 75 64 76 65 77
REMARK SMILES IDX 73 78 66 79 67 80 71 81 74 82 68 83 69 84 72 85 70 86 49 87
REMARK SMILES IDX 50 88 58 89 51 90 52 91 56 92 59 93 53 94 54 95 57 96 55 97
REMARK H PARENT 13 7 9 18 20 31 79 50 47 61
REMARK Flexibility Score: inf
ROOT
ATOM      1  C   UNL A   1      36.131  23.006  24.621  1.00  0.00     0.002 C 
ENDROOT
BRANCH   1   2
ATOM      2  C   UNL A   1      35.348  23.975  25.524  1.00  0.00     0.021 C 
BRANCH   2   3
ATOM      3  C   UNL A   1      34.235  24.818  24.878  1.00  0.00     0.116 C 
BRANCH   3   4
ATOM      4  N   UNL A   1      33.385  25.661  25.741  1.00  0.00    -0.354 N 
ATOM      5  C   UNL A   1      32.055  25.490  26.185  1.00  0.00     0.246 C 
ATOM      6  O   UNL A   1      31.615  26.370  26.935  1.00  0.00    -0.272 OA
ATOM      7  H   UNL A   1      33.819  26.484  26.064  1.00  0.00     0.163 HD
BRANCH   5   8
ATOM      8  C   UNL A   1      31.052  24.398  25.526  1.00  0.00     0.123 C 
ATOM      9  C   UNL A   1      31.092  23.535  24.214  1.00  0.00     0.039 C 
ATOM     10  C   UNL A   1      31.049  23.337  26.712  1.00  0.00     0.021 C 
ATOM     11  C   UNL A   1      32.162  22.491  24.029  1.00  0.00     0.003 C 
ATOM     12  C   UNL A   1      32.192  22.275  26.496  1.00  0.00     0.006 C 
ATOM     13  C   UNL A   1      29.731  22.639  27.016  1.00  0.00     0.011 C 
ATOM     14  C   UNL A   1      32.104  21.512  25.177  1.00  0.00     0.000 C 
BRANCH   8  15
ATOM     15  N   UNL A   1      29.925  25.249  25.170  1.00  0.00    -0.323 N 
ATOM     16  C   UNL A   1      29.817  26.033  24.032  1.00  0.00     0.318 C 
ATOM     17  O   UNL A   1      28.720  26.572  23.856  1.00  0.00    -0.249 OA
ATOM     18  H   UNL A   1      29.167  25.270  25.798  1.00  0.00     0.166 HD
BRANCH  16  19
ATOM     19  N   UNL A   1      30.947  26.378  23.277  1.00  0.00    -0.325 N 
ATOM     20  C   UNL A   1      33.543  29.192  23.648  1.00  0.00     0.009 C 
ATOM     21  C   UNL A   1      32.979  27.797  23.403  1.00  0.00     0.005 C 
ATOM     22  C   UNL A   1      33.487  27.275  22.059  1.00  0.00     0.007 C 
ATOM     23  C   UNL A   1      31.435  27.754  23.425  1.00  0.00     0.124 C 
ATOM     24  C   UNL A   1      32.998  25.860  21.861  1.00  0.00     0.022 C 
ATOM     25  C   UNL A   1      31.488  25.731  22.059  1.00  0.00     0.121 C 
ENDBRANCH  16  19
ENDBRANCH   8  15
ENDBRANCH   5   8
ENDBRANCH   3   4
ENDBRANCH   2   3
ENDBRANCH   1   2
BRANCH   1  26
ATOM     26  C   UNL A   1      35.978  21.498  24.849  1.00  0.00     0.002 C 
BRANCH  26  27
ATOM     27  C   UNL A   1      37.222  20.616  24.913  1.00  0.00     0.021 C 
BRANCH  27  28
ATOM     28  C   UNL A   1      38.474  21.283  25.457  1.00  0.00     0.116 C 
BRANCH  28  29
ATOM     29  N   UNL A   1      39.332  20.372  26.201  1.00  0.00    -0.352 N 
ATOM     30  C   UNL A   1      40.455  20.633  26.949  1.00  0.00     0.251 C 
ATOM     31  H   UNL A   1      39.066  19.424  26.163  1.00  0.00     0.163 HD
ATOM     32  O   UNL A   1      41.136  19.716  27.384  1.00  0.00    -0.269 OA
BRANCH  30  33
ATOM     33  C   UNL A   1      40.851  22.034  27.215  1.00  0.00     0.039 A 
ATOM     34  C   UNL A   1      41.740  22.302  28.260  1.00  0.00     0.014 A 
ATOM     35  C   UNL A   1      40.344  23.079  26.441  1.00  0.00     0.014 A 
ATOM     36  C   UNL A   1      42.160  23.613  28.488  1.00  0.00     0.010 A 
ATOM     37  C   UNL A   1      40.840  24.366  26.603  1.00  0.00     0.010 A 
ATOM     38  C   UNL A   1      41.738  24.652  27.640  1.00  0.00    -0.014 A 
BRANCH  38  39
ATOM     39  C   UNL A   1      42.198  26.048  27.843  1.00  0.00     0.031 A 
ATOM     40  C   UNL A   1      43.535  26.480  27.303  1.00  0.00     0.074 A 
ATOM     41  C   UNL A   1      41.438  26.905  28.553  1.00  0.00     0.049 A 
ATOM     42  N   UNL A   1      44.141  27.634  27.417  1.00  0.00    -0.248 NA
ATOM     43  C   UNL A   1      44.312  25.471  26.563  1.00  0.00     0.031 C 
ATOM     44  C   UNL A   1      40.152  26.579  29.175  1.00  0.00     0.029 A 
ATOM     45  N   UNL A   1      41.637  28.222  28.875  1.00  0.00    -0.354 N 
ATOM     46  C   UNL A   1      45.363  27.484  26.775  1.00  0.00     0.074 A 
ATOM     47  C   UNL A   1      45.449  26.110  26.337  1.00  0.00     0.031 C 
ATOM     48  C   UNL A   1      39.663  27.677  29.774  1.00  0.00     0.029 A 
ATOM     49  C   UNL A   1      40.616  28.769  29.615  1.00  0.00     0.049 A 
ATOM     50  H   UNL A   1      42.435  28.729  28.601  1.00  0.00     0.167 HD
ATOM     51  C   UNL A   1      46.314  28.419  26.538  1.00  0.00     0.037 A 
ATOM     52  C   UNL A   1      40.473  30.012  30.111  1.00  0.00     0.037 A 
ATOM     53  C   UNL A   1      46.209  29.792  26.956  1.00  0.00     0.049 A 
ATOM     54  C   UNL A   1      41.547  31.031  29.834  1.00  0.00     0.074 A 
ATOM     55  C   UNL A   1      47.094  30.832  26.735  1.00  0.00     0.029 A 
ATOM     56  N   UNL A   1      45.148  30.315  27.679  1.00  0.00    -0.354 N 
ATOM     57  N   UNL A   1      42.668  30.894  29.166  1.00  0.00    -0.248 NA
ATOM     58  C   UNL A   1      41.331  32.382  30.369  1.00  0.00     0.031 C 
ATOM     59  C   UNL A   1      46.591  31.973  27.365  1.00  0.00     0.029 A 
ATOM     60  C   UNL A   1      45.362  31.662  27.924  1.00  0.00     0.049 A 
ATOM     61  H   UNL A   1      44.358  29.805  27.974  1.00  0.00     0.167 HD
ATOM     62  C   UNL A   1      43.269  32.146  29.167  1.00  0.00     0.074 A 
ATOM     63  C   UNL A   1      42.378  33.033  29.885  1.00  0.00     0.031 C 
ATOM     64  C   UNL A   1      44.450  32.530  28.623  1.00  0.00     0.037 A 
BRANCH  51  65
ATOM     65  C   UNL A   1      47.538  27.996  25.780  1.00  0.00     0.064 A 
ATOM     66  C   UNL A   1      48.738  27.679  26.437  1.00  0.00     0.173 A 
ATOM     67  C   UNL A   1      47.502  27.853  24.384  1.00  0.00     0.173 A 
ATOM     68  F   UNL A   1      48.833  27.812  27.769  1.00  0.00    -0.203 F 
ATOM     69  C   UNL A   1      49.859  27.261  25.726  1.00  0.00     0.198 A 
ATOM     70  C   UNL A   1      48.615  27.401  23.679  1.00  0.00     0.198 A 
ATOM     71  F   UNL A   1      46.382  28.140  23.703  1.00  0.00    -0.203 F 
ATOM     72  F   UNL A   1      51.005  27.009  26.373  1.00  0.00    -0.200 F 
ATOM     73  C   UNL A   1      49.794  27.111  24.349  1.00  0.00     0.200 A 
ATOM     74  F   UNL A   1      48.546  27.245  22.350  1.00  0.00    -0.200 F 
ATOM     75  F   UNL A   1      50.868  26.692  23.668  1.00  0.00    -0.200 F 
ENDBRANCH  51  65
BRANCH  52  76
ATOM     76  C   UNL A   1      39.263  30.377  30.897  1.00  0.00     0.064 A 
ATOM     77  C   UNL A   1      38.143  30.950  30.277  1.00  0.00     0.173 A 
ATOM     78  C   UNL A   1      39.211  30.194  32.287  1.00  0.00     0.173 A 
ATOM     79  F   UNL A   1      38.146  31.163  28.952  1.00  0.00    -0.203 F 
ATOM     80  C   UNL A   1      37.039  31.365  31.021  1.00  0.00     0.198 A 
ATOM     81  C   UNL A   1      38.092  30.576  33.024  1.00  0.00     0.198 A 
ATOM     82  F   UNL A   1      40.250  29.642  32.930  1.00  0.00    -0.203 F 
ATOM     83  F   UNL A   1      36.013  31.975  30.410  1.00  0.00    -0.200 F 
ATOM     84  C   UNL A   1      37.013  31.174  32.393  1.00  0.00     0.200 A 
ATOM     85  F   UNL A   1      38.065  30.374  34.349  1.00  0.00    -0.200 F 
ATOM     86  F   UNL A   1      35.955  31.580  33.108  1.00  0.00    -0.200 F 
ENDBRANCH  52  76
BRANCH  64  87
ATOM     87  C   UNL A   1      44.816  33.982  28.733  1.00  0.00     0.064 A 
ATOM     88  C   UNL A   1      45.593  34.474  29.793  1.00  0.00     0.173 A 
ATOM     89  C   UNL A   1      44.406  34.889  27.744  1.00  0.00     0.173 A 
ATOM     90  F   UNL A   1      46.002  33.649  30.770  1.00  0.00    -0.203 F 
ATOM     91  C   UNL A   1      45.910  35.826  29.879  1.00  0.00     0.198 A 
ATOM     92  C   UNL A   1      44.757  36.233  27.813  1.00  0.00     0.198 A 
ATOM     93  F   UNL A   1      43.671  34.468  26.703  1.00  0.00    -0.203 F 
ATOM     94  F   UNL A   1      46.598  36.284  30.933  1.00  0.00    -0.200 F 
ATOM     95  C   UNL A   1      45.498  36.703  28.886  1.00  0.00     0.200 A 
ATOM     96  F   UNL A   1      44.375  37.074  26.842  1.00  0.00    -0.200 F 
ATOM     97  F   UNL A   1      45.809  38.004  28.969  1.00  0.00    -0.200 F 
ENDBRANCH  64  87
ENDBRANCH  38  39
ENDBRANCH  30  33
ENDBRANCH  28  29
ENDBRANCH  27  28
ENDBRANCH  26  27
ENDBRANCH   1  26
TORSDOF 15
ENDMDL
