MODEL 1
REMARK VINA RESULT:     -13.6      0.000      0.000
REMARK SMILES Cc1ccc(-c2cc([C@@H](C)C(=O)NCCCCCCNC(=O)c3ccc(-c4c5nc(c(-c6c(F)c(F)c(F)c(F)c6F)c6ccc([nH]6)c(-c6c(F)c(F)c(F)c(F)c6F)c6nc(c(-c7c(F)c(F)c(F)c(F)c7F)c7ccc4[nH]7)C=C6)C=C5)cc3)ccc2C[C@H]2CCCC2=O)cc1
REMARK SMILES IDX 16 1 15 2 14 3 13 4 11 5 12 6 9 8 10 9 8 10 6 11 7 12 88 13
REMARK SMILES IDX 87 14 86 15 5 16 1 17 2 18 3 19 97 20 4 21 96 22 89 23 90 24
REMARK SMILES IDX 91 25 94 26 92 27 93 28 95 29 17 30 18 31 19 32 20 33 21 34
REMARK SMILES IDX 22 36 23 37 24 38 85 39 25 40 84 41 26 42 27 43 28 44 78 45
REMARK SMILES IDX 29 46 83 47 77 48 79 49 30 50 82 51 76 52 75 53 31 55 63 56
REMARK SMILES IDX 43 57 62 58 44 59 47 60 61 61 80 62 45 63 46 64 60 66 81 67
REMARK SMILES IDX 48 68 32 69 33 70 41 71 34 72 35 73 39 74 42 75 36 76 37 77
REMARK SMILES IDX 40 78 38 79 64 80 65 81 73 82 66 83 67 84 71 85 74 86 68 87
REMARK SMILES IDX 69 88 72 89 70 90 49 91 50 92 58 93 51 94 52 95 56 96 59 97
REMARK SMILES IDX 53 98 54 99 57 100 55 101
REMARK H PARENT 13 7 20 35 79 54 47 65
REMARK Flexibility Score: inf
ROOT
ATOM      1  C   UNL A   1      31.418  28.174  27.063  1.00  0.00     0.002 C 
ENDROOT
BRANCH   1   2
ATOM      2  C   UNL A   1      31.764  26.897  26.284  1.00  0.00     0.021 C 
BRANCH   2   3
ATOM      3  C   UNL A   1      30.697  26.433  25.289  1.00  0.00     0.116 C 
BRANCH   3   4
ATOM      4  N   UNL A   1      30.534  27.362  24.192  1.00  0.00    -0.356 N 
ATOM      5  C   UNL A   1      31.408  27.825  23.258  1.00  0.00     0.227 C 
ATOM      6  O   UNL A   1      30.974  28.691  22.489  1.00  0.00    -0.274 OA
ATOM      7  H   UNL A   1      29.624  27.726  24.107  1.00  0.00     0.163 HD
BRANCH   5   8
ATOM      8  C   UNL A   1      32.857  27.329  23.111  1.00  0.00     0.105 C 
ATOM      9  C   UNL A   1      33.652  28.025  22.006  1.00  0.00     0.023 C 
BRANCH   8  10
ATOM     10  C   UNL A   1      32.993  25.815  23.169  1.00  0.00    -0.035 A 
ATOM     11  C   UNL A   1      34.239  23.846  23.990  1.00  0.00    -0.015 A 
ATOM     12  C   UNL A   1      34.076  25.243  23.864  1.00  0.00     0.013 A 
ATOM     13  C   UNL A   1      33.208  23.005  23.515  1.00  0.00    -0.039 A 
ATOM     14  C   UNL A   1      32.178  23.570  22.749  1.00  0.00     0.004 A 
ATOM     15  C   UNL A   1      32.096  24.946  22.549  1.00  0.00     0.005 A 
BRANCH  11  16
ATOM     16  C   UNL A   1      35.527  23.325  24.488  1.00  0.00    -0.018 A 
ATOM     17  C   UNL A   1      39.259  21.863  26.130  1.00  0.00     0.044 C 
ATOM     18  C   UNL A   1      37.960  22.350  25.560  1.00  0.00    -0.051 A 
ATOM     19  C   UNL A   1      37.338  23.465  26.124  1.00  0.00     0.004 A 
ATOM     20  C   UNL A   1      37.357  21.718  24.467  1.00  0.00     0.004 A 
ATOM     21  C   UNL A   1      36.133  23.935  25.601  1.00  0.00     0.009 A 
ATOM     22  C   UNL A   1      36.151  22.198  23.937  1.00  0.00     0.009 A 
ENDBRANCH  11  16
BRANCH  13  23
ATOM     23  C   UNL A   1      33.142  21.518  23.806  1.00  0.00     0.047 C 
BRANCH  23  24
ATOM     24  C   UNL A   1      32.605  21.122  25.191  1.00  0.00     0.060 C 
ATOM     25  C   UNL A   1      33.651  20.722  26.239  1.00  0.00     0.012 C 
ATOM     26  C   UNL A   1      31.853  22.232  25.898  1.00  0.00     0.136 C 
ATOM     27  C   UNL A   1      33.819  21.932  27.152  1.00  0.00     0.009 C 
ATOM     28  C   UNL A   1      32.431  22.542  27.253  1.00  0.00     0.076 C 
ATOM     29  O   UNL A   1      30.863  22.796  25.443  1.00  0.00    -0.299 OA
ENDBRANCH  23  24
ENDBRANCH  13  23
ENDBRANCH   8  10
ENDBRANCH   5   8
ENDBRANCH   3   4
ENDBRANCH   2   3
ENDBRANCH   1   2
BRANCH   1  30
ATOM     30  C   UNL A   1      32.602  28.984  27.619  1.00  0.00     0.002 C 
BRANCH  30  31
ATOM     31  C   UNL A   1      32.634  30.470  27.256  1.00  0.00     0.021 C 
BRANCH  31  32
ATOM     32  C   UNL A   1      34.033  31.072  27.223  1.00  0.00     0.116 C 
BRANCH  32  33
ATOM     33  N   UNL A   1      34.416  31.722  28.470  1.00  0.00    -0.352 N 
ATOM     34  C   UNL A   1      35.364  31.355  29.415  1.00  0.00     0.251 C 
ATOM     35  H   UNL A   1      33.927  32.551  28.673  1.00  0.00     0.163 HD
ATOM     36  O   UNL A   1      35.499  32.000  30.431  1.00  0.00    -0.269 OA
BRANCH  34  37
ATOM     37  C   UNL A   1      36.305  30.249  29.101  1.00  0.00     0.039 A 
ATOM     38  C   UNL A   1      36.617  29.354  30.132  1.00  0.00     0.014 A 
ATOM     39  C   UNL A   1      37.008  30.214  27.901  1.00  0.00     0.014 A 
ATOM     40  C   UNL A   1      37.787  28.604  30.053  1.00  0.00     0.010 A 
ATOM     41  C   UNL A   1      38.217  29.549  27.859  1.00  0.00     0.010 A 
ATOM     42  C   UNL A   1      38.636  28.802  28.965  1.00  0.00    -0.014 A 
BRANCH  42  43
ATOM     43  C   UNL A   1      40.031  28.381  28.959  1.00  0.00     0.031 A 
ATOM     44  C   UNL A   1      40.412  27.032  28.499  1.00  0.00     0.074 A 
ATOM     45  C   UNL A   1      40.980  29.287  29.281  1.00  0.00     0.049 A 
ATOM     46  N   UNL A   1      41.506  26.432  28.833  1.00  0.00    -0.248 NA
ATOM     47  C   UNL A   1      39.551  26.223  27.646  1.00  0.00     0.031 C 
ATOM     48  C   UNL A   1      42.417  29.180  29.055  1.00  0.00     0.029 A 
ATOM     49  N   UNL A   1      40.833  30.447  30.063  1.00  0.00    -0.354 N 
ATOM     50  C   UNL A   1      41.623  25.303  28.052  1.00  0.00     0.074 A 
ATOM     51  C   UNL A   1      40.351  25.187  27.375  1.00  0.00     0.031 C 
ATOM     52  C   UNL A   1      43.050  30.029  29.881  1.00  0.00     0.029 A 
ATOM     53  C   UNL A   1      42.048  30.590  30.770  1.00  0.00     0.049 A 
ATOM     54  H   UNL A   1      40.047  31.037  30.108  1.00  0.00     0.167 HD
ATOM     55  C   UNL A   1      42.830  24.670  27.968  1.00  0.00     0.037 A 
ATOM     56  C   UNL A   1      42.089  30.511  32.132  1.00  0.00     0.037 A 
ATOM     57  C   UNL A   1      43.821  25.314  28.827  1.00  0.00     0.049 A 
ATOM     58  C   UNL A   1      42.967  29.403  32.662  1.00  0.00     0.074 A 
ATOM     59  C   UNL A   1      44.800  26.260  28.570  1.00  0.00     0.029 A 
ATOM     60  N   UNL A   1      43.685  25.252  30.209  1.00  0.00    -0.354 N 
ATOM     61  N   UNL A   1      43.359  28.385  31.947  1.00  0.00    -0.248 NA
ATOM     62  C   UNL A   1      43.430  29.325  34.045  1.00  0.00     0.031 C 
ATOM     63  C   UNL A   1      45.216  26.810  29.806  1.00  0.00     0.029 A 
ATOM     64  C   UNL A   1      44.506  26.183  30.816  1.00  0.00     0.049 A 
ATOM     65  H   UNL A   1      43.087  24.633  30.687  1.00  0.00     0.167 HD
ATOM     66  C   UNL A   1      44.062  27.518  32.738  1.00  0.00     0.074 A 
ATOM     67  C   UNL A   1      44.103  28.161  34.036  1.00  0.00     0.031 C 
ATOM     68  C   UNL A   1      44.529  26.328  32.261  1.00  0.00     0.037 A 
BRANCH  55  69
ATOM     69  C   UNL A   1      43.192  23.674  26.885  1.00  0.00     0.064 A 
ATOM     70  C   UNL A   1      42.828  22.314  27.001  1.00  0.00     0.173 A 
ATOM     71  C   UNL A   1      43.947  23.980  25.739  1.00  0.00     0.173 A 
ATOM     72  F   UNL A   1      41.999  21.888  27.963  1.00  0.00    -0.203 F 
ATOM     73  C   UNL A   1      43.300  21.330  26.128  1.00  0.00     0.198 A 
ATOM     74  C   UNL A   1      44.468  22.991  24.897  1.00  0.00     0.198 A 
ATOM     75  F   UNL A   1      44.152  25.247  25.361  1.00  0.00    -0.203 F 
ATOM     76  F   UNL A   1      42.928  20.053  26.300  1.00  0.00    -0.200 F 
ATOM     77  C   UNL A   1      44.158  21.663  25.102  1.00  0.00     0.200 A 
ATOM     78  F   UNL A   1      45.272  23.339  23.881  1.00  0.00    -0.200 F 
ATOM     79  F   UNL A   1      44.655  20.714  24.296  1.00  0.00    -0.200 F 
ENDBRANCH  55  69
BRANCH  56  80
ATOM     80  C   UNL A   1      40.848  30.991  32.789  1.00  0.00     0.064 A 
ATOM     81  C   UNL A   1      40.623  32.379  32.865  1.00  0.00     0.173 A 
ATOM     82  C   UNL A   1      39.750  30.145  32.988  1.00  0.00     0.173 A 
ATOM     83  F   UNL A   1      41.643  33.232  32.678  1.00  0.00    -0.203 F 
ATOM     84  C   UNL A   1      39.340  32.897  33.022  1.00  0.00     0.198 A 
ATOM     85  C   UNL A   1      38.466  30.669  33.154  1.00  0.00     0.198 A 
ATOM     86  F   UNL A   1      39.897  28.815  32.910  1.00  0.00    -0.203 F 
ATOM     87  F   UNL A   1      39.146  34.224  32.987  1.00  0.00    -0.200 F 
ATOM     88  C   UNL A   1      38.258  32.041  33.137  1.00  0.00     0.200 A 
ATOM     89  F   UNL A   1      37.415  29.840  33.239  1.00  0.00    -0.200 F 
ATOM     90  F   UNL A   1      37.014  32.535  33.196  1.00  0.00    -0.200 F 
ENDBRANCH  56  80
BRANCH  68  91
ATOM     91  C   UNL A   1      45.117  25.222  33.092  1.00  0.00     0.064 A 
ATOM     92  C   UNL A   1      46.492  24.956  33.168  1.00  0.00     0.173 A 
ATOM     93  C   UNL A   1      44.296  24.489  33.982  1.00  0.00     0.173 A 
ATOM     94  F   UNL A   1      47.377  25.658  32.447  1.00  0.00    -0.203 F 
ATOM     95  C   UNL A   1      47.008  23.990  34.037  1.00  0.00     0.198 A 
ATOM     96  C   UNL A   1      44.819  23.565  34.884  1.00  0.00     0.198 A 
ATOM     97  F   UNL A   1      42.967  24.669  34.013  1.00  0.00    -0.203 F 
ATOM     98  F   UNL A   1      48.325  23.746  34.051  1.00  0.00    -0.200 F 
ATOM     99  C   UNL A   1      46.174  23.306  34.903  1.00  0.00     0.200 A 
ATOM    100  F   UNL A   1      44.004  22.943  35.749  1.00  0.00    -0.200 F 
ATOM    101  F   UNL A   1      46.678  22.416  35.767  1.00  0.00    -0.200 F 
ENDBRANCH  68  91
ENDBRANCH  42  43
ENDBRANCH  34  37
ENDBRANCH  32  33
ENDBRANCH  31  32
ENDBRANCH  30  31
ENDBRANCH   1  30
TORSDOF 17
ENDMDL
MODEL 2
REMARK VINA RESULT:     -13.2      2.013      3.185
REMARK SMILES Cc1ccc(-c2cc([C@@H](C)C(=O)NCCCCCCNC(=O)c3ccc(-c4c5nc(c(-c6c(F)c(F)c(F)c(F)c6F)c6ccc([nH]6)c(-c6c(F)c(F)c(F)c(F)c6F)c6nc(c(-c7c(F)c(F)c(F)c(F)c7F)c7ccc4[nH]7)C=C6)C=C5)cc3)ccc2C[C@H]2CCCC2=O)cc1
REMARK SMILES IDX 16 1 15 2 14 3 13 4 11 5 12 6 9 8 10 9 8 10 6 11 7 12 88 13
REMARK SMILES IDX 87 14 86 15 5 16 1 17 2 18 3 19 97 20 4 21 96 22 89 23 90 24
REMARK SMILES IDX 91 25 94 26 92 27 93 28 95 29 17 30 18 31 19 32 20 33 21 34
REMARK SMILES IDX 22 36 23 37 24 38 85 39 25 40 84 41 26 42 27 43 28 44 78 45
REMARK SMILES IDX 29 46 83 47 77 48 79 49 30 50 82 51 76 52 75 53 31 55 63 56
REMARK SMILES IDX 43 57 62 58 44 59 47 60 61 61 80 62 45 63 46 64 60 66 81 67
REMARK SMILES IDX 48 68 32 69 33 70 41 71 34 72 35 73 39 74 42 75 36 76 37 77
REMARK SMILES IDX 40 78 38 79 64 80 65 81 73 82 66 83 67 84 71 85 74 86 68 87
REMARK SMILES IDX 69 88 72 89 70 90 49 91 50 92 58 93 51 94 52 95 56 96 59 97
REMARK SMILES IDX 53 98 54 99 57 100 55 101
REMARK H PARENT 13 7 20 35 79 54 47 65
REMARK Flexibility Score: inf
ROOT
ATOM      1  C   UNL A   1      32.651  28.697  27.491  1.00  0.00     0.002 C 
ENDROOT
BRANCH   1   2
ATOM      2  C   UNL A   1      31.773  28.554  26.240  1.00  0.00     0.021 C 
BRANCH   2   3
ATOM      3  C   UNL A   1      31.761  29.771  25.311  1.00  0.00     0.116 C 
BRANCH   3   4
ATOM      4  N   UNL A   1      32.841  29.732  24.349  1.00  0.00    -0.356 N 
ATOM      5  C   UNL A   1      33.055  28.949  23.257  1.00  0.00     0.227 C 
ATOM      6  O   UNL A   1      34.135  29.111  22.675  1.00  0.00    -0.274 OA
ATOM      7  H   UNL A   1      33.551  30.393  24.515  1.00  0.00     0.163 HD
BRANCH   5   8
ATOM      8  C   UNL A   1      32.047  27.917  22.723  1.00  0.00     0.105 C 
ATOM      9  C   UNL A   1      30.680  28.501  22.361  1.00  0.00     0.023 C 
BRANCH   8  10
ATOM     10  C   UNL A   1      32.022  26.620  23.517  1.00  0.00    -0.035 A 
ATOM     11  C   UNL A   1      33.283  24.833  24.666  1.00  0.00    -0.015 A 
ATOM     12  C   UNL A   1      33.236  26.016  23.895  1.00  0.00     0.013 A 
ATOM     13  C   UNL A   1      32.072  24.321  25.182  1.00  0.00    -0.039 A 
ATOM     14  C   UNL A   1      30.862  24.872  24.733  1.00  0.00     0.004 A 
ATOM     15  C   UNL A   1      30.841  25.977  23.885  1.00  0.00     0.005 A 
BRANCH  11  16
ATOM     16  C   UNL A   1      34.567  24.117  24.787  1.00  0.00    -0.018 A 
ATOM     17  C   UNL A   1      38.279  21.949  25.323  1.00  0.00     0.044 C 
ATOM     18  C   UNL A   1      36.988  22.685  25.124  1.00  0.00    -0.051 A 
ATOM     19  C   UNL A   1      36.306  23.189  26.234  1.00  0.00     0.004 A 
ATOM     20  C   UNL A   1      36.450  22.890  23.848  1.00  0.00     0.004 A 
ATOM     21  C   UNL A   1      35.107  23.883  26.065  1.00  0.00     0.009 A 
ATOM     22  C   UNL A   1      35.250  23.596  23.681  1.00  0.00     0.009 A 
ENDBRANCH  11  16
BRANCH  13  23
ATOM     23  C   UNL A   1      32.006  23.214  26.217  1.00  0.00     0.047 C 
BRANCH  23  24
ATOM     24  C   UNL A   1      31.860  21.784  25.670  1.00  0.00     0.060 C 
ATOM     25  C   UNL A   1      31.576  21.653  24.168  1.00  0.00     0.012 C 
ATOM     26  C   UNL A   1      33.105  20.935  25.834  1.00  0.00     0.136 C 
ATOM     27  C   UNL A   1      32.904  21.282  23.517  1.00  0.00     0.009 C 
ATOM     28  C   UNL A   1      33.593  20.376  24.525  1.00  0.00     0.076 C 
ATOM     29  O   UNL A   1      33.641  20.693  26.911  1.00  0.00    -0.299 OA
ENDBRANCH  23  24
ENDBRANCH  13  23
ENDBRANCH   8  10
ENDBRANCH   5   8
ENDBRANCH   3   4
ENDBRANCH   2   3
ENDBRANCH   1   2
BRANCH   1  30
ATOM     30  C   UNL A   1      34.172  28.737  27.265  1.00  0.00     0.002 C 
BRANCH  30  31
ATOM     31  C   UNL A   1      34.943  29.811  28.036  1.00  0.00     0.021 C 
BRANCH  31  32
ATOM     32  C   UNL A   1      34.964  31.172  27.351  1.00  0.00     0.116 C 
BRANCH  32  33
ATOM     33  N   UNL A   1      34.158  32.178  28.031  1.00  0.00    -0.352 N 
ATOM     34  C   UNL A   1      34.432  32.927  29.166  1.00  0.00     0.251 C 
ATOM     35  H   UNL A   1      33.281  32.354  27.620  1.00  0.00     0.163 HD
ATOM     36  O   UNL A   1      33.601  33.681  29.621  1.00  0.00    -0.269 OA
BRANCH  34  37
ATOM     37  C   UNL A   1      35.806  32.899  29.733  1.00  0.00     0.039 A 
ATOM     38  C   UNL A   1      36.824  33.511  28.990  1.00  0.00     0.014 A 
ATOM     39  C   UNL A   1      36.116  32.126  30.847  1.00  0.00     0.014 A 
ATOM     40  C   UNL A   1      38.147  33.142  29.214  1.00  0.00     0.010 A 
ATOM     41  C   UNL A   1      37.413  31.683  31.009  1.00  0.00     0.010 A 
ATOM     42  C   UNL A   1      38.415  32.140  30.145  1.00  0.00    -0.014 A 
BRANCH  42  43
ATOM     43  C   UNL A   1      39.676  31.414  30.190  1.00  0.00     0.031 A 
ATOM     44  C   UNL A   1      39.813  30.093  29.546  1.00  0.00     0.074 A 
ATOM     45  C   UNL A   1      40.752  32.020  30.741  1.00  0.00     0.049 A 
ATOM     46  N   UNL A   1      40.703  29.215  29.869  1.00  0.00    -0.248 NA
ATOM     47  C   UNL A   1      38.909  29.636  28.498  1.00  0.00     0.031 C 
ATOM     48  C   UNL A   1      42.148  31.616  30.626  1.00  0.00     0.029 A 
ATOM     49  N   UNL A   1      40.762  33.057  31.691  1.00  0.00    -0.354 N 
ATOM     50  C   UNL A   1      40.669  28.214  28.923  1.00  0.00     0.074 A 
ATOM     51  C   UNL A   1      39.495  28.494  28.128  1.00  0.00     0.031 C 
ATOM     52  C   UNL A   1      42.843  32.169  31.634  1.00  0.00     0.029 A 
ATOM     53  C   UNL A   1      41.883  32.812  32.514  1.00  0.00     0.049 A 
ATOM     54  H   UNL A   1      40.121  33.801  31.765  1.00  0.00     0.167 HD
ATOM     55  C   UNL A   1      41.714  27.338  28.839  1.00  0.00     0.037 A 
ATOM     56  C   UNL A   1      41.740  32.532  33.842  1.00  0.00     0.037 A 
ATOM     57  C   UNL A   1      42.707  27.604  29.876  1.00  0.00     0.049 A 
ATOM     58  C   UNL A   1      42.288  31.186  34.253  1.00  0.00     0.074 A 
ATOM     59  C   UNL A   1      43.890  28.326  29.868  1.00  0.00     0.029 A 
ATOM     60  N   UNL A   1      42.393  27.378  31.211  1.00  0.00    -0.354 N 
ATOM     61  N   UNL A   1      42.537  30.219  33.415  1.00  0.00    -0.248 NA
ATOM     62  C   UNL A   1      42.551  30.805  35.639  1.00  0.00     0.031 C 
ATOM     63  C   UNL A   1      44.260  28.580  31.210  1.00  0.00     0.029 A 
ATOM     64  C   UNL A   1      43.314  27.996  32.035  1.00  0.00     0.049 A 
ATOM     65  H   UNL A   1      41.622  26.852  31.525  1.00  0.00     0.167 HD
ATOM     66  C   UNL A   1      42.935  29.108  34.108  1.00  0.00     0.074 A 
ATOM     67  C   UNL A   1      42.954  29.531  35.494  1.00  0.00     0.031 C 
ATOM     68  C   UNL A   1      43.191  27.924  33.480  1.00  0.00     0.037 A 
BRANCH  55  69
ATOM     69  C   UNL A   1      41.983  26.451  27.640  1.00  0.00     0.064 A 
ATOM     70  C   UNL A   1      41.364  25.186  27.521  1.00  0.00     0.173 A 
ATOM     71  C   UNL A   1      42.884  26.759  26.606  1.00  0.00     0.173 A 
ATOM     72  F   UNL A   1      40.386  24.802  28.351  1.00  0.00    -0.203 F 
ATOM     73  C   UNL A   1      41.725  24.261  26.537  1.00  0.00     0.198 A 
ATOM     74  C   UNL A   1      43.288  25.815  25.656  1.00  0.00     0.198 A 
ATOM     75  F   UNL A   1      43.354  28.002  26.442  1.00  0.00    -0.203 F 
ATOM     76  F   UNL A   1      41.108  23.071  26.486  1.00  0.00    -0.200 F 
ATOM     77  C   UNL A   1      42.720  24.558  25.632  1.00  0.00     0.200 A 
ATOM     78  F   UNL A   1      44.233  26.136  24.759  1.00  0.00    -0.200 F 
ATOM     79  F   UNL A   1      43.105  23.653  24.722  1.00  0.00    -0.200 F 
ENDBRANCH  55  69
BRANCH  56  80
ATOM     80  C   UNL A   1      40.559  33.186  34.460  1.00  0.00     0.064 A 
ATOM     81  C   UNL A   1      39.383  32.430  34.621  1.00  0.00     0.173 A 
ATOM     82  C   UNL A   1      40.682  34.362  35.211  1.00  0.00     0.173 A 
ATOM     83  F   UNL A   1      39.219  31.293  33.926  1.00  0.00    -0.203 F 
ATOM     84  C   UNL A   1      38.424  32.776  35.570  1.00  0.00     0.198 A 
ATOM     85  C   UNL A   1      39.714  34.709  36.155  1.00  0.00     0.198 A 
ATOM     86  F   UNL A   1      41.787  35.114  35.116  1.00  0.00    -0.203 F 
ATOM     87  F   UNL A   1      37.364  31.979  35.770  1.00  0.00    -0.200 F 
ATOM     88  C   UNL A   1      38.605  33.900  36.356  1.00  0.00     0.200 A 
ATOM     89  F   UNL A   1      39.901  35.783  36.936  1.00  0.00    -0.200 F 
ATOM     90  F   UNL A   1      37.730  34.185  37.332  1.00  0.00    -0.200 F 
ENDBRANCH  56  80
BRANCH  68  91
ATOM     91  C   UNL A   1      43.421  26.604  34.163  1.00  0.00     0.064 A 
ATOM     92  C   UNL A   1      42.401  25.861  34.777  1.00  0.00     0.173 A 
ATOM     93  C   UNL A   1      44.679  25.964  34.069  1.00  0.00     0.173 A 
ATOM     94  F   UNL A   1      41.144  26.322  34.835  1.00  0.00    -0.203 F 
ATOM     95  C   UNL A   1      42.634  24.588  35.304  1.00  0.00     0.198 A 
ATOM     96  C   UNL A   1      44.894  24.674  34.547  1.00  0.00     0.198 A 
ATOM     97  F   UNL A   1      45.727  26.568  33.487  1.00  0.00    -0.203 F 
ATOM     98  F   UNL A   1      41.638  23.929  35.913  1.00  0.00    -0.200 F 
ATOM     99  C   UNL A   1      43.874  23.991  35.177  1.00  0.00     0.200 A 
ATOM    100  F   UNL A   1      46.089  24.090  34.377  1.00  0.00    -0.200 F 
ATOM    101  F   UNL A   1      44.080  22.751  35.642  1.00  0.00    -0.200 F 
ENDBRANCH  68  91
ENDBRANCH  42  43
ENDBRANCH  34  37
ENDBRANCH  32  33
ENDBRANCH  31  32
ENDBRANCH  30  31
ENDBRANCH   1  30
TORSDOF 17
ENDMDL
MODEL 3
REMARK VINA RESULT:     -13.1      3.441      9.750
REMARK SMILES Cc1ccc(-c2cc([C@@H](C)C(=O)NCCCCCCNC(=O)c3ccc(-c4c5nc(c(-c6c(F)c(F)c(F)c(F)c6F)c6ccc([nH]6)c(-c6c(F)c(F)c(F)c(F)c6F)c6nc(c(-c7c(F)c(F)c(F)c(F)c7F)c7ccc4[nH]7)C=C6)C=C5)cc3)ccc2C[C@H]2CCCC2=O)cc1
REMARK SMILES IDX 16 1 15 2 14 3 13 4 11 5 12 6 9 8 10 9 8 10 6 11 7 12 88 13
REMARK SMILES IDX 87 14 86 15 5 16 1 17 2 18 3 19 97 20 4 21 96 22 89 23 90 24
REMARK SMILES IDX 91 25 94 26 92 27 93 28 95 29 17 30 18 31 19 32 20 33 21 34
REMARK SMILES IDX 22 36 23 37 24 38 85 39 25 40 84 41 26 42 27 43 28 44 78 45
REMARK SMILES IDX 29 46 83 47 77 48 79 49 30 50 82 51 76 52 75 53 31 55 63 56
REMARK SMILES IDX 43 57 62 58 44 59 47 60 61 61 80 62 45 63 46 64 60 66 81 67
REMARK SMILES IDX 48 68 32 69 33 70 41 71 34 72 35 73 39 74 42 75 36 76 37 77
REMARK SMILES IDX 40 78 38 79 64 80 65 81 73 82 66 83 67 84 71 85 74 86 68 87
REMARK SMILES IDX 69 88 72 89 70 90 49 91 50 92 58 93 51 94 52 95 56 96 59 97
REMARK SMILES IDX 53 98 54 99 57 100 55 101
REMARK H PARENT 13 7 20 35 79 54 47 65
REMARK Flexibility Score: inf
ROOT
ATOM      1  C   UNL A   1      34.722  22.816  26.414  1.00  0.00     0.002 C 
ENDROOT
BRANCH   1   2
ATOM      2  C   UNL A   1      33.453  22.228  27.048  1.00  0.00     0.021 C 
BRANCH   2   3
ATOM      3  C   UNL A   1      32.225  22.195  26.134  1.00  0.00     0.116 C 
BRANCH   3   4
ATOM      4  N   UNL A   1      32.358  21.217  25.077  1.00  0.00    -0.356 N 
ATOM      5  C   UNL A   1      32.598  21.349  23.744  1.00  0.00     0.227 C 
ATOM      6  O   UNL A   1      32.574  20.306  23.080  1.00  0.00    -0.274 OA
ATOM      7  H   UNL A   1      32.256  20.286  25.376  1.00  0.00     0.163 HD
BRANCH   5   8
ATOM      8  C   UNL A   1      32.902  22.688  23.050  1.00  0.00     0.105 C 
ATOM      9  C   UNL A   1      34.392  23.013  22.930  1.00  0.00     0.023 C 
BRANCH   8  10
ATOM     10  C   UNL A   1      32.012  23.832  23.512  1.00  0.00    -0.035 A 
ATOM     11  C   UNL A   1      31.829  26.061  24.563  1.00  0.00    -0.015 A 
ATOM     12  C   UNL A   1      32.592  24.948  24.146  1.00  0.00     0.013 A 
ATOM     13  C   UNL A   1      30.462  26.106  24.210  1.00  0.00    -0.039 A 
ATOM     14  C   UNL A   1      29.871  24.960  23.659  1.00  0.00     0.004 A 
ATOM     15  C   UNL A   1      30.628  23.831  23.352  1.00  0.00     0.005 A 
BRANCH  11  16
ATOM     16  C   UNL A   1      32.455  27.055  25.456  1.00  0.00    -0.018 A 
ATOM     17  C   UNL A   1      34.366  30.066  27.915  1.00  0.00     0.044 C 
ATOM     18  C   UNL A   1      33.686  29.032  27.067  1.00  0.00    -0.051 A 
ATOM     19  C   UNL A   1      34.243  28.677  25.837  1.00  0.00     0.004 A 
ATOM     20  C   UNL A   1      32.507  28.404  27.483  1.00  0.00     0.004 A 
ATOM     21  C   UNL A   1      33.628  27.712  25.040  1.00  0.00     0.009 A 
ATOM     22  C   UNL A   1      31.895  27.428  26.685  1.00  0.00     0.009 A 
ENDBRANCH  11  16
BRANCH  13  23
ATOM     23  C   UNL A   1      29.595  27.340  24.377  1.00  0.00     0.047 C 
BRANCH  23  24
ATOM     24  C   UNL A   1      29.722  28.410  23.281  1.00  0.00     0.060 C 
ATOM     25  C   UNL A   1      28.455  28.708  22.469  1.00  0.00     0.012 C 
ATOM     26  C   UNL A   1      30.095  29.783  23.804  1.00  0.00     0.136 C 
ATOM     27  C   UNL A   1      27.884  30.004  23.034  1.00  0.00     0.009 C 
ATOM     28  C   UNL A   1      29.100  30.839  23.402  1.00  0.00     0.076 C 
ATOM     29  O   UNL A   1      31.110  30.025  24.449  1.00  0.00    -0.299 OA
ENDBRANCH  23  24
ENDBRANCH  13  23
ENDBRANCH   8  10
ENDBRANCH   5   8
ENDBRANCH   3   4
ENDBRANCH   2   3
ENDBRANCH   1   2
BRANCH   1  30
ATOM     30  C   UNL A   1      35.954  21.897  26.358  1.00  0.00     0.002 C 
BRANCH  30  31
ATOM     31  C   UNL A   1      37.011  22.246  25.308  1.00  0.00     0.021 C 
BRANCH  31  32
ATOM     32  C   UNL A   1      37.854  23.467  25.656  1.00  0.00     0.116 C 
BRANCH  32  33
ATOM     33  N   UNL A   1      39.196  23.135  26.116  1.00  0.00    -0.352 N 
ATOM     34  C   UNL A   1      40.143  23.923  26.755  1.00  0.00     0.251 C 
ATOM     35  H   UNL A   1      39.475  22.206  25.947  1.00  0.00     0.163 HD
ATOM     36  O   UNL A   1      41.241  23.480  27.009  1.00  0.00    -0.269 OA
BRANCH  34  37
ATOM     37  C   UNL A   1      39.746  25.267  27.250  1.00  0.00     0.039 A 
ATOM     38  C   UNL A   1      40.196  26.380  26.528  1.00  0.00     0.014 A 
ATOM     39  C   UNL A   1      39.129  25.432  28.485  1.00  0.00     0.014 A 
ATOM     40  C   UNL A   1      40.255  27.621  27.156  1.00  0.00     0.010 A 
ATOM     41  C   UNL A   1      39.274  26.635  29.145  1.00  0.00     0.010 A 
ATOM     42  C   UNL A   1      39.901  27.708  28.502  1.00  0.00    -0.014 A 
BRANCH  42  43
ATOM     43  C   UNL A   1      40.277  28.830  29.351  1.00  0.00     0.031 A 
ATOM     44  C   UNL A   1      39.295  29.874  29.703  1.00  0.00     0.074 A 
ATOM     45  C   UNL A   1      41.512  28.841  29.899  1.00  0.00     0.049 A 
ATOM     46  N   UNL A   1      39.608  31.071  30.074  1.00  0.00    -0.248 NA
ATOM     47  C   UNL A   1      37.856  29.656  29.619  1.00  0.00     0.031 C 
ATOM     48  C   UNL A   1      41.987  29.682  30.992  1.00  0.00     0.029 A 
ATOM     49  N   UNL A   1      42.666  28.186  29.432  1.00  0.00    -0.354 N 
ATOM     50  C   UNL A   1      38.461  31.685  30.526  1.00  0.00     0.074 A 
ATOM     51  C   UNL A   1      37.390  30.784  30.163  1.00  0.00     0.031 C 
ATOM     52  C   UNL A   1      43.328  29.726  30.953  1.00  0.00     0.029 A 
ATOM     53  C   UNL A   1      43.745  29.044  29.740  1.00  0.00     0.049 A 
ATOM     54  H   UNL A   1      42.712  27.310  28.985  1.00  0.00     0.167 HD
ATOM     55  C   UNL A   1      38.561  32.825  31.272  1.00  0.00     0.037 A 
ATOM     56  C   UNL A   1      44.506  29.608  28.757  1.00  0.00     0.037 A 
ATOM     57  C   UNL A   1      39.955  33.241  31.408  1.00  0.00     0.049 A 
ATOM     58  C   UNL A   1      44.494  31.118  28.754  1.00  0.00     0.074 A 
ATOM     59  C   UNL A   1      40.894  33.034  32.407  1.00  0.00     0.029 A 
ATOM     60  N   UNL A   1      40.654  33.695  30.297  1.00  0.00    -0.354 N 
ATOM     61  N   UNL A   1      43.588  31.836  29.358  1.00  0.00    -0.248 NA
ATOM     62  C   UNL A   1      45.466  31.936  28.033  1.00  0.00     0.031 C 
ATOM     63  C   UNL A   1      42.173  33.316  31.872  1.00  0.00     0.029 A 
ATOM     64  C   UNL A   1      42.011  33.713  30.556  1.00  0.00     0.049 A 
ATOM     65  H   UNL A   1      40.241  33.964  29.444  1.00  0.00     0.167 HD
ATOM     66  C   UNL A   1      43.806  33.160  29.089  1.00  0.00     0.074 A 
ATOM     67  C   UNL A   1      45.007  33.175  28.279  1.00  0.00     0.031 C 
ATOM     68  C   UNL A   1      42.960  34.132  29.539  1.00  0.00     0.037 A 
BRANCH  55  69
ATOM     69  C   UNL A   1      37.441  33.380  32.128  1.00  0.00     0.064 A 
ATOM     70  C   UNL A   1      36.356  34.070  31.544  1.00  0.00     0.173 A 
ATOM     71  C   UNL A   1      37.406  33.319  33.533  1.00  0.00     0.173 A 
ATOM     72  F   UNL A   1      36.175  34.100  30.217  1.00  0.00    -0.203 F 
ATOM     73  C   UNL A   1      35.405  34.759  32.303  1.00  0.00     0.198 A 
ATOM     74  C   UNL A   1      36.490  34.055  34.293  1.00  0.00     0.198 A 
ATOM     75  F   UNL A   1      38.216  32.498  34.213  1.00  0.00    -0.203 F 
ATOM     76  F   UNL A   1      34.405  35.406  31.686  1.00  0.00    -0.200 F 
ATOM     77  C   UNL A   1      35.499  34.789  33.676  1.00  0.00     0.200 A 
ATOM     78  F   UNL A   1      36.575  34.042  35.632  1.00  0.00    -0.200 F 
ATOM     79  F   UNL A   1      34.619  35.493  34.403  1.00  0.00    -0.200 F 
ENDBRANCH  55  69
BRANCH  56  80
ATOM     80  C   UNL A   1      44.621  28.763  27.542  1.00  0.00     0.064 A 
ATOM     81  C   UNL A   1      45.439  27.618  27.597  1.00  0.00     0.173 A 
ATOM     82  C   UNL A   1      43.685  28.842  26.503  1.00  0.00     0.173 A 
ATOM     83  F   UNL A   1      46.348  27.494  28.576  1.00  0.00    -0.203 F 
ATOM     84  C   UNL A   1      45.252  26.552  26.720  1.00  0.00     0.198 A 
ATOM     85  C   UNL A   1      43.508  27.774  25.621  1.00  0.00     0.198 A 
ATOM     86  F   UNL A   1      42.865  29.898  26.408  1.00  0.00    -0.203 F 
ATOM     87  F   UNL A   1      45.978  25.434  26.864  1.00  0.00    -0.200 F 
ATOM     88  C   UNL A   1      44.267  26.620  25.750  1.00  0.00     0.200 A 
ATOM     89  F   UNL A   1      42.536  27.827  24.698  1.00  0.00    -0.200 F 
ATOM     90  F   UNL A   1      44.025  25.561  24.965  1.00  0.00    -0.200 F 
ENDBRANCH  56  80
BRANCH  68  91
ATOM     91  C   UNL A   1      42.989  35.577  29.124  1.00  0.00     0.064 A 
ATOM     92  C   UNL A   1      42.285  36.080  28.019  1.00  0.00     0.173 A 
ATOM     93  C   UNL A   1      43.613  36.542  29.949  1.00  0.00     0.173 A 
ATOM     94  F   UNL A   1      41.572  35.271  27.222  1.00  0.00    -0.203 F 
ATOM     95  C   UNL A   1      42.249  37.446  27.730  1.00  0.00     0.198 A 
ATOM     96  C   UNL A   1      43.530  37.908  29.689  1.00  0.00     0.198 A 
ATOM     97  F   UNL A   1      44.301  36.183  31.044  1.00  0.00    -0.203 F 
ATOM     98  F   UNL A   1      41.593  37.878  26.644  1.00  0.00    -0.200 F 
ATOM     99  C   UNL A   1      42.859  38.359  28.571  1.00  0.00     0.200 A 
ATOM    100  F   UNL A   1      44.087  38.784  30.537  1.00  0.00    -0.200 F 
ATOM    101  F   UNL A   1      42.781  39.672  28.316  1.00  0.00    -0.200 F 
ENDBRANCH  68  91
ENDBRANCH  42  43
ENDBRANCH  34  37
ENDBRANCH  32  33
ENDBRANCH  31  32
ENDBRANCH  30  31
ENDBRANCH   1  30
TORSDOF 17
ENDMDL
