MODEL 1
REMARK VINA RESULT:     -13.1      0.000      0.000
REMARK SMILES Cc1cccc(C[N@H+]2CC[C@@](C)(C(=O)NCCCCCCNC(=O)c3ccc(-c4c5nc(c(-c6c(F)c(F)c(F)c(F)c6F)c6ccc([nH]6)c(-c6c(F)c(F)c(F)c(F)c6F)c6nc(c(-c7c(F)c(F)c(F)c(F)c7F)c7ccc4[nH]7)C=C6)C=C5)cc3)C2)n1
REMARK SMILES IDX 18 1 17 2 16 3 15 4 13 5 14 6 11 8 8 9 9 10 88 11 10 13
REMARK SMILES IDX 12 14 7 15 6 16 1 17 2 18 3 19 89 20 4 21 5 22 19 23 20 24
REMARK SMILES IDX 21 25 22 26 23 27 24 29 25 30 26 31 87 32 27 33 86 34 28 35
REMARK SMILES IDX 29 36 30 37 80 38 31 39 85 40 79 41 81 42 32 43 84 44 78 45
REMARK SMILES IDX 77 46 33 48 65 49 45 50 64 51 46 52 49 53 63 54 82 55 47 56
REMARK SMILES IDX 48 57 62 59 83 60 50 61 34 62 35 63 43 64 36 65 37 66 41 67
REMARK SMILES IDX 44 68 38 69 39 70 42 71 40 72 66 73 67 74 75 75 68 76 69 77
REMARK SMILES IDX 73 78 76 79 70 80 71 81 74 82 72 83 51 84 52 85 60 86 53 87
REMARK SMILES IDX 54 88 58 89 61 90 55 91 56 92 59 93 57 94
REMARK H PARENT 15 7 8 12 22 28 81 47 49 58
REMARK Flexibility Score: inf
ROOT
ATOM      1  C   UNL A   1      32.315  29.742  26.693  1.00  0.00     0.002 C 
ENDROOT
BRANCH   1   2
ATOM      2  C   UNL A   1      31.792  28.088  27.047  1.00  0.00     0.021 C 
BRANCH   2   3
ATOM      3  C   UNL A   1      32.646  26.142  26.534  1.00  0.00     0.116 C 
BRANCH   3   4
ATOM      4  N   UNL A   1      33.950  25.703  25.824  1.00  0.00    -0.355 N 
ATOM      5  C   UNL A   1      34.359  24.460  25.467  1.00  0.00     0.231 C 
ATOM      6  O   UNL A   1      35.509  24.424  25.011  1.00  0.00    -0.274 OA
ATOM      7  H   UNL A   1      34.573  26.431  25.600  1.00  0.00     0.163 HD
BRANCH   5   8
ATOM      8  C   UNL A   1      33.438  23.195  25.489  1.00  0.00     0.100 C 
ATOM      9  N   UNL A   1      31.441  22.936  24.049  1.00  0.00    -0.329 N 
ATOM     10  C   UNL A   1      32.571  22.326  23.342  1.00  0.00     0.263 C 
ATOM     11  C   UNL A   1      31.906  23.379  25.386  1.00  0.00     0.279 C 
ATOM     12  H   UNL A   1      30.731  22.216  24.175  1.00  0.00     0.348 HD
ATOM     13  C   UNL A   1      33.759  22.266  24.309  1.00  0.00     0.084 C 
ATOM     14  C   UNL A   1      33.779  22.496  26.828  1.00  0.00     0.028 C 
BRANCH   9  15
ATOM     15  C   UNL A   1      30.621  23.923  23.280  1.00  0.00     0.319 C 
BRANCH  15  16
ATOM     16  C   UNL A   1      30.807  25.424  23.650  1.00  0.00     0.095 A 
ATOM     17  C   UNL A   1      33.818  28.309  22.299  1.00  0.00     0.067 C 
ATOM     18  C   UNL A   1      32.462  27.808  22.670  1.00  0.00     0.038 A 
ATOM     19  C   UNL A   1      30.988  28.863  22.670  1.00  0.00     0.023 A 
ATOM     20  N   UNL A   1      32.336  26.112  23.098  1.00  0.00    -0.252 NA
ATOM     21  C   UNL A   1      29.431  28.176  23.282  1.00  0.00     0.004 A 
ATOM     22  C   UNL A   1      29.335  26.429  23.725  1.00  0.00     0.030 A 
ENDBRANCH  15  16
ENDBRANCH   9  15
ENDBRANCH   5   8
ENDBRANCH   3   4
ENDBRANCH   2   3
ENDBRANCH   1   2
BRANCH   1  23
ATOM     23  C   UNL A   1      31.392  30.664  25.866  1.00  0.00     0.002 C 
BRANCH  23  24
ATOM     24  C   UNL A   1      31.237  32.055  26.448  1.00  0.00     0.021 C 
BRANCH  24  25
ATOM     25  C   UNL A   1      32.471  32.456  27.222  1.00  0.00     0.116 C 
BRANCH  25  26
ATOM     26  N   UNL A   1      32.417  33.887  27.522  1.00  0.00    -0.352 N 
ATOM     27  C   UNL A   1      33.128  34.517  28.511  1.00  0.00     0.251 C 
ATOM     28  H   UNL A   1      31.821  34.442  26.968  1.00  0.00     0.163 HD
ATOM     29  O   UNL A   1      32.763  35.560  29.030  1.00  0.00    -0.269 OA
BRANCH  27  30
ATOM     30  C   UNL A   1      34.370  33.841  28.906  1.00  0.00     0.039 A 
ATOM     31  C   UNL A   1      35.600  34.455  28.686  1.00  0.00     0.014 A 
ATOM     32  C   UNL A   1      34.245  32.701  29.710  1.00  0.00     0.014 A 
ATOM     33  C   UNL A   1      36.723  33.934  29.322  1.00  0.00     0.010 A 
ATOM     34  C   UNL A   1      35.334  32.277  30.443  1.00  0.00     0.010 A 
ATOM     35  C   UNL A   1      36.588  32.868  30.230  1.00  0.00    -0.014 A 
BRANCH  35  36
ATOM     36  C   UNL A   1      37.752  32.294  30.934  1.00  0.00     0.031 A 
ATOM     37  C   UNL A   1      38.504  31.169  30.280  1.00  0.00     0.074 A 
ATOM     38  C   UNL A   1      38.088  32.736  32.161  1.00  0.00     0.049 A 
ATOM     39  N   UNL A   1      39.485  30.446  30.751  1.00  0.00    -0.248 NA
ATOM     40  C   UNL A   1      38.071  30.780  28.924  1.00  0.00     0.031 C 
ATOM     41  C   UNL A   1      37.396  33.792  32.903  1.00  0.00     0.029 A 
ATOM     42  N   UNL A   1      39.093  32.342  33.005  1.00  0.00    -0.354 N 
ATOM     43  C   UNL A   1      39.779  29.527  29.754  1.00  0.00     0.074 A 
ATOM     44  C   UNL A   1      38.824  29.717  28.690  1.00  0.00     0.031 C 
ATOM     45  C   UNL A   1      38.014  33.979  34.081  1.00  0.00     0.029 A 
ATOM     46  C   UNL A   1      39.107  33.020  34.200  1.00  0.00     0.049 A 
ATOM     47  H   UNL A   1      39.743  31.639  32.777  1.00  0.00     0.167 HD
ATOM     48  C   UNL A   1      40.789  28.629  29.713  1.00  0.00     0.037 A 
ATOM     49  C   UNL A   1      39.904  32.861  35.274  1.00  0.00     0.037 A 
ATOM     50  C   UNL A   1      41.746  28.460  30.770  1.00  0.00     0.049 A 
ATOM     51  C   UNL A   1      40.983  31.810  35.222  1.00  0.00     0.074 A 
ATOM     52  C   UNL A   1      42.828  27.601  30.821  1.00  0.00     0.029 A 
ATOM     53  N   UNL A   1      41.732  29.166  31.963  1.00  0.00    -0.354 N 
ATOM     54  N   UNL A   1      41.300  30.993  34.245  1.00  0.00    -0.248 NA
ATOM     55  C   UNL A   1      41.818  31.658  36.421  1.00  0.00     0.031 C 
ATOM     56  C   UNL A   1      43.436  27.746  32.070  1.00  0.00     0.029 A 
ATOM     57  C   UNL A   1      42.770  28.739  32.772  1.00  0.00     0.049 A 
ATOM     58  H   UNL A   1      41.081  29.865  32.200  1.00  0.00     0.167 HD
ATOM     59  C   UNL A   1      42.382  30.253  34.702  1.00  0.00     0.074 A 
ATOM     60  C   UNL A   1      42.688  30.738  36.030  1.00  0.00     0.031 C 
ATOM     61  C   UNL A   1      43.058  29.252  34.086  1.00  0.00     0.037 A 
BRANCH  48  62
ATOM     62  C   UNL A   1      40.923  27.783  28.482  1.00  0.00     0.064 A 
ATOM     63  C   UNL A   1      40.229  26.571  28.348  1.00  0.00     0.173 A 
ATOM     64  C   UNL A   1      41.704  28.217  27.401  1.00  0.00     0.173 A 
ATOM     65  F   UNL A   1      39.484  26.103  29.361  1.00  0.00    -0.203 F 
ATOM     66  C   UNL A   1      40.323  25.818  27.182  1.00  0.00     0.198 A 
ATOM     67  C   UNL A   1      41.767  27.477  26.223  1.00  0.00     0.198 A 
ATOM     68  F   UNL A   1      42.389  29.367  27.479  1.00  0.00    -0.203 F 
ATOM     69  F   UNL A   1      39.683  24.644  27.092  1.00  0.00    -0.200 F 
ATOM     70  C   UNL A   1      41.080  26.278  26.115  1.00  0.00     0.200 A 
ATOM     71  F   UNL A   1      42.488  27.931  25.189  1.00  0.00    -0.200 F 
ATOM     72  F   UNL A   1      41.152  25.562  24.985  1.00  0.00    -0.200 F 
ENDBRANCH  48  62
BRANCH  49  73
ATOM     73  C   UNL A   1      39.704  33.688  36.496  1.00  0.00     0.064 A 
ATOM     74  C   UNL A   1      38.867  33.258  37.536  1.00  0.00     0.173 A 
ATOM     75  C   UNL A   1      40.299  34.953  36.625  1.00  0.00     0.173 A 
ATOM     76  F   UNL A   1      38.263  32.063  37.458  1.00  0.00    -0.203 F 
ATOM     77  C   UNL A   1      38.592  34.078  38.629  1.00  0.00     0.198 A 
ATOM     78  C   UNL A   1      40.057  35.756  37.738  1.00  0.00     0.198 A 
ATOM     79  F   UNL A   1      41.117  35.414  35.667  1.00  0.00    -0.203 F 
ATOM     80  F   UNL A   1      37.724  33.673  39.566  1.00  0.00    -0.200 F 
ATOM     81  C   UNL A   1      39.189  35.326  38.730  1.00  0.00     0.200 A 
ATOM     82  F   UNL A   1      40.654  36.950  37.841  1.00  0.00    -0.200 F 
ATOM     83  F   UNL A   1      38.917  36.119  39.775  1.00  0.00    -0.200 F 
ENDBRANCH  49  73
BRANCH  61  84
ATOM     84  C   UNL A   1      44.209  28.638  34.829  1.00  0.00     0.064 A 
ATOM     85  C   UNL A   1      44.041  27.498  35.629  1.00  0.00     0.173 A 
ATOM     86  C   UNL A   1      45.503  29.163  34.694  1.00  0.00     0.173 A 
ATOM     87  F   UNL A   1      42.821  26.966  35.800  1.00  0.00    -0.203 F 
ATOM     88  C   UNL A   1      45.122  26.921  36.287  1.00  0.00     0.198 A 
ATOM     89  C   UNL A   1      46.589  28.560  35.323  1.00  0.00     0.198 A 
ATOM     90  F   UNL A   1      45.719  30.246  33.932  1.00  0.00    -0.203 F 
ATOM     91  F   UNL A   1      44.930  25.865  37.088  1.00  0.00    -0.200 F 
ATOM     92  C   UNL A   1      46.396  27.446  36.126  1.00  0.00     0.200 A 
ATOM     93  F   UNL A   1      47.821  29.056  35.148  1.00  0.00    -0.200 F 
ATOM     94  F   UNL A   1      47.440  26.881  36.749  1.00  0.00    -0.200 F 
ENDBRANCH  61  84
ENDBRANCH  35  36
ENDBRANCH  27  30
ENDBRANCH  25  26
ENDBRANCH  24  25
ENDBRANCH  23  24
ENDBRANCH   1  23
TORSDOF 15
ENDMDL
MODEL 2
REMARK VINA RESULT:     -13.1      1.017      7.819
REMARK SMILES Cc1cccc(C[N@H+]2CC[C@@](C)(C(=O)NCCCCCCNC(=O)c3ccc(-c4c5nc(c(-c6c(F)c(F)c(F)c(F)c6F)c6ccc([nH]6)c(-c6c(F)c(F)c(F)c(F)c6F)c6nc(c(-c7c(F)c(F)c(F)c(F)c7F)c7ccc4[nH]7)C=C6)C=C5)cc3)C2)n1
REMARK SMILES IDX 18 1 17 2 16 3 15 4 13 5 14 6 11 8 8 9 9 10 88 11 10 13
REMARK SMILES IDX 12 14 7 15 6 16 1 17 2 18 3 19 89 20 4 21 5 22 19 23 20 24
REMARK SMILES IDX 21 25 22 26 23 27 24 29 25 30 26 31 87 32 27 33 86 34 28 35
REMARK SMILES IDX 29 36 30 37 80 38 31 39 85 40 79 41 81 42 32 43 84 44 78 45
REMARK SMILES IDX 77 46 33 48 65 49 45 50 64 51 46 52 49 53 63 54 82 55 47 56
REMARK SMILES IDX 48 57 62 59 83 60 50 61 34 62 35 63 43 64 36 65 37 66 41 67
REMARK SMILES IDX 44 68 38 69 39 70 42 71 40 72 66 73 67 74 75 75 68 76 69 77
REMARK SMILES IDX 73 78 76 79 70 80 71 81 74 82 72 83 51 84 52 85 60 86 53 87
REMARK SMILES IDX 54 88 58 89 61 90 55 91 56 92 59 93 57 94
REMARK H PARENT 15 7 8 12 22 28 81 47 49 58
REMARK Flexibility Score: inf
ROOT
ATOM      1  C   UNL A   1      33.314  30.200  27.035  1.00  0.00     0.002 C 
ENDROOT
BRANCH   1   2
ATOM      2  C   UNL A   1      33.959  28.870  26.062  1.00  0.00     0.021 C 
BRANCH   2   3
ATOM      3  C   UNL A   1      33.738  28.363  23.947  1.00  0.00     0.116 C 
BRANCH   3   4
ATOM      4  N   UNL A   1      33.967  27.067  23.131  1.00  0.00    -0.355 N 
ATOM      5  C   UNL A   1      33.127  26.024  22.918  1.00  0.00     0.231 C 
ATOM      6  O   UNL A   1      33.647  25.079  22.310  1.00  0.00    -0.274 OA
ATOM      7  H   UNL A   1      34.852  26.989  22.706  1.00  0.00     0.163 HD
BRANCH   5   8
ATOM      8  C   UNL A   1      31.604  26.040  23.274  1.00  0.00     0.100 C 
ATOM      9  N   UNL A   1      30.536  24.385  24.774  1.00  0.00    -0.329 N 
ATOM     10  C   UNL A   1      30.928  25.532  25.597  1.00  0.00     0.263 C 
ATOM     11  C   UNL A   1      30.837  24.700  23.355  1.00  0.00     0.279 C 
ATOM     12  H   UNL A   1      29.528  24.263  24.871  1.00  0.00     0.348 HD
ATOM     13  C   UNL A   1      31.374  26.660  24.660  1.00  0.00     0.084 C 
ATOM     14  C   UNL A   1      30.963  26.929  22.179  1.00  0.00     0.028 C 
BRANCH   9  15
ATOM     15  C   UNL A   1      30.968  23.035  25.251  1.00  0.00     0.319 C 
BRANCH  15  16
ATOM     16  C   UNL A   1      32.338  22.513  24.725  1.00  0.00     0.095 A 
ATOM     17  C   UNL A   1      36.414  23.600  25.918  1.00  0.00     0.067 C 
ATOM     18  C   UNL A   1      35.289  22.701  25.526  1.00  0.00     0.038 A 
ATOM     19  C   UNL A   1      35.485  20.912  25.319  1.00  0.00     0.023 A 
ATOM     20  N   UNL A   1      33.723  23.453  25.286  1.00  0.00    -0.252 NA
ATOM     21  C   UNL A   1      34.083  19.953  24.698  1.00  0.00     0.004 A 
ATOM     22  C   UNL A   1      32.487  20.757  24.450  1.00  0.00     0.030 A 
ENDBRANCH  15  16
ENDBRANCH   9  15
ENDBRANCH   5   8
ENDBRANCH   3   4
ENDBRANCH   2   3
ENDBRANCH   1   2
BRANCH   1  23
ATOM     23  C   UNL A   1      31.867  30.683  26.788  1.00  0.00     0.002 C 
BRANCH  23  24
ATOM     24  C   UNL A   1      31.707  32.189  26.848  1.00  0.00     0.021 C 
BRANCH  24  25
ATOM     25  C   UNL A   1      32.918  32.835  27.482  1.00  0.00     0.116 C 
BRANCH  25  26
ATOM     26  N   UNL A   1      32.696  34.275  27.605  1.00  0.00    -0.352 N 
ATOM     27  C   UNL A   1      33.058  35.043  28.682  1.00  0.00     0.251 C 
ATOM     28  H   UNL A   1      32.251  34.729  26.853  1.00  0.00     0.163 HD
ATOM     29  O   UNL A   1      32.500  36.091  28.968  1.00  0.00    -0.269 OA
BRANCH  27  30
ATOM     30  C   UNL A   1      34.175  34.512  29.473  1.00  0.00     0.039 A 
ATOM     31  C   UNL A   1      33.925  33.722  30.592  1.00  0.00     0.014 A 
ATOM     32  C   UNL A   1      35.457  34.633  28.923  1.00  0.00     0.014 A 
ATOM     33  C   UNL A   1      34.982  33.005  31.144  1.00  0.00     0.010 A 
ATOM     34  C   UNL A   1      36.464  33.814  29.389  1.00  0.00     0.010 A 
ATOM     35  C   UNL A   1      36.245  33.019  30.524  1.00  0.00    -0.014 A 
BRANCH  35  36
ATOM     36  C   UNL A   1      37.388  32.261  31.072  1.00  0.00     0.031 A 
ATOM     37  C   UNL A   1      37.932  32.656  32.417  1.00  0.00     0.074 A 
ATOM     38  C   UNL A   1      37.961  31.282  30.348  1.00  0.00     0.049 A 
ATOM     39  N   UNL A   1      38.985  32.207  33.045  1.00  0.00    -0.248 NA
ATOM     40  C   UNL A   1      37.213  33.723  33.138  1.00  0.00     0.031 C 
ATOM     41  C   UNL A   1      37.539  30.852  29.013  1.00  0.00     0.029 A 
ATOM     42  N   UNL A   1      39.033  30.476  30.632  1.00  0.00    -0.354 N 
ATOM     43  C   UNL A   1      39.050  32.936  34.225  1.00  0.00     0.074 A 
ATOM     44  C   UNL A   1      37.990  33.913  34.192  1.00  0.00     0.031 C 
ATOM     45  C   UNL A   1      38.326  29.844  28.606  1.00  0.00     0.029 A 
ATOM     46  C   UNL A   1      39.342  29.594  29.624  1.00  0.00     0.049 A 
ATOM     47  H   UNL A   1      39.534  30.524  31.477  1.00  0.00     0.167 HD
ATOM     48  C   UNL A   1      39.896  32.772  35.266  1.00  0.00     0.037 A 
ATOM     49  C   UNL A   1      40.349  28.706  29.532  1.00  0.00     0.037 A 
ATOM     50  C   UNL A   1      40.937  31.783  35.297  1.00  0.00     0.049 A 
ATOM     51  C   UNL A   1      41.314  28.588  30.685  1.00  0.00     0.074 A 
ATOM     52  C   UNL A   1      41.833  31.509  36.314  1.00  0.00     0.029 A 
ATOM     53  N   UNL A   1      41.219  30.906  34.261  1.00  0.00    -0.354 N 
ATOM     54  N   UNL A   1      41.324  29.232  31.828  1.00  0.00    -0.248 NA
ATOM     55  C   UNL A   1      42.408  27.619  30.536  1.00  0.00     0.031 C 
ATOM     56  C   UNL A   1      42.695  30.505  35.869  1.00  0.00     0.029 A 
ATOM     57  C   UNL A   1      42.298  30.110  34.601  1.00  0.00     0.049 A 
ATOM     58  H   UNL A   1      40.726  30.858  33.410  1.00  0.00     0.167 HD
ATOM     59  C   UNL A   1      42.404  28.729  32.540  1.00  0.00     0.074 A 
ATOM     60  C   UNL A   1      43.007  27.704  31.715  1.00  0.00     0.031 C 
ATOM     61  C   UNL A   1      42.867  29.087  33.763  1.00  0.00     0.037 A 
BRANCH  48  62
ATOM     62  C   UNL A   1      39.717  33.662  36.460  1.00  0.00     0.064 A 
ATOM     63  C   UNL A   1      40.332  34.922  36.533  1.00  0.00     0.173 A 
ATOM     64  C   UNL A   1      38.874  33.280  37.513  1.00  0.00     0.173 A 
ATOM     65  F   UNL A   1      41.163  35.325  35.560  1.00  0.00    -0.203 F 
ATOM     66  C   UNL A   1      40.120  35.759  37.623  1.00  0.00     0.198 A 
ATOM     67  C   UNL A   1      38.637  34.136  38.585  1.00  0.00     0.198 A 
ATOM     68  F   UNL A   1      38.264  32.086  37.493  1.00  0.00    -0.203 F 
ATOM     69  F   UNL A   1      40.750  36.940  37.690  1.00  0.00    -0.200 F 
ATOM     70  C   UNL A   1      39.262  35.372  38.641  1.00  0.00     0.200 A 
ATOM     71  F   UNL A   1      37.797  33.766  39.561  1.00  0.00    -0.200 F 
ATOM     72  F   UNL A   1      39.042  36.189  39.680  1.00  0.00    -0.200 F 
ENDBRANCH  48  62
BRANCH  49  73
ATOM     73  C   UNL A   1      40.521  27.876  28.307  1.00  0.00     0.064 A 
ATOM     74  C   UNL A   1      39.972  26.589  28.219  1.00  0.00     0.173 A 
ATOM     75  C   UNL A   1      41.289  28.329  27.222  1.00  0.00     0.173 A 
ATOM     76  F   UNL A   1      39.241  26.101  29.232  1.00  0.00    -0.203 F 
ATOM     77  C   UNL A   1      40.225  25.770  27.119  1.00  0.00     0.198 A 
ATOM     78  C   UNL A   1      41.506  27.526  26.105  1.00  0.00     0.198 A 
ATOM     79  F   UNL A   1      41.831  29.556  27.246  1.00  0.00    -0.203 F 
ATOM     80  F   UNL A   1      39.755  24.515  27.101  1.00  0.00    -0.200 F 
ATOM     81  C   UNL A   1      40.990  26.239  26.063  1.00  0.00     0.200 A 
ATOM     82  F   UNL A   1      42.226  27.993  25.077  1.00  0.00    -0.200 F 
ATOM     83  F   UNL A   1      41.242  25.449  25.011  1.00  0.00    -0.200 F 
ENDBRANCH  49  73
BRANCH  61  84
ATOM     84  C   UNL A   1      44.062  28.348  34.292  1.00  0.00     0.064 A 
ATOM     85  C   UNL A   1      45.367  28.815  34.077  1.00  0.00     0.173 A 
ATOM     86  C   UNL A   1      43.896  27.192  35.069  1.00  0.00     0.173 A 
ATOM     87  F   UNL A   1      45.579  29.909  33.329  1.00  0.00    -0.203 F 
ATOM     88  C   UNL A   1      46.463  28.137  34.599  1.00  0.00     0.198 A 
ATOM     89  C   UNL A   1      44.993  26.538  35.622  1.00  0.00     0.198 A 
ATOM     90  F   UNL A   1      42.668  26.711  35.313  1.00  0.00    -0.203 F 
ATOM     91  F   UNL A   1      47.704  28.571  34.337  1.00  0.00    -0.200 F 
ATOM     92  C   UNL A   1      46.276  27.005  35.379  1.00  0.00     0.200 A 
ATOM     93  F   UNL A   1      44.807  25.459  36.394  1.00  0.00    -0.200 F 
ATOM     94  F   UNL A   1      47.332  26.361  35.894  1.00  0.00    -0.200 F 
ENDBRANCH  61  84
ENDBRANCH  35  36
ENDBRANCH  27  30
ENDBRANCH  25  26
ENDBRANCH  24  25
ENDBRANCH  23  24
ENDBRANCH   1  23
TORSDOF 15
ENDMDL
MODEL 3
REMARK VINA RESULT:     -13.1      1.285      7.803
REMARK SMILES Cc1cccc(C[N@H+]2CC[C@@](C)(C(=O)NCCCCCCNC(=O)c3ccc(-c4c5nc(c(-c6c(F)c(F)c(F)c(F)c6F)c6ccc([nH]6)c(-c6c(F)c(F)c(F)c(F)c6F)c6nc(c(-c7c(F)c(F)c(F)c(F)c7F)c7ccc4[nH]7)C=C6)C=C5)cc3)C2)n1
REMARK SMILES IDX 18 1 17 2 16 3 15 4 13 5 14 6 11 8 8 9 9 10 88 11 10 13
REMARK SMILES IDX 12 14 7 15 6 16 1 17 2 18 3 19 89 20 4 21 5 22 19 23 20 24
REMARK SMILES IDX 21 25 22 26 23 27 24 29 25 30 26 31 87 32 27 33 86 34 28 35
REMARK SMILES IDX 29 36 30 37 80 38 31 39 85 40 79 41 81 42 32 43 84 44 78 45
REMARK SMILES IDX 77 46 33 48 65 49 45 50 64 51 46 52 49 53 63 54 82 55 47 56
REMARK SMILES IDX 48 57 62 59 83 60 50 61 34 62 35 63 43 64 36 65 37 66 41 67
REMARK SMILES IDX 44 68 38 69 39 70 42 71 40 72 66 73 67 74 75 75 68 76 69 77
REMARK SMILES IDX 73 78 76 79 70 80 71 81 74 82 72 83 51 84 52 85 60 86 53 87
REMARK SMILES IDX 54 88 58 89 61 90 55 91 56 92 59 93 57 94
REMARK H PARENT 15 7 8 12 22 28 81 47 49 58
REMARK Flexibility Score: inf
ROOT
ATOM      1  C   UNL A   1      33.209  30.286  27.202  1.00  0.00     0.002 C 
ENDROOT
BRANCH   1   2
ATOM      2  C   UNL A   1      34.065  29.118  26.183  1.00  0.00     0.021 C 
BRANCH   2   3
ATOM      3  C   UNL A   1      33.630  28.312  24.198  1.00  0.00     0.116 C 
BRANCH   3   4
ATOM      4  N   UNL A   1      32.407  28.405  23.253  1.00  0.00    -0.355 N 
ATOM      5  C   UNL A   1      31.368  27.546  23.103  1.00  0.00     0.231 C 
ATOM      6  O   UNL A   1      30.601  27.847  22.179  1.00  0.00    -0.274 OA
ATOM      7  H   UNL A   1      32.381  29.202  22.677  1.00  0.00     0.163 HD
BRANCH   5   8
ATOM      8  C   UNL A   1      31.066  26.359  24.076  1.00  0.00     0.100 C 
ATOM      9  N   UNL A   1      32.807  25.219  25.418  1.00  0.00    -0.329 N 
ATOM     10  C   UNL A   1      32.242  26.285  26.250  1.00  0.00     0.263 C 
ATOM     11  C   UNL A   1      32.054  25.171  24.140  1.00  0.00     0.279 C 
ATOM     12  H   UNL A   1      32.668  24.336  25.909  1.00  0.00     0.348 HD
ATOM     13  C   UNL A   1      31.010  26.847  25.531  1.00  0.00     0.084 C 
ATOM     14  C   UNL A   1      29.675  25.843  23.632  1.00  0.00     0.028 C 
BRANCH   9  15
ATOM     15  C   UNL A   1      34.297  25.175  25.302  1.00  0.00     0.319 C 
BRANCH  15  16
ATOM     16  C   UNL A   1      34.994  23.855  25.746  1.00  0.00     0.095 A 
ATOM     17  C   UNL A   1      34.030  19.691  24.773  1.00  0.00     0.067 C 
ATOM     18  C   UNL A   1      34.896  20.884  25.007  1.00  0.00     0.038 A 
ATOM     19  C   UNL A   1      36.705  20.819  24.925  1.00  0.00     0.023 A 
ATOM     20  N   UNL A   1      34.080  22.397  25.354  1.00  0.00    -0.252 NA
ATOM     21  C   UNL A   1      37.646  22.296  25.374  1.00  0.00     0.004 A 
ATOM     22  C   UNL A   1      36.778  23.836  25.737  1.00  0.00     0.030 A 
ENDBRANCH  15  16
ENDBRANCH   9  15
ENDBRANCH   5   8
ENDBRANCH   3   4
ENDBRANCH   2   3
ENDBRANCH   1   2
BRANCH   1  23
ATOM     23  C   UNL A   1      31.812  30.784  26.767  1.00  0.00     0.002 C 
BRANCH  23  24
ATOM     24  C   UNL A   1      31.659  32.291  26.816  1.00  0.00     0.021 C 
BRANCH  24  25
ATOM     25  C   UNL A   1      32.807  32.926  27.568  1.00  0.00     0.116 C 
BRANCH  25  26
ATOM     26  N   UNL A   1      32.598  34.371  27.648  1.00  0.00    -0.352 N 
ATOM     27  C   UNL A   1      32.990  35.171  28.691  1.00  0.00     0.251 C 
ATOM     28  H   UNL A   1      32.140  34.805  26.892  1.00  0.00     0.163 HD
ATOM     29  O   UNL A   1      32.446  36.232  28.955  1.00  0.00    -0.269 OA
BRANCH  27  30
ATOM     30  C   UNL A   1      34.120  34.657  29.476  1.00  0.00     0.039 A 
ATOM     31  C   UNL A   1      33.891  33.998  30.680  1.00  0.00     0.014 A 
ATOM     32  C   UNL A   1      35.373  34.646  28.852  1.00  0.00     0.014 A 
ATOM     33  C   UNL A   1      34.937  33.278  31.249  1.00  0.00     0.010 A 
ATOM     34  C   UNL A   1      36.360  33.819  29.348  1.00  0.00     0.010 A 
ATOM     35  C   UNL A   1      36.162  33.156  30.568  1.00  0.00    -0.014 A 
BRANCH  35  36
ATOM     36  C   UNL A   1      37.292  32.390  31.132  1.00  0.00     0.031 A 
ATOM     37  C   UNL A   1      37.828  32.790  32.478  1.00  0.00     0.074 A 
ATOM     38  C   UNL A   1      37.860  31.399  30.421  1.00  0.00     0.049 A 
ATOM     39  N   UNL A   1      38.872  32.335  33.120  1.00  0.00    -0.248 NA
ATOM     40  C   UNL A   1      37.115  33.871  33.184  1.00  0.00     0.031 C 
ATOM     41  C   UNL A   1      37.445  30.962  29.086  1.00  0.00     0.029 A 
ATOM     42  N   UNL A   1      38.921  30.583  30.721  1.00  0.00    -0.354 N 
ATOM     43  C   UNL A   1      38.934  33.073  34.294  1.00  0.00     0.074 A 
ATOM     44  C   UNL A   1      37.885  34.062  34.243  1.00  0.00     0.031 C 
ATOM     45  C   UNL A   1      38.225  29.942  28.694  1.00  0.00     0.029 A 
ATOM     46  C   UNL A   1      39.229  29.690  29.723  1.00  0.00     0.049 A 
ATOM     47  H   UNL A   1      39.415  30.633  31.571  1.00  0.00     0.167 HD
ATOM     48  C   UNL A   1      39.769  32.909  35.344  1.00  0.00     0.037 A 
ATOM     49  C   UNL A   1      40.228  28.790  29.647  1.00  0.00     0.037 A 
ATOM     50  C   UNL A   1      40.798  31.908  35.392  1.00  0.00     0.049 A 
ATOM     51  C   UNL A   1      41.181  28.671  30.810  1.00  0.00     0.074 A 
ATOM     52  C   UNL A   1      41.683  31.633  36.419  1.00  0.00     0.029 A 
ATOM     53  N   UNL A   1      41.080  31.020  34.366  1.00  0.00    -0.354 N 
ATOM     54  N   UNL A   1      41.188  29.325  31.947  1.00  0.00    -0.248 NA
ATOM     55  C   UNL A   1      42.266  27.689  30.679  1.00  0.00     0.031 C 
ATOM     56  C   UNL A   1      42.538  30.616  35.990  1.00  0.00     0.029 A 
ATOM     57  C   UNL A   1      42.147  30.215  34.722  1.00  0.00     0.049 A 
ATOM     58  H   UNL A   1      40.594  30.970  33.511  1.00  0.00     0.167 HD
ATOM     59  C   UNL A   1      42.256  28.816  32.673  1.00  0.00     0.074 A 
ATOM     60  C   UNL A   1      42.855  27.778  31.862  1.00  0.00     0.031 C 
ATOM     61  C   UNL A   1      42.712  29.179  33.898  1.00  0.00     0.037 A 
BRANCH  48  62
ATOM     62  C   UNL A   1      39.589  33.810  36.528  1.00  0.00     0.064 A 
ATOM     63  C   UNL A   1      38.815  33.421  37.633  1.00  0.00     0.173 A 
ATOM     64  C   UNL A   1      40.245  35.048  36.588  1.00  0.00     0.173 A 
ATOM     65  F   UNL A   1      38.152  32.255  37.617  1.00  0.00    -0.203 F 
ATOM     66  C   UNL A   1      38.694  34.245  38.747  1.00  0.00     0.198 A 
ATOM     67  C   UNL A   1      40.149  35.853  37.720  1.00  0.00     0.198 A 
ATOM     68  F   UNL A   1      40.995  35.467  35.558  1.00  0.00    -0.203 F 
ATOM     69  F   UNL A   1      37.918  33.871  39.774  1.00  0.00    -0.200 F 
ATOM     70  C   UNL A   1      39.372  35.454  38.796  1.00  0.00     0.200 A 
ATOM     71  F   UNL A   1      40.816  37.014  37.770  1.00  0.00    -0.200 F 
ATOM     72  F   UNL A   1      39.272  36.237  39.879  1.00  0.00    -0.200 F 
ENDBRANCH  48  62
BRANCH  49  73
ATOM     73  C   UNL A   1      40.401  27.948  28.431  1.00  0.00     0.064 A 
ATOM     74  C   UNL A   1      39.857  26.658  28.357  1.00  0.00     0.173 A 
ATOM     75  C   UNL A   1      41.165  28.393  27.341  1.00  0.00     0.173 A 
ATOM     76  F   UNL A   1      39.129  26.178  29.376  1.00  0.00    -0.203 F 
ATOM     77  C   UNL A   1      40.111  25.828  27.266  1.00  0.00     0.198 A 
ATOM     78  C   UNL A   1      41.384  27.579  26.232  1.00  0.00     0.198 A 
ATOM     79  F   UNL A   1      41.703  29.622  27.351  1.00  0.00    -0.203 F 
ATOM     80  F   UNL A   1      39.646  24.572  27.261  1.00  0.00    -0.200 F 
ATOM     81  C   UNL A   1      40.873  26.290  26.203  1.00  0.00     0.200 A 
ATOM     82  F   UNL A   1      42.101  28.038  25.198  1.00  0.00    -0.200 F 
ATOM     83  F   UNL A   1      41.127  25.489  25.159  1.00  0.00    -0.200 F 
ENDBRANCH  49  73
BRANCH  61  84
ATOM     84  C   UNL A   1      43.895  28.432  34.443  1.00  0.00     0.064 A 
ATOM     85  C   UNL A   1      43.740  27.236  35.159  1.00  0.00     0.173 A 
ATOM     86  C   UNL A   1      45.199  28.888  34.197  1.00  0.00     0.173 A 
ATOM     87  F   UNL A   1      42.513  26.766  35.432  1.00  0.00    -0.203 F 
ATOM     88  C   UNL A   1      44.846  26.538  35.632  1.00  0.00     0.198 A 
ATOM     89  C   UNL A   1      46.304  28.166  34.637  1.00  0.00     0.198 A 
ATOM     90  F   UNL A   1      45.401  30.020  33.507  1.00  0.00    -0.203 F 
ATOM     91  F   UNL A   1      44.673  25.426  36.359  1.00  0.00    -0.200 F 
ATOM     92  C   UNL A   1      46.127  26.997  35.362  1.00  0.00     0.200 A 
ATOM     93  F   UNL A   1      47.539  28.600  34.356  1.00  0.00    -0.200 F 
ATOM     94  F   UNL A   1      47.192  26.315  35.805  1.00  0.00    -0.200 F 
ENDBRANCH  61  84
ENDBRANCH  35  36
ENDBRANCH  27  30
ENDBRANCH  25  26
ENDBRANCH  24  25
ENDBRANCH  23  24
ENDBRANCH   1  23
TORSDOF 15
ENDMDL
