MODEL 1
REMARK VINA RESULT:     -12.4      0.000      0.000
REMARK SMILES CC(C)CCc1cc2c(cc1Cl)C=C(C(=O)NCCCCCCNC(=O)c1ccc(-c3c4nc(c(-c5c(F)c(F)c(F)c(F)c5F)c5ccc([nH]5)c(-c5c(F)c(F)c(F)c(F)c5F)c5nc(c(-c6c(F)c(F)c(F)c(F)c6F)c6ccc3[nH]6)C=C5)C=C4)cc1)[C@@H](C(F)(F)F)O2
REMARK SMILES IDX 20 1 19 2 18 3 17 4 15 5 16 6 14 8 6 9 7 10 11 11 8 12 10 13
REMARK SMILES IDX 12 14 9 15 95 16 13 17 90 18 5 19 4 20 2 21 1 22 3 23 91 24
REMARK SMILES IDX 92 25 93 26 94 27 21 28 22 29 23 30 24 31 25 32 26 34 27 35
REMARK SMILES IDX 28 36 89 37 29 38 88 39 30 40 31 41 32 42 82 43 33 44 87 45
REMARK SMILES IDX 81 46 83 47 34 48 86 49 80 50 79 51 35 53 67 54 47 55 66 56
REMARK SMILES IDX 48 57 51 58 65 59 84 60 49 61 50 62 64 64 85 65 52 66 36 67
REMARK SMILES IDX 37 68 45 69 38 70 39 71 43 72 46 73 40 74 41 75 44 76 42 77
REMARK SMILES IDX 68 78 69 79 77 80 70 81 71 82 75 83 78 84 72 85 73 86 76 87
REMARK SMILES IDX 74 88 53 89 54 90 62 91 55 92 56 93 60 94 63 95 57 96 58 97
REMARK SMILES IDX 61 98 59 99
REMARK H PARENT 17 7 24 33 83 52 51 63
REMARK Flexibility Score: inf
ROOT
ATOM      1  C   UNL A   1      31.863  30.006  25.185  1.00  0.00     0.002 C 
ENDROOT
BRANCH   1   2
ATOM      2  C   UNL A   1      30.613  30.051  24.300  1.00  0.00     0.021 C 
BRANCH   2   3
ATOM      3  C   UNL A   1      30.603  29.012  23.181  1.00  0.00     0.116 C 
BRANCH   3   4
ATOM      4  N   UNL A   1      29.597  27.990  23.400  1.00  0.00    -0.352 N 
ATOM      5  C   UNL A   1      29.562  26.685  23.756  1.00  0.00     0.251 C 
ATOM      6  O   UNL A   1      28.430  26.199  23.844  1.00  0.00    -0.270 OA
ATOM      7  H   UNL A   1      28.691  28.343  23.247  1.00  0.00     0.163 HD
BRANCH   5   8
ATOM      8  C   UNL A   1      30.754  25.828  24.037  1.00  0.00     0.067 C 
ATOM      9  C   UNL A   1      33.976  21.938  24.374  1.00  0.00    -0.026 A 
ATOM     10  C   UNL A   1      34.079  23.330  24.532  1.00  0.00     0.052 A 
ATOM     11  C   UNL A   1      32.749  21.418  23.926  1.00  0.00     0.045 A 
ATOM     12  C   UNL A   1      32.979  24.160  24.323  1.00  0.00     0.128 A 
ATOM     13  C   UNL A   1      31.653  22.262  23.689  1.00  0.00     0.032 A 
ATOM     14  Cl  UNL A   1      32.513  19.732  23.630  1.00  0.00    -0.084 Cl
ATOM     15  C   UNL A   1      31.763  23.638  23.897  1.00  0.00     0.019 A 
ATOM     16  O   UNL A   1      33.183  25.493  24.520  1.00  0.00    -0.475 OA
ATOM     17  C   UNL A   1      30.652  24.544  23.640  1.00  0.00     0.025 C 
ATOM     18  C   UNL A   1      31.993  26.298  24.745  1.00  0.00     0.314 C 
BRANCH   9  19
ATOM     19  C   UNL A   1      35.189  21.083  24.670  1.00  0.00     0.037 C 
BRANCH  19  20
ATOM     20  C   UNL A   1      36.145  21.663  25.730  1.00  0.00     0.008 C 
BRANCH  20  21
ATOM     21  C   UNL A   1      37.433  22.301  25.171  1.00  0.00    -0.017 C 
ATOM     22  C   UNL A   1      37.487  23.807  25.428  1.00  0.00     0.007 C 
ATOM     23  C   UNL A   1      38.659  21.623  25.788  1.00  0.00     0.007 C 
ENDBRANCH  20  21
ENDBRANCH  19  20
ENDBRANCH   9  19
BRANCH  18  24
ATOM     24  C   UNL A   1      31.780  26.474  26.260  1.00  0.00     0.429 C 
ATOM     25  F   UNL A   1      31.704  25.266  26.873  1.00  0.00    -0.167 F 
ATOM     26  F   UNL A   1      32.802  27.136  26.854  1.00  0.00    -0.167 F 
ATOM     27  F   UNL A   1      30.648  27.150  26.553  1.00  0.00    -0.167 F 
ENDBRANCH  18  24
ENDBRANCH   5   8
ENDBRANCH   3   4
ENDBRANCH   2   3
ENDBRANCH   1   2
BRANCH   1  28
ATOM     28  C   UNL A   1      31.694  30.561  26.608  1.00  0.00     0.002 C 
BRANCH  28  29
ATOM     29  C   UNL A   1      31.524  32.078  26.711  1.00  0.00     0.021 C 
BRANCH  29  30
ATOM     30  C   UNL A   1      32.708  32.815  27.324  1.00  0.00     0.116 C 
BRANCH  30  31
ATOM     31  N   UNL A   1      32.394  34.195  27.660  1.00  0.00    -0.352 N 
ATOM     32  C   UNL A   1      32.961  35.003  28.615  1.00  0.00     0.251 C 
ATOM     33  H   UNL A   1      31.675  34.606  27.129  1.00  0.00     0.163 HD
ATOM     34  O   UNL A   1      32.478  36.100  28.874  1.00  0.00    -0.269 OA
BRANCH  32  35
ATOM     35  C   UNL A   1      34.143  34.522  29.359  1.00  0.00     0.039 A 
ATOM     36  C   UNL A   1      35.419  34.619  28.798  1.00  0.00     0.014 A 
ATOM     37  C   UNL A   1      33.962  33.927  30.610  1.00  0.00     0.014 A 
ATOM     38  C   UNL A   1      36.490  33.982  29.416  1.00  0.00     0.010 A 
ATOM     39  C   UNL A   1      35.052  33.349  31.263  1.00  0.00     0.010 A 
ATOM     40  C   UNL A   1      36.314  33.329  30.648  1.00  0.00    -0.014 A 
BRANCH  40  41
ATOM     41  C   UNL A   1      37.455  32.610  31.268  1.00  0.00     0.031 A 
ATOM     42  C   UNL A   1      37.937  32.986  32.643  1.00  0.00     0.074 A 
ATOM     43  C   UNL A   1      38.027  31.585  30.609  1.00  0.00     0.049 A 
ATOM     44  N   UNL A   1      38.934  32.493  33.333  1.00  0.00    -0.248 NA
ATOM     45  C   UNL A   1      37.203  34.056  33.336  1.00  0.00     0.031 C 
ATOM     46  C   UNL A   1      37.629  31.110  29.285  1.00  0.00     0.029 A 
ATOM     47  N   UNL A   1      39.049  30.746  30.972  1.00  0.00    -0.354 N 
ATOM     48  C   UNL A   1      38.960  33.202  34.527  1.00  0.00     0.074 A 
ATOM     49  C   UNL A   1      37.891  34.175  34.462  1.00  0.00     0.031 C 
ATOM     50  C   UNL A   1      38.367  30.038  28.963  1.00  0.00     0.029 A 
ATOM     51  C   UNL A   1      39.330  29.788  30.032  1.00  0.00     0.049 A 
ATOM     52  H   UNL A   1      39.534  30.824  31.826  1.00  0.00     0.167 HD
ATOM     53  C   UNL A   1      39.794  33.047  35.581  1.00  0.00     0.037 A 
ATOM     54  C   UNL A   1      40.269  28.823  30.023  1.00  0.00     0.037 A 
ATOM     55  C   UNL A   1      40.844  32.064  35.652  1.00  0.00     0.049 A 
ATOM     56  C   UNL A   1      41.208  28.702  31.188  1.00  0.00     0.074 A 
ATOM     57  C   UNL A   1      41.741  31.830  36.680  1.00  0.00     0.029 A 
ATOM     58  N   UNL A   1      41.131  31.143  34.654  1.00  0.00    -0.354 N 
ATOM     59  N   UNL A   1      41.240  29.397  32.299  1.00  0.00    -0.248 NA
ATOM     60  C   UNL A   1      42.250  27.671  31.093  1.00  0.00     0.031 C 
ATOM     61  C   UNL A   1      42.591  30.789  36.292  1.00  0.00     0.029 A 
ATOM     62  C   UNL A   1      42.199  30.348  35.039  1.00  0.00     0.049 A 
ATOM     63  H   UNL A   1      40.648  31.067  33.800  1.00  0.00     0.167 HD
ATOM     64  C   UNL A   1      42.297  28.886  33.037  1.00  0.00     0.074 A 
ATOM     65  C   UNL A   1      42.868  27.806  32.258  1.00  0.00     0.031 C 
ATOM     66  C   UNL A   1      42.757  29.282  34.250  1.00  0.00     0.037 A 
BRANCH  53  67
ATOM     67  C   UNL A   1      39.619  33.969  36.752  1.00  0.00     0.064 A 
ATOM     68  C   UNL A   1      38.849  33.603  37.866  1.00  0.00     0.173 A 
ATOM     69  C   UNL A   1      40.281  35.207  36.788  1.00  0.00     0.173 A 
ATOM     70  F   UNL A   1      38.186  32.437  37.873  1.00  0.00    -0.203 F 
ATOM     71  C   UNL A   1      38.738  34.447  38.968  1.00  0.00     0.198 A 
ATOM     72  C   UNL A   1      40.186  36.038  37.902  1.00  0.00     0.198 A 
ATOM     73  F   UNL A   1      41.033  35.601  35.750  1.00  0.00    -0.203 F 
ATOM     74  F   UNL A   1      37.974  34.090  40.008  1.00  0.00    -0.200 F 
ATOM     75  C   UNL A   1      39.413  35.659  38.988  1.00  0.00     0.200 A 
ATOM     76  F   UNL A   1      40.847  37.203  37.924  1.00  0.00    -0.200 F 
ATOM     77  F   UNL A   1      39.316  36.463  40.056  1.00  0.00    -0.200 F 
ENDBRANCH  53  67
BRANCH  54  78
ATOM     78  C   UNL A   1      40.358  27.900  28.864  1.00  0.00     0.064 A 
ATOM     79  C   UNL A   1      41.105  28.242  27.731  1.00  0.00     0.173 A 
ATOM     80  C   UNL A   1      39.727  26.647  28.882  1.00  0.00     0.173 A 
ATOM     81  F   UNL A   1      41.707  29.438  27.662  1.00  0.00    -0.203 F 
ATOM     82  C   UNL A   1      41.219  27.365  26.655  1.00  0.00     0.198 A 
ATOM     83  C   UNL A   1      39.863  25.760  27.817  1.00  0.00     0.198 A 
ATOM     84  F   UNL A   1      39.003  26.275  29.947  1.00  0.00    -0.203 F 
ATOM     85  F   UNL A   1      41.919  27.725  25.571  1.00  0.00    -0.200 F 
ATOM     86  C   UNL A   1      40.606  26.121  26.703  1.00  0.00     0.200 A 
ATOM     87  F   UNL A   1      39.281  24.555  27.873  1.00  0.00    -0.200 F 
ATOM     88  F   UNL A   1      40.729  25.272  25.674  1.00  0.00    -0.200 F 
ENDBRANCH  54  78
BRANCH  66  89
ATOM     89  C   UNL A   1      43.929  28.536  34.813  1.00  0.00     0.064 A 
ATOM     90  C   UNL A   1      45.243  28.977  34.603  1.00  0.00     0.173 A 
ATOM     91  C   UNL A   1      43.733  27.397  35.606  1.00  0.00     0.173 A 
ATOM     92  F   UNL A   1      45.479  30.054  33.838  1.00  0.00    -0.203 F 
ATOM     93  C   UNL A   1      46.323  28.291  35.153  1.00  0.00     0.198 A 
ATOM     94  C   UNL A   1      44.813  26.727  36.175  1.00  0.00     0.198 A 
ATOM     95  F   UNL A   1      42.493  26.940  35.840  1.00  0.00    -0.203 F 
ATOM     96  F   UNL A   1      47.573  28.707  34.909  1.00  0.00    -0.200 F 
ATOM     97  C   UNL A   1      46.106  27.171  35.943  1.00  0.00     0.200 A 
ATOM     98  F   UNL A   1      44.602  25.652  36.946  1.00  0.00    -0.200 F 
ATOM     99  F   UNL A   1      47.146  26.516  36.478  1.00  0.00    -0.200 F 
ENDBRANCH  66  89
ENDBRANCH  40  41
ENDBRANCH  32  35
ENDBRANCH  30  31
ENDBRANCH  29  30
ENDBRANCH  28  29
ENDBRANCH   1  28
TORSDOF 17
ENDMDL
MODEL 2
REMARK VINA RESULT:     -12.3      0.379      7.090
REMARK SMILES CC(C)CCc1cc2c(cc1Cl)C=C(C(=O)NCCCCCCNC(=O)c1ccc(-c3c4nc(c(-c5c(F)c(F)c(F)c(F)c5F)c5ccc([nH]5)c(-c5c(F)c(F)c(F)c(F)c5F)c5nc(c(-c6c(F)c(F)c(F)c(F)c6F)c6ccc3[nH]6)C=C5)C=C4)cc1)[C@@H](C(F)(F)F)O2
REMARK SMILES IDX 20 1 19 2 18 3 17 4 15 5 16 6 14 8 6 9 7 10 11 11 8 12 10 13
REMARK SMILES IDX 12 14 9 15 95 16 13 17 90 18 5 19 4 20 2 21 1 22 3 23 91 24
REMARK SMILES IDX 92 25 93 26 94 27 21 28 22 29 23 30 24 31 25 32 26 34 27 35
REMARK SMILES IDX 28 36 89 37 29 38 88 39 30 40 31 41 32 42 82 43 33 44 87 45
REMARK SMILES IDX 81 46 83 47 34 48 86 49 80 50 79 51 35 53 67 54 47 55 66 56
REMARK SMILES IDX 48 57 51 58 65 59 84 60 49 61 50 62 64 64 85 65 52 66 36 67
REMARK SMILES IDX 37 68 45 69 38 70 39 71 43 72 46 73 40 74 41 75 44 76 42 77
REMARK SMILES IDX 68 78 69 79 77 80 70 81 71 82 75 83 78 84 72 85 73 86 76 87
REMARK SMILES IDX 74 88 53 89 54 90 62 91 55 92 56 93 60 94 63 95 57 96 58 97
REMARK SMILES IDX 61 98 59 99
REMARK H PARENT 17 7 24 33 83 52 51 63
REMARK Flexibility Score: inf
ROOT
ATOM      1  C   UNL A   1      31.948  29.911  25.090  1.00  0.00     0.002 C 
ENDROOT
BRANCH   1   2
ATOM      2  C   UNL A   1      30.662  29.845  24.259  1.00  0.00     0.021 C 
BRANCH   2   3
ATOM      3  C   UNL A   1      30.703  28.821  23.126  1.00  0.00     0.116 C 
BRANCH   3   4
ATOM      4  N   UNL A   1      29.700  27.786  23.296  1.00  0.00    -0.352 N 
ATOM      5  C   UNL A   1      29.664  26.484  23.661  1.00  0.00     0.251 C 
ATOM      6  O   UNL A   1      28.535  25.982  23.688  1.00  0.00    -0.270 OA
ATOM      7  H   UNL A   1      28.799  28.125  23.088  1.00  0.00     0.163 HD
BRANCH   5   8
ATOM      8  C   UNL A   1      30.849  25.647  24.017  1.00  0.00     0.067 C 
ATOM      9  C   UNL A   1      34.078  21.795  24.622  1.00  0.00    -0.026 A 
ATOM     10  C   UNL A   1      34.168  23.193  24.727  1.00  0.00     0.052 A 
ATOM     11  C   UNL A   1      32.870  21.249  24.155  1.00  0.00     0.045 A 
ATOM     12  C   UNL A   1      33.072  24.006  24.446  1.00  0.00     0.128 A 
ATOM     13  C   UNL A   1      31.778  22.075  23.847  1.00  0.00     0.032 A 
ATOM     14  Cl  UNL A   1      32.652  19.551  23.920  1.00  0.00    -0.084 Cl
ATOM     15  C   UNL A   1      31.874  23.459  24.002  1.00  0.00     0.019 A 
ATOM     16  O   UNL A   1      33.262  25.348  24.595  1.00  0.00    -0.475 OA
ATOM     17  C   UNL A   1      30.768  24.347  23.670  1.00  0.00     0.025 C 
ATOM     18  C   UNL A   1      32.061  26.153  24.747  1.00  0.00     0.314 C 
BRANCH   9  19
ATOM     19  C   UNL A   1      35.285  20.960  24.995  1.00  0.00     0.037 C 
BRANCH  19  20
ATOM     20  C   UNL A   1      36.638  21.547  24.548  1.00  0.00     0.008 C 
BRANCH  20  21
ATOM     21  C   UNL A   1      37.475  22.190  25.673  1.00  0.00    -0.017 C 
ATOM     22  C   UNL A   1      38.882  21.600  25.751  1.00  0.00     0.007 C 
ATOM     23  C   UNL A   1      37.555  23.704  25.460  1.00  0.00     0.007 C 
ENDBRANCH  20  21
ENDBRANCH  19  20
ENDBRANCH   9  19
BRANCH  18  24
ATOM     24  C   UNL A   1      31.796  26.390  26.245  1.00  0.00     0.429 C 
ATOM     25  F   UNL A   1      31.589  25.211  26.883  1.00  0.00    -0.167 F 
ATOM     26  F   UNL A   1      32.843  26.979  26.871  1.00  0.00    -0.167 F 
ATOM     27  F   UNL A   1      30.714  27.168  26.467  1.00  0.00    -0.167 F 
ENDBRANCH  18  24
ENDBRANCH   5   8
ENDBRANCH   3   4
ENDBRANCH   2   3
ENDBRANCH   1   2
BRANCH   1  28
ATOM     28  C   UNL A   1      31.790  30.444  26.522  1.00  0.00     0.002 C 
BRANCH  28  29
ATOM     29  C   UNL A   1      31.613  31.958  26.649  1.00  0.00     0.021 C 
BRANCH  29  30
ATOM     30  C   UNL A   1      32.756  32.680  27.351  1.00  0.00     0.116 C 
BRANCH  30  31
ATOM     31  N   UNL A   1      32.454  34.077  27.619  1.00  0.00    -0.352 N 
ATOM     32  C   UNL A   1      33.000  34.915  28.561  1.00  0.00     0.251 C 
ATOM     33  H   UNL A   1      31.762  34.478  27.045  1.00  0.00     0.163 HD
ATOM     34  O   UNL A   1      32.526  36.029  28.758  1.00  0.00    -0.269 OA
BRANCH  32  35
ATOM     35  C   UNL A   1      34.144  34.446  29.368  1.00  0.00     0.039 A 
ATOM     36  C   UNL A   1      35.446  34.531  28.865  1.00  0.00     0.014 A 
ATOM     37  C   UNL A   1      33.905  33.874  30.620  1.00  0.00     0.014 A 
ATOM     38  C   UNL A   1      36.485  33.904  29.543  1.00  0.00     0.010 A 
ATOM     39  C   UNL A   1      34.962  33.307  31.333  1.00  0.00     0.010 A 
ATOM     40  C   UNL A   1      36.252  33.274  30.778  1.00  0.00    -0.014 A 
BRANCH  40  41
ATOM     41  C   UNL A   1      37.361  32.565  31.463  1.00  0.00     0.031 A 
ATOM     42  C   UNL A   1      38.096  31.450  30.770  1.00  0.00     0.074 A 
ATOM     43  C   UNL A   1      37.736  32.958  32.694  1.00  0.00     0.049 A 
ATOM     44  N   UNL A   1      39.069  30.698  31.219  1.00  0.00    -0.248 NA
ATOM     45  C   UNL A   1      37.687  31.138  29.392  1.00  0.00     0.031 C 
ATOM     46  C   UNL A   1      37.119  34.044  33.454  1.00  0.00     0.029 A 
ATOM     47  N   UNL A   1      38.739  32.505  33.512  1.00  0.00    -0.354 N 
ATOM     48  C   UNL A   1      39.373  29.814  30.191  1.00  0.00     0.074 A 
ATOM     49  C   UNL A   1      38.469  30.109  29.100  1.00  0.00     0.031 C 
ATOM     50  C   UNL A   1      37.783  34.203  34.609  1.00  0.00     0.029 A 
ATOM     51  C   UNL A   1      38.832  33.193  34.695  1.00  0.00     0.049 A 
ATOM     52  H   UNL A   1      39.336  31.759  33.272  1.00  0.00     0.167 HD
ATOM     53  C   UNL A   1      40.326  28.853  30.160  1.00  0.00     0.037 A 
ATOM     54  C   UNL A   1      39.661  33.019  35.742  1.00  0.00     0.037 A 
ATOM     55  C   UNL A   1      41.238  28.575  31.238  1.00  0.00     0.049 A 
ATOM     56  C   UNL A   1      40.680  31.918  35.697  1.00  0.00     0.074 A 
ATOM     57  C   UNL A   1      42.239  27.620  31.300  1.00  0.00     0.029 A 
ATOM     58  N   UNL A   1      41.266  29.261  32.444  1.00  0.00    -0.354 N 
ATOM     59  N   UNL A   1      40.939  31.071  34.731  1.00  0.00    -0.248 NA
ATOM     60  C   UNL A   1      41.513  31.739  36.893  1.00  0.00     0.031 C 
ATOM     61  C   UNL A   1      42.852  27.707  32.554  1.00  0.00     0.029 A 
ATOM     62  C   UNL A   1      42.259  28.742  33.260  1.00  0.00     0.049 A 
ATOM     63  H   UNL A   1      40.668  30.005  32.685  1.00  0.00     0.167 HD
ATOM     64  C   UNL A   1      41.966  30.264  35.196  1.00  0.00     0.074 A 
ATOM     65  C   UNL A   1      42.300  30.737  36.525  1.00  0.00     0.031 C 
ATOM     66  C   UNL A   1      42.574  29.221  34.580  1.00  0.00     0.037 A 
BRANCH  53  67
ATOM     67  C   UNL A   1      40.431  28.014  28.920  1.00  0.00     0.064 A 
ATOM     68  C   UNL A   1      41.208  28.417  27.825  1.00  0.00     0.173 A 
ATOM     69  C   UNL A   1      39.799  26.762  28.853  1.00  0.00     0.173 A 
ATOM     70  F   UNL A   1      41.821  29.611  27.836  1.00  0.00    -0.203 F 
ATOM     71  C   UNL A   1      41.340  27.604  26.703  1.00  0.00     0.198 A 
ATOM     72  C   UNL A   1      39.951  25.942  27.738  1.00  0.00     0.198 A 
ATOM     73  F   UNL A   1      39.047  26.329  29.876  1.00  0.00    -0.203 F 
ATOM     74  F   UNL A   1      42.064  28.021  25.656  1.00  0.00    -0.200 F 
ATOM     75  C   UNL A   1      40.718  26.364  26.664  1.00  0.00     0.200 A 
ATOM     76  F   UNL A   1      39.358  24.740  27.706  1.00  0.00    -0.200 F 
ATOM     77  F   UNL A   1      40.857  25.577  25.587  1.00  0.00    -0.200 F 
ENDBRANCH  53  67
BRANCH  54  78
ATOM     78  C   UNL A   1      39.551  33.918  36.918  1.00  0.00     0.064 A 
ATOM     79  C   UNL A   1      40.207  35.155  36.938  1.00  0.00     0.173 A 
ATOM     80  C   UNL A   1      38.763  33.575  38.026  1.00  0.00     0.173 A 
ATOM     81  F   UNL A   1      40.988  35.516  35.909  1.00  0.00    -0.203 F 
ATOM     82  C   UNL A   1      40.080  36.017  38.025  1.00  0.00     0.198 A 
ATOM     83  C   UNL A   1      38.616  34.448  39.101  1.00  0.00     0.198 A 
ATOM     84  F   UNL A   1      38.114  32.401  38.051  1.00  0.00    -0.203 F 
ATOM     85  F   UNL A   1      40.737  37.184  38.032  1.00  0.00    -0.200 F 
ATOM     86  C   UNL A   1      39.277  35.667  39.101  1.00  0.00     0.200 A 
ATOM     87  F   UNL A   1      37.829  34.112  40.131  1.00  0.00    -0.200 F 
ATOM     88  F   UNL A   1      39.143  36.503  40.139  1.00  0.00    -0.200 F 
ENDBRANCH  54  78
BRANCH  66  89
ATOM     89  C   UNL A   1      43.668  28.525  35.332  1.00  0.00     0.064 A 
ATOM     90  C   UNL A   1      45.009  28.910  35.191  1.00  0.00     0.173 A 
ATOM     91  C   UNL A   1      43.368  27.494  36.234  1.00  0.00     0.173 A 
ATOM     92  F   UNL A   1      45.345  29.882  34.329  1.00  0.00    -0.203 F 
ATOM     93  C   UNL A   1      46.014  28.274  35.914  1.00  0.00     0.198 A 
ATOM     94  C   UNL A   1      44.373  26.877  36.973  1.00  0.00     0.198 A 
ATOM     95  F   UNL A   1      42.099  27.095  36.407  1.00  0.00    -0.203 F 
ATOM     96  F   UNL A   1      47.294  28.632  35.737  1.00  0.00    -0.200 F 
ATOM     97  C   UNL A   1      45.694  27.263  36.809  1.00  0.00     0.200 A 
ATOM     98  F   UNL A   1      44.063  25.907  37.844  1.00  0.00    -0.200 F 
ATOM     99  F   UNL A   1      46.663  26.656  37.509  1.00  0.00    -0.200 F 
ENDBRANCH  66  89
ENDBRANCH  40  41
ENDBRANCH  32  35
ENDBRANCH  30  31
ENDBRANCH  29  30
ENDBRANCH  28  29
ENDBRANCH   1  28
TORSDOF 17
ENDMDL
MODEL 3
REMARK VINA RESULT:     -12.3      5.497      9.986
REMARK SMILES CC(C)CCc1cc2c(cc1Cl)C=C(C(=O)NCCCCCCNC(=O)c1ccc(-c3c4nc(c(-c5c(F)c(F)c(F)c(F)c5F)c5ccc([nH]5)c(-c5c(F)c(F)c(F)c(F)c5F)c5nc(c(-c6c(F)c(F)c(F)c(F)c6F)c6ccc3[nH]6)C=C5)C=C4)cc1)[C@@H](C(F)(F)F)O2
REMARK SMILES IDX 20 1 19 2 18 3 17 4 15 5 16 6 14 8 6 9 7 10 11 11 8 12 10 13
REMARK SMILES IDX 12 14 9 15 95 16 13 17 90 18 5 19 4 20 2 21 1 22 3 23 91 24
REMARK SMILES IDX 92 25 93 26 94 27 21 28 22 29 23 30 24 31 25 32 26 34 27 35
REMARK SMILES IDX 28 36 89 37 29 38 88 39 30 40 31 41 32 42 82 43 33 44 87 45
REMARK SMILES IDX 81 46 83 47 34 48 86 49 80 50 79 51 35 53 67 54 47 55 66 56
REMARK SMILES IDX 48 57 51 58 65 59 84 60 49 61 50 62 64 64 85 65 52 66 36 67
REMARK SMILES IDX 37 68 45 69 38 70 39 71 43 72 46 73 40 74 41 75 44 76 42 77
REMARK SMILES IDX 68 78 69 79 77 80 70 81 71 82 75 83 78 84 72 85 73 86 76 87
REMARK SMILES IDX 74 88 53 89 54 90 62 91 55 92 56 93 60 94 63 95 57 96 58 97
REMARK SMILES IDX 61 98 59 99
REMARK H PARENT 17 7 24 33 83 52 51 63
REMARK Flexibility Score: inf
ROOT
ATOM      1  C   UNL A   1      37.238  22.503  25.590  1.00  0.00     0.002 C 
ENDROOT
BRANCH   1   2
ATOM      2  C   UNL A   1      35.829  23.089  25.732  1.00  0.00     0.021 C 
BRANCH   2   3
ATOM      3  C   UNL A   1      34.836  22.163  26.432  1.00  0.00     0.116 C 
BRANCH   3   4
ATOM      4  N   UNL A   1      34.075  21.369  25.485  1.00  0.00    -0.352 N 
ATOM      5  C   UNL A   1      33.108  21.575  24.562  1.00  0.00     0.251 C 
ATOM      6  O   UNL A   1      32.757  20.566  23.941  1.00  0.00    -0.270 OA
ATOM      7  H   UNL A   1      34.335  20.421  25.525  1.00  0.00     0.163 HD
BRANCH   5   8
ATOM      8  C   UNL A   1      32.461  22.887  24.257  1.00  0.00     0.067 C 
ATOM      9  C   UNL A   1      31.585  27.659  22.814  1.00  0.00    -0.026 A 
ATOM     10  C   UNL A   1      30.779  26.553  23.128  1.00  0.00     0.052 A 
ATOM     11  C   UNL A   1      32.976  27.467  22.774  1.00  0.00     0.045 A 
ATOM     12  C   UNL A   1      31.345  25.323  23.460  1.00  0.00     0.128 A 
ATOM     13  C   UNL A   1      33.540  26.219  23.082  1.00  0.00     0.032 A 
ATOM     14  Cl  UNL A   1      34.073  28.731  22.339  1.00  0.00    -0.084 Cl
ATOM     15  C   UNL A   1      32.723  25.144  23.436  1.00  0.00     0.019 A 
ATOM     16  O   UNL A   1      30.473  24.321  23.764  1.00  0.00    -0.475 OA
ATOM     17  C   UNL A   1      33.273  23.830  23.740  1.00  0.00     0.025 C 
ATOM     18  C   UNL A   1      31.017  23.207  24.525  1.00  0.00     0.314 C 
BRANCH   9  19
ATOM     19  C   UNL A   1      30.914  28.984  22.516  1.00  0.00     0.037 C 
BRANCH  19  20
ATOM     20  C   UNL A   1      29.824  29.396  23.524  1.00  0.00     0.008 C 
BRANCH  20  21
ATOM     21  C   UNL A   1      28.481  29.823  22.897  1.00  0.00    -0.017 C 
ATOM     22  C   UNL A   1      27.418  28.732  23.021  1.00  0.00     0.007 C 
ATOM     23  C   UNL A   1      27.985  31.112  23.557  1.00  0.00     0.007 C 
ENDBRANCH  20  21
ENDBRANCH  19  20
ENDBRANCH   9  19
BRANCH  18  24
ATOM     24  C   UNL A   1      30.724  23.425  26.021  1.00  0.00     0.429 C 
ATOM     25  F   UNL A   1      30.009  22.386  26.521  1.00  0.00    -0.167 F 
ATOM     26  F   UNL A   1      31.854  23.499  26.765  1.00  0.00    -0.167 F 
ATOM     27  F   UNL A   1      30.021  24.554  26.257  1.00  0.00    -0.167 F 
ENDBRANCH  18  24
ENDBRANCH   5   8
ENDBRANCH   3   4
ENDBRANCH   2   3
ENDBRANCH   1   2
BRANCH   1  28
ATOM     28  C   UNL A   1      37.399  21.402  24.532  1.00  0.00     0.002 C 
BRANCH  28  29
ATOM     29  C   UNL A   1      38.133  20.141  24.993  1.00  0.00     0.021 C 
BRANCH  29  30
ATOM     30  C   UNL A   1      39.301  20.390  25.938  1.00  0.00     0.116 C 
BRANCH  30  31
ATOM     31  N   UNL A   1      40.252  19.291  25.954  1.00  0.00    -0.352 N 
ATOM     32  C   UNL A   1      41.613  19.326  26.135  1.00  0.00     0.251 C 
ATOM     33  H   UNL A   1      39.866  18.396  25.815  1.00  0.00     0.163 HD
ATOM     34  O   UNL A   1      42.294  18.319  25.970  1.00  0.00    -0.269 OA
BRANCH  32  35
ATOM     35  C   UNL A   1      42.260  20.603  26.496  1.00  0.00     0.039 A 
ATOM     36  C   UNL A   1      42.335  21.006  27.833  1.00  0.00     0.014 A 
ATOM     37  C   UNL A   1      42.755  21.425  25.480  1.00  0.00     0.014 A 
ATOM     38  C   UNL A   1      42.760  22.294  28.138  1.00  0.00     0.010 A 
ATOM     39  C   UNL A   1      43.247  22.693  25.796  1.00  0.00     0.010 A 
ATOM     40  C   UNL A   1      43.208  23.155  27.122  1.00  0.00    -0.014 A 
BRANCH  40  41
ATOM     41  C   UNL A   1      43.608  24.544  27.458  1.00  0.00     0.031 A 
ATOM     42  C   UNL A   1      42.573  25.562  27.852  1.00  0.00     0.074 A 
ATOM     43  C   UNL A   1      44.913  24.875  27.454  1.00  0.00     0.049 A 
ATOM     44  N   UNL A   1      42.729  26.827  28.151  1.00  0.00    -0.248 NA
ATOM     45  C   UNL A   1      41.178  25.100  27.921  1.00  0.00     0.031 C 
ATOM     46  C   UNL A   1      46.009  23.968  27.118  1.00  0.00     0.029 A 
ATOM     47  N   UNL A   1      45.538  26.056  27.762  1.00  0.00    -0.354 N 
ATOM     48  C   UNL A   1      41.457  27.315  28.422  1.00  0.00     0.074 A 
ATOM     49  C   UNL A   1      40.535  26.216  28.234  1.00  0.00     0.031 C 
ATOM     50  C   UNL A   1      47.175  24.611  27.279  1.00  0.00     0.029 A 
ATOM     51  C   UNL A   1      46.905  25.991  27.671  1.00  0.00     0.049 A 
ATOM     52  H   UNL A   1      45.053  26.872  28.024  1.00  0.00     0.167 HD
ATOM     53  C   UNL A   1      41.097  28.563  28.802  1.00  0.00     0.037 A 
ATOM     54  C   UNL A   1      47.839  26.941  27.867  1.00  0.00     0.037 A 
ATOM     55  C   UNL A   1      42.018  29.650  29.009  1.00  0.00     0.049 A 
ATOM     56  C   UNL A   1      47.407  28.328  28.246  1.00  0.00     0.074 A 
ATOM     57  C   UNL A   1      41.747  30.952  29.395  1.00  0.00     0.029 A 
ATOM     58  N   UNL A   1      43.394  29.557  28.856  1.00  0.00    -0.354 N 
ATOM     59  N   UNL A   1      46.199  28.784  28.472  1.00  0.00    -0.248 NA
ATOM     60  C   UNL A   1      48.466  29.336  28.385  1.00  0.00     0.031 C 
ATOM     61  C   UNL A   1      42.956  31.655  29.445  1.00  0.00     0.029 A 
ATOM     62  C   UNL A   1      43.984  30.782  29.128  1.00  0.00     0.049 A 
ATOM     63  H   UNL A   1      43.880  28.743  28.591  1.00  0.00     0.167 HD
ATOM     64  C   UNL A   1      46.351  30.126  28.785  1.00  0.00     0.074 A 
ATOM     65  C   UNL A   1      47.772  30.407  28.743  1.00  0.00     0.031 C 
ATOM     66  C   UNL A   1      45.398  31.045  29.076  1.00  0.00     0.037 A 
BRANCH  53  67
ATOM     67  C   UNL A   1      39.636  28.835  29.012  1.00  0.00     0.064 A 
ATOM     68  C   UNL A   1      39.036  28.688  30.271  1.00  0.00     0.173 A 
ATOM     69  C   UNL A   1      38.842  29.309  27.956  1.00  0.00     0.173 A 
ATOM     70  F   UNL A   1      39.749  28.224  31.308  1.00  0.00    -0.203 F 
ATOM     71  C   UNL A   1      37.691  28.995  30.463  1.00  0.00     0.198 A 
ATOM     72  C   UNL A   1      37.503  29.636  28.157  1.00  0.00     0.198 A 
ATOM     73  F   UNL A   1      39.370  29.471  26.734  1.00  0.00    -0.203 F 
ATOM     74  F   UNL A   1      37.131  28.819  31.667  1.00  0.00    -0.200 F 
ATOM     75  C   UNL A   1      36.929  29.476  29.408  1.00  0.00     0.200 A 
ATOM     76  F   UNL A   1      36.771  30.112  27.140  1.00  0.00    -0.200 F 
ATOM     77  F   UNL A   1      35.638  29.783  29.599  1.00  0.00    -0.200 F 
ENDBRANCH  53  67
BRANCH  54  78
ATOM     78  C   UNL A   1      49.274  26.600  27.704  1.00  0.00     0.064 A 
ATOM     79  C   UNL A   1      50.088  26.373  28.820  1.00  0.00     0.173 A 
ATOM     80  C   UNL A   1      49.849  26.461  26.432  1.00  0.00     0.173 A 
ATOM     81  F   UNL A   1      49.586  26.515  30.055  1.00  0.00    -0.203 F 
ATOM     82  C   UNL A   1      51.427  26.020  28.671  1.00  0.00     0.198 A 
ATOM     83  C   UNL A   1      51.181  26.083  26.284  1.00  0.00     0.198 A 
ATOM     84  F   UNL A   1      49.108  26.666  25.333  1.00  0.00    -0.203 F 
ATOM     85  F   UNL A   1      52.192  25.832  29.754  1.00  0.00    -0.200 F 
ATOM     86  C   UNL A   1      51.970  25.865  27.404  1.00  0.00     0.200 A 
ATOM     87  F   UNL A   1      51.698  25.921  25.059  1.00  0.00    -0.200 F 
ATOM     88  F   UNL A   1      53.254  25.510  27.262  1.00  0.00    -0.200 F 
ENDBRANCH  54  78
BRANCH  66  89
ATOM     89  C   UNL A   1      45.860  32.438  29.380  1.00  0.00     0.064 A 
ATOM     90  C   UNL A   1      46.167  32.834  30.689  1.00  0.00     0.173 A 
ATOM     91  C   UNL A   1      46.038  33.370  28.348  1.00  0.00     0.173 A 
ATOM     92  F   UNL A   1      45.998  31.981  31.710  1.00  0.00    -0.203 F 
ATOM     93  C   UNL A   1      46.621  34.124  30.957  1.00  0.00     0.198 A 
ATOM     94  C   UNL A   1      46.514  34.651  28.616  1.00  0.00     0.198 A 
ATOM     95  F   UNL A   1      45.761  33.035  27.078  1.00  0.00    -0.203 F 
ATOM     96  F   UNL A   1      46.874  34.494  32.220  1.00  0.00    -0.200 F 
ATOM     97  C   UNL A   1      46.800  35.027  29.919  1.00  0.00     0.200 A 
ATOM     98  F   UNL A   1      46.696  35.520  27.613  1.00  0.00    -0.200 F 
ATOM     99  F   UNL A   1      47.243  36.266  30.178  1.00  0.00    -0.200 F 
ENDBRANCH  66  89
ENDBRANCH  40  41
ENDBRANCH  32  35
ENDBRANCH  30  31
ENDBRANCH  29  30
ENDBRANCH  28  29
ENDBRANCH   1  28
TORSDOF 17
ENDMDL
