MODEL 1
REMARK VINA RESULT:     -12.7      0.000      0.000
REMARK SMILES O=C1NC(=O)/C(=C/c2ccc(OCc3cn(-c4ccc(C(=O)NCCCCCCNC(=O)c5ccc(-c6c7nc(c(-c8c(F)c(F)c(F)c(F)c8F)c8ccc([nH]8)c(-c8c(F)c(F)c(F)c(F)c8F)c8nc(c(-c9c(F)c(F)c(F)c(F)c9F)c9ccc6[nH]9)C=C8)C=C7)cc5)cc4)nn3)cc2)S1
REMARK SMILES IDX 25 1 24 2 23 3 21 4 22 5 20 7 17 8 18 9 97 10 19 11 96 12
REMARK SMILES IDX 16 13 14 14 15 15 99 16 98 17 13 18 12 19 11 20 8 21 9 22
REMARK SMILES IDX 101 23 10 24 100 25 7 26 1 27 2 28 3 29 102 30 4 31 6 33
REMARK SMILES IDX 5 34 26 35 27 36 28 37 29 38 30 39 31 40 32 42 33 43 34 44
REMARK SMILES IDX 95 45 35 46 94 47 36 48 37 49 38 50 88 51 39 52 93 53 87 54
REMARK SMILES IDX 89 55 40 56 92 57 86 58 85 59 41 61 73 62 53 63 72 64 54 65
REMARK SMILES IDX 57 66 71 67 90 68 55 69 56 70 70 72 91 73 58 74 42 75 43 76
REMARK SMILES IDX 51 77 44 78 45 79 49 80 52 81 46 82 47 83 50 84 48 85 74 86
REMARK SMILES IDX 75 87 83 88 76 89 77 90 81 91 84 92 78 93 79 94 82 95 80 96
REMARK SMILES IDX 59 97 60 98 68 99 61 100 62 101 66 102 69 103 63 104 64 105
REMARK SMILES IDX 67 106 65 107
REMARK H PARENT 23 6 3 32 30 41 89 60 57 71
REMARK Flexibility Score: inf
ROOT
ATOM      1  C   UNL A   1      40.195  22.035  26.785  1.00  0.00     0.021 C 
ENDROOT
BRANCH   1   2
ATOM      2  C   UNL A   1      38.913  22.416  26.040  1.00  0.00     0.116 C 
BRANCH   2   3
ATOM      3  N   UNL A   1      38.296  21.223  25.501  1.00  0.00    -0.352 N 
ATOM      4  C   UNL A   1      36.991  20.849  25.318  1.00  0.00     0.251 C 
ATOM      5  O   UNL A   1      36.783  19.714  24.889  1.00  0.00    -0.269 OA
ATOM      6  H   UNL A   1      38.944  20.543  25.206  1.00  0.00     0.163 HD
BRANCH   4   7
ATOM      7  C   UNL A   1      35.842  21.773  25.523  1.00  0.00     0.039 A 
ATOM      8  C   UNL A   1      33.910  23.773  25.835  1.00  0.00     0.066 A 
ATOM      9  C   UNL A   1      34.556  23.618  24.604  1.00  0.00     0.029 A 
ATOM     10  C   UNL A   1      34.159  22.885  26.880  1.00  0.00     0.029 A 
ATOM     11  C   UNL A   1      35.546  22.647  24.467  1.00  0.00     0.016 A 
ATOM     12  C   UNL A   1      35.067  21.842  26.685  1.00  0.00     0.016 A 
BRANCH   8  13
ATOM     13  N   UNL A   1      32.977  24.812  25.997  1.00  0.00    -0.220 N 
ATOM     14  C   UNL A   1      31.919  26.715  26.080  1.00  0.00     0.120 A 
ATOM     15  C   UNL A   1      33.107  26.143  25.675  1.00  0.00     0.144 A 
ATOM     16  N   UNL A   1      31.115  25.726  26.585  1.00  0.00    -0.131 NA
ATOM     17  N   UNL A   1      31.749  24.573  26.494  1.00  0.00    -0.062 NA
BRANCH  14  18
ATOM     18  C   UNL A   1      31.397  28.108  25.941  1.00  0.00     0.289 C 
BRANCH  18  19
ATOM     19  O   UNL A   1      32.358  29.096  25.528  1.00  0.00    -0.487 OA
BRANCH  19  20
ATOM     20  C   UNL A   1      32.490  30.235  26.275  1.00  0.00     0.119 A 
ATOM     21  C   UNL A   1      32.659  32.787  27.443  1.00  0.00    -0.024 A 
ATOM     22  C   UNL A   1      31.488  32.388  26.795  1.00  0.00     0.012 A 
ATOM     23  C   UNL A   1      33.699  31.867  27.590  1.00  0.00     0.012 A 
ATOM     24  C   UNL A   1      31.411  31.118  26.207  1.00  0.00     0.047 A 
ATOM     25  C   UNL A   1      33.597  30.588  27.041  1.00  0.00     0.047 A 
BRANCH  21  26
ATOM     26  C   UNL A   1      32.797  34.141  27.985  1.00  0.00     0.029 C 
ATOM     27  O   UNL A   1      35.278  34.617  32.349  1.00  0.00    -0.261 OA
ATOM     28  C   UNL A   1      34.642  34.739  31.303  1.00  0.00     0.290 C 
ATOM     29  N   UNL A   1      34.112  35.890  30.836  1.00  0.00    -0.282 N 
ATOM     30  S   UNL A   1      34.299  33.427  30.198  1.00  0.00    -0.022 SA
ATOM     31  C   UNL A   1      33.439  35.851  29.649  1.00  0.00     0.265 C 
ATOM     32  H   UNL A   1      34.207  36.732  31.337  1.00  0.00     0.174 HD
ATOM     33  C   UNL A   1      33.429  34.460  29.124  1.00  0.00     0.083 C 
ATOM     34  O   UNL A   1      32.916  36.812  29.114  1.00  0.00    -0.268 OA
ENDBRANCH  21  26
ENDBRANCH  19  20
ENDBRANCH  18  19
ENDBRANCH  14  18
ENDBRANCH   8  13
ENDBRANCH   4   7
ENDBRANCH   2   3
ENDBRANCH   1   2
BRANCH   1  35
ATOM     35  C   UNL A   1      40.621  20.586  26.516  1.00  0.00     0.002 C 
BRANCH  35  36
ATOM     36  C   UNL A   1      41.708  20.043  27.462  1.00  0.00     0.002 C 
BRANCH  36  37
ATOM     37  C   UNL A   1      42.733  19.085  26.831  1.00  0.00     0.021 C 
BRANCH  37  38
ATOM     38  C   UNL A   1      42.654  19.043  25.316  1.00  0.00     0.116 C 
BRANCH  38  39
ATOM     39  N   UNL A   1      43.986  19.074  24.696  1.00  0.00    -0.352 N 
ATOM     40  C   UNL A   1      44.761  20.154  24.314  1.00  0.00     0.251 C 
ATOM     41  H   UNL A   1      44.389  18.192  24.528  1.00  0.00     0.163 HD
ATOM     42  O   UNL A   1      45.657  20.030  23.487  1.00  0.00    -0.269 OA
BRANCH  40  43
ATOM     43  C   UNL A   1      44.507  21.458  24.944  1.00  0.00     0.039 A 
ATOM     44  C   UNL A   1      43.526  22.354  24.505  1.00  0.00     0.014 A 
ATOM     45  C   UNL A   1      45.284  21.755  26.049  1.00  0.00     0.014 A 
ATOM     46  C   UNL A   1      43.363  23.547  25.208  1.00  0.00     0.010 A 
ATOM     47  C   UNL A   1      44.850  22.699  26.920  1.00  0.00     0.010 A 
ATOM     48  C   UNL A   1      44.061  23.708  26.410  1.00  0.00    -0.014 A 
BRANCH  48  49
ATOM     49  C   UNL A   1      43.991  24.886  27.249  1.00  0.00     0.031 A 
ATOM     50  C   UNL A   1      45.003  25.903  26.906  1.00  0.00     0.074 A 
ATOM     51  C   UNL A   1      42.900  25.145  28.008  1.00  0.00     0.049 A 
ATOM     52  N   UNL A   1      46.042  26.229  27.596  1.00  0.00    -0.248 NA
ATOM     53  C   UNL A   1      44.976  26.484  25.553  1.00  0.00     0.031 C 
ATOM     54  C   UNL A   1      41.650  24.378  28.121  1.00  0.00     0.029 A 
ATOM     55  N   UNL A   1      42.633  26.250  28.756  1.00  0.00    -0.354 N 
ATOM     56  C   UNL A   1      46.670  27.231  26.866  1.00  0.00     0.074 A 
ATOM     57  C   UNL A   1      46.135  27.146  25.535  1.00  0.00     0.031 C 
ATOM     58  C   UNL A   1      40.695  25.145  28.696  1.00  0.00     0.029 A 
ATOM     59  C   UNL A   1      41.293  26.396  29.117  1.00  0.00     0.049 A 
ATOM     60  H   UNL A   1      43.330  26.895  29.020  1.00  0.00     0.167 HD
ATOM     61  C   UNL A   1      47.342  28.232  27.500  1.00  0.00     0.037 A 
ATOM     62  C   UNL A   1      40.747  27.519  29.653  1.00  0.00     0.037 A 
ATOM     63  C   UNL A   1      47.556  27.894  28.890  1.00  0.00     0.049 A 
ATOM     64  C   UNL A   1      41.878  28.334  30.190  1.00  0.00     0.074 A 
ATOM     65  C   UNL A   1      48.157  26.829  29.539  1.00  0.00     0.029 A 
ATOM     66  N   UNL A   1      46.738  28.482  29.827  1.00  0.00    -0.354 N 
ATOM     67  N   UNL A   1      42.614  27.961  31.204  1.00  0.00    -0.248 NA
ATOM     68  C   UNL A   1      42.513  29.271  29.270  1.00  0.00     0.031 C 
ATOM     69  C   UNL A   1      47.281  26.526  30.626  1.00  0.00     0.029 A 
ATOM     70  C   UNL A   1      46.269  27.485  30.645  1.00  0.00     0.049 A 
ATOM     71  H   UNL A   1      46.527  29.441  29.898  1.00  0.00     0.167 HD
ATOM     72  C   UNL A   1      43.917  28.256  30.822  1.00  0.00     0.074 A 
ATOM     73  C   UNL A   1      43.787  29.108  29.642  1.00  0.00     0.031 C 
ATOM     74  C   UNL A   1      44.978  27.533  31.291  1.00  0.00     0.037 A 
BRANCH  61  75
ATOM     75  C   UNL A   1      47.440  29.656  27.003  1.00  0.00     0.064 A 
ATOM     76  C   UNL A   1      48.677  30.320  27.122  1.00  0.00     0.173 A 
ATOM     77  C   UNL A   1      46.338  30.485  26.694  1.00  0.00     0.173 A 
ATOM     78  F   UNL A   1      49.795  29.636  27.409  1.00  0.00    -0.203 F 
ATOM     79  C   UNL A   1      48.781  31.711  27.050  1.00  0.00     0.198 A 
ATOM     80  C   UNL A   1      46.457  31.868  26.567  1.00  0.00     0.198 A 
ATOM     81  F   UNL A   1      45.086  30.027  26.610  1.00  0.00    -0.203 F 
ATOM     82  F   UNL A   1      49.954  32.303  27.311  1.00  0.00    -0.200 F 
ATOM     83  C   UNL A   1      47.668  32.485  26.783  1.00  0.00     0.200 A 
ATOM     84  F   UNL A   1      45.361  32.599  26.317  1.00  0.00    -0.200 F 
ATOM     85  F   UNL A   1      47.749  33.821  26.779  1.00  0.00    -0.200 F 
ENDBRANCH  61  75
BRANCH  62  86
ATOM     86  C   UNL A   1      39.390  28.080  29.422  1.00  0.00     0.064 A 
ATOM     87  C   UNL A   1      38.484  28.272  30.480  1.00  0.00     0.173 A 
ATOM     88  C   UNL A   1      39.048  28.689  28.198  1.00  0.00     0.173 A 
ATOM     89  F   UNL A   1      38.752  27.773  31.696  1.00  0.00    -0.203 F 
ATOM     90  C   UNL A   1      37.319  29.038  30.325  1.00  0.00     0.198 A 
ATOM     91  C   UNL A   1      37.884  29.446  28.042  1.00  0.00     0.198 A 
ATOM     92  F   UNL A   1      39.884  28.644  27.151  1.00  0.00    -0.203 F 
ATOM     93  F   UNL A   1      36.509  29.245  31.373  1.00  0.00    -0.200 F 
ATOM     94  C   UNL A   1      37.026  29.631  29.108  1.00  0.00     0.200 A 
ATOM     95  F   UNL A   1      37.638  30.048  26.870  1.00  0.00    -0.200 F 
ATOM     96  F   UNL A   1      35.945  30.412  28.975  1.00  0.00    -0.200 F 
ENDBRANCH  62  86
BRANCH  74  97
ATOM     97  C   UNL A   1      44.750  26.553  32.410  1.00  0.00     0.064 A 
ATOM     98  C   UNL A   1      44.449  25.191  32.226  1.00  0.00     0.173 A 
ATOM     99  C   UNL A   1      45.020  26.976  33.718  1.00  0.00     0.173 A 
ATOM    100  F   UNL A   1      44.287  24.679  31.001  1.00  0.00    -0.203 F 
ATOM    101  C   UNL A   1      44.376  24.312  33.307  1.00  0.00     0.198 A 
ATOM    102  C   UNL A   1      44.986  26.088  34.790  1.00  0.00     0.198 A 
ATOM    103  F   UNL A   1      45.372  28.250  33.952  1.00  0.00    -0.203 F 
ATOM    104  F   UNL A   1      44.078  23.020  33.102  1.00  0.00    -0.200 F 
ATOM    105  C   UNL A   1      44.654  24.760  34.587  1.00  0.00     0.200 A 
ATOM    106  F   UNL A   1      45.310  26.518  36.018  1.00  0.00    -0.200 F 
ATOM    107  F   UNL A   1      44.628  23.907  35.621  1.00  0.00    -0.200 F 
ENDBRANCH  74  97
ENDBRANCH  48  49
ENDBRANCH  40  43
ENDBRANCH  38  39
ENDBRANCH  37  38
ENDBRANCH  36  37
ENDBRANCH  35  36
ENDBRANCH   1  35
TORSDOF 18
ENDMDL
MODEL 2
REMARK VINA RESULT:     -12.2      4.103      7.065
REMARK SMILES O=C1NC(=O)/C(=C/c2ccc(OCc3cn(-c4ccc(C(=O)NCCCCCCNC(=O)c5ccc(-c6c7nc(c(-c8c(F)c(F)c(F)c(F)c8F)c8ccc([nH]8)c(-c8c(F)c(F)c(F)c(F)c8F)c8nc(c(-c9c(F)c(F)c(F)c(F)c9F)c9ccc6[nH]9)C=C8)C=C7)cc5)cc4)nn3)cc2)S1
REMARK SMILES IDX 25 1 24 2 23 3 21 4 22 5 20 7 17 8 18 9 97 10 19 11 96 12
REMARK SMILES IDX 16 13 14 14 15 15 99 16 98 17 13 18 12 19 11 20 8 21 9 22
REMARK SMILES IDX 101 23 10 24 100 25 7 26 1 27 2 28 3 29 102 30 4 31 6 33
REMARK SMILES IDX 5 34 26 35 27 36 28 37 29 38 30 39 31 40 32 42 33 43 34 44
REMARK SMILES IDX 95 45 35 46 94 47 36 48 37 49 38 50 88 51 39 52 93 53 87 54
REMARK SMILES IDX 89 55 40 56 92 57 86 58 85 59 41 61 73 62 53 63 72 64 54 65
REMARK SMILES IDX 57 66 71 67 90 68 55 69 56 70 70 72 91 73 58 74 42 75 43 76
REMARK SMILES IDX 51 77 44 78 45 79 49 80 52 81 46 82 47 83 50 84 48 85 74 86
REMARK SMILES IDX 75 87 83 88 76 89 77 90 81 91 84 92 78 93 79 94 82 95 80 96
REMARK SMILES IDX 59 97 60 98 68 99 61 100 62 101 66 102 69 103 63 104 64 105
REMARK SMILES IDX 67 106 65 107
REMARK H PARENT 23 6 3 32 30 41 89 60 57 71
REMARK Flexibility Score: inf
ROOT
ATOM      1  C   UNL A   1      43.630  25.517  25.324  1.00  0.00     0.021 C 
ENDROOT
BRANCH   1   2
ATOM      2  C   UNL A   1      43.543  24.002  25.126  1.00  0.00     0.116 C 
BRANCH   2   3
ATOM      3  N   UNL A   1      43.666  23.340  26.407  1.00  0.00    -0.352 N 
ATOM      4  C   UNL A   1      42.748  22.911  27.329  1.00  0.00     0.251 C 
ATOM      5  O   UNL A   1      43.180  22.435  28.378  1.00  0.00    -0.269 OA
ATOM      6  H   UNL A   1      44.598  23.161  26.670  1.00  0.00     0.163 HD
BRANCH   4   7
ATOM      7  C   UNL A   1      41.281  22.913  27.077  1.00  0.00     0.039 A 
ATOM      8  C   UNL A   1      38.602  22.822  26.272  1.00  0.00     0.066 A 
ATOM      9  C   UNL A   1      39.391  21.670  26.189  1.00  0.00     0.029 A 
ATOM     10  C   UNL A   1      39.116  23.991  26.832  1.00  0.00     0.029 A 
ATOM     11  C   UNL A   1      40.735  21.731  26.554  1.00  0.00     0.016 A 
ATOM     12  C   UNL A   1      40.430  23.999  27.304  1.00  0.00     0.016 A 
BRANCH   8  13
ATOM     13  N   UNL A   1      37.273  22.780  25.818  1.00  0.00    -0.220 N 
ATOM     14  C   UNL A   1      35.214  23.211  25.248  1.00  0.00     0.120 A 
ATOM     15  C   UNL A   1      36.372  23.813  25.695  1.00  0.00     0.144 A 
ATOM     16  N   UNL A   1      35.461  21.872  25.083  1.00  0.00    -0.131 NA
ATOM     17  N   UNL A   1      36.719  21.629  25.394  1.00  0.00    -0.062 NA
BRANCH  14  18
ATOM     18  C   UNL A   1      33.897  23.786  24.842  1.00  0.00     0.289 C 
BRANCH  18  19
ATOM     19  O   UNL A   1      33.943  24.770  23.793  1.00  0.00    -0.487 OA
BRANCH  19  20
ATOM     20  C   UNL A   1      32.848  25.567  23.594  1.00  0.00     0.119 A 
ATOM     21  C   UNL A   1      30.392  26.927  23.449  1.00  0.00    -0.024 A 
ATOM     22  C   UNL A   1      30.988  26.685  24.689  1.00  0.00     0.012 A 
ATOM     23  C   UNL A   1      31.080  26.577  22.286  1.00  0.00     0.012 A 
ATOM     24  C   UNL A   1      32.207  25.999  24.757  1.00  0.00     0.047 A 
ATOM     25  C   UNL A   1      32.317  25.935  22.361  1.00  0.00     0.047 A 
BRANCH  21  26
ATOM     26  C   UNL A   1      29.074  27.560  23.357  1.00  0.00     0.029 C 
ATOM     27  O   UNL A   1      28.933  32.325  21.715  1.00  0.00    -0.261 OA
ATOM     28  C   UNL A   1      28.729  31.189  22.139  1.00  0.00     0.290 C 
ATOM     29  N   UNL A   1      27.531  30.697  22.523  1.00  0.00    -0.282 N 
ATOM     30  S   UNL A   1      29.968  29.969  22.326  1.00  0.00    -0.022 SA
ATOM     31  C   UNL A   1      27.479  29.406  22.964  1.00  0.00     0.265 C 
ATOM     32  H   UNL A   1      26.720  31.253  22.487  1.00  0.00     0.174 HD
ATOM     33  C   UNL A   1      28.842  28.812  22.935  1.00  0.00     0.083 C 
ATOM     34  O   UNL A   1      26.468  28.839  23.336  1.00  0.00    -0.268 OA
ENDBRANCH  21  26
ENDBRANCH  19  20
ENDBRANCH  18  19
ENDBRANCH  14  18
ENDBRANCH   8  13
ENDBRANCH   4   7
ENDBRANCH   2   3
ENDBRANCH   1   2
BRANCH   1  35
ATOM     35  C   UNL A   1      45.073  26.035  25.262  1.00  0.00     0.002 C 
BRANCH  35  36
ATOM     36  C   UNL A   1      45.680  26.430  26.620  1.00  0.00     0.002 C 
BRANCH  36  37
ATOM     37  C   UNL A   1      46.489  25.338  27.340  1.00  0.00     0.021 C 
BRANCH  37  38
ATOM     38  C   UNL A   1      46.553  25.538  28.844  1.00  0.00     0.116 C 
BRANCH  38  39
ATOM     39  N   UNL A   1      45.747  24.542  29.564  1.00  0.00    -0.352 N 
ATOM     40  C   UNL A   1      44.618  24.712  30.345  1.00  0.00     0.251 C 
ATOM     41  H   UNL A   1      46.057  23.612  29.476  1.00  0.00     0.163 HD
ATOM     42  O   UNL A   1      44.285  23.869  31.169  1.00  0.00    -0.269 OA
BRANCH  40  43
ATOM     43  C   UNL A   1      43.803  25.920  30.149  1.00  0.00     0.039 A 
ATOM     44  C   UNL A   1      42.895  26.082  29.097  1.00  0.00     0.014 A 
ATOM     45  C   UNL A   1      43.954  26.910  31.104  1.00  0.00     0.014 A 
ATOM     46  C   UNL A   1      42.158  27.263  29.040  1.00  0.00     0.010 A 
ATOM     47  C   UNL A   1      42.975  27.836  31.247  1.00  0.00     0.010 A 
ATOM     48  C   UNL A   1      42.235  28.144  30.124  1.00  0.00    -0.014 A 
BRANCH  48  49
ATOM     49  C   UNL A   1      41.527  29.405  30.210  1.00  0.00     0.031 A 
ATOM     50  C   UNL A   1      42.312  30.546  29.702  1.00  0.00     0.074 A 
ATOM     51  C   UNL A   1      40.189  29.448  30.406  1.00  0.00     0.049 A 
ATOM     52  N   UNL A   1      42.836  31.499  30.393  1.00  0.00    -0.248 NA
ATOM     53  C   UNL A   1      42.738  30.525  28.292  1.00  0.00     0.031 C 
ATOM     54  C   UNL A   1      39.237  28.334  30.536  1.00  0.00     0.029 A 
ATOM     55  N   UNL A   1      39.367  30.533  30.399  1.00  0.00    -0.354 N 
ATOM     56  C   UNL A   1      43.459  32.327  29.468  1.00  0.00     0.074 A 
ATOM     57  C   UNL A   1      43.593  31.549  28.267  1.00  0.00     0.031 C 
ATOM     58  C   UNL A   1      37.975  28.789  30.364  1.00  0.00     0.029 A 
ATOM     59  C   UNL A   1      38.011  30.234  30.254  1.00  0.00     0.049 A 
ATOM     60  H   UNL A   1      39.702  31.455  30.488  1.00  0.00     0.167 HD
ATOM     61  C   UNL A   1      43.527  33.671  29.677  1.00  0.00     0.037 A 
ATOM     62  C   UNL A   1      37.036  31.141  29.987  1.00  0.00     0.037 A 
ATOM     63  C   UNL A   1      43.189  33.987  31.048  1.00  0.00     0.049 A 
ATOM     64  C   UNL A   1      37.590  32.484  30.335  1.00  0.00     0.074 A 
ATOM     65  C   UNL A   1      43.683  33.583  32.276  1.00  0.00     0.029 A 
ATOM     66  N   UNL A   1      41.931  34.482  31.301  1.00  0.00    -0.354 N 
ATOM     67  N   UNL A   1      37.877  32.847  31.557  1.00  0.00    -0.248 NA
ATOM     68  C   UNL A   1      38.317  33.191  29.288  1.00  0.00     0.031 C 
ATOM     69  C   UNL A   1      42.523  33.366  33.080  1.00  0.00     0.029 A 
ATOM     70  C   UNL A   1      41.407  33.755  32.341  1.00  0.00     0.049 A 
ATOM     71  H   UNL A   1      41.488  35.221  30.825  1.00  0.00     0.167 HD
ATOM     72  C   UNL A   1      39.103  33.492  31.455  1.00  0.00     0.074 A 
ATOM     73  C   UNL A   1      39.300  33.718  30.025  1.00  0.00     0.031 C 
ATOM     74  C   UNL A   1      39.993  33.498  32.493  1.00  0.00     0.037 A 
BRANCH  61  75
ATOM     75  C   UNL A   1      43.488  34.719  28.587  1.00  0.00     0.064 A 
ATOM     76  C   UNL A   1      44.712  35.201  28.081  1.00  0.00     0.173 A 
ATOM     77  C   UNL A   1      42.348  35.472  28.227  1.00  0.00     0.173 A 
ATOM     78  F   UNL A   1      45.861  34.565  28.353  1.00  0.00    -0.203 F 
ATOM     79  C   UNL A   1      44.799  36.399  27.369  1.00  0.00     0.198 A 
ATOM     80  C   UNL A   1      42.433  36.638  27.468  1.00  0.00     0.198 A 
ATOM     81  F   UNL A   1      41.121  35.191  28.675  1.00  0.00    -0.203 F 
ATOM     82  F   UNL A   1      46.001  36.886  27.034  1.00  0.00    -0.200 F 
ATOM     83  C   UNL A   1      43.660  37.122  27.073  1.00  0.00     0.200 A 
ATOM     84  F   UNL A   1      41.316  37.328  27.201  1.00  0.00    -0.200 F 
ATOM     85  F   UNL A   1      43.744  38.304  26.450  1.00  0.00    -0.200 F 
ENDBRANCH  61  75
BRANCH  62  86
ATOM     86  C   UNL A   1      35.824  30.964  29.144  1.00  0.00     0.064 A 
ATOM     87  C   UNL A   1      34.830  31.955  29.067  1.00  0.00     0.173 A 
ATOM     88  C   UNL A   1      35.742  29.931  28.188  1.00  0.00     0.173 A 
ATOM     89  F   UNL A   1      34.859  33.004  29.903  1.00  0.00    -0.203 F 
ATOM     90  C   UNL A   1      33.830  31.923  28.085  1.00  0.00     0.198 A 
ATOM     91  C   UNL A   1      34.741  29.896  27.214  1.00  0.00     0.198 A 
ATOM     92  F   UNL A   1      36.688  28.985  28.116  1.00  0.00    -0.203 F 
ATOM     93  F   UNL A   1      32.934  32.918  28.009  1.00  0.00    -0.200 F 
ATOM     94  C   UNL A   1      33.792  30.898  27.155  1.00  0.00     0.200 A 
ATOM     95  F   UNL A   1      34.744  28.919  26.296  1.00  0.00    -0.200 F 
ATOM     96  F   UNL A   1      32.872  30.897  26.180  1.00  0.00    -0.200 F 
ENDBRANCH  62  86
BRANCH  74  97
ATOM     97  C   UNL A   1      39.543  32.996  33.838  1.00  0.00     0.064 A 
ATOM     98  C   UNL A   1      39.674  31.665  34.275  1.00  0.00     0.173 A 
ATOM     99  C   UNL A   1      39.121  33.940  34.784  1.00  0.00     0.173 A 
ATOM    100  F   UNL A   1      40.175  30.720  33.471  1.00  0.00    -0.203 F 
ATOM    101  C   UNL A   1      39.353  31.295  35.581  1.00  0.00     0.198 A 
ATOM    102  C   UNL A   1      38.840  33.576  36.098  1.00  0.00     0.198 A 
ATOM    103  F   UNL A   1      39.034  35.235  34.445  1.00  0.00    -0.203 F 
ATOM    104  F   UNL A   1      39.479  30.017  35.967  1.00  0.00    -0.200 F 
ATOM    105  C   UNL A   1      38.945  32.253  36.494  1.00  0.00     0.200 A 
ATOM    106  F   UNL A   1      38.499  34.517  36.989  1.00  0.00    -0.200 F 
ATOM    107  F   UNL A   1      38.678  31.907  37.761  1.00  0.00    -0.200 F 
ENDBRANCH  74  97
ENDBRANCH  48  49
ENDBRANCH  40  43
ENDBRANCH  38  39
ENDBRANCH  37  38
ENDBRANCH  36  37
ENDBRANCH  35  36
ENDBRANCH   1  35
TORSDOF 18
ENDMDL
MODEL 3
REMARK VINA RESULT:     -12.1      3.278     10.066
REMARK SMILES O=C1NC(=O)/C(=C/c2ccc(OCc3cn(-c4ccc(C(=O)NCCCCCCNC(=O)c5ccc(-c6c7nc(c(-c8c(F)c(F)c(F)c(F)c8F)c8ccc([nH]8)c(-c8c(F)c(F)c(F)c(F)c8F)c8nc(c(-c9c(F)c(F)c(F)c(F)c9F)c9ccc6[nH]9)C=C8)C=C7)cc5)cc4)nn3)cc2)S1
REMARK SMILES IDX 25 1 24 2 23 3 21 4 22 5 20 7 17 8 18 9 97 10 19 11 96 12
REMARK SMILES IDX 16 13 14 14 15 15 99 16 98 17 13 18 12 19 11 20 8 21 9 22
REMARK SMILES IDX 101 23 10 24 100 25 7 26 1 27 2 28 3 29 102 30 4 31 6 33
REMARK SMILES IDX 5 34 26 35 27 36 28 37 29 38 30 39 31 40 32 42 33 43 34 44
REMARK SMILES IDX 95 45 35 46 94 47 36 48 37 49 38 50 88 51 39 52 93 53 87 54
REMARK SMILES IDX 89 55 40 56 92 57 86 58 85 59 41 61 73 62 53 63 72 64 54 65
REMARK SMILES IDX 57 66 71 67 90 68 55 69 56 70 70 72 91 73 58 74 42 75 43 76
REMARK SMILES IDX 51 77 44 78 45 79 49 80 52 81 46 82 47 83 50 84 48 85 74 86
REMARK SMILES IDX 75 87 83 88 76 89 77 90 81 91 84 92 78 93 79 94 82 95 80 96
REMARK SMILES IDX 59 97 60 98 68 99 61 100 62 101 66 102 69 103 63 104 64 105
REMARK SMILES IDX 67 106 65 107
REMARK H PARENT 23 6 3 32 30 41 89 60 57 71
REMARK Flexibility Score: inf
ROOT
ATOM      1  C   UNL A   1      35.748  32.869  33.610  1.00  0.00     0.021 C 
ENDROOT
BRANCH   1   2
ATOM      2  C   UNL A   1      35.678  32.402  32.154  1.00  0.00     0.116 C 
BRANCH   2   3
ATOM      3  N   UNL A   1      36.466  33.289  31.325  1.00  0.00    -0.352 N 
ATOM      4  C   UNL A   1      36.694  33.349  29.976  1.00  0.00     0.251 C 
ATOM      5  O   UNL A   1      37.487  34.199  29.573  1.00  0.00    -0.269 OA
ATOM      6  H   UNL A   1      36.932  33.993  31.833  1.00  0.00     0.163 HD
BRANCH   4   7
ATOM      7  C   UNL A   1      35.964  32.506  28.989  1.00  0.00     0.039 A 
ATOM      8  C   UNL A   1      34.333  30.903  27.376  1.00  0.00     0.066 A 
ATOM      9  C   UNL A   1      33.874  32.155  27.799  1.00  0.00     0.029 A 
ATOM     10  C   UNL A   1      35.628  30.485  27.680  1.00  0.00     0.029 A 
ATOM     11  C   UNL A   1      34.674  32.931  28.636  1.00  0.00     0.016 A 
ATOM     12  C   UNL A   1      36.459  31.330  28.418  1.00  0.00     0.016 A 
BRANCH   8  13
ATOM     13  N   UNL A   1      33.488  30.084  26.608  1.00  0.00    -0.220 N 
ATOM     14  C   UNL A   1      32.621  28.621  25.244  1.00  0.00     0.120 A 
ATOM     15  C   UNL A   1      33.824  29.042  25.774  1.00  0.00     0.144 A 
ATOM     16  N   UNL A   1      31.620  29.380  25.794  1.00  0.00    -0.131 NA
ATOM     17  N   UNL A   1      32.150  30.235  26.645  1.00  0.00    -0.062 NA
BRANCH  14  18
ATOM     18  C   UNL A   1      32.288  27.482  24.338  1.00  0.00     0.289 C 
BRANCH  18  19
ATOM     19  O   UNL A   1      31.841  26.278  24.989  1.00  0.00    -0.487 OA
BRANCH  19  20
ATOM     20  C   UNL A   1      32.686  25.202  25.028  1.00  0.00     0.119 A 
ATOM     21  C   UNL A   1      34.145  22.807  24.827  1.00  0.00    -0.024 A 
ATOM     22  C   UNL A   1      33.841  23.542  23.679  1.00  0.00     0.012 A 
ATOM     23  C   UNL A   1      33.805  23.330  26.076  1.00  0.00     0.012 A 
ATOM     24  C   UNL A   1      33.106  24.730  23.783  1.00  0.00     0.047 A 
ATOM     25  C   UNL A   1      33.113  24.538  26.174  1.00  0.00     0.047 A 
BRANCH  21  26
ATOM     26  C   UNL A   1      34.831  21.516  24.736  1.00  0.00     0.029 C 
ATOM     27  O   UNL A   1      31.991  17.376  25.195  1.00  0.00    -0.261 OA
ATOM     28  C   UNL A   1      32.867  18.229  25.066  1.00  0.00     0.290 C 
ATOM     29  N   UNL A   1      34.192  17.987  24.963  1.00  0.00    -0.282 N 
ATOM     30  S   UNL A   1      32.562  19.950  24.985  1.00  0.00    -0.022 SA
ATOM     31  C   UNL A   1      35.030  19.055  24.817  1.00  0.00     0.265 C 
ATOM     32  H   UNL A   1      34.543  17.068  24.994  1.00  0.00     0.174 HD
ATOM     33  C   UNL A   1      34.242  20.316  24.825  1.00  0.00     0.083 C 
ATOM     34  O   UNL A   1      36.240  18.979  24.711  1.00  0.00    -0.268 OA
ENDBRANCH  21  26
ENDBRANCH  19  20
ENDBRANCH  18  19
ENDBRANCH  14  18
ENDBRANCH   8  13
ENDBRANCH   4   7
ENDBRANCH   2   3
ENDBRANCH   1   2
BRANCH   1  35
ATOM     35  C   UNL A   1      37.183  32.897  34.150  1.00  0.00     0.002 C 
BRANCH  35  36
ATOM     36  C   UNL A   1      37.685  34.284  34.590  1.00  0.00     0.002 C 
BRANCH  36  37
ATOM     37  C   UNL A   1      39.022  34.741  33.983  1.00  0.00     0.021 C 
BRANCH  37  38
ATOM     38  C   UNL A   1      39.567  33.774  32.946  1.00  0.00     0.116 C 
BRANCH  38  39
ATOM     39  N   UNL A   1      39.816  34.435  31.658  1.00  0.00    -0.352 N 
ATOM     40  C   UNL A   1      40.607  34.036  30.595  1.00  0.00     0.251 C 
ATOM     41  H   UNL A   1      39.349  35.292  31.530  1.00  0.00     0.163 HD
ATOM     42  O   UNL A   1      41.010  34.844  29.767  1.00  0.00    -0.269 OA
BRANCH  40  43
ATOM     43  C   UNL A   1      40.934  32.609  30.460  1.00  0.00     0.039 A 
ATOM     44  C   UNL A   1      39.992  31.622  30.153  1.00  0.00     0.014 A 
ATOM     45  C   UNL A   1      42.269  32.280  30.621  1.00  0.00     0.014 A 
ATOM     46  C   UNL A   1      40.436  30.307  30.021  1.00  0.00     0.010 A 
ATOM     47  C   UNL A   1      42.720  31.108  30.111  1.00  0.00     0.010 A 
ATOM     48  C   UNL A   1      41.815  30.070  30.029  1.00  0.00    -0.014 A 
BRANCH  48  49
ATOM     49  C   UNL A   1      42.424  28.763  29.899  1.00  0.00     0.031 A 
ATOM     50  C   UNL A   1      42.901  28.216  31.184  1.00  0.00     0.074 A 
ATOM     51  C   UNL A   1      42.247  28.010  28.789  1.00  0.00     0.049 A 
ATOM     52  N   UNL A   1      44.125  28.069  31.560  1.00  0.00    -0.248 NA
ATOM     53  C   UNL A   1      41.915  27.994  32.255  1.00  0.00     0.031 C 
ATOM     54  C   UNL A   1      41.450  28.309  27.589  1.00  0.00     0.029 A 
ATOM     55  N   UNL A   1      42.653  26.733  28.558  1.00  0.00    -0.354 N 
ATOM     56  C   UNL A   1      44.056  27.511  32.831  1.00  0.00     0.074 A 
ATOM     57  C   UNL A   1      42.715  27.742  33.293  1.00  0.00     0.031 C 
ATOM     58  C   UNL A   1      41.247  27.173  26.881  1.00  0.00     0.029 A 
ATOM     59  C   UNL A   1      42.009  26.102  27.492  1.00  0.00     0.049 A 
ATOM     60  H   UNL A   1      43.344  26.287  29.101  1.00  0.00     0.167 HD
ATOM     61  C   UNL A   1      45.014  26.642  33.258  1.00  0.00     0.037 A 
ATOM     62  C   UNL A   1      42.071  24.772  27.219  1.00  0.00     0.037 A 
ATOM     63  C   UNL A   1      46.165  26.688  32.382  1.00  0.00     0.049 A 
ATOM     64  C   UNL A   1      43.264  24.240  27.942  1.00  0.00     0.074 A 
ATOM     65  C   UNL A   1      47.008  27.699  31.956  1.00  0.00     0.029 A 
ATOM     66  N   UNL A   1      46.314  25.673  31.465  1.00  0.00    -0.354 N 
ATOM     67  N   UNL A   1      44.493  24.567  27.640  1.00  0.00    -0.248 NA
ATOM     68  C   UNL A   1      43.059  23.788  29.314  1.00  0.00     0.031 C 
ATOM     69  C   UNL A   1      47.196  27.453  30.562  1.00  0.00     0.029 A 
ATOM     70  C   UNL A   1      46.556  26.255  30.246  1.00  0.00     0.049 A 
ATOM     71  H   UNL A   1      46.258  24.708  31.650  1.00  0.00     0.167 HD
ATOM     72  C   UNL A   1      45.112  24.784  28.864  1.00  0.00     0.074 A 
ATOM     73  C   UNL A   1      44.192  24.238  29.861  1.00  0.00     0.031 C 
ATOM     74  C   UNL A   1      46.151  25.663  28.992  1.00  0.00     0.037 A 
BRANCH  61  75
ATOM     75  C   UNL A   1      44.771  25.477  34.190  1.00  0.00     0.064 A 
ATOM     76  C   UNL A   1      45.402  25.487  35.450  1.00  0.00     0.173 A 
ATOM     77  C   UNL A   1      44.202  24.240  33.811  1.00  0.00     0.173 A 
ATOM     78  F   UNL A   1      45.974  26.607  35.919  1.00  0.00    -0.203 F 
ATOM     79  C   UNL A   1      45.550  24.328  36.214  1.00  0.00     0.198 A 
ATOM     80  C   UNL A   1      44.303  23.098  34.603  1.00  0.00     0.198 A 
ATOM     81  F   UNL A   1      43.625  24.041  32.623  1.00  0.00    -0.203 F 
ATOM     82  F   UNL A   1      46.281  24.361  37.336  1.00  0.00    -0.200 F 
ATOM     83  C   UNL A   1      45.009  23.131  35.784  1.00  0.00     0.200 A 
ATOM     84  F   UNL A   1      43.780  21.946  34.161  1.00  0.00    -0.200 F 
ATOM     85  F   UNL A   1      45.206  22.004  36.479  1.00  0.00    -0.200 F 
ENDBRANCH  61  75
BRANCH  62  86
ATOM     86  C   UNL A   1      40.998  23.896  26.679  1.00  0.00     0.064 A 
ATOM     87  C   UNL A   1      41.245  22.553  26.344  1.00  0.00     0.173 A 
ATOM     88  C   UNL A   1      39.643  24.280  26.732  1.00  0.00     0.173 A 
ATOM     89  F   UNL A   1      42.502  22.085  26.320  1.00  0.00    -0.203 F 
ATOM     90  C   UNL A   1      40.201  21.651  26.093  1.00  0.00     0.198 A 
ATOM     91  C   UNL A   1      38.604  23.382  26.475  1.00  0.00     0.198 A 
ATOM     92  F   UNL A   1      39.293  25.512  27.128  1.00  0.00    -0.203 F 
ATOM     93  F   UNL A   1      40.476  20.364  25.832  1.00  0.00    -0.200 F 
ATOM     94  C   UNL A   1      38.882  22.065  26.168  1.00  0.00     0.200 A 
ATOM     95  F   UNL A   1      37.332  23.791  26.594  1.00  0.00    -0.200 F 
ATOM     96  F   UNL A   1      37.883  21.191  25.987  1.00  0.00    -0.200 F 
ENDBRANCH  62  86
BRANCH  74  97
ATOM     97  C   UNL A   1      46.777  26.230  27.747  1.00  0.00     0.064 A 
ATOM     98  C   UNL A   1      46.386  27.436  27.139  1.00  0.00     0.173 A 
ATOM     99  C   UNL A   1      47.935  25.613  27.255  1.00  0.00     0.173 A 
ATOM    100  F   UNL A   1      45.359  28.149  27.615  1.00  0.00    -0.203 F 
ATOM    101  C   UNL A   1      47.094  27.969  26.061  1.00  0.00     0.198 A 
ATOM    102  C   UNL A   1      48.663  26.167  26.206  1.00  0.00     0.198 A 
ATOM    103  F   UNL A   1      48.394  24.492  27.832  1.00  0.00    -0.203 F 
ATOM    104  F   UNL A   1      46.692  29.116  25.494  1.00  0.00    -0.200 F 
ATOM    105  C   UNL A   1      48.237  27.338  25.601  1.00  0.00     0.200 A 
ATOM    106  F   UNL A   1      49.799  25.580  25.803  1.00  0.00    -0.200 F 
ATOM    107  F   UNL A   1      48.944  27.870  24.595  1.00  0.00    -0.200 F 
ENDBRANCH  74  97
ENDBRANCH  48  49
ENDBRANCH  40  43
ENDBRANCH  38  39
ENDBRANCH  37  38
ENDBRANCH  36  37
ENDBRANCH  35  36
ENDBRANCH   1  35
TORSDOF 18
ENDMDL
