MODEL 1
REMARK VINA RESULT:     -11.4      0.000      0.000
REMARK SMILES CC1=C(C)C(=O)N(C[C@H](CC(C)C)C(=O)NCCCCCCNC(=O)c2ccc(-c3c4nc(c(-c5c(F)c(F)c(F)c(F)c5F)c5ccc([nH]5)c(-c5c(F)c(F)c(F)c(F)c5F)c5nc(c(-c6c(F)c(F)c(F)c(F)c6F)c6ccc3[nH]6)C=C5)C=C4)cc2)C1=O
REMARK SMILES IDX 19 1 18 2 17 3 16 4 14 5 15 6 9 8 8 9 7 10 1 11 2 12 3 13
REMARK SMILES IDX 89 14 4 15 5 16 90 17 6 18 10 19 11 20 12 21 13 22 20 23
REMARK SMILES IDX 21 24 22 25 23 26 24 27 25 29 26 30 27 31 88 32 28 33 87 34
REMARK SMILES IDX 29 35 30 36 31 37 81 38 32 39 86 40 80 41 82 42 33 43 85 44
REMARK SMILES IDX 79 45 78 46 34 48 66 49 46 50 65 51 47 52 50 53 64 54 83 55
REMARK SMILES IDX 48 56 49 57 63 59 84 60 51 61 35 62 36 63 44 64 37 65 38 66
REMARK SMILES IDX 42 67 45 68 39 69 40 70 43 71 41 72 67 73 68 74 76 75 69 76
REMARK SMILES IDX 70 77 74 78 77 79 71 80 72 81 75 82 73 83 52 84 53 85 61 86
REMARK SMILES IDX 54 87 55 88 59 89 62 90 56 91 57 92 60 93 58 94
REMARK H PARENT 16 7 23 28 82 47 50 58
REMARK Flexibility Score: inf
ROOT
ATOM      1  C   UNL A   1      36.302  21.257  25.189  1.00  0.00     0.002 C 
ENDROOT
BRANCH   1   2
ATOM      2  C   UNL A   1      35.309  21.489  26.327  1.00  0.00     0.021 C 
BRANCH   2   3
ATOM      3  C   UNL A   1      34.402  22.711  26.167  1.00  0.00     0.116 C 
BRANCH   3   4
ATOM      4  N   UNL A   1      32.998  22.364  26.192  1.00  0.00    -0.356 N 
ATOM      5  C   UNL A   1      32.205  21.725  25.297  1.00  0.00     0.224 C 
ATOM      6  O   UNL A   1      31.023  21.579  25.630  1.00  0.00    -0.275 OA
ATOM      7  H   UNL A   1      32.533  22.641  27.014  1.00  0.00     0.163 HD
BRANCH   5   8
ATOM      8  C   UNL A   1      32.662  21.229  23.916  1.00  0.00     0.099 C 
BRANCH   8   9
ATOM      9  C   UNL A   1      32.532  22.234  22.742  1.00  0.00     0.142 C 
BRANCH   9  10
ATOM     10  N   UNL A   1      32.421  23.643  23.078  1.00  0.00    -0.274 N 
ATOM     11  C   UNL A   1      30.621  26.575  24.357  1.00  0.00     0.051 C 
ATOM     12  C   UNL A   1      31.603  25.666  23.724  1.00  0.00     0.023 C 
ATOM     13  C   UNL A   1      32.933  25.787  23.632  1.00  0.00     0.023 C 
ATOM     14  C   UNL A   1      31.254  24.314  23.253  1.00  0.00     0.256 C 
ATOM     15  C   UNL A   1      33.824  26.870  24.104  1.00  0.00     0.051 C 
ATOM     16  C   UNL A   1      33.452  24.526  23.082  1.00  0.00     0.256 C 
ATOM     17  O   UNL A   1      30.115  23.915  23.088  1.00  0.00    -0.269 OA
ATOM     18  O   UNL A   1      34.612  24.348  22.755  1.00  0.00    -0.269 OA
ENDBRANCH   9  10
ENDBRANCH   8   9
BRANCH   8  19
ATOM     19  C   UNL A   1      32.484  19.702  23.710  1.00  0.00     0.018 C 
BRANCH  19  20
ATOM     20  C   UNL A   1      33.359  18.690  24.476  1.00  0.00    -0.017 C 
ATOM     21  C   UNL A   1      32.688  18.065  25.691  1.00  0.00     0.007 C 
ATOM     22  C   UNL A   1      33.758  17.538  23.542  1.00  0.00     0.007 C 
ENDBRANCH  19  20
ENDBRANCH   8  19
ENDBRANCH   5   8
ENDBRANCH   3   4
ENDBRANCH   2   3
ENDBRANCH   1   2
BRANCH   1  23
ATOM     23  C   UNL A   1      36.708  19.799  24.949  1.00  0.00     0.002 C 
BRANCH  23  24
ATOM     24  C   UNL A   1      38.196  19.540  24.690  1.00  0.00     0.021 C 
BRANCH  24  25
ATOM     25  C   UNL A   1      39.144  19.900  25.833  1.00  0.00     0.116 C 
BRANCH  25  26
ATOM     26  N   UNL A   1      40.261  18.979  25.940  1.00  0.00    -0.352 N 
ATOM     27  C   UNL A   1      41.601  19.217  26.110  1.00  0.00     0.251 C 
ATOM     28  H   UNL A   1      40.017  18.027  25.882  1.00  0.00     0.163 HD
ATOM     29  O   UNL A   1      42.405  18.300  25.976  1.00  0.00    -0.269 OA
BRANCH  27  30
ATOM     30  C   UNL A   1      42.096  20.571  26.442  1.00  0.00     0.039 A 
ATOM     31  C   UNL A   1      42.488  21.415  25.397  1.00  0.00     0.014 A 
ATOM     32  C   UNL A   1      42.238  20.990  27.768  1.00  0.00     0.014 A 
ATOM     33  C   UNL A   1      42.972  22.695  25.678  1.00  0.00     0.010 A 
ATOM     34  C   UNL A   1      42.665  22.288  28.045  1.00  0.00     0.010 A 
ATOM     35  C   UNL A   1      43.041  23.152  27.004  1.00  0.00    -0.014 A 
BRANCH  35  36
ATOM     36  C   UNL A   1      43.500  24.529  27.314  1.00  0.00     0.031 A 
ATOM     37  C   UNL A   1      42.532  25.559  27.825  1.00  0.00     0.074 A 
ATOM     38  C   UNL A   1      44.778  24.872  27.066  1.00  0.00     0.049 A 
ATOM     39  N   UNL A   1      42.735  26.824  28.096  1.00  0.00    -0.248 NA
ATOM     40  C   UNL A   1      41.146  25.114  28.031  1.00  0.00     0.031 C 
ATOM     41  C   UNL A   1      45.796  23.981  26.511  1.00  0.00     0.029 A 
ATOM     42  N   UNL A   1      45.431  26.068  27.229  1.00  0.00    -0.354 N 
ATOM     43  C   UNL A   1      41.501  27.331  28.481  1.00  0.00     0.074 A 
ATOM     44  C   UNL A   1      40.547  26.248  28.369  1.00  0.00     0.031 C 
ATOM     45  C   UNL A   1      46.949  24.658  26.386  1.00  0.00     0.029 A 
ATOM     46  C   UNL A   1      46.744  26.035  26.826  1.00  0.00     0.049 A 
ATOM     47  H   UNL A   1      45.002  26.873  27.599  1.00  0.00     0.167 HD
ATOM     48  C   UNL A   1      41.195  28.581  28.906  1.00  0.00     0.037 A 
ATOM     49  C   UNL A   1      47.675  27.007  26.804  1.00  0.00     0.037 A 
ATOM     50  C   UNL A   1      42.155  29.645  29.050  1.00  0.00     0.049 A 
ATOM     51  C   UNL A   1      47.324  28.376  27.315  1.00  0.00     0.074 A 
ATOM     52  C   UNL A   1      41.965  30.915  29.565  1.00  0.00     0.029 A 
ATOM     53  N   UNL A   1      43.486  29.565  28.669  1.00  0.00    -0.354 N 
ATOM     54  N   UNL A   1      46.175  28.820  27.763  1.00  0.00    -0.248 NA
ATOM     55  C   UNL A   1      48.401  29.375  27.328  1.00  0.00     0.031 C 
ATOM     56  C   UNL A   1      43.170  31.619  29.453  1.00  0.00     0.029 A 
ATOM     57  C   UNL A   1      44.123  30.772  28.909  1.00  0.00     0.049 A 
ATOM     58  H   UNL A   1      43.916  28.767  28.283  1.00  0.00     0.167 HD
ATOM     59  C   UNL A   1      46.391  30.143  28.125  1.00  0.00     0.074 A 
ATOM     60  C   UNL A   1      47.788  30.423  27.862  1.00  0.00     0.031 C 
ATOM     61  C   UNL A   1      45.511  31.042  28.630  1.00  0.00     0.037 A 
BRANCH  48  62
ATOM     62  C   UNL A   1      39.760  28.867  29.240  1.00  0.00     0.064 A 
ATOM     63  C   UNL A   1      39.253  28.695  30.538  1.00  0.00     0.173 A 
ATOM     64  C   UNL A   1      38.883  29.338  28.252  1.00  0.00     0.173 A 
ATOM     65  F   UNL A   1      40.048  28.238  31.517  1.00  0.00    -0.203 F 
ATOM     66  C   UNL A   1      37.914  28.947  30.825  1.00  0.00     0.198 A 
ATOM     67  C   UNL A   1      37.550  29.619  28.549  1.00  0.00     0.198 A 
ATOM     68  F   UNL A   1      39.315  29.528  26.997  1.00  0.00    -0.203 F 
ATOM     69  F   UNL A   1      37.440  28.722  32.058  1.00  0.00    -0.200 F 
ATOM     70  C   UNL A   1      37.065  29.413  29.832  1.00  0.00     0.200 A 
ATOM     71  F   UNL A   1      36.734  30.081  27.591  1.00  0.00    -0.200 F 
ATOM     72  F   UNL A   1      35.777  29.655  30.109  1.00  0.00    -0.200 F 
ENDBRANCH  48  62
BRANCH  49  73
ATOM     73  C   UNL A   1      49.038  26.699  26.300  1.00  0.00     0.064 A 
ATOM     74  C   UNL A   1      49.391  26.963  24.971  1.00  0.00     0.173 A 
ATOM     75  C   UNL A   1      50.021  26.170  27.148  1.00  0.00     0.173 A 
ATOM     76  F   UNL A   1      48.478  27.452  24.120  1.00  0.00    -0.203 F 
ATOM     77  C   UNL A   1      50.679  26.704  24.505  1.00  0.00     0.198 A 
ATOM     78  C   UNL A   1      51.314  25.932  26.688  1.00  0.00     0.198 A 
ATOM     79  F   UNL A   1      49.732  25.907  28.431  1.00  0.00    -0.203 F 
ATOM     80  F   UNL A   1      50.984  26.940  23.222  1.00  0.00    -0.200 F 
ATOM     81  C   UNL A   1      51.641  26.196  25.366  1.00  0.00     0.200 A 
ATOM     82  F   UNL A   1      52.246  25.458  27.526  1.00  0.00    -0.200 F 
ATOM     83  F   UNL A   1      52.883  25.961  24.920  1.00  0.00    -0.200 F 
ENDBRANCH  49  73
BRANCH  61  84
ATOM     84  C   UNL A   1      46.034  32.414  28.938  1.00  0.00     0.064 A 
ATOM     85  C   UNL A   1      46.623  32.712  30.175  1.00  0.00     0.173 A 
ATOM     86  C   UNL A   1      45.980  33.430  27.973  1.00  0.00     0.173 A 
ATOM     87  F   UNL A   1      46.685  31.779  31.137  1.00  0.00    -0.203 F 
ATOM     88  C   UNL A   1      47.120  33.986  30.442  1.00  0.00     0.198 A 
ATOM     89  C   UNL A   1      46.502  34.695  28.233  1.00  0.00     0.198 A 
ATOM     90  F   UNL A   1      45.430  33.194  26.772  1.00  0.00    -0.203 F 
ATOM     91  F   UNL A   1      47.640  34.261  31.647  1.00  0.00    -0.200 F 
ATOM     92  C   UNL A   1      47.065  34.973  29.470  1.00  0.00     0.200 A 
ATOM     93  F   UNL A   1      46.458  35.644  27.288  1.00  0.00    -0.200 F 
ATOM     94  F   UNL A   1      47.549  36.196  29.727  1.00  0.00    -0.200 F 
ENDBRANCH  61  84
ENDBRANCH  35  36
ENDBRANCH  27  30
ENDBRANCH  25  26
ENDBRANCH  24  25
ENDBRANCH  23  24
ENDBRANCH   1  23
TORSDOF 17
ENDMDL
MODEL 2
REMARK VINA RESULT:     -11.3      5.397     10.562
REMARK SMILES CC1=C(C)C(=O)N(C[C@H](CC(C)C)C(=O)NCCCCCCNC(=O)c2ccc(-c3c4nc(c(-c5c(F)c(F)c(F)c(F)c5F)c5ccc([nH]5)c(-c5c(F)c(F)c(F)c(F)c5F)c5nc(c(-c6c(F)c(F)c(F)c(F)c6F)c6ccc3[nH]6)C=C5)C=C4)cc2)C1=O
REMARK SMILES IDX 19 1 18 2 17 3 16 4 14 5 15 6 9 8 8 9 7 10 1 11 2 12 3 13
REMARK SMILES IDX 89 14 4 15 5 16 90 17 6 18 10 19 11 20 12 21 13 22 20 23
REMARK SMILES IDX 21 24 22 25 23 26 24 27 25 29 26 30 27 31 88 32 28 33 87 34
REMARK SMILES IDX 29 35 30 36 31 37 81 38 32 39 86 40 80 41 82 42 33 43 85 44
REMARK SMILES IDX 79 45 78 46 34 48 66 49 46 50 65 51 47 52 50 53 64 54 83 55
REMARK SMILES IDX 48 56 49 57 63 59 84 60 51 61 35 62 36 63 44 64 37 65 38 66
REMARK SMILES IDX 42 67 45 68 39 69 40 70 43 71 41 72 67 73 68 74 76 75 69 76
REMARK SMILES IDX 70 77 74 78 77 79 71 80 72 81 75 82 73 83 52 84 53 85 61 86
REMARK SMILES IDX 54 87 55 88 59 89 62 90 56 91 57 92 60 93 58 94
REMARK H PARENT 16 7 23 28 82 47 50 58
REMARK Flexibility Score: inf
ROOT
ATOM      1  C   UNL A   1      37.499  32.902  29.452  1.00  0.00     0.002 C 
ENDROOT
BRANCH   1   2
ATOM      2  C   UNL A   1      37.507  33.005  30.976  1.00  0.00     0.021 C 
BRANCH   2   3
ATOM      3  C   UNL A   1      36.881  34.277  31.551  1.00  0.00     0.116 C 
BRANCH   3   4
ATOM      4  N   UNL A   1      36.010  34.005  32.673  1.00  0.00    -0.356 N 
ATOM      5  C   UNL A   1      36.263  33.589  33.938  1.00  0.00     0.224 C 
ATOM      6  O   UNL A   1      35.276  33.454  34.671  1.00  0.00    -0.275 OA
ATOM      7  H   UNL A   1      35.056  34.151  32.483  1.00  0.00     0.163 HD
BRANCH   5   8
ATOM      8  C   UNL A   1      37.656  33.242  34.486  1.00  0.00     0.099 C 
BRANCH   8   9
ATOM      9  C   UNL A   1      37.807  31.852  35.161  1.00  0.00     0.142 C 
BRANCH   9  10
ATOM     10  N   UNL A   1      38.609  30.858  34.470  1.00  0.00    -0.274 N 
ATOM     11  C   UNL A   1      41.667  28.894  33.957  1.00  0.00     0.051 C 
ATOM     12  C   UNL A   1      40.340  29.534  33.815  1.00  0.00     0.023 C 
ATOM     13  C   UNL A   1      39.238  29.073  33.211  1.00  0.00     0.023 C 
ATOM     14  C   UNL A   1      39.961  30.760  34.539  1.00  0.00     0.256 C 
ATOM     15  C   UNL A   1      39.014  27.806  32.480  1.00  0.00     0.051 C 
ATOM     16  C   UNL A   1      38.144  30.006  33.520  1.00  0.00     0.256 C 
ATOM     17  O   UNL A   1      40.750  31.502  35.096  1.00  0.00    -0.269 OA
ATOM     18  O   UNL A   1      37.034  29.949  33.023  1.00  0.00    -0.269 OA
ENDBRANCH   9  10
ENDBRANCH   8   9
BRANCH   8  19
ATOM     19  C   UNL A   1      38.467  34.475  34.962  1.00  0.00     0.018 C 
BRANCH  19  20
ATOM     20  C   UNL A   1      39.959  34.629  34.609  1.00  0.00    -0.017 C 
ATOM     21  C   UNL A   1      40.266  34.578  33.118  1.00  0.00     0.007 C 
ATOM     22  C   UNL A   1      40.479  35.978  35.128  1.00  0.00     0.007 C 
ENDBRANCH  19  20
ENDBRANCH   8  19
ENDBRANCH   5   8
ENDBRANCH   3   4
ENDBRANCH   2   3
ENDBRANCH   1   2
BRANCH   1  23
ATOM     23  C   UNL A   1      36.585  33.894  28.724  1.00  0.00     0.002 C 
BRANCH  23  24
ATOM     24  C   UNL A   1      35.291  33.320  28.136  1.00  0.00     0.021 C 
BRANCH  24  25
ATOM     25  C   UNL A   1      34.511  32.369  29.043  1.00  0.00     0.116 C 
BRANCH  25  26
ATOM     26  N   UNL A   1      33.966  31.233  28.320  1.00  0.00    -0.352 N 
ATOM     27  C   UNL A   1      34.585  30.118  27.815  1.00  0.00     0.251 C 
ATOM     28  H   UNL A   1      32.994  31.268  28.170  1.00  0.00     0.163 HD
ATOM     29  O   UNL A   1      33.970  29.369  27.061  1.00  0.00    -0.269 OA
BRANCH  27  30
ATOM     30  C   UNL A   1      35.991  29.809  28.156  1.00  0.00     0.039 A 
ATOM     31  C   UNL A   1      36.278  29.329  29.437  1.00  0.00     0.014 A 
ATOM     32  C   UNL A   1      37.029  30.048  27.251  1.00  0.00     0.014 A 
ATOM     33  C   UNL A   1      37.597  29.040  29.795  1.00  0.00     0.010 A 
ATOM     34  C   UNL A   1      38.337  29.703  27.587  1.00  0.00     0.010 A 
ATOM     35  C   UNL A   1      38.635  29.200  28.864  1.00  0.00    -0.014 A 
BRANCH  35  36
ATOM     36  C   UNL A   1      40.034  28.843  29.211  1.00  0.00     0.031 A 
ATOM     37  C   UNL A   1      40.905  29.809  29.963  1.00  0.00     0.074 A 
ATOM     38  C   UNL A   1      40.543  27.672  28.782  1.00  0.00     0.049 A 
ATOM     39  N   UNL A   1      42.164  29.697  30.303  1.00  0.00    -0.248 NA
ATOM     40  C   UNL A   1      40.286  31.082  30.359  1.00  0.00     0.031 C 
ATOM     41  C   UNL A   1      39.818  26.679  27.990  1.00  0.00     0.029 A 
ATOM     42  N   UNL A   1      41.795  27.131  28.935  1.00  0.00    -0.354 N 
ATOM     43  C   UNL A   1      42.494  30.891  30.932  1.00  0.00     0.074 A 
ATOM     44  C   UNL A   1      41.315  31.729  30.889  1.00  0.00     0.031 C 
ATOM     45  C   UNL A   1      40.634  25.645  27.732  1.00  0.00     0.029 A 
ATOM     46  C   UNL A   1      41.945  25.914  28.317  1.00  0.00     0.049 A 
ATOM     47  H   UNL A   1      42.516  27.572  29.440  1.00  0.00     0.167 HD
ATOM     48  C   UNL A   1      43.668  31.247  31.508  1.00  0.00     0.037 A 
ATOM     49  C   UNL A   1      43.020  25.109  28.223  1.00  0.00     0.037 A 
ATOM     50  C   UNL A   1      44.827  30.396  31.580  1.00  0.00     0.049 A 
ATOM     51  C   UNL A   1      44.301  25.508  28.901  1.00  0.00     0.074 A 
ATOM     52  C   UNL A   1      46.028  30.625  32.227  1.00  0.00     0.029 A 
ATOM     53  N   UNL A   1      44.931  29.151  30.975  1.00  0.00    -0.354 N 
ATOM     54  N   UNL A   1      44.574  26.601  29.571  1.00  0.00    -0.248 NA
ATOM     55  C   UNL A   1      45.418  24.558  28.819  1.00  0.00     0.031 C 
ATOM     56  C   UNL A   1      46.876  29.540  31.974  1.00  0.00     0.029 A 
ATOM     57  C   UNL A   1      46.188  28.614  31.208  1.00  0.00     0.049 A 
ATOM     58  H   UNL A   1      44.218  28.714  30.456  1.00  0.00     0.167 HD
ATOM     59  C   UNL A   1      45.887  26.465  30.004  1.00  0.00     0.074 A 
ATOM     60  C   UNL A   1      46.348  25.175  29.536  1.00  0.00     0.031 C 
ATOM     61  C   UNL A   1      46.638  27.334  30.725  1.00  0.00     0.037 A 
BRANCH  48  62
ATOM     62  C   UNL A   1      43.758  32.623  32.101  1.00  0.00     0.064 A 
ATOM     63  C   UNL A   1      43.666  32.841  33.484  1.00  0.00     0.173 A 
ATOM     64  C   UNL A   1      43.958  33.739  31.275  1.00  0.00     0.173 A 
ATOM     65  F   UNL A   1      43.466  31.809  34.318  1.00  0.00    -0.203 F 
ATOM     66  C   UNL A   1      43.733  34.126  34.015  1.00  0.00     0.198 A 
ATOM     67  C   UNL A   1      44.055  35.022  31.811  1.00  0.00     0.198 A 
ATOM     68  F   UNL A   1      44.060  33.589  29.946  1.00  0.00    -0.203 F 
ATOM     69  F   UNL A   1      43.586  34.315  35.334  1.00  0.00    -0.200 F 
ATOM     70  C   UNL A   1      43.932  35.215  33.179  1.00  0.00     0.200 A 
ATOM     71  F   UNL A   1      44.259  36.072  31.003  1.00  0.00    -0.200 F 
ATOM     72  F   UNL A   1      43.996  36.452  33.691  1.00  0.00    -0.200 F 
ENDBRANCH  48  62
BRANCH  49  73
ATOM     73  C   UNL A   1      42.911  23.832  27.473  1.00  0.00     0.064 A 
ATOM     74  C   UNL A   1      42.425  22.673  28.091  1.00  0.00     0.173 A 
ATOM     75  C   UNL A   1      43.255  23.758  26.115  1.00  0.00     0.173 A 
ATOM     76  F   UNL A   1      42.101  22.694  29.392  1.00  0.00    -0.203 F 
ATOM     77  C   UNL A   1      42.293  21.482  27.380  1.00  0.00     0.198 A 
ATOM     78  C   UNL A   1      43.101  22.572  25.400  1.00  0.00     0.198 A 
ATOM     79  F   UNL A   1      43.718  24.843  25.478  1.00  0.00    -0.203 F 
ATOM     80  F   UNL A   1      41.852  20.379  28.001  1.00  0.00    -0.200 F 
ATOM     81  C   UNL A   1      42.623  21.435  26.033  1.00  0.00     0.200 A 
ATOM     82  F   UNL A   1      43.405  22.535  24.095  1.00  0.00    -0.200 F 
ATOM     83  F   UNL A   1      42.483  20.292  25.347  1.00  0.00    -0.200 F 
ENDBRANCH  49  73
BRANCH  61  84
ATOM     84  C   UNL A   1      48.040  26.912  31.057  1.00  0.00     0.064 A 
ATOM     85  C   UNL A   1      48.317  26.102  32.168  1.00  0.00     0.173 A 
ATOM     86  C   UNL A   1      49.112  27.292  30.236  1.00  0.00     0.173 A 
ATOM     87  F   UNL A   1      47.328  25.725  32.993  1.00  0.00    -0.203 F 
ATOM     88  C   UNL A   1      49.620  25.705  32.456  1.00  0.00     0.198 A 
ATOM     89  C   UNL A   1      50.410  26.871  30.511  1.00  0.00     0.198 A 
ATOM     90  F   UNL A   1      48.899  28.063  29.159  1.00  0.00    -0.203 F 
ATOM     91  F   UNL A   1      49.868  24.966  33.547  1.00  0.00    -0.200 F 
ATOM     92  C   UNL A   1      50.664  26.083  31.624  1.00  0.00     0.200 A 
ATOM     93  F   UNL A   1      51.415  27.229  29.701  1.00  0.00    -0.200 F 
ATOM     94  F   UNL A   1      51.917  25.695  31.901  1.00  0.00    -0.200 F 
ENDBRANCH  61  84
ENDBRANCH  35  36
ENDBRANCH  27  30
ENDBRANCH  25  26
ENDBRANCH  24  25
ENDBRANCH  23  24
ENDBRANCH   1  23
TORSDOF 17
ENDMDL
MODEL 3
REMARK VINA RESULT:     -11.3      6.368     10.984
REMARK SMILES CC1=C(C)C(=O)N(C[C@H](CC(C)C)C(=O)NCCCCCCNC(=O)c2ccc(-c3c4nc(c(-c5c(F)c(F)c(F)c(F)c5F)c5ccc([nH]5)c(-c5c(F)c(F)c(F)c(F)c5F)c5nc(c(-c6c(F)c(F)c(F)c(F)c6F)c6ccc3[nH]6)C=C5)C=C4)cc2)C1=O
REMARK SMILES IDX 19 1 18 2 17 3 16 4 14 5 15 6 9 8 8 9 7 10 1 11 2 12 3 13
REMARK SMILES IDX 89 14 4 15 5 16 90 17 6 18 10 19 11 20 12 21 13 22 20 23
REMARK SMILES IDX 21 24 22 25 23 26 24 27 25 29 26 30 27 31 88 32 28 33 87 34
REMARK SMILES IDX 29 35 30 36 31 37 81 38 32 39 86 40 80 41 82 42 33 43 85 44
REMARK SMILES IDX 79 45 78 46 34 48 66 49 46 50 65 51 47 52 50 53 64 54 83 55
REMARK SMILES IDX 48 56 49 57 63 59 84 60 51 61 35 62 36 63 44 64 37 65 38 66
REMARK SMILES IDX 42 67 45 68 39 69 40 70 43 71 41 72 67 73 68 74 76 75 69 76
REMARK SMILES IDX 70 77 74 78 77 79 71 80 72 81 75 82 73 83 52 84 53 85 61 86
REMARK SMILES IDX 54 87 55 88 59 89 62 90 56 91 57 92 60 93 58 94
REMARK H PARENT 16 7 23 28 82 47 50 58
REMARK Flexibility Score: inf
ROOT
ATOM      1  C   UNL A   1      34.502  32.358  28.803  1.00  0.00     0.002 C 
ENDROOT
BRANCH   1   2
ATOM      2  C   UNL A   1      33.651  31.794  27.666  1.00  0.00     0.021 C 
BRANCH   2   3
ATOM      3  C   UNL A   1      33.982  30.361  27.248  1.00  0.00     0.116 C 
BRANCH   3   4
ATOM      4  N   UNL A   1      32.978  29.414  27.681  1.00  0.00    -0.356 N 
ATOM      5  C   UNL A   1      32.232  28.508  27.002  1.00  0.00     0.224 C 
ATOM      6  O   UNL A   1      31.451  27.833  27.683  1.00  0.00    -0.275 OA
ATOM      7  H   UNL A   1      32.806  29.429  28.650  1.00  0.00     0.163 HD
BRANCH   5   8
ATOM      8  C   UNL A   1      32.266  28.308  25.479  1.00  0.00     0.099 C 
BRANCH   8   9
ATOM      9  C   UNL A   1      33.550  27.663  24.894  1.00  0.00     0.142 C 
BRANCH   9  10
ATOM     10  N   UNL A   1      33.380  26.627  23.891  1.00  0.00    -0.274 N 
ATOM     11  C   UNL A   1      32.494  23.237  22.798  1.00  0.00     0.051 C 
ATOM     12  C   UNL A   1      32.992  24.629  22.873  1.00  0.00     0.023 C 
ATOM     13  C   UNL A   1      33.059  25.557  21.911  1.00  0.00     0.023 C 
ATOM     14  C   UNL A   1      33.315  25.295  24.147  1.00  0.00     0.256 C 
ATOM     15  C   UNL A   1      32.688  25.473  20.481  1.00  0.00     0.051 C 
ATOM     16  C   UNL A   1      33.447  26.824  22.549  1.00  0.00     0.256 C 
ATOM     17  O   UNL A   1      33.465  24.717  25.208  1.00  0.00    -0.269 OA
ATOM     18  O   UNL A   1      33.719  27.843  21.940  1.00  0.00    -0.269 OA
ENDBRANCH   9  10
ENDBRANCH   8   9
BRANCH   8  19
ATOM     19  C   UNL A   1      31.449  29.365  24.691  1.00  0.00     0.018 C 
BRANCH  19  20
ATOM     20  C   UNL A   1      30.571  28.957  23.492  1.00  0.00    -0.017 C 
ATOM     21  C   UNL A   1      29.941  27.575  23.609  1.00  0.00     0.007 C 
ATOM     22  C   UNL A   1      29.420  29.961  23.326  1.00  0.00     0.007 C 
ENDBRANCH  19  20
ENDBRANCH   8  19
ENDBRANCH   5   8
ENDBRANCH   3   4
ENDBRANCH   2   3
ENDBRANCH   1   2
BRANCH   1  23
ATOM     23  C   UNL A   1      34.536  33.887  28.912  1.00  0.00     0.002 C 
BRANCH  23  24
ATOM     24  C   UNL A   1      33.179  34.591  29.019  1.00  0.00     0.021 C 
BRANCH  24  25
ATOM     25  C   UNL A   1      33.222  36.062  29.432  1.00  0.00     0.116 C 
BRANCH  25  26
ATOM     26  N   UNL A   1      32.491  36.316  30.661  1.00  0.00    -0.352 N 
ATOM     27  C   UNL A   1      32.665  35.809  31.923  1.00  0.00     0.251 C 
ATOM     28  H   UNL A   1      31.750  36.957  30.574  1.00  0.00     0.163 HD
ATOM     29  O   UNL A   1      31.809  36.004  32.782  1.00  0.00    -0.269 OA
BRANCH  27  30
ATOM     30  C   UNL A   1      33.866  35.017  32.266  1.00  0.00     0.039 A 
ATOM     31  C   UNL A   1      35.120  35.630  32.172  1.00  0.00     0.014 A 
ATOM     32  C   UNL A   1      33.774  33.665  32.612  1.00  0.00     0.014 A 
ATOM     33  C   UNL A   1      36.276  34.905  32.476  1.00  0.00     0.010 A 
ATOM     34  C   UNL A   1      34.921  32.960  32.972  1.00  0.00     0.010 A 
ATOM     35  C   UNL A   1      36.184  33.571  32.903  1.00  0.00    -0.014 A 
BRANCH  35  36
ATOM     36  C   UNL A   1      37.398  32.806  33.284  1.00  0.00     0.031 A 
ATOM     37  C   UNL A   1      38.127  33.117  34.559  1.00  0.00     0.074 A 
ATOM     38  C   UNL A   1      37.885  31.876  32.440  1.00  0.00     0.049 A 
ATOM     39  N   UNL A   1      39.233  32.598  35.029  1.00  0.00    -0.248 NA
ATOM     40  C   UNL A   1      37.553  34.174  35.404  1.00  0.00     0.031 C 
ATOM     41  C   UNL A   1      37.303  31.527  31.144  1.00  0.00     0.029 A 
ATOM     42  N   UNL A   1      38.991  31.069  32.539  1.00  0.00    -0.354 N 
ATOM     43  C   UNL A   1      39.500  33.278  36.210  1.00  0.00     0.074 A 
ATOM     44  C   UNL A   1      38.463  34.276  36.364  1.00  0.00     0.031 C 
ATOM     45  C   UNL A   1      38.052  30.572  30.571  1.00  0.00     0.029 A 
ATOM     46  C   UNL A   1      39.180  30.262  31.445  1.00  0.00     0.049 A 
ATOM     47  H   UNL A   1      39.591  31.070  33.319  1.00  0.00     0.167 HD
ATOM     48  C   UNL A   1      40.507  33.075  37.094  1.00  0.00     0.037 A 
ATOM     49  C   UNL A   1      40.157  29.377  31.171  1.00  0.00     0.037 A 
ATOM     50  C   UNL A   1      41.515  32.057  36.954  1.00  0.00     0.049 A 
ATOM     51  C   UNL A   1      41.243  29.143  32.183  1.00  0.00     0.074 A 
ATOM     52  C   UNL A   1      42.518  31.707  37.842  1.00  0.00     0.029 A 
ATOM     53  N   UNL A   1      41.654  31.229  35.850  1.00  0.00    -0.354 N 
ATOM     54  N   UNL A   1      41.434  29.729  33.339  1.00  0.00    -0.248 NA
ATOM     55  C   UNL A   1      42.244  28.117  31.856  1.00  0.00     0.031 C 
ATOM     56  C   UNL A   1      43.292  30.699  37.254  1.00  0.00     0.029 A 
ATOM     57  C   UNL A   1      42.744  30.389  36.020  1.00  0.00     0.049 A 
ATOM     58  H   UNL A   1      41.065  31.237  35.061  1.00  0.00     0.167 HD
ATOM     59  C   UNL A   1      42.565  29.135  33.886  1.00  0.00     0.074 A 
ATOM     60  C   UNL A   1      43.005  28.129  32.942  1.00  0.00     0.031 C 
ATOM     61  C   UNL A   1      43.179  29.401  35.066  1.00  0.00     0.037 A 
BRANCH  48  62
ATOM     62  C   UNL A   1      40.571  33.981  38.289  1.00  0.00     0.064 A 
ATOM     63  C   UNL A   1      41.339  35.155  38.289  1.00  0.00     0.173 A 
ATOM     64  C   UNL A   1      39.836  33.680  39.447  1.00  0.00     0.173 A 
ATOM     65  F   UNL A   1      42.067  35.484  37.212  1.00  0.00    -0.203 F 
ATOM     66  C   UNL A   1      41.401  35.973  39.415  1.00  0.00     0.198 A 
ATOM     67  C   UNL A   1      39.875  34.516  40.560  1.00  0.00     0.198 A 
ATOM     68  F   UNL A   1      39.079  32.574  39.499  1.00  0.00    -0.203 F 
ATOM     69  F   UNL A   1      42.186  37.059  39.410  1.00  0.00    -0.200 F 
ATOM     70  C   UNL A   1      40.666  35.656  40.547  1.00  0.00     0.200 A 
ATOM     71  F   UNL A   1      39.155  34.215  41.650  1.00  0.00    -0.200 F 
ATOM     72  F   UNL A   1      40.726  36.444  41.629  1.00  0.00    -0.200 F 
ENDBRANCH  48  62
BRANCH  49  73
ATOM     73  C   UNL A   1      40.126  28.632  29.887  1.00  0.00     0.064 A 
ATOM     74  C   UNL A   1      40.724  29.157  28.734  1.00  0.00     0.173 A 
ATOM     75  C   UNL A   1      39.532  27.364  29.799  1.00  0.00     0.173 A 
ATOM     76  F   UNL A   1      41.288  30.373  28.768  1.00  0.00    -0.203 F 
ATOM     77  C   UNL A   1      40.723  28.444  27.537  1.00  0.00     0.198 A 
ATOM     78  C   UNL A   1      39.551  26.643  28.607  1.00  0.00     0.198 A 
ATOM     79  F   UNL A   1      38.953  26.817  30.878  1.00  0.00    -0.203 F 
ATOM     80  F   UNL A   1      41.277  28.980  26.441  1.00  0.00    -0.200 F 
ATOM     81  C   UNL A   1      40.144  27.185  27.477  1.00  0.00     0.200 A 
ATOM     82  F   UNL A   1      39.006  25.420  28.557  1.00  0.00    -0.200 F 
ATOM     83  F   UNL A   1      40.156  26.495  26.328  1.00  0.00    -0.200 F 
ENDBRANCH  49  73
BRANCH  61  84
ATOM     84  C   UNL A   1      44.393  28.586  35.404  1.00  0.00     0.064 A 
ATOM     85  C   UNL A   1      45.682  29.014  35.054  1.00  0.00     0.173 A 
ATOM     86  C   UNL A   1      44.269  27.385  36.116  1.00  0.00     0.173 A 
ATOM     87  F   UNL A   1      45.852  30.149  34.358  1.00  0.00    -0.203 F 
ATOM     88  C   UNL A   1      46.802  28.256  35.387  1.00  0.00     0.198 A 
ATOM     89  C   UNL A   1      45.393  26.643  36.472  1.00  0.00     0.198 A 
ATOM     90  F   UNL A   1      43.058  26.935  36.478  1.00  0.00    -0.203 F 
ATOM     91  F   UNL A   1      48.022  28.662  35.005  1.00  0.00    -0.200 F 
ATOM     92  C   UNL A   1      46.657  27.077  36.102  1.00  0.00     0.200 A 
ATOM     93  F   UNL A   1      45.251  25.509  37.171  1.00  0.00    -0.200 F 
ATOM     94  F   UNL A   1      47.737  26.351  36.427  1.00  0.00    -0.200 F 
ENDBRANCH  61  84
ENDBRANCH  35  36
ENDBRANCH  27  30
ENDBRANCH  25  26
ENDBRANCH  24  25
ENDBRANCH  23  24
ENDBRANCH   1  23
TORSDOF 17
ENDMDL
