MODEL 1
REMARK VINA RESULT:     -12.8      0.000      0.000
REMARK SMILES C#Cc1ccc2c(c1)C=C(C(=O)NCCCCCCNC(=O)c1ccc(-c3c4nc(c(-c5c(F)c(F)c(F)c(F)c5F)c5ccc([nH]5)c(-c5c(F)c(F)c(F)c(F)c5F)c5nc(c(-c6c(F)c(F)c(F)c(F)c6F)c6ccc3[nH]6)C=C5)C=C4)cc1)[C@@H](C(F)(F)F)O2
REMARK SMILES IDX 17 1 16 2 15 3 14 4 13 5 11 6 12 7 10 9 3 10 4 11 8 12 5 13
REMARK SMILES IDX 7 14 6 15 9 16 91 17 86 18 2 19 1 20 87 21 88 22 89 23 90 24
REMARK SMILES IDX 18 25 19 26 20 27 21 28 22 30 23 31 24 32 85 33 25 34 84 35
REMARK SMILES IDX 26 36 27 37 28 38 78 39 29 40 83 41 77 42 79 43 30 44 82 45
REMARK SMILES IDX 76 46 75 47 31 49 63 50 43 51 62 52 44 53 47 54 61 55 80 56
REMARK SMILES IDX 45 57 46 58 60 60 81 61 48 62 32 63 33 64 41 65 34 66 35 67
REMARK SMILES IDX 39 68 42 69 36 70 37 71 40 72 38 73 64 74 65 75 73 76 66 77
REMARK SMILES IDX 67 78 71 79 74 80 68 81 69 82 72 83 70 84 49 85 50 86 58 87
REMARK SMILES IDX 51 88 52 89 56 90 59 91 53 92 54 93 57 94 55 95
REMARK H PARENT 13 8 20 29 79 48 47 59
REMARK Flexibility Score: inf
ROOT
ATOM      1  C   UNL A   1      31.898  30.575  26.194  1.00  0.00     0.002 C 
ENDROOT
BRANCH   1   2
ATOM      2  C   UNL A   1      32.992  29.836  26.977  1.00  0.00     0.002 C 
BRANCH   2   3
ATOM      3  C   UNL A   1      33.929  28.988  26.116  1.00  0.00     0.021 C 
BRANCH   3   4
ATOM      4  C   UNL A   1      33.799  27.496  26.391  1.00  0.00     0.116 C 
BRANCH   4   5
ATOM      5  N   UNL A   1      33.908  26.713  25.172  1.00  0.00    -0.352 N 
ATOM      6  C   UNL A   1      33.115  26.408  24.117  1.00  0.00     0.251 C 
ATOM      7  O   UNL A   1      33.636  25.703  23.248  1.00  0.00    -0.270 OA
ATOM      8  H   UNL A   1      34.794  26.292  25.091  1.00  0.00     0.163 HD
BRANCH   6   9
ATOM      9  C   UNL A   1      31.700  26.858  23.958  1.00  0.00     0.067 C 
ATOM     10  C   UNL A   1      28.582  30.274  22.548  1.00  0.00     0.025 A 
ATOM     11  C   UNL A   1      27.520  29.396  22.768  1.00  0.00     0.021 A 
ATOM     12  C   UNL A   1      29.900  29.859  22.769  1.00  0.00     0.029 A 
ATOM     13  C   UNL A   1      27.772  28.103  23.213  1.00  0.00     0.048 A 
ATOM     14  C   UNL A   1      30.157  28.559  23.217  1.00  0.00     0.018 A 
ATOM     15  C   UNL A   1      29.083  27.697  23.443  1.00  0.00     0.128 A 
ATOM     16  C   UNL A   1      31.519  28.072  23.406  1.00  0.00     0.025 C 
ATOM     17  O   UNL A   1      29.233  26.410  23.855  1.00  0.00    -0.475 OA
ATOM     18  C   UNL A   1      30.520  26.043  24.402  1.00  0.00     0.314 C 
BRANCH  10  19
ATOM     19  C   UNL A   1      28.307  31.597  22.083  1.00  0.00    -0.070 C 
ATOM     20  C   UNL A   1      28.089  32.702  21.664  1.00  0.00     0.010 C 
ENDBRANCH  10  19
BRANCH  18  21
ATOM     21  C   UNL A   1      30.403  25.959  25.936  1.00  0.00     0.429 C 
ATOM     22  F   UNL A   1      29.149  25.576  26.291  1.00  0.00    -0.167 F 
ATOM     23  F   UNL A   1      31.243  25.051  26.484  1.00  0.00    -0.167 F 
ATOM     24  F   UNL A   1      30.654  27.141  26.541  1.00  0.00    -0.167 F 
ENDBRANCH  18  21
ENDBRANCH   6   9
ENDBRANCH   4   5
ENDBRANCH   3   4
ENDBRANCH   2   3
ENDBRANCH   1   2
BRANCH   1  25
ATOM     25  C   UNL A   1      31.547  31.961  26.734  1.00  0.00     0.021 C 
BRANCH  25  26
ATOM     26  C   UNL A   1      32.716  32.675  27.398  1.00  0.00     0.116 C 
BRANCH  26  27
ATOM     27  N   UNL A   1      32.436  34.085  27.626  1.00  0.00    -0.352 N 
ATOM     28  C   UNL A   1      32.977  34.941  28.553  1.00  0.00     0.251 C 
ATOM     29  H   UNL A   1      31.761  34.482  27.030  1.00  0.00     0.163 HD
ATOM     30  O   UNL A   1      32.481  36.044  28.748  1.00  0.00    -0.269 OA
BRANCH  28  31
ATOM     31  C   UNL A   1      34.145  34.498  29.338  1.00  0.00     0.039 A 
ATOM     32  C   UNL A   1      35.431  34.602  28.805  1.00  0.00     0.014 A 
ATOM     33  C   UNL A   1      33.941  33.913  30.589  1.00  0.00     0.014 A 
ATOM     34  C   UNL A   1      36.482  33.941  29.424  1.00  0.00     0.010 A 
ATOM     35  C   UNL A   1      35.023  33.344  31.262  1.00  0.00     0.010 A 
ATOM     36  C   UNL A   1      36.289  33.297  30.656  1.00  0.00    -0.014 A 
BRANCH  36  37
ATOM     37  C   UNL A   1      37.410  32.553  31.282  1.00  0.00     0.031 A 
ATOM     38  C   UNL A   1      37.879  32.902  32.670  1.00  0.00     0.074 A 
ATOM     39  C   UNL A   1      37.983  31.534  30.614  1.00  0.00     0.049 A 
ATOM     40  N   UNL A   1      38.866  32.391  33.362  1.00  0.00    -0.248 NA
ATOM     41  C   UNL A   1      37.147  33.968  33.372  1.00  0.00     0.031 C 
ATOM     42  C   UNL A   1      37.595  31.080  29.278  1.00  0.00     0.029 A 
ATOM     43  N   UNL A   1      39.000  30.686  30.973  1.00  0.00    -0.354 N 
ATOM     44  C   UNL A   1      38.885  33.083  34.567  1.00  0.00     0.074 A 
ATOM     45  C   UNL A   1      37.840  34.080  34.496  1.00  0.00     0.031 C 
ATOM     46  C   UNL A   1      38.334  30.012  28.946  1.00  0.00     0.029 A 
ATOM     47  C   UNL A   1      39.299  29.755  30.009  1.00  0.00     0.049 A 
ATOM     48  H   UNL A   1      39.468  30.741  31.836  1.00  0.00     0.167 HD
ATOM     49  C   UNL A   1      39.688  32.889  35.640  1.00  0.00     0.037 A 
ATOM     50  C   UNL A   1      40.261  28.814  29.973  1.00  0.00     0.037 A 
ATOM     51  C   UNL A   1      40.718  31.884  35.708  1.00  0.00     0.049 A 
ATOM     52  C   UNL A   1      41.192  28.676  31.143  1.00  0.00     0.074 A 
ATOM     53  C   UNL A   1      41.575  31.599  36.757  1.00  0.00     0.029 A 
ATOM     54  N   UNL A   1      41.033  30.999  34.686  1.00  0.00    -0.354 N 
ATOM     55  N   UNL A   1      41.193  29.325  32.282  1.00  0.00    -0.248 NA
ATOM     56  C   UNL A   1      42.261  27.676  31.021  1.00  0.00     0.031 C 
ATOM     57  C   UNL A   1      42.450  30.589  36.346  1.00  0.00     0.029 A 
ATOM     58  C   UNL A   1      42.095  30.193  35.067  1.00  0.00     0.049 A 
ATOM     59  H   UNL A   1      40.570  30.952  33.817  1.00  0.00     0.167 HD
ATOM     60  C   UNL A   1      42.247  28.803  33.018  1.00  0.00     0.074 A 
ATOM     61  C   UNL A   1      42.844  27.761  32.208  1.00  0.00     0.031 C 
ATOM     62  C   UNL A   1      42.685  29.161  34.251  1.00  0.00     0.037 A 
BRANCH  49  63
ATOM     63  C   UNL A   1      39.498  33.787  36.832  1.00  0.00     0.064 A 
ATOM     64  C   UNL A   1      38.710  33.403  37.928  1.00  0.00     0.173 A 
ATOM     65  C   UNL A   1      40.162  35.022  36.906  1.00  0.00     0.173 A 
ATOM     66  F   UNL A   1      38.044  32.239  37.907  1.00  0.00    -0.203 F 
ATOM     67  C   UNL A   1      38.577  34.231  39.041  1.00  0.00     0.198 A 
ATOM     68  C   UNL A   1      40.055  35.830  38.035  1.00  0.00     0.198 A 
ATOM     69  F   UNL A   1      40.934  35.437  35.890  1.00  0.00    -0.203 F 
ATOM     70  F   UNL A   1      37.781  33.862  40.055  1.00  0.00    -0.200 F 
ATOM     71  C   UNL A   1      39.257  35.438  39.098  1.00  0.00     0.200 A 
ATOM     72  F   UNL A   1      40.729  36.987  38.096  1.00  0.00    -0.200 F 
ATOM     73  F   UNL A   1      39.141  36.224  40.177  1.00  0.00    -0.200 F 
ENDBRANCH  49  63
BRANCH  50  74
ATOM     74  C   UNL A   1      40.375  27.931  28.783  1.00  0.00     0.064 A 
ATOM     75  C   UNL A   1      39.684  26.714  28.726  1.00  0.00     0.173 A 
ATOM     76  C   UNL A   1      41.142  28.300  27.667  1.00  0.00     0.173 A 
ATOM     77  F   UNL A   1      38.955  26.308  29.775  1.00  0.00    -0.203 F 
ATOM     78  C   UNL A   1      39.760  25.897  27.599  1.00  0.00     0.198 A 
ATOM     79  C   UNL A   1      41.188  27.500  26.529  1.00  0.00     0.198 A 
ATOM     80  F   UNL A   1      41.820  29.458  27.670  1.00  0.00    -0.203 F 
ATOM     81  F   UNL A   1      39.116  24.722  27.584  1.00  0.00    -0.200 F 
ATOM     82  C   UNL A   1      40.502  26.296  26.498  1.00  0.00     0.200 A 
ATOM     83  F   UNL A   1      41.889  27.901  25.459  1.00  0.00    -0.200 F 
ATOM     84  F   UNL A   1      40.556  25.520  25.407  1.00  0.00    -0.200 F 
ENDBRANCH  50  74
BRANCH  62  85
ATOM     85  C   UNL A   1      43.866  28.417  34.809  1.00  0.00     0.064 A 
ATOM     86  C   UNL A   1      43.708  27.215  35.516  1.00  0.00     0.173 A 
ATOM     87  C   UNL A   1      45.173  28.880  34.590  1.00  0.00     0.173 A 
ATOM     88  F   UNL A   1      42.481  26.733  35.764  1.00  0.00    -0.203 F 
ATOM     89  C   UNL A   1      44.811  26.520  36.004  1.00  0.00     0.198 A 
ATOM     90  C   UNL A   1      46.276  28.161  35.045  1.00  0.00     0.198 A 
ATOM     91  F   UNL A   1      45.384  30.019  33.913  1.00  0.00    -0.203 F 
ATOM     92  F   UNL A   1      44.633  25.402  36.721  1.00  0.00    -0.200 F 
ATOM     93  C   UNL A   1      46.094  26.988  35.760  1.00  0.00     0.200 A 
ATOM     94  F   UNL A   1      47.514  28.605  34.788  1.00  0.00    -0.200 F 
ATOM     95  F   UNL A   1      47.154  26.309  36.216  1.00  0.00    -0.200 F 
ENDBRANCH  62  85
ENDBRANCH  36  37
ENDBRANCH  28  31
ENDBRANCH  26  27
ENDBRANCH  25  26
ENDBRANCH   1  25
TORSDOF 15
ENDMDL
MODEL 2
REMARK VINA RESULT:     -12.7      0.377      7.328
REMARK SMILES C#Cc1ccc2c(c1)C=C(C(=O)NCCCCCCNC(=O)c1ccc(-c3c4nc(c(-c5c(F)c(F)c(F)c(F)c5F)c5ccc([nH]5)c(-c5c(F)c(F)c(F)c(F)c5F)c5nc(c(-c6c(F)c(F)c(F)c(F)c6F)c6ccc3[nH]6)C=C5)C=C4)cc1)[C@@H](C(F)(F)F)O2
REMARK SMILES IDX 17 1 16 2 15 3 14 4 13 5 11 6 12 7 10 9 3 10 4 11 8 12 5 13
REMARK SMILES IDX 7 14 6 15 9 16 91 17 86 18 2 19 1 20 87 21 88 22 89 23 90 24
REMARK SMILES IDX 18 25 19 26 20 27 21 28 22 30 23 31 24 32 85 33 25 34 84 35
REMARK SMILES IDX 26 36 27 37 28 38 78 39 29 40 83 41 77 42 79 43 30 44 82 45
REMARK SMILES IDX 76 46 75 47 31 49 63 50 43 51 62 52 44 53 47 54 61 55 80 56
REMARK SMILES IDX 45 57 46 58 60 60 81 61 48 62 32 63 33 64 41 65 34 66 35 67
REMARK SMILES IDX 39 68 42 69 36 70 37 71 40 72 38 73 64 74 65 75 73 76 66 77
REMARK SMILES IDX 67 78 71 79 74 80 68 81 69 82 72 83 70 84 49 85 50 86 58 87
REMARK SMILES IDX 51 88 52 89 56 90 59 91 53 92 54 93 57 94 55 95
REMARK H PARENT 13 8 20 29 79 48 47 59
REMARK Flexibility Score: inf
ROOT
ATOM      1  C   UNL A   1      31.953  30.689  26.107  1.00  0.00     0.002 C 
ENDROOT
BRANCH   1   2
ATOM      2  C   UNL A   1      32.624  29.581  26.931  1.00  0.00     0.002 C 
BRANCH   2   3
ATOM      3  C   UNL A   1      33.772  28.865  26.219  1.00  0.00     0.021 C 
BRANCH   3   4
ATOM      4  C   UNL A   1      33.770  27.360  26.455  1.00  0.00     0.116 C 
BRANCH   4   5
ATOM      5  N   UNL A   1      33.888  26.621  25.211  1.00  0.00    -0.352 N 
ATOM      6  C   UNL A   1      33.104  26.355  24.138  1.00  0.00     0.251 C 
ATOM      7  O   UNL A   1      33.632  25.680  23.250  1.00  0.00    -0.270 OA
ATOM      8  H   UNL A   1      34.774  26.201  25.123  1.00  0.00     0.163 HD
BRANCH   6   9
ATOM      9  C   UNL A   1      31.692  26.814  23.982  1.00  0.00     0.067 C 
ATOM     10  C   UNL A   1      28.593  30.267  22.621  1.00  0.00     0.025 A 
ATOM     11  C   UNL A   1      27.526  29.389  22.822  1.00  0.00     0.021 A 
ATOM     12  C   UNL A   1      29.909  29.842  22.839  1.00  0.00     0.029 A 
ATOM     13  C   UNL A   1      27.771  28.088  23.246  1.00  0.00     0.048 A 
ATOM     14  C   UNL A   1      30.158  28.534  23.265  1.00  0.00     0.018 A 
ATOM     15  C   UNL A   1      29.080  27.673  23.473  1.00  0.00     0.128 A 
ATOM     16  C   UNL A   1      31.517  28.038  23.451  1.00  0.00     0.025 C 
ATOM     17  O   UNL A   1      29.223  26.378  23.863  1.00  0.00    -0.475 OA
ATOM     18  C   UNL A   1      30.507  25.996  24.409  1.00  0.00     0.314 C 
BRANCH  10  19
ATOM     19  C   UNL A   1      28.325  31.598  22.178  1.00  0.00    -0.070 C 
ATOM     20  C   UNL A   1      28.116  32.730  21.831  1.00  0.00     0.010 C 
ENDBRANCH  10  19
BRANCH  18  21
ATOM     21  C   UNL A   1      30.384  25.886  25.940  1.00  0.00     0.429 C 
ATOM     22  F   UNL A   1      29.130  25.493  26.284  1.00  0.00    -0.167 F 
ATOM     23  F   UNL A   1      31.225  24.972  26.476  1.00  0.00    -0.167 F 
ATOM     24  F   UNL A   1      30.629  27.059  26.566  1.00  0.00    -0.167 F 
ENDBRANCH  18  21
ENDBRANCH   6   9
ENDBRANCH   4   5
ENDBRANCH   3   4
ENDBRANCH   2   3
ENDBRANCH   1   2
BRANCH   1  25
ATOM     25  C   UNL A   1      31.574  31.940  26.900  1.00  0.00     0.021 C 
BRANCH  25  26
ATOM     26  C   UNL A   1      32.772  32.730  27.408  1.00  0.00     0.116 C 
BRANCH  26  27
ATOM     27  N   UNL A   1      32.447  34.131  27.629  1.00  0.00    -0.352 N 
ATOM     28  C   UNL A   1      32.955  35.007  28.556  1.00  0.00     0.251 C 
ATOM     29  H   UNL A   1      31.764  34.505  27.026  1.00  0.00     0.163 HD
ATOM     30  O   UNL A   1      32.423  36.095  28.744  1.00  0.00    -0.269 OA
BRANCH  28  31
ATOM     31  C   UNL A   1      34.130  34.603  29.350  1.00  0.00     0.039 A 
ATOM     32  C   UNL A   1      35.403  34.607  28.776  1.00  0.00     0.014 A 
ATOM     33  C   UNL A   1      33.945  34.153  30.659  1.00  0.00     0.014 A 
ATOM     34  C   UNL A   1      36.449  33.975  29.431  1.00  0.00     0.010 A 
ATOM     35  C   UNL A   1      35.027  33.617  31.358  1.00  0.00     0.010 A 
ATOM     36  C   UNL A   1      36.272  33.464  30.727  1.00  0.00    -0.014 A 
BRANCH  36  37
ATOM     37  C   UNL A   1      37.386  32.747  31.394  1.00  0.00     0.031 A 
ATOM     38  C   UNL A   1      38.086  31.608  30.702  1.00  0.00     0.074 A 
ATOM     39  C   UNL A   1      37.795  33.148  32.613  1.00  0.00     0.049 A 
ATOM     40  N   UNL A   1      39.051  30.840  31.143  1.00  0.00    -0.248 NA
ATOM     41  C   UNL A   1      37.643  31.285  29.337  1.00  0.00     0.031 C 
ATOM     42  C   UNL A   1      37.219  34.258  33.372  1.00  0.00     0.029 A 
ATOM     43  N   UNL A   1      38.801  32.679  33.420  1.00  0.00    -0.354 N 
ATOM     44  C   UNL A   1      39.314  29.936  30.121  1.00  0.00     0.074 A 
ATOM     45  C   UNL A   1      38.380  30.221  29.055  1.00  0.00     0.031 C 
ATOM     46  C   UNL A   1      37.904  34.413  34.513  1.00  0.00     0.029 A 
ATOM     47  C   UNL A   1      38.915  33.366  34.603  1.00  0.00     0.049 A 
ATOM     48  H   UNL A   1      39.382  31.924  33.174  1.00  0.00     0.167 HD
ATOM     49  C   UNL A   1      40.264  28.970  30.071  1.00  0.00     0.037 A 
ATOM     50  C   UNL A   1      39.728  33.161  35.657  1.00  0.00     0.037 A 
ATOM     51  C   UNL A   1      41.200  28.702  31.132  1.00  0.00     0.049 A 
ATOM     52  C   UNL A   1      40.714  32.029  35.609  1.00  0.00     0.074 A 
ATOM     53  C   UNL A   1      42.209  27.754  31.170  1.00  0.00     0.029 A 
ATOM     54  N   UNL A   1      41.244  29.379  32.342  1.00  0.00    -0.354 N 
ATOM     55  N   UNL A   1      40.965  31.190  34.634  1.00  0.00    -0.248 NA
ATOM     56  C   UNL A   1      41.529  31.814  36.812  1.00  0.00     0.031 C 
ATOM     57  C   UNL A   1      42.818  27.815  32.427  1.00  0.00     0.029 A 
ATOM     58  C   UNL A   1      42.238  28.846  33.149  1.00  0.00     0.049 A 
ATOM     59  H   UNL A   1      40.655  30.128  32.593  1.00  0.00     0.167 HD
ATOM     60  C   UNL A   1      41.976  30.359  35.096  1.00  0.00     0.074 A 
ATOM     61  C   UNL A   1      42.313  30.816  36.429  1.00  0.00     0.031 C 
ATOM     62  C   UNL A   1      42.564  29.306  34.476  1.00  0.00     0.037 A 
BRANCH  49  63
ATOM     63  C   UNL A   1      40.336  28.119  28.833  1.00  0.00     0.064 A 
ATOM     64  C   UNL A   1      41.110  28.492  27.724  1.00  0.00     0.173 A 
ATOM     65  C   UNL A   1      39.671  26.883  28.778  1.00  0.00     0.173 A 
ATOM     66  F   UNL A   1      41.757  29.668  27.716  1.00  0.00    -0.203 F 
ATOM     67  C   UNL A   1      41.197  27.673  26.600  1.00  0.00     0.198 A 
ATOM     68  C   UNL A   1      39.790  26.051  27.668  1.00  0.00     0.198 A 
ATOM     69  F   UNL A   1      38.923  26.472  29.813  1.00  0.00    -0.203 F 
ATOM     70  F   UNL A   1      41.906  28.075  25.536  1.00  0.00    -0.200 F 
ATOM     71  C   UNL A   1      40.547  26.449  26.578  1.00  0.00     0.200 A 
ATOM     72  F   UNL A   1      39.176  24.859  27.657  1.00  0.00    -0.200 F 
ATOM     73  F   UNL A   1      40.646  25.655  25.503  1.00  0.00    -0.200 F 
ENDBRANCH  49  63
BRANCH  50  74
ATOM     74  C   UNL A   1      39.635  34.059  36.837  1.00  0.00     0.064 A 
ATOM     75  C   UNL A   1      38.847  33.712  37.941  1.00  0.00     0.173 A 
ATOM     76  C   UNL A   1      40.357  35.261  36.902  1.00  0.00     0.173 A 
ATOM     77  F   UNL A   1      38.122  32.585  37.918  1.00  0.00    -0.203 F 
ATOM     78  C   UNL A   1      38.781  34.534  39.065  1.00  0.00     0.198 A 
ATOM     79  C   UNL A   1      40.319  36.063  38.039  1.00  0.00     0.198 A 
ATOM     80  F   UNL A   1      41.130  35.637  35.872  1.00  0.00    -0.203 F 
ATOM     81  F   UNL A   1      37.994  34.194  40.094  1.00  0.00    -0.200 F 
ATOM     82  C   UNL A   1      39.526  35.702  39.117  1.00  0.00     0.200 A 
ATOM     83  F   UNL A   1      41.058  37.180  38.094  1.00  0.00    -0.200 F 
ATOM     84  F   UNL A   1      39.480  36.479  40.207  1.00  0.00    -0.200 F 
ENDBRANCH  50  74
BRANCH  62  85
ATOM     85  C   UNL A   1      43.643  28.574  35.225  1.00  0.00     0.064 A 
ATOM     86  C   UNL A   1      44.989  28.966  35.141  1.00  0.00     0.173 A 
ATOM     87  C   UNL A   1      43.325  27.507  36.079  1.00  0.00     0.173 A 
ATOM     88  F   UNL A   1      45.350  29.973  34.332  1.00  0.00    -0.203 F 
ATOM     89  C   UNL A   1      45.975  28.299  35.862  1.00  0.00     0.198 A 
ATOM     90  C   UNL A   1      44.309  26.868  36.829  1.00  0.00     0.198 A 
ATOM     91  F   UNL A   1      42.054  27.096  36.204  1.00  0.00    -0.203 F 
ATOM     92  F   UNL A   1      47.259  28.657  35.725  1.00  0.00    -0.200 F 
ATOM     93  C   UNL A   1      45.634  27.257  36.713  1.00  0.00     0.200 A 
ATOM     94  F   UNL A   1      43.973  25.877  37.666  1.00  0.00    -0.200 F 
ATOM     95  F   UNL A   1      46.583  26.628  37.417  1.00  0.00    -0.200 F 
ENDBRANCH  62  85
ENDBRANCH  36  37
ENDBRANCH  28  31
ENDBRANCH  26  27
ENDBRANCH  25  26
ENDBRANCH   1  25
TORSDOF 15
ENDMDL
MODEL 3
REMARK VINA RESULT:     -12.6      0.417      7.339
REMARK SMILES C#Cc1ccc2c(c1)C=C(C(=O)NCCCCCCNC(=O)c1ccc(-c3c4nc(c(-c5c(F)c(F)c(F)c(F)c5F)c5ccc([nH]5)c(-c5c(F)c(F)c(F)c(F)c5F)c5nc(c(-c6c(F)c(F)c(F)c(F)c6F)c6ccc3[nH]6)C=C5)C=C4)cc1)[C@@H](C(F)(F)F)O2
REMARK SMILES IDX 17 1 16 2 15 3 14 4 13 5 11 6 12 7 10 9 3 10 4 11 8 12 5 13
REMARK SMILES IDX 7 14 6 15 9 16 91 17 86 18 2 19 1 20 87 21 88 22 89 23 90 24
REMARK SMILES IDX 18 25 19 26 20 27 21 28 22 30 23 31 24 32 85 33 25 34 84 35
REMARK SMILES IDX 26 36 27 37 28 38 78 39 29 40 83 41 77 42 79 43 30 44 82 45
REMARK SMILES IDX 76 46 75 47 31 49 63 50 43 51 62 52 44 53 47 54 61 55 80 56
REMARK SMILES IDX 45 57 46 58 60 60 81 61 48 62 32 63 33 64 41 65 34 66 35 67
REMARK SMILES IDX 39 68 42 69 36 70 37 71 40 72 38 73 64 74 65 75 73 76 66 77
REMARK SMILES IDX 67 78 71 79 74 80 68 81 69 82 72 83 70 84 49 85 50 86 58 87
REMARK SMILES IDX 51 88 52 89 56 90 59 91 53 92 54 93 57 94 55 95
REMARK H PARENT 13 8 20 29 79 48 47 59
REMARK Flexibility Score: inf
ROOT
ATOM      1  C   UNL A   1      31.916  30.314  26.765  1.00  0.00     0.002 C 
ENDROOT
BRANCH   1   2
ATOM      2  C   UNL A   1      33.322  29.818  27.132  1.00  0.00     0.002 C 
BRANCH   2   3
ATOM      3  C   UNL A   1      33.976  28.922  26.078  1.00  0.00     0.021 C 
BRANCH   3   4
ATOM      4  C   UNL A   1      33.813  27.438  26.378  1.00  0.00     0.116 C 
BRANCH   4   5
ATOM      5  N   UNL A   1      33.905  26.633  25.173  1.00  0.00    -0.352 N 
ATOM      6  C   UNL A   1      33.102  26.318  24.128  1.00  0.00     0.251 C 
ATOM      7  O   UNL A   1      33.610  25.592  23.268  1.00  0.00    -0.270 OA
ATOM      8  H   UNL A   1      34.786  26.201  25.094  1.00  0.00     0.163 HD
BRANCH   6   9
ATOM      9  C   UNL A   1      31.691  26.781  23.969  1.00  0.00     0.067 C 
ATOM     10  C   UNL A   1      28.604  30.219  22.544  1.00  0.00     0.025 A 
ATOM     11  C   UNL A   1      27.534  29.353  22.772  1.00  0.00     0.021 A 
ATOM     12  C   UNL A   1      29.919  29.792  22.764  1.00  0.00     0.029 A 
ATOM     13  C   UNL A   1      27.774  28.060  23.226  1.00  0.00     0.048 A 
ATOM     14  C   UNL A   1      30.164  28.493  23.220  1.00  0.00     0.018 A 
ATOM     15  C   UNL A   1      29.082  27.643  23.455  1.00  0.00     0.128 A 
ATOM     16  C   UNL A   1      31.521  27.993  23.409  1.00  0.00     0.025 C 
ATOM     17  O   UNL A   1      29.220  26.358  23.875  1.00  0.00    -0.475 OA
ATOM     18  C   UNL A   1      30.505  25.981  24.422  1.00  0.00     0.314 C 
BRANCH  10  19
ATOM     19  C   UNL A   1      28.341  31.541  22.071  1.00  0.00    -0.070 C 
ATOM     20  C   UNL A   1      28.105  32.641  21.647  1.00  0.00     0.010 C 
ENDBRANCH  10  19
BRANCH  18  21
ATOM     21  C   UNL A   1      30.390  25.909  25.956  1.00  0.00     0.429 C 
ATOM     22  F   UNL A   1      31.288  25.020  26.453  1.00  0.00    -0.167 F 
ATOM     23  F   UNL A   1      30.655  27.089  26.564  1.00  0.00    -0.167 F 
ATOM     24  F   UNL A   1      29.163  25.523  26.369  1.00  0.00    -0.167 F 
ENDBRANCH  18  21
ENDBRANCH   6   9
ENDBRANCH   4   5
ENDBRANCH   3   4
ENDBRANCH   2   3
ENDBRANCH   1   2
BRANCH   1  25
ATOM     25  C   UNL A   1      31.764  31.834  26.719  1.00  0.00     0.021 C 
BRANCH  25  26
ATOM     26  C   UNL A   1      32.866  32.584  27.454  1.00  0.00     0.116 C 
BRANCH  26  27
ATOM     27  N   UNL A   1      32.530  33.984  27.660  1.00  0.00    -0.352 N 
ATOM     28  C   UNL A   1      33.022  34.871  28.586  1.00  0.00     0.251 C 
ATOM     29  H   UNL A   1      31.851  34.349  27.047  1.00  0.00     0.163 HD
ATOM     30  O   UNL A   1      32.481  35.957  28.759  1.00  0.00    -0.269 OA
BRANCH  28  31
ATOM     31  C   UNL A   1      34.191  34.481  29.396  1.00  0.00     0.039 A 
ATOM     32  C   UNL A   1      35.474  34.525  28.847  1.00  0.00     0.014 A 
ATOM     33  C   UNL A   1      33.992  34.005  30.693  1.00  0.00     0.014 A 
ATOM     34  C   UNL A   1      36.523  33.906  29.511  1.00  0.00     0.010 A 
ATOM     35  C   UNL A   1      35.073  33.481  31.403  1.00  0.00     0.010 A 
ATOM     36  C   UNL A   1      36.333  33.369  30.794  1.00  0.00    -0.014 A 
BRANCH  36  37
ATOM     37  C   UNL A   1      37.452  32.666  31.471  1.00  0.00     0.031 A 
ATOM     38  C   UNL A   1      38.177  31.542  30.781  1.00  0.00     0.074 A 
ATOM     39  C   UNL A   1      37.841  33.069  32.696  1.00  0.00     0.049 A 
ATOM     40  N   UNL A   1      39.149  30.787  31.229  1.00  0.00    -0.248 NA
ATOM     41  C   UNL A   1      37.754  31.218  29.410  1.00  0.00     0.031 C 
ATOM     42  C   UNL A   1      37.238  34.166  33.453  1.00  0.00     0.029 A 
ATOM     43  N   UNL A   1      38.844  32.612  33.512  1.00  0.00    -0.354 N 
ATOM     44  C   UNL A   1      39.438  29.892  30.207  1.00  0.00     0.074 A 
ATOM     45  C   UNL A   1      38.511  30.167  29.132  1.00  0.00     0.031 C 
ATOM     46  C   UNL A   1      37.908  34.327  34.602  1.00  0.00     0.029 A 
ATOM     47  C   UNL A   1      38.935  33.295  34.699  1.00  0.00     0.049 A 
ATOM     48  H   UNL A   1      39.440  31.868  33.269  1.00  0.00     0.167 HD
ATOM     49  C   UNL A   1      40.403  28.942  30.164  1.00  0.00     0.037 A 
ATOM     50  C   UNL A   1      39.739  33.099  35.761  1.00  0.00     0.037 A 
ATOM     51  C   UNL A   1      41.332  28.684  31.234  1.00  0.00     0.049 A 
ATOM     52  C   UNL A   1      40.744  31.983  35.719  1.00  0.00     0.074 A 
ATOM     53  C   UNL A   1      42.355  27.753  31.279  1.00  0.00     0.029 A 
ATOM     54  N   UNL A   1      41.352  29.357  32.447  1.00  0.00    -0.354 N 
ATOM     55  N   UNL A   1      41.019  31.153  34.744  1.00  0.00    -0.248 NA
ATOM     56  C   UNL A   1      41.549  31.776  36.930  1.00  0.00     0.031 C 
ATOM     57  C   UNL A   1      42.949  27.817  32.543  1.00  0.00     0.029 A 
ATOM     58  C   UNL A   1      42.346  28.836  33.262  1.00  0.00     0.049 A 
ATOM     59  H   UNL A   1      40.748  30.095  32.694  1.00  0.00     0.167 HD
ATOM     60  C   UNL A   1      42.037  30.335  35.213  1.00  0.00     0.074 A 
ATOM     61  C   UNL A   1      42.353  30.792  36.551  1.00  0.00     0.031 C 
ATOM     62  C   UNL A   1      42.649  29.295  34.595  1.00  0.00     0.037 A 
BRANCH  49  63
ATOM     63  C   UNL A   1      40.503  28.097  28.923  1.00  0.00     0.064 A 
ATOM     64  C   UNL A   1      39.788  26.897  28.787  1.00  0.00     0.173 A 
ATOM     65  C   UNL A   1      41.275  28.524  27.830  1.00  0.00     0.173 A 
ATOM     66  F   UNL A   1      39.043  26.435  29.803  1.00  0.00    -0.203 F 
ATOM     67  C   UNL A   1      39.861  26.147  27.615  1.00  0.00     0.198 A 
ATOM     68  C   UNL A   1      41.316  27.790  26.648  1.00  0.00     0.198 A 
ATOM     69  F   UNL A   1      41.974  29.667  27.902  1.00  0.00    -0.203 F 
ATOM     70  F   UNL A   1      39.205  24.981  27.528  1.00  0.00    -0.200 F 
ATOM     71  C   UNL A   1      40.615  26.599  26.543  1.00  0.00     0.200 A 
ATOM     72  F   UNL A   1      42.031  28.239  25.607  1.00  0.00    -0.200 F 
ATOM     73  F   UNL A   1      40.669  25.885  25.411  1.00  0.00    -0.200 F 
ENDBRANCH  49  63
BRANCH  50  74
ATOM     74  C   UNL A   1      39.619  33.990  36.944  1.00  0.00     0.064 A 
ATOM     75  C   UNL A   1      40.248  35.241  36.964  1.00  0.00     0.173 A 
ATOM     76  C   UNL A   1      38.845  33.630  38.058  1.00  0.00     0.173 A 
ATOM     77  F   UNL A   1      41.015  35.622  35.933  1.00  0.00    -0.203 F 
ATOM     78  C   UNL A   1      40.112  36.097  38.056  1.00  0.00     0.198 A 
ATOM     79  C   UNL A   1      38.681  34.500  39.133  1.00  0.00     0.198 A 
ATOM     80  F   UNL A   1      38.218  32.444  38.086  1.00  0.00    -0.203 F 
ATOM     81  F   UNL A   1      40.752  37.274  38.064  1.00  0.00    -0.200 F 
ATOM     82  C   UNL A   1      39.320  35.730  39.133  1.00  0.00     0.200 A 
ATOM     83  F   UNL A   1      37.896  34.150  40.161  1.00  0.00    -0.200 F 
ATOM     84  F   UNL A   1      39.172  36.562  40.172  1.00  0.00    -0.200 F 
ENDBRANCH  50  74
BRANCH  62  85
ATOM     85  C   UNL A   1      43.732  28.577  35.353  1.00  0.00     0.064 A 
ATOM     86  C   UNL A   1      45.081  28.940  35.223  1.00  0.00     0.173 A 
ATOM     87  C   UNL A   1      43.413  27.555  36.261  1.00  0.00     0.173 A 
ATOM     88  F   UNL A   1      45.443  29.902  34.361  1.00  0.00    -0.203 F 
ATOM     89  C   UNL A   1      46.072  28.287  35.952  1.00  0.00     0.198 A 
ATOM     90  C   UNL A   1      44.402  26.932  37.017  1.00  0.00     0.198 A 
ATOM     91  F   UNL A   1      42.138  27.174  36.432  1.00  0.00    -0.203 F 
ATOM     92  F   UNL A   1      47.358  28.614  35.771  1.00  0.00    -0.200 F 
ATOM     93  C   UNL A   1      45.731  27.291  36.855  1.00  0.00     0.200 A 
ATOM     94  F   UNL A   1      44.067  25.985  37.905  1.00  0.00    -0.200 F 
ATOM     95  F   UNL A   1      46.684  26.676  37.567  1.00  0.00    -0.200 F 
ENDBRANCH  62  85
ENDBRANCH  36  37
ENDBRANCH  28  31
ENDBRANCH  26  27
ENDBRANCH  25  26
ENDBRANCH   1  25
TORSDOF 15
ENDMDL
