MODEL 1
REMARK VINA RESULT:     -12.1      0.000      0.000
REMARK SMILES C[NH2+][C@@]1(C(=O)NCCCCCCNC(=O)c2ccc(-c3c4nc(c(-c5c(F)c(F)c(F)c(F)c5F)c5ccc([nH]5)c(-c5c(F)c(F)c(F)c(F)c5F)c5nc(c(-c6c(F)c(F)c(F)c(F)c6F)c6ccc3[nH]6)C=C5)C=C4)cc2)CC[C@H](Sc2ccc(C)c(C)c2)C1
REMARK SMILES IDX 9 1 8 2 7 3 6 4 4 5 5 6 3 8 79 9 91 10 80 11 81 12 2 13 1 14
REMARK SMILES IDX 82 17 83 18 84 19 90 20 85 21 88 22 86 23 89 24 87 25 10 26
REMARK SMILES IDX 11 27 12 28 13 29 14 30 15 32 16 33 17 34 78 35 18 36 77 37
REMARK SMILES IDX 19 38 20 39 21 40 71 41 22 42 76 43 70 44 72 45 23 46 75 47
REMARK SMILES IDX 69 48 68 49 24 51 56 52 36 53 55 54 37 55 40 56 54 57 73 58
REMARK SMILES IDX 38 59 39 60 53 62 74 63 41 64 25 65 26 66 34 67 27 68 28 69
REMARK SMILES IDX 32 70 35 71 29 72 30 73 33 74 31 75 57 76 58 77 66 78 59 79
REMARK SMILES IDX 60 80 64 81 67 82 61 83 62 84 65 85 63 86 42 87 43 88 51 89
REMARK SMILES IDX 44 90 45 91 49 92 52 93 46 94 47 95 50 96 48 97
REMARK H PARENT 6 7 2 15 2 16 13 31 72 50 40 61
REMARK Flexibility Score: inf
ROOT
ATOM      1  C   UNL A   1      32.334  29.430  27.110  1.00  0.00     0.002 C 
ENDROOT
BRANCH   1   2
ATOM      2  C   UNL A   1      31.679  28.109  27.516  1.00  0.00     0.021 C 
BRANCH   2   3
ATOM      3  C   UNL A   1      31.308  27.160  26.377  1.00  0.00     0.116 C 
BRANCH   3   4
ATOM      4  N   UNL A   1      30.971  25.820  26.819  1.00  0.00    -0.351 N 
ATOM      5  C   UNL A   1      31.541  24.605  26.579  1.00  0.00     0.281 C 
ATOM      6  O   UNL A   1      31.067  23.659  27.227  1.00  0.00    -0.268 OA
ATOM      7  H   UNL A   1      30.179  25.781  27.403  1.00  0.00     0.163 HD
BRANCH   5   8
ATOM      8  C   UNL A   1      32.761  24.361  25.603  1.00  0.00     0.176 C 
ATOM      9  C   UNL A   1      33.919  25.334  25.924  1.00  0.00     0.080 C 
ATOM     10  C   UNL A   1      32.429  24.585  24.113  1.00  0.00     0.094 C 
ATOM     11  C   UNL A   1      34.015  26.316  24.763  1.00  0.00     0.022 C 
ATOM     12  C   UNL A   1      33.510  25.527  23.566  1.00  0.00     0.058 C 
BRANCH   8  13
ATOM     13  N   UNL A   1      33.331  23.010  25.915  1.00  0.00    -0.336 N 
ATOM     14  C   UNL A   1      34.541  23.001  26.727  1.00  0.00     0.331 C 
ATOM     15  H   UNL A   1      32.618  22.477  26.414  1.00  0.00     0.346 HD
ATOM     16  H   UNL A   1      33.598  22.608  25.017  1.00  0.00     0.346 HD
ENDBRANCH   8  13
BRANCH  12  17
ATOM     17  S   UNL A   1      32.887  26.371  22.054  1.00  0.00    -0.122 SA
BRANCH  17  18
ATOM     18  C   UNL A   1      31.549  27.438  22.547  1.00  0.00     0.008 A 
ATOM     19  C   UNL A   1      31.499  28.794  22.236  1.00  0.00     0.015 A 
ATOM     20  C   UNL A   1      30.410  26.843  23.102  1.00  0.00     0.018 A 
ATOM     21  C   UNL A   1      30.362  29.554  22.527  1.00  0.00     0.005 A 
ATOM     22  C   UNL A   1      29.241  27.584  23.355  1.00  0.00    -0.047 A 
ATOM     23  C   UNL A   1      29.220  28.965  23.085  1.00  0.00    -0.048 A 
ATOM     24  C   UNL A   1      28.018  26.836  23.787  1.00  0.00     0.044 C 
ATOM     25  C   UNL A   1      27.987  29.813  23.256  1.00  0.00     0.044 C 
ENDBRANCH  17  18
ENDBRANCH  12  17
ENDBRANCH   5   8
ENDBRANCH   3   4
ENDBRANCH   2   3
ENDBRANCH   1   2
BRANCH   1  26
ATOM     26  C   UNL A   1      31.547  30.325  26.145  1.00  0.00     0.002 C 
BRANCH  26  27
ATOM     27  C   UNL A   1      31.382  31.802  26.528  1.00  0.00     0.021 C 
BRANCH  27  28
ATOM     28  C   UNL A   1      32.649  32.560  26.938  1.00  0.00     0.116 C 
BRANCH  28  29
ATOM     29  N   UNL A   1      32.387  33.894  27.456  1.00  0.00    -0.352 N 
ATOM     30  C   UNL A   1      33.016  34.585  28.465  1.00  0.00     0.251 C 
ATOM     31  H   UNL A   1      31.648  34.374  27.016  1.00  0.00     0.163 HD
ATOM     32  O   UNL A   1      32.581  35.680  28.821  1.00  0.00    -0.269 OA
BRANCH  30  33
ATOM     33  C   UNL A   1      34.199  34.026  29.157  1.00  0.00     0.039 A 
ATOM     34  C   UNL A   1      34.013  33.104  30.191  1.00  0.00     0.014 A 
ATOM     35  C   UNL A   1      35.493  34.439  28.839  1.00  0.00     0.014 A 
ATOM     36  C   UNL A   1      35.120  32.537  30.842  1.00  0.00     0.010 A 
ATOM     37  C   UNL A   1      36.597  33.826  29.453  1.00  0.00     0.010 A 
ATOM     38  C   UNL A   1      36.434  32.847  30.448  1.00  0.00    -0.014 A 
BRANCH  38  39
ATOM     39  C   UNL A   1      37.616  32.133  31.040  1.00  0.00     0.031 A 
ATOM     40  C   UNL A   1      38.118  32.445  32.431  1.00  0.00     0.074 A 
ATOM     41  C   UNL A   1      38.302  31.228  30.306  1.00  0.00     0.049 A 
ATOM     42  N   UNL A   1      39.155  31.952  33.070  1.00  0.00    -0.248 NA
ATOM     43  C   UNL A   1      37.386  33.467  33.193  1.00  0.00     0.031 C 
ATOM     44  C   UNL A   1      38.012  30.858  28.921  1.00  0.00     0.029 A 
ATOM     45  N   UNL A   1      39.395  30.451  30.628  1.00  0.00    -0.354 N 
ATOM     46  C   UNL A   1      39.217  32.626  34.283  1.00  0.00     0.074 A 
ATOM     47  C   UNL A   1      38.144  33.597  34.273  1.00  0.00     0.031 C 
ATOM     48  C   UNL A   1      38.867  29.902  28.528  1.00  0.00     0.029 A 
ATOM     49  C   UNL A   1      39.794  29.608  29.618  1.00  0.00     0.049 A 
ATOM     50  H   UNL A   1      39.848  30.496  31.501  1.00  0.00     0.167 HD
ATOM     51  C   UNL A   1      40.064  32.441  35.327  1.00  0.00     0.037 A 
ATOM     52  C   UNL A   1      40.784  28.695  29.565  1.00  0.00     0.037 A 
ATOM     53  C   UNL A   1      41.090  31.433  35.396  1.00  0.00     0.049 A 
ATOM     54  C   UNL A   1      41.675  28.466  30.757  1.00  0.00     0.074 A 
ATOM     55  C   UNL A   1      41.917  31.115  36.463  1.00  0.00     0.029 A 
ATOM     56  N   UNL A   1      41.429  30.573  34.365  1.00  0.00    -0.354 N 
ATOM     57  N   UNL A   1      41.659  29.055  31.925  1.00  0.00    -0.248 NA
ATOM     58  C   UNL A   1      42.719  27.437  30.620  1.00  0.00     0.031 C 
ATOM     59  C   UNL A   1      42.776  30.085  36.067  1.00  0.00     0.029 A 
ATOM     60  C   UNL A   1      42.458  29.734  34.767  1.00  0.00     0.049 A 
ATOM     61  H   UNL A   1      41.002  30.558  33.478  1.00  0.00     0.167 HD
ATOM     62  C   UNL A   1      42.663  28.448  32.671  1.00  0.00     0.074 A 
ATOM     63  C   UNL A   1      43.263  27.438  31.828  1.00  0.00     0.031 C 
ATOM     64  C   UNL A   1      43.047  28.712  33.942  1.00  0.00     0.037 A 
BRANCH  51  65
ATOM     65  C   UNL A   1      39.902  33.339  36.521  1.00  0.00     0.064 A 
ATOM     66  C   UNL A   1      40.591  34.556  36.622  1.00  0.00     0.173 A 
ATOM     67  C   UNL A   1      39.001  33.008  37.546  1.00  0.00     0.173 A 
ATOM     68  F   UNL A   1      41.465  34.917  35.670  1.00  0.00    -0.203 F 
ATOM     69  C   UNL A   1      40.413  35.392  37.721  1.00  0.00     0.198 A 
ATOM     70  C   UNL A   1      38.802  33.862  38.628  1.00  0.00     0.198 A 
ATOM     71  F   UNL A   1      38.304  31.863  37.490  1.00  0.00    -0.203 F 
ATOM     72  F   UNL A   1      41.119  36.527  37.819  1.00  0.00    -0.200 F 
ATOM     73  C   UNL A   1      39.513  35.048  38.719  1.00  0.00     0.200 A 
ATOM     74  F   UNL A   1      37.919  33.536  39.583  1.00  0.00    -0.200 F 
ATOM     75  F   UNL A   1      39.337  35.858  39.772  1.00  0.00    -0.200 F 
ENDBRANCH  51  65
BRANCH  52  76
ATOM     76  C   UNL A   1      40.972  27.876  28.337  1.00  0.00     0.064 A 
ATOM     77  C   UNL A   1      40.344  26.629  28.207  1.00  0.00     0.173 A 
ATOM     78  C   UNL A   1      41.798  28.306  27.290  1.00  0.00     0.173 A 
ATOM     79  F   UNL A   1      39.566  26.167  29.196  1.00  0.00    -0.203 F 
ATOM     80  C   UNL A   1      40.552  25.833  27.084  1.00  0.00     0.198 A 
ATOM     81  C   UNL A   1      41.985  27.521  26.155  1.00  0.00     0.198 A 
ATOM     82  F   UNL A   1      42.417  29.494  27.367  1.00  0.00    -0.203 F 
ATOM     83  F   UNL A   1      39.978  24.624  27.007  1.00  0.00    -0.200 F 
ATOM     84  C   UNL A   1      41.370  26.281  26.057  1.00  0.00     0.200 A 
ATOM     85  F   UNL A   1      42.767  27.960  25.160  1.00  0.00    -0.200 F 
ATOM     86  F   UNL A   1      41.572  25.514  24.977  1.00  0.00    -0.200 F 
ENDBRANCH  52  76
BRANCH  64  87
ATOM     87  C   UNL A   1      44.143  27.870  34.531  1.00  0.00     0.064 A 
ATOM     88  C   UNL A   1      43.874  26.648  35.165  1.00  0.00     0.173 A 
ATOM     89  C   UNL A   1      45.483  28.273  34.424  1.00  0.00     0.173 A 
ATOM     90  F   UNL A   1      42.609  26.225  35.308  1.00  0.00    -0.203 F 
ATOM     91  C   UNL A   1      44.906  25.870  35.687  1.00  0.00     0.198 A 
ATOM     92  C   UNL A   1      46.512  27.480  34.925  1.00  0.00     0.198 A 
ATOM     93  F   UNL A   1      45.794  29.431  33.824  1.00  0.00    -0.203 F 
ATOM     94  F   UNL A   1      44.622  24.726  36.324  1.00  0.00    -0.200 F 
ATOM     95  C   UNL A   1      46.223  26.283  35.560  1.00  0.00     0.200 A 
ATOM     96  F   UNL A   1      47.786  27.877  34.792  1.00  0.00    -0.200 F 
ATOM     97  F   UNL A   1      47.214  25.529  36.057  1.00  0.00    -0.200 F 
ENDBRANCH  64  87
ENDBRANCH  38  39
ENDBRANCH  30  33
ENDBRANCH  28  29
ENDBRANCH  27  28
ENDBRANCH  26  27
ENDBRANCH   1  26
TORSDOF 16
ENDMDL
MODEL 2
REMARK VINA RESULT:     -12.0      1.628      2.957
REMARK SMILES C[NH2+][C@@]1(C(=O)NCCCCCCNC(=O)c2ccc(-c3c4nc(c(-c5c(F)c(F)c(F)c(F)c5F)c5ccc([nH]5)c(-c5c(F)c(F)c(F)c(F)c5F)c5nc(c(-c6c(F)c(F)c(F)c(F)c6F)c6ccc3[nH]6)C=C5)C=C4)cc2)CC[C@H](Sc2ccc(C)c(C)c2)C1
REMARK SMILES IDX 9 1 8 2 7 3 6 4 4 5 5 6 3 8 79 9 91 10 80 11 81 12 2 13 1 14
REMARK SMILES IDX 82 17 83 18 84 19 90 20 85 21 88 22 86 23 89 24 87 25 10 26
REMARK SMILES IDX 11 27 12 28 13 29 14 30 15 32 16 33 17 34 78 35 18 36 77 37
REMARK SMILES IDX 19 38 20 39 21 40 71 41 22 42 76 43 70 44 72 45 23 46 75 47
REMARK SMILES IDX 69 48 68 49 24 51 56 52 36 53 55 54 37 55 40 56 54 57 73 58
REMARK SMILES IDX 38 59 39 60 53 62 74 63 41 64 25 65 26 66 34 67 27 68 28 69
REMARK SMILES IDX 32 70 35 71 29 72 30 73 33 74 31 75 57 76 58 77 66 78 59 79
REMARK SMILES IDX 60 80 64 81 67 82 61 83 62 84 65 85 63 86 42 87 43 88 51 89
REMARK SMILES IDX 44 90 45 91 49 92 52 93 46 94 47 95 50 96 48 97
REMARK H PARENT 6 7 2 15 2 16 13 31 72 50 40 61
REMARK Flexibility Score: inf
ROOT
ATOM      1  C   UNL A   1      33.499  27.262  26.337  1.00  0.00     0.002 C 
ENDROOT
BRANCH   1   2
ATOM      2  C   UNL A   1      33.843  25.896  25.738  1.00  0.00     0.021 C 
BRANCH   2   3
ATOM      3  C   UNL A   1      32.794  24.799  25.913  1.00  0.00     0.116 C 
BRANCH   3   4
ATOM      4  N   UNL A   1      33.171  23.777  26.871  1.00  0.00    -0.351 N 
ATOM      5  C   UNL A   1      33.923  22.646  26.757  1.00  0.00     0.281 C 
ATOM      6  O   UNL A   1      34.156  22.053  27.822  1.00  0.00    -0.268 OA
ATOM      7  H   UNL A   1      32.815  23.930  27.777  1.00  0.00     0.163 HD
BRANCH   5   8
ATOM      8  C   UNL A   1      34.535  22.105  25.402  1.00  0.00     0.176 C 
ATOM      9  C   UNL A   1      35.684  23.021  24.920  1.00  0.00     0.080 C 
ATOM     10  C   UNL A   1      33.528  22.049  24.235  1.00  0.00     0.094 C 
ATOM     11  C   UNL A   1      35.192  23.735  23.667  1.00  0.00     0.022 C 
ATOM     12  C   UNL A   1      34.195  22.765  23.053  1.00  0.00     0.058 C 
BRANCH   8  13
ATOM     13  N   UNL A   1      35.215  20.802  25.698  1.00  0.00    -0.336 N 
ATOM     14  C   UNL A   1      36.614  20.711  25.304  1.00  0.00     0.331 C 
ATOM     15  H   UNL A   1      35.164  20.644  26.705  1.00  0.00     0.346 HD
ATOM     16  H   UNL A   1      34.725  20.102  25.142  1.00  0.00     0.346 HD
ENDBRANCH   8  13
BRANCH  12  17
ATOM     17  S   UNL A   1      32.908  23.335  21.868  1.00  0.00    -0.122 SA
BRANCH  17  18
ATOM     18  C   UNL A   1      32.425  24.980  22.349  1.00  0.00     0.008 A 
ATOM     19  C   UNL A   1      33.100  26.125  21.937  1.00  0.00     0.015 A 
ATOM     20  C   UNL A   1      31.201  25.134  23.009  1.00  0.00     0.018 A 
ATOM     21  C   UNL A   1      32.598  27.397  22.229  1.00  0.00     0.005 A 
ATOM     22  C   UNL A   1      30.659  26.406  23.267  1.00  0.00    -0.047 A 
ATOM     23  C   UNL A   1      31.375  27.558  22.892  1.00  0.00    -0.048 A 
ATOM     24  C   UNL A   1      29.269  26.476  23.822  1.00  0.00     0.044 C 
ATOM     25  C   UNL A   1      30.831  28.952  23.064  1.00  0.00     0.044 C 
ENDBRANCH  17  18
ENDBRANCH  12  17
ENDBRANCH   5   8
ENDBRANCH   3   4
ENDBRANCH   2   3
ENDBRANCH   1   2
BRANCH   1  26
ATOM     26  C   UNL A   1      32.013  27.561  26.570  1.00  0.00     0.002 C 
BRANCH  26  27
ATOM     27  C   UNL A   1      31.577  29.032  26.542  1.00  0.00     0.021 C 
BRANCH  27  28
ATOM     28  C   UNL A   1      32.557  30.037  25.928  1.00  0.00     0.116 C 
BRANCH  28  29
ATOM     29  N   UNL A   1      32.355  31.402  26.388  1.00  0.00    -0.352 N 
ATOM     30  C   UNL A   1      33.091  32.149  27.277  1.00  0.00     0.251 C 
ATOM     31  H   UNL A   1      31.573  31.860  26.003  1.00  0.00     0.163 HD
ATOM     32  O   UNL A   1      32.698  33.267  27.610  1.00  0.00    -0.269 OA
BRANCH  30  33
ATOM     33  C   UNL A   1      34.343  31.625  27.869  1.00  0.00     0.039 A 
ATOM     34  C   UNL A   1      35.415  32.496  28.078  1.00  0.00     0.014 A 
ATOM     35  C   UNL A   1      34.496  30.273  28.172  1.00  0.00     0.014 A 
ATOM     36  C   UNL A   1      36.602  32.030  28.666  1.00  0.00     0.010 A 
ATOM     37  C   UNL A   1      35.663  29.824  28.813  1.00  0.00     0.010 A 
ATOM     38  C   UNL A   1      36.728  30.697  29.094  1.00  0.00    -0.014 A 
BRANCH  38  39
ATOM     39  C   UNL A   1      37.935  30.231  29.856  1.00  0.00     0.031 A 
ATOM     40  C   UNL A   1      38.190  30.660  31.283  1.00  0.00     0.074 A 
ATOM     41  C   UNL A   1      38.866  29.458  29.252  1.00  0.00     0.049 A 
ATOM     42  N   UNL A   1      39.209  30.385  32.065  1.00  0.00    -0.248 NA
ATOM     43  C   UNL A   1      37.190  31.540  31.905  1.00  0.00     0.031 C 
ATOM     44  C   UNL A   1      38.829  29.013  27.859  1.00  0.00     0.029 A 
ATOM     45  N   UNL A   1      40.033  28.909  29.738  1.00  0.00    -0.354 N 
ATOM     46  C   UNL A   1      38.990  31.083  33.246  1.00  0.00     0.074 A 
ATOM     47  C   UNL A   1      37.765  31.833  33.063  1.00  0.00     0.031 C 
ATOM     48  C   UNL A   1      39.890  28.227  27.616  1.00  0.00     0.029 A 
ATOM     49  C   UNL A   1      40.707  28.136  28.822  1.00  0.00     0.049 A 
ATOM     50  H   UNL A   1      40.354  29.056  30.657  1.00  0.00     0.167 HD
ATOM     51  C   UNL A   1      39.716  31.082  34.393  1.00  0.00     0.037 A 
ATOM     52  C   UNL A   1      41.849  27.426  28.930  1.00  0.00     0.037 A 
ATOM     53  C   UNL A   1      40.893  30.288  34.630  1.00  0.00     0.049 A 
ATOM     54  C   UNL A   1      42.606  27.394  30.231  1.00  0.00     0.074 A 
ATOM     55  C   UNL A   1      41.621  30.154  35.803  1.00  0.00     0.029 A 
ATOM     56  N   UNL A   1      41.514  29.487  33.687  1.00  0.00    -0.354 N 
ATOM     57  N   UNL A   1      42.332  27.991  31.361  1.00  0.00    -0.248 NA
ATOM     58  C   UNL A   1      43.831  26.578  30.267  1.00  0.00     0.031 C 
ATOM     59  C   UNL A   1      42.700  29.297  35.560  1.00  0.00     0.029 A 
ATOM     60  C   UNL A   1      42.621  28.866  34.247  1.00  0.00     0.049 A 
ATOM     61  H   UNL A   1      41.215  29.374  32.756  1.00  0.00     0.167 HD
ATOM     62  C   UNL A   1      43.327  27.601  32.250  1.00  0.00     0.074 A 
ATOM     63  C   UNL A   1      44.207  26.706  31.531  1.00  0.00     0.031 C 
ATOM     64  C   UNL A   1      43.490  27.958  33.546  1.00  0.00     0.037 A 
BRANCH  51  65
ATOM     65  C   UNL A   1      39.238  31.957  35.517  1.00  0.00     0.064 A 
ATOM     66  C   UNL A   1      38.393  31.465  36.522  1.00  0.00     0.173 A 
ATOM     67  C   UNL A   1      39.680  33.286  35.623  1.00  0.00     0.173 A 
ATOM     68  F   UNL A   1      37.942  30.202  36.465  1.00  0.00    -0.203 F 
ATOM     69  C   UNL A   1      37.978  32.278  37.573  1.00  0.00     0.198 A 
ATOM     70  C   UNL A   1      39.288  34.087  36.693  1.00  0.00     0.198 A 
ATOM     71  F   UNL A   1      40.502  33.802  34.697  1.00  0.00    -0.203 F 
ATOM     72  F   UNL A   1      37.132  31.799  38.495  1.00  0.00    -0.200 F 
ATOM     73  C   UNL A   1      38.431  33.587  37.661  1.00  0.00     0.200 A 
ATOM     74  F   UNL A   1      39.740  35.346  36.785  1.00  0.00    -0.200 F 
ATOM     75  F   UNL A   1      38.038  34.366  38.678  1.00  0.00    -0.200 F 
ENDBRANCH  51  65
BRANCH  52  76
ATOM     76  C   UNL A   1      42.340  26.633  27.771  1.00  0.00     0.064 A 
ATOM     77  C   UNL A   1      43.282  27.174  26.884  1.00  0.00     0.173 A 
ATOM     78  C   UNL A   1      41.863  25.342  27.512  1.00  0.00     0.173 A 
ATOM     79  F   UNL A   1      43.747  28.417  27.079  1.00  0.00    -0.203 F 
ATOM     80  C   UNL A   1      43.713  26.460  25.769  1.00  0.00     0.198 A 
ATOM     81  C   UNL A   1      42.313  24.618  26.411  1.00  0.00     0.198 A 
ATOM     82  F   UNL A   1      40.964  24.780  28.334  1.00  0.00    -0.203 F 
ATOM     83  F   UNL A   1      44.577  27.019  24.911  1.00  0.00    -0.200 F 
ATOM     84  C   UNL A   1      43.230  25.182  25.535  1.00  0.00     0.200 A 
ATOM     85  F   UNL A   1      41.854  23.378  26.192  1.00  0.00    -0.200 F 
ATOM     86  F   UNL A   1      43.643  24.495  24.460  1.00  0.00    -0.200 F 
ENDBRANCH  52  76
BRANCH  64  87
ATOM     87  C   UNL A   1      44.638  27.350  34.299  1.00  0.00     0.064 A 
ATOM     88  C   UNL A   1      45.887  27.985  34.379  1.00  0.00     0.173 A 
ATOM     89  C   UNL A   1      44.475  26.136  34.984  1.00  0.00     0.173 A 
ATOM     90  F   UNL A   1      46.100  29.139  33.730  1.00  0.00    -0.203 F 
ATOM     91  C   UNL A   1      46.934  27.416  35.100  1.00  0.00     0.198 A 
ATOM     92  C   UNL A   1      45.517  25.584  35.724  1.00  0.00     0.198 A 
ATOM     93  F   UNL A   1      43.300  25.490  34.943  1.00  0.00    -0.203 F 
ATOM     94  F   UNL A   1      48.130  28.020  35.130  1.00  0.00    -0.200 F 
ATOM     95  C   UNL A   1      46.746  26.221  35.777  1.00  0.00     0.200 A 
ATOM     96  F   UNL A   1      45.330  24.433  36.386  1.00  0.00    -0.200 F 
ATOM     97  F   UNL A   1      47.755  25.680  36.477  1.00  0.00    -0.200 F 
ENDBRANCH  64  87
ENDBRANCH  38  39
ENDBRANCH  30  33
ENDBRANCH  28  29
ENDBRANCH  27  28
ENDBRANCH  26  27
ENDBRANCH   1  26
TORSDOF 16
ENDMDL
MODEL 3
REMARK VINA RESULT:     -12.0      1.539      3.491
REMARK SMILES C[NH2+][C@@]1(C(=O)NCCCCCCNC(=O)c2ccc(-c3c4nc(c(-c5c(F)c(F)c(F)c(F)c5F)c5ccc([nH]5)c(-c5c(F)c(F)c(F)c(F)c5F)c5nc(c(-c6c(F)c(F)c(F)c(F)c6F)c6ccc3[nH]6)C=C5)C=C4)cc2)CC[C@H](Sc2ccc(C)c(C)c2)C1
REMARK SMILES IDX 9 1 8 2 7 3 6 4 4 5 5 6 3 8 79 9 91 10 80 11 81 12 2 13 1 14
REMARK SMILES IDX 82 17 83 18 84 19 90 20 85 21 88 22 86 23 89 24 87 25 10 26
REMARK SMILES IDX 11 27 12 28 13 29 14 30 15 32 16 33 17 34 78 35 18 36 77 37
REMARK SMILES IDX 19 38 20 39 21 40 71 41 22 42 76 43 70 44 72 45 23 46 75 47
REMARK SMILES IDX 69 48 68 49 24 51 56 52 36 53 55 54 37 55 40 56 54 57 73 58
REMARK SMILES IDX 38 59 39 60 53 62 74 63 41 64 25 65 26 66 34 67 27 68 28 69
REMARK SMILES IDX 32 70 35 71 29 72 30 73 33 74 31 75 57 76 58 77 66 78 59 79
REMARK SMILES IDX 60 80 64 81 67 82 61 83 62 84 65 85 63 86 42 87 43 88 51 89
REMARK SMILES IDX 44 90 45 91 49 92 52 93 46 94 47 95 50 96 48 97
REMARK H PARENT 6 7 2 15 2 16 13 31 72 50 40 61
REMARK Flexibility Score: inf
ROOT
ATOM      1  C   UNL A   1      32.001  29.525  27.052  1.00  0.00     0.002 C 
ENDROOT
BRANCH   1   2
ATOM      2  C   UNL A   1      33.492  29.183  27.034  1.00  0.00     0.021 C 
BRANCH   2   3
ATOM      3  C   UNL A   1      33.928  28.114  26.032  1.00  0.00     0.116 C 
BRANCH   3   4
ATOM      4  N   UNL A   1      34.076  28.609  24.677  1.00  0.00    -0.351 N 
ATOM      5  C   UNL A   1      33.460  28.276  23.507  1.00  0.00     0.281 C 
ATOM      6  O   UNL A   1      33.740  28.996  22.536  1.00  0.00    -0.268 OA
ATOM      7  H   UNL A   1      34.751  29.320  24.584  1.00  0.00     0.163 HD
BRANCH   5   8
ATOM      8  C   UNL A   1      32.410  27.104  23.345  1.00  0.00     0.176 C 
ATOM      9  C   UNL A   1      31.022  27.541  23.868  1.00  0.00     0.080 C 
ATOM     10  C   UNL A   1      32.768  25.825  24.129  1.00  0.00     0.094 C 
ATOM     11  C   UNL A   1      30.751  26.745  25.139  1.00  0.00     0.022 C 
ATOM     12  C   UNL A   1      31.519  25.448  24.937  1.00  0.00     0.058 C 
BRANCH   8  13
ATOM     13  N   UNL A   1      32.189  26.890  21.877  1.00  0.00    -0.336 N 
ATOM     14  C   UNL A   1      32.643  25.613  21.345  1.00  0.00     0.331 C 
ATOM     15  H   UNL A   1      31.188  26.965  21.698  1.00  0.00     0.346 HD
ATOM     16  H   UNL A   1      32.750  27.600  21.407  1.00  0.00     0.346 HD
ENDBRANCH   8  13
BRANCH  12  17
ATOM     17  S   UNL A   1      31.999  24.386  26.361  1.00  0.00    -0.122 SA
BRANCH  17  18
ATOM     18  C   UNL A   1      33.344  23.348  25.828  1.00  0.00     0.008 A 
ATOM     19  C   UNL A   1      34.676  23.603  26.143  1.00  0.00     0.015 A 
ATOM     20  C   UNL A   1      33.026  22.122  25.233  1.00  0.00     0.018 A 
ATOM     21  C   UNL A   1      35.677  22.682  25.818  1.00  0.00     0.005 A 
ATOM     22  C   UNL A   1      34.017  21.165  24.944  1.00  0.00    -0.047 A 
ATOM     23  C   UNL A   1      35.366  21.454  25.219  1.00  0.00    -0.048 A 
ATOM     24  C   UNL A   1      33.570  19.817  24.468  1.00  0.00     0.044 C 
ATOM     25  C   UNL A   1      36.476  20.457  25.011  1.00  0.00     0.044 C 
ENDBRANCH  17  18
ENDBRANCH  12  17
ENDBRANCH   5   8
ENDBRANCH   3   4
ENDBRANCH   2   3
ENDBRANCH   1   2
BRANCH   1  26
ATOM     26  C   UNL A   1      31.549  30.690  26.163  1.00  0.00     0.002 C 
BRANCH  26  27
ATOM     27  C   UNL A   1      31.371  32.060  26.832  1.00  0.00     0.021 C 
BRANCH  27  28
ATOM     28  C   UNL A   1      32.636  32.894  27.058  1.00  0.00     0.116 C 
BRANCH  28  29
ATOM     29  N   UNL A   1      32.372  34.219  27.596  1.00  0.00    -0.352 N 
ATOM     30  C   UNL A   1      33.000  34.896  28.614  1.00  0.00     0.251 C 
ATOM     31  H   UNL A   1      31.631  34.704  27.165  1.00  0.00     0.163 HD
ATOM     32  O   UNL A   1      32.563  35.985  28.987  1.00  0.00    -0.269 OA
BRANCH  30  33
ATOM     33  C   UNL A   1      34.187  34.330  29.296  1.00  0.00     0.039 A 
ATOM     34  C   UNL A   1      34.008  33.553  30.443  1.00  0.00     0.014 A 
ATOM     35  C   UNL A   1      35.481  34.600  28.851  1.00  0.00     0.014 A 
ATOM     36  C   UNL A   1      35.114  32.980  31.090  1.00  0.00     0.010 A 
ATOM     37  C   UNL A   1      36.579  33.977  29.467  1.00  0.00     0.010 A 
ATOM     38  C   UNL A   1      36.416  33.137  30.582  1.00  0.00    -0.014 A 
BRANCH  38  39
ATOM     39  C   UNL A   1      37.583  32.406  31.183  1.00  0.00     0.031 A 
ATOM     40  C   UNL A   1      38.103  32.736  32.563  1.00  0.00     0.074 A 
ATOM     41  C   UNL A   1      38.241  31.467  30.466  1.00  0.00     0.049 A 
ATOM     42  N   UNL A   1      39.131  32.231  33.207  1.00  0.00    -0.248 NA
ATOM     43  C   UNL A   1      37.403  33.794  33.306  1.00  0.00     0.031 C 
ATOM     44  C   UNL A   1      37.932  31.073  29.092  1.00  0.00     0.029 A 
ATOM     45  N   UNL A   1      39.314  30.669  30.799  1.00  0.00    -0.354 N 
ATOM     46  C   UNL A   1      39.219  32.931  34.404  1.00  0.00     0.074 A 
ATOM     47  C   UNL A   1      38.171  33.930  34.378  1.00  0.00     0.031 C 
ATOM     48  C   UNL A   1      38.758  30.085  28.716  1.00  0.00     0.029 A 
ATOM     49  C   UNL A   1      39.684  29.792  29.807  1.00  0.00     0.049 A 
ATOM     50  H   UNL A   1      39.774  30.721  31.668  1.00  0.00     0.167 HD
ATOM     51  C   UNL A   1      40.068  32.747  35.447  1.00  0.00     0.037 A 
ATOM     52  C   UNL A   1      40.650  28.852  29.768  1.00  0.00     0.037 A 
ATOM     53  C   UNL A   1      41.067  31.714  35.533  1.00  0.00     0.049 A 
ATOM     54  C   UNL A   1      41.542  28.628  30.960  1.00  0.00     0.074 A 
ATOM     55  C   UNL A   1      41.893  31.400  36.602  1.00  0.00     0.029 A 
ATOM     56  N   UNL A   1      41.376  30.822  34.520  1.00  0.00    -0.354 N 
ATOM     57  N   UNL A   1      41.550  29.243  32.114  1.00  0.00    -0.248 NA
ATOM     58  C   UNL A   1      42.558  27.568  30.841  1.00  0.00     0.031 C 
ATOM     59  C   UNL A   1      42.721  30.338  36.225  1.00  0.00     0.029 A 
ATOM     60  C   UNL A   1      42.386  29.966  34.934  1.00  0.00     0.049 A 
ATOM     61  H   UNL A   1      40.943  30.798  33.636  1.00  0.00     0.167 HD
ATOM     62  C   UNL A   1      42.542  28.627  32.868  1.00  0.00     0.074 A 
ATOM     63  C   UNL A   1      43.110  27.582  32.045  1.00  0.00     0.031 C 
ATOM     64  C   UNL A   1      42.942  28.910  34.131  1.00  0.00     0.037 A 
BRANCH  51  65
ATOM     65  C   UNL A   1      39.937  33.677  36.620  1.00  0.00     0.064 A 
ATOM     66  C   UNL A   1      40.681  34.862  36.703  1.00  0.00     0.173 A 
ATOM     67  C   UNL A   1      39.013  33.409  37.643  1.00  0.00     0.173 A 
ATOM     68  F   UNL A   1      41.579  35.163  35.752  1.00  0.00    -0.203 F 
ATOM     69  C   UNL A   1      40.533  35.729  37.783  1.00  0.00     0.198 A 
ATOM     70  C   UNL A   1      38.844  34.294  38.705  1.00  0.00     0.198 A 
ATOM     71  F   UNL A   1      38.264  32.297  37.604  1.00  0.00    -0.203 F 
ATOM     72  F   UNL A   1      41.290  36.831  37.864  1.00  0.00    -0.200 F 
ATOM     73  C   UNL A   1      39.610  35.447  38.780  1.00  0.00     0.200 A 
ATOM     74  F   UNL A   1      37.940  34.028  39.658  1.00  0.00    -0.200 F 
ATOM     75  F   UNL A   1      39.462  36.287  39.814  1.00  0.00    -0.200 F 
ENDBRANCH  51  65
BRANCH  52  76
ATOM     76  C   UNL A   1      40.808  28.001  28.559  1.00  0.00     0.064 A 
ATOM     77  C   UNL A   1      41.616  28.419  27.492  1.00  0.00     0.173 A 
ATOM     78  C   UNL A   1      40.139  26.776  28.434  1.00  0.00     0.173 A 
ATOM     79  F   UNL A   1      42.254  29.597  27.558  1.00  0.00    -0.203 F 
ATOM     80  C   UNL A   1      41.732  27.653  26.334  1.00  0.00     0.198 A 
ATOM     81  C   UNL A   1      40.276  25.998  27.286  1.00  0.00     0.198 A 
ATOM     82  F   UNL A   1      39.358  26.331  29.429  1.00  0.00    -0.203 F 
ATOM     83  F   UNL A   1      42.471  28.100  25.310  1.00  0.00    -0.200 F 
ATOM     84  C   UNL A   1      41.065  26.442  26.234  1.00  0.00     0.200 A 
ATOM     85  F   UNL A   1      39.639  24.823  27.195  1.00  0.00    -0.200 F 
ATOM     86  F   UNL A   1      41.174  25.706  25.119  1.00  0.00    -0.200 F 
ENDBRANCH  52  76
BRANCH  64  87
ATOM     87  C   UNL A   1      44.019  28.053  34.731  1.00  0.00     0.064 A 
ATOM     88  C   UNL A   1      45.374  28.408  34.653  1.00  0.00     0.173 A 
ATOM     89  C   UNL A   1      43.687  26.882  35.429  1.00  0.00     0.173 A 
ATOM     90  F   UNL A   1      45.745  29.509  33.983  1.00  0.00    -0.203 F 
ATOM     91  C   UNL A   1      46.358  27.611  35.234  1.00  0.00     0.198 A 
ATOM     92  C   UNL A   1      44.672  26.101  36.030  1.00  0.00     0.198 A 
ATOM     93  F   UNL A   1      42.406  26.498  35.536  1.00  0.00    -0.203 F 
ATOM     94  F   UNL A   1      47.649  27.949  35.113  1.00  0.00    -0.200 F 
ATOM     95  C   UNL A   1      46.005  26.463  35.928  1.00  0.00     0.200 A 
ATOM     96  F   UNL A   1      44.328  24.998  36.709  1.00  0.00    -0.200 F 
ATOM     97  F   UNL A   1      46.954  25.702  36.493  1.00  0.00    -0.200 F 
ENDBRANCH  64  87
ENDBRANCH  38  39
ENDBRANCH  30  33
ENDBRANCH  28  29
ENDBRANCH  27  28
ENDBRANCH  26  27
ENDBRANCH   1  26
TORSDOF 16
ENDMDL
