MODEL 1
REMARK VINA RESULT:     -12.7      0.000      0.000
REMARK SMILES CC1(C)S[C@H](c2ccc(-c3ccccc3)o2)[NH2+][C@H]1C(=O)NCCCCCCNC(=O)c1ccc(-c2c3nc(c(-c4c(F)c(F)c(F)c(F)c4F)c4ccc([nH]4)c(-c4c(F)c(F)c(F)c(F)c4F)c4nc(c(-c5c(F)c(F)c(F)c(F)c5F)c5ccc2[nH]5)C=C4)C=C3)cc1
REMARK SMILES IDX 24 1 23 2 22 3 21 4 19 5 20 6 18 8 1 9 2 10 3 11 4 12 5 13
REMARK SMILES IDX 17 14 6 17 7 18 16 19 8 20 9 21 10 22 11 23 15 24 12 25
REMARK SMILES IDX 14 26 13 27 25 28 26 29 27 30 28 31 29 32 30 34 31 35 32 36
REMARK SMILES IDX 93 37 33 38 92 39 34 40 35 41 36 42 86 43 37 44 91 45 85 46
REMARK SMILES IDX 87 47 38 48 90 49 84 50 83 51 39 53 71 54 51 55 70 56 52 57
REMARK SMILES IDX 55 58 69 59 88 60 53 61 54 62 68 64 89 65 56 66 40 67 41 68
REMARK SMILES IDX 49 69 42 70 43 71 47 72 50 73 44 74 45 75 48 76 46 77 72 78
REMARK SMILES IDX 73 79 81 80 74 81 75 82 79 83 82 84 76 85 77 86 80 87 78 88
REMARK SMILES IDX 57 89 58 90 66 91 59 92 60 93 64 94 67 95 61 96 62 97 65 98
REMARK SMILES IDX 63 99
REMARK H PARENT 21 7 17 15 17 16 28 33 87 52 55 63
REMARK Flexibility Score: inf
ROOT
ATOM      1  C   UNL A   1      32.743  29.970  27.182  1.00  0.00     0.002 C 
ENDROOT
BRANCH   1   2
ATOM      2  C   UNL A   1      32.699  28.442  27.147  1.00  0.00     0.021 C 
BRANCH   2   3
ATOM      3  C   UNL A   1      33.808  27.785  26.321  1.00  0.00     0.116 C 
BRANCH   3   4
ATOM      4  N   UNL A   1      33.564  27.929  24.898  1.00  0.00    -0.351 N 
ATOM      5  C   UNL A   1      33.194  27.067  23.910  1.00  0.00     0.279 C 
ATOM      6  O   UNL A   1      33.237  27.524  22.760  1.00  0.00    -0.268 OA
ATOM      7  H   UNL A   1      33.694  28.850  24.576  1.00  0.00     0.163 HD
BRANCH   5   8
ATOM      8  C   UNL A   1      32.794  25.590  24.130  1.00  0.00     0.289 C 
ATOM      9  C   UNL A   1      30.276  26.102  23.540  1.00  0.00     0.030 C 
ATOM     10  C   UNL A   1      31.292  25.357  24.403  1.00  0.00     0.078 C 
ATOM     11  C   UNL A   1      30.958  25.603  25.880  1.00  0.00     0.030 C 
ATOM     12  S   UNL A   1      31.069  23.586  24.027  1.00  0.00    -0.078 SA
ATOM     13  C   UNL A   1      32.684  23.387  23.226  1.00  0.00     0.311 C 
ATOM     14  N   UNL A   1      33.333  24.691  23.083  1.00  0.00    -0.317 N 
ATOM     15  H   UNL A   1      33.134  25.076  22.160  1.00  0.00     0.348 HD
ATOM     16  H   UNL A   1      34.343  24.596  23.184  1.00  0.00     0.348 HD
BRANCH  13  17
ATOM     17  C   UNL A   1      33.474  22.334  23.936  1.00  0.00     0.172 A 
ATOM     18  C   UNL A   1      34.631  22.439  24.686  1.00  0.00     0.054 A 
ATOM     19  O   UNL A   1      33.079  21.022  23.881  1.00  0.00    -0.454 OA
ATOM     20  C   UNL A   1      34.949  21.140  25.129  1.00  0.00     0.051 A 
ATOM     21  C   UNL A   1      33.974  20.304  24.626  1.00  0.00     0.134 A 
BRANCH  21  22
ATOM     22  C   UNL A   1      33.746  18.874  24.761  1.00  0.00     0.017 A 
ATOM     23  C   UNL A   1      32.570  18.375  25.334  1.00  0.00     0.012 A 
ATOM     24  C   UNL A   1      34.688  17.968  24.251  1.00  0.00     0.012 A 
ATOM     25  C   UNL A   1      32.335  16.997  25.374  1.00  0.00     0.001 A 
ATOM     26  C   UNL A   1      34.458  16.592  24.303  1.00  0.00     0.001 A 
ATOM     27  C   UNL A   1      33.277  16.107  24.858  1.00  0.00     0.000 A 
ENDBRANCH  21  22
ENDBRANCH  13  17
ENDBRANCH   5   8
ENDBRANCH   3   4
ENDBRANCH   2   3
ENDBRANCH   1   2
BRANCH   1  28
ATOM     28  C   UNL A   1      31.584  30.674  26.471  1.00  0.00     0.002 C 
BRANCH  28  29
ATOM     29  C   UNL A   1      31.403  32.157  26.807  1.00  0.00     0.021 C 
BRANCH  29  30
ATOM     30  C   UNL A   1      32.694  32.950  26.995  1.00  0.00     0.116 C 
BRANCH  30  31
ATOM     31  N   UNL A   1      32.467  34.237  27.626  1.00  0.00    -0.352 N 
ATOM     32  C   UNL A   1      33.047  34.779  28.742  1.00  0.00     0.251 C 
ATOM     33  H   UNL A   1      31.795  34.805  27.185  1.00  0.00     0.163 HD
ATOM     34  O   UNL A   1      32.601  35.816  29.220  1.00  0.00    -0.269 OA
BRANCH  32  35
ATOM     35  C   UNL A   1      34.202  34.115  29.387  1.00  0.00     0.039 A 
ATOM     36  C   UNL A   1      35.488  34.461  28.963  1.00  0.00     0.014 A 
ATOM     37  C   UNL A   1      34.028  33.122  30.357  1.00  0.00     0.014 A 
ATOM     38  C   UNL A   1      36.599  33.828  29.526  1.00  0.00     0.010 A 
ATOM     39  C   UNL A   1      35.138  32.539  30.964  1.00  0.00     0.010 A 
ATOM     40  C   UNL A   1      36.433  32.870  30.539  1.00  0.00    -0.014 A 
BRANCH  40  41
ATOM     41  C   UNL A   1      37.611  32.177  31.118  1.00  0.00     0.031 A 
ATOM     42  C   UNL A   1      38.086  32.524  32.503  1.00  0.00     0.074 A 
ATOM     43  C   UNL A   1      38.265  31.250  30.393  1.00  0.00     0.049 A 
ATOM     44  N   UNL A   1      39.086  32.025  33.185  1.00  0.00    -0.248 NA
ATOM     45  C   UNL A   1      37.355  33.590  33.205  1.00  0.00     0.031 C 
ATOM     46  C   UNL A   1      37.934  30.864  29.022  1.00  0.00     0.029 A 
ATOM     47  N   UNL A   1      39.344  30.463  30.711  1.00  0.00    -0.354 N 
ATOM     48  C   UNL A   1      39.110  32.723  34.386  1.00  0.00     0.074 A 
ATOM     49  C   UNL A   1      38.062  33.717  34.318  1.00  0.00     0.031 C 
ATOM     50  C   UNL A   1      38.773  29.893  28.624  1.00  0.00     0.029 A 
ATOM     51  C   UNL A   1      39.714  29.606  29.704  1.00  0.00     0.049 A 
ATOM     52  H   UNL A   1      39.808  30.510  31.577  1.00  0.00     0.167 HD
ATOM     53  C   UNL A   1      39.914  32.535  35.460  1.00  0.00     0.037 A 
ATOM     54  C   UNL A   1      40.695  28.685  29.663  1.00  0.00     0.037 A 
ATOM     55  C   UNL A   1      40.936  31.524  35.538  1.00  0.00     0.049 A 
ATOM     56  C   UNL A   1      41.558  28.477  30.878  1.00  0.00     0.074 A 
ATOM     57  C   UNL A   1      41.764  31.210  36.602  1.00  0.00     0.029 A 
ATOM     58  N   UNL A   1      41.267  30.658  34.506  1.00  0.00    -0.354 N 
ATOM     59  N   UNL A   1      41.523  29.094  32.034  1.00  0.00    -0.248 NA
ATOM     60  C   UNL A   1      42.588  27.434  30.785  1.00  0.00     0.031 C 
ATOM     61  C   UNL A   1      42.621  30.180  36.201  1.00  0.00     0.029 A 
ATOM     62  C   UNL A   1      42.299  29.821  34.902  1.00  0.00     0.049 A 
ATOM     63  H   UNL A   1      40.834  30.640  33.622  1.00  0.00     0.167 HD
ATOM     64  C   UNL A   1      42.506  28.500  32.813  1.00  0.00     0.074 A 
ATOM     65  C   UNL A   1      43.106  27.459  32.004  1.00  0.00     0.031 C 
ATOM     66  C   UNL A   1      42.883  28.791  34.083  1.00  0.00     0.037 A 
BRANCH  53  67
ATOM     67  C   UNL A   1      39.713  33.438  36.642  1.00  0.00     0.064 A 
ATOM     68  C   UNL A   1      38.847  33.093  37.691  1.00  0.00     0.173 A 
ATOM     69  C   UNL A   1      40.413  34.650  36.741  1.00  0.00     0.173 A 
ATOM     70  F   UNL A   1      38.144  31.952  37.639  1.00  0.00    -0.203 F 
ATOM     71  C   UNL A   1      38.665  33.943  38.779  1.00  0.00     0.198 A 
ATOM     72  C   UNL A   1      40.252  35.483  37.846  1.00  0.00     0.198 A 
ATOM     73  F   UNL A   1      41.258  35.025  35.769  1.00  0.00    -0.203 F 
ATOM     74  F   UNL A   1      37.794  33.617  39.744  1.00  0.00    -0.200 F 
ATOM     75  C   UNL A   1      39.372  35.133  38.859  1.00  0.00     0.200 A 
ATOM     76  F   UNL A   1      40.944  36.628  37.926  1.00  0.00    -0.200 F 
ATOM     77  F   UNL A   1      39.199  35.948  39.909  1.00  0.00    -0.200 F 
ENDBRANCH  53  67
BRANCH  54  78
ATOM     78  C   UNL A   1      40.887  27.861  28.443  1.00  0.00     0.064 A 
ATOM     79  C   UNL A   1      41.714  28.301  27.400  1.00  0.00     0.173 A 
ATOM     80  C   UNL A   1      40.248  26.622  28.290  1.00  0.00     0.173 A 
ATOM     81  F   UNL A   1      42.331  29.488  27.493  1.00  0.00    -0.203 F 
ATOM     82  C   UNL A   1      41.878  27.545  26.242  1.00  0.00     0.198 A 
ATOM     83  C   UNL A   1      40.432  25.855  27.143  1.00  0.00     0.198 A 
ATOM     84  F   UNL A   1      39.450  26.154  29.262  1.00  0.00    -0.203 F 
ATOM     85  F   UNL A   1      42.638  28.011  25.242  1.00  0.00    -0.200 F 
ATOM     86  C   UNL A   1      41.240  26.320  26.116  1.00  0.00     0.200 A 
ATOM     87  F   UNL A   1      39.825  24.665  27.030  1.00  0.00    -0.200 F 
ATOM     88  F   UNL A   1      41.399  25.591  25.002  1.00  0.00    -0.200 F 
ENDBRANCH  54  78
BRANCH  66  89
ATOM     89  C   UNL A   1      43.978  27.957  34.678  1.00  0.00     0.064 A 
ATOM     90  C   UNL A   1      43.706  26.749  35.338  1.00  0.00     0.173 A 
ATOM     91  C   UNL A   1      45.319  28.360  34.571  1.00  0.00     0.173 A 
ATOM     92  F   UNL A   1      42.440  26.329  35.478  1.00  0.00    -0.203 F 
ATOM     93  C   UNL A   1      44.732  25.993  35.898  1.00  0.00     0.198 A 
ATOM     94  C   UNL A   1      46.344  27.586  35.107  1.00  0.00     0.198 A 
ATOM     95  F   UNL A   1      45.632  29.504  33.944  1.00  0.00    -0.203 F 
ATOM     96  F   UNL A   1      44.443  24.870  36.571  1.00  0.00    -0.200 F 
ATOM     97  C   UNL A   1      46.050  26.408  35.778  1.00  0.00     0.200 A 
ATOM     98  F   UNL A   1      47.617  27.984  34.979  1.00  0.00    -0.200 F 
ATOM     99  F   UNL A   1      47.035  25.679  36.317  1.00  0.00    -0.200 F 
ENDBRANCH  66  89
ENDBRANCH  40  41
ENDBRANCH  32  35
ENDBRANCH  30  31
ENDBRANCH  29  30
ENDBRANCH  28  29
ENDBRANCH   1  28
TORSDOF 15
ENDMDL
MODEL 2
REMARK VINA RESULT:     -12.5      0.748      7.346
REMARK SMILES CC1(C)S[C@H](c2ccc(-c3ccccc3)o2)[NH2+][C@H]1C(=O)NCCCCCCNC(=O)c1ccc(-c2c3nc(c(-c4c(F)c(F)c(F)c(F)c4F)c4ccc([nH]4)c(-c4c(F)c(F)c(F)c(F)c4F)c4nc(c(-c5c(F)c(F)c(F)c(F)c5F)c5ccc2[nH]5)C=C4)C=C3)cc1
REMARK SMILES IDX 24 1 23 2 22 3 21 4 19 5 20 6 18 8 1 9 2 10 3 11 4 12 5 13
REMARK SMILES IDX 17 14 6 17 7 18 16 19 8 20 9 21 10 22 11 23 15 24 12 25
REMARK SMILES IDX 14 26 13 27 25 28 26 29 27 30 28 31 29 32 30 34 31 35 32 36
REMARK SMILES IDX 93 37 33 38 92 39 34 40 35 41 36 42 86 43 37 44 91 45 85 46
REMARK SMILES IDX 87 47 38 48 90 49 84 50 83 51 39 53 71 54 51 55 70 56 52 57
REMARK SMILES IDX 55 58 69 59 88 60 53 61 54 62 68 64 89 65 56 66 40 67 41 68
REMARK SMILES IDX 49 69 42 70 43 71 47 72 50 73 44 74 45 75 48 76 46 77 72 78
REMARK SMILES IDX 73 79 81 80 74 81 75 82 79 83 82 84 76 85 77 86 80 87 78 88
REMARK SMILES IDX 57 89 58 90 66 91 59 92 60 93 64 94 67 95 61 96 62 97 65 98
REMARK SMILES IDX 63 99
REMARK H PARENT 21 7 17 15 17 16 28 33 87 52 55 63
REMARK Flexibility Score: inf
ROOT
ATOM      1  C   UNL A   1      32.962  30.078  27.201  1.00  0.00     0.002 C 
ENDROOT
BRANCH   1   2
ATOM      2  C   UNL A   1      32.752  28.564  27.246  1.00  0.00     0.021 C 
BRANCH   2   3
ATOM      3  C   UNL A   1      33.779  27.748  26.457  1.00  0.00     0.116 C 
BRANCH   3   4
ATOM      4  N   UNL A   1      33.583  27.892  25.026  1.00  0.00    -0.351 N 
ATOM      5  C   UNL A   1      33.253  27.029  24.026  1.00  0.00     0.279 C 
ATOM      6  O   UNL A   1      33.331  27.488  22.879  1.00  0.00    -0.268 OA
ATOM      7  H   UNL A   1      33.717  28.815  24.711  1.00  0.00     0.163 HD
BRANCH   5   8
ATOM      8  C   UNL A   1      32.856  25.549  24.230  1.00  0.00     0.289 C 
ATOM      9  C   UNL A   1      30.338  26.059  23.641  1.00  0.00     0.030 C 
ATOM     10  C   UNL A   1      31.354  25.309  24.499  1.00  0.00     0.078 C 
ATOM     11  C   UNL A   1      31.018  25.539  25.977  1.00  0.00     0.030 C 
ATOM     12  S   UNL A   1      31.137  23.541  24.105  1.00  0.00    -0.078 SA
ATOM     13  C   UNL A   1      32.754  23.355  23.305  1.00  0.00     0.311 C 
ATOM     14  N   UNL A   1      33.399  24.662  23.175  1.00  0.00    -0.317 N 
ATOM     15  H   UNL A   1      33.201  25.055  22.256  1.00  0.00     0.348 HD
ATOM     16  H   UNL A   1      34.410  24.568  23.278  1.00  0.00     0.348 HD
BRANCH  13  17
ATOM     17  C   UNL A   1      33.546  22.297  24.005  1.00  0.00     0.172 A 
ATOM     18  C   UNL A   1      34.710  22.395  24.745  1.00  0.00     0.054 A 
ATOM     19  O   UNL A   1      33.145  20.987  23.951  1.00  0.00    -0.454 OA
ATOM     20  C   UNL A   1      35.027  21.094  25.182  1.00  0.00     0.051 A 
ATOM     21  C   UNL A   1      34.044  20.264  24.687  1.00  0.00     0.134 A 
BRANCH  21  22
ATOM     22  C   UNL A   1      33.810  18.834  24.822  1.00  0.00     0.017 A 
ATOM     23  C   UNL A   1      32.664  18.339  25.454  1.00  0.00     0.012 A 
ATOM     24  C   UNL A   1      34.714  17.925  24.252  1.00  0.00     0.012 A 
ATOM     25  C   UNL A   1      32.418  16.963  25.495  1.00  0.00     0.001 A 
ATOM     26  C   UNL A   1      34.475  16.551  24.304  1.00  0.00     0.001 A 
ATOM     27  C   UNL A   1      33.323  16.071  24.919  1.00  0.00     0.000 A 
ENDBRANCH  21  22
ENDBRANCH  13  17
ENDBRANCH   5   8
ENDBRANCH   3   4
ENDBRANCH   2   3
ENDBRANCH   1   2
BRANCH   1  28
ATOM     28  C   UNL A   1      31.831  30.874  26.546  1.00  0.00     0.002 C 
BRANCH  28  29
ATOM     29  C   UNL A   1      31.588  32.274  27.116  1.00  0.00     0.021 C 
BRANCH  29  30
ATOM     30  C   UNL A   1      32.807  33.193  27.143  1.00  0.00     0.116 C 
BRANCH  30  31
ATOM     31  N   UNL A   1      32.516  34.483  27.740  1.00  0.00    -0.352 N 
ATOM     32  C   UNL A   1      33.006  35.047  28.888  1.00  0.00     0.251 C 
ATOM     33  H   UNL A   1      31.868  35.036  27.246  1.00  0.00     0.163 HD
ATOM     34  O   UNL A   1      32.512  36.083  29.320  1.00  0.00    -0.269 OA
BRANCH  32  35
ATOM     35  C   UNL A   1      34.123  34.410  29.622  1.00  0.00     0.039 A 
ATOM     36  C   UNL A   1      35.416  34.544  29.110  1.00  0.00     0.014 A 
ATOM     37  C   UNL A   1      33.900  33.639  30.768  1.00  0.00     0.014 A 
ATOM     38  C   UNL A   1      36.487  33.925  29.758  1.00  0.00     0.010 A 
ATOM     39  C   UNL A   1      34.976  33.078  31.451  1.00  0.00     0.010 A 
ATOM     40  C   UNL A   1      36.278  33.197  30.940  1.00  0.00    -0.014 A 
BRANCH  40  41
ATOM     41  C   UNL A   1      37.411  32.516  31.615  1.00  0.00     0.031 A 
ATOM     42  C   UNL A   1      38.116  31.372  30.939  1.00  0.00     0.074 A 
ATOM     43  C   UNL A   1      37.794  32.914  32.842  1.00  0.00     0.049 A 
ATOM     44  N   UNL A   1      39.130  30.658  31.360  1.00  0.00    -0.248 NA
ATOM     45  C   UNL A   1      37.598  30.959  29.626  1.00  0.00     0.031 C 
ATOM     46  C   UNL A   1      37.158  33.975  33.623  1.00  0.00     0.029 A 
ATOM     47  N   UNL A   1      38.814  32.473  33.649  1.00  0.00    -0.354 N 
ATOM     48  C   UNL A   1      39.360  29.709  30.372  1.00  0.00     0.074 A 
ATOM     49  C   UNL A   1      38.348  29.900  29.358  1.00  0.00     0.031 C 
ATOM     50  C   UNL A   1      37.818  34.123  34.783  1.00  0.00     0.029 A 
ATOM     51  C   UNL A   1      38.908  33.153  34.837  1.00  0.00     0.049 A 
ATOM     52  H   UNL A   1      39.419  31.738  33.398  1.00  0.00     0.167 HD
ATOM     53  C   UNL A   1      40.344  28.780  30.303  1.00  0.00     0.037 A 
ATOM     54  C   UNL A   1      39.784  33.015  35.851  1.00  0.00     0.037 A 
ATOM     55  C   UNL A   1      41.370  28.612  31.299  1.00  0.00     0.049 A 
ATOM     56  C   UNL A   1      40.883  31.993  35.738  1.00  0.00     0.074 A 
ATOM     57  C   UNL A   1      42.446  27.741  31.294  1.00  0.00     0.029 A 
ATOM     58  N   UNL A   1      41.447  29.336  32.479  1.00  0.00    -0.354 N 
ATOM     59  N   UNL A   1      41.133  31.151  34.765  1.00  0.00    -0.248 NA
ATOM     60  C   UNL A   1      41.828  31.914  36.860  1.00  0.00     0.031 C 
ATOM     61  C   UNL A   1      43.152  27.912  32.490  1.00  0.00     0.029 A 
ATOM     62  C   UNL A   1      42.543  28.919  33.219  1.00  0.00     0.049 A 
ATOM     63  H   UNL A   1      40.816  30.040  32.753  1.00  0.00     0.167 HD
ATOM     64  C   UNL A   1      42.276  30.460  35.146  1.00  0.00     0.074 A 
ATOM     65  C   UNL A   1      42.681  30.997  36.428  1.00  0.00     0.031 C 
ATOM     66  C   UNL A   1      42.930  29.466  34.494  1.00  0.00     0.037 A 
BRANCH  53  67
ATOM     67  C   UNL A   1      40.360  27.877  29.103  1.00  0.00     0.064 A 
ATOM     68  C   UNL A   1      41.113  28.188  27.960  1.00  0.00     0.173 A 
ATOM     69  C   UNL A   1      39.636  26.676  29.104  1.00  0.00     0.173 A 
ATOM     70  F   UNL A   1      41.813  29.331  27.904  1.00  0.00    -0.203 F 
ATOM     71  C   UNL A   1      41.115  27.346  26.852  1.00  0.00     0.198 A 
ATOM     72  C   UNL A   1      39.664  25.820  28.005  1.00  0.00     0.198 A 
ATOM     73  F   UNL A   1      38.903  26.327  30.173  1.00  0.00    -0.203 F 
ATOM     74  F   UNL A   1      41.801  27.688  25.752  1.00  0.00    -0.200 F 
ATOM     75  C   UNL A   1      40.397  26.160  26.877  1.00  0.00     0.200 A 
ATOM     76  F   UNL A   1      38.978  24.670  28.036  1.00  0.00    -0.200 F 
ATOM     77  F   UNL A   1      40.403  25.348  25.811  1.00  0.00    -0.200 F 
ENDBRANCH  53  67
BRANCH  54  78
ATOM     78  C   UNL A   1      39.683  33.896  37.043  1.00  0.00     0.064 A 
ATOM     79  C   UNL A   1      38.953  33.497  38.171  1.00  0.00     0.173 A 
ATOM     80  C   UNL A   1      40.306  35.151  37.078  1.00  0.00     0.173 A 
ATOM     81  F   UNL A   1      38.322  32.314  38.175  1.00  0.00    -0.203 F 
ATOM     82  C   UNL A   1      38.831  34.330  39.281  1.00  0.00     0.198 A 
ATOM     83  C   UNL A   1      40.206  35.971  38.199  1.00  0.00     0.198 A 
ATOM     84  F   UNL A   1      41.021  35.576  36.025  1.00  0.00    -0.203 F 
ATOM     85  F   UNL A   1      38.090  33.943  40.328  1.00  0.00    -0.200 F 
ATOM     86  C   UNL A   1      39.463  35.564  39.297  1.00  0.00     0.200 A 
ATOM     87  F   UNL A   1      40.829  37.159  38.216  1.00  0.00    -0.200 F 
ATOM     88  F   UNL A   1      39.348  36.364  40.366  1.00  0.00    -0.200 F 
ENDBRANCH  54  78
BRANCH  66  89
ATOM     89  C   UNL A   1      44.162  28.916  35.150  1.00  0.00     0.064 A 
ATOM     90  C   UNL A   1      45.436  29.434  34.872  1.00  0.00     0.173 A 
ATOM     91  C   UNL A   1      44.066  27.870  36.081  1.00  0.00     0.173 A 
ATOM     92  F   UNL A   1      45.580  30.425  33.979  1.00  0.00    -0.203 F 
ATOM     93  C   UNL A   1      46.571  28.904  35.478  1.00  0.00     0.198 A 
ATOM     94  C   UNL A   1      45.201  27.362  36.706  1.00  0.00     0.198 A 
ATOM     95  F   UNL A   1      42.870  27.343  36.385  1.00  0.00    -0.203 F 
ATOM     96  F   UNL A   1      47.783  29.379  35.157  1.00  0.00    -0.200 F 
ATOM     97  C   UNL A   1      46.453  27.872  36.398  1.00  0.00     0.200 A 
ATOM     98  F   UNL A   1      45.083  26.373  37.603  1.00  0.00    -0.200 F 
ATOM     99  F   UNL A   1      47.547  27.363  36.979  1.00  0.00    -0.200 F 
ENDBRANCH  66  89
ENDBRANCH  40  41
ENDBRANCH  32  35
ENDBRANCH  30  31
ENDBRANCH  29  30
ENDBRANCH  28  29
ENDBRANCH   1  28
TORSDOF 15
ENDMDL
MODEL 3
REMARK VINA RESULT:     -12.3      5.163     11.329
REMARK SMILES CC1(C)S[C@H](c2ccc(-c3ccccc3)o2)[NH2+][C@H]1C(=O)NCCCCCCNC(=O)c1ccc(-c2c3nc(c(-c4c(F)c(F)c(F)c(F)c4F)c4ccc([nH]4)c(-c4c(F)c(F)c(F)c(F)c4F)c4nc(c(-c5c(F)c(F)c(F)c(F)c5F)c5ccc2[nH]5)C=C4)C=C3)cc1
REMARK SMILES IDX 24 1 23 2 22 3 21 4 19 5 20 6 18 8 1 9 2 10 3 11 4 12 5 13
REMARK SMILES IDX 17 14 6 17 7 18 16 19 8 20 9 21 10 22 11 23 15 24 12 25
REMARK SMILES IDX 14 26 13 27 25 28 26 29 27 30 28 31 29 32 30 34 31 35 32 36
REMARK SMILES IDX 93 37 33 38 92 39 34 40 35 41 36 42 86 43 37 44 91 45 85 46
REMARK SMILES IDX 87 47 38 48 90 49 84 50 83 51 39 53 71 54 51 55 70 56 52 57
REMARK SMILES IDX 55 58 69 59 88 60 53 61 54 62 68 64 89 65 56 66 40 67 41 68
REMARK SMILES IDX 49 69 42 70 43 71 47 72 50 73 44 74 45 75 48 76 46 77 72 78
REMARK SMILES IDX 73 79 81 80 74 81 75 82 79 83 82 84 76 85 77 86 80 87 78 88
REMARK SMILES IDX 57 89 58 90 66 91 59 92 60 93 64 94 67 95 61 96 62 97 65 98
REMARK SMILES IDX 63 99
REMARK H PARENT 21 7 17 15 17 16 28 33 87 52 55 63
REMARK Flexibility Score: inf
ROOT
ATOM      1  C   UNL A   1      42.452  23.600  28.246  1.00  0.00     0.002 C 
ENDROOT
BRANCH   1   2
ATOM      2  C   UNL A   1      43.461  22.872  29.134  1.00  0.00     0.021 C 
BRANCH   2   3
ATOM      3  C   UNL A   1      44.877  23.454  29.110  1.00  0.00     0.116 C 
BRANCH   3   4
ATOM      4  N   UNL A   1      45.582  23.081  27.898  1.00  0.00    -0.351 N 
ATOM      5  C   UNL A   1      46.088  23.781  26.845  1.00  0.00     0.279 C 
ATOM      6  O   UNL A   1      46.495  23.098  25.897  1.00  0.00    -0.268 OA
ATOM      7  H   UNL A   1      45.726  22.110  27.820  1.00  0.00     0.163 HD
BRANCH   5   8
ATOM      8  C   UNL A   1      46.129  25.324  26.748  1.00  0.00     0.289 C 
ATOM      9  C   UNL A   1      48.690  25.295  26.121  1.00  0.00     0.030 C 
ATOM     10  C   UNL A   1      47.536  25.947  26.881  1.00  0.00     0.078 C 
ATOM     11  C   UNL A   1      47.936  26.090  28.355  1.00  0.00     0.030 C 
ATOM     12  S   UNL A   1      47.329  27.606  26.153  1.00  0.00    -0.078 SA
ATOM     13  C   UNL A   1      45.704  27.261  25.426  1.00  0.00     0.311 C 
ATOM     14  N   UNL A   1      45.381  25.842  25.579  1.00  0.00    -0.317 N 
ATOM     15  H   UNL A   1      45.654  25.333  24.739  1.00  0.00     0.348 HD
ATOM     16  H   UNL A   1      44.378  25.721  25.720  1.00  0.00     0.348 HD
BRANCH  13  17
ATOM     17  C   UNL A   1      44.695  28.226  25.961  1.00  0.00     0.172 A 
ATOM     18  C   UNL A   1      43.336  28.074  26.172  1.00  0.00     0.054 A 
ATOM     19  O   UNL A   1      45.075  29.496  26.313  1.00  0.00    -0.454 OA
ATOM     20  C   UNL A   1      42.865  29.294  26.695  1.00  0.00     0.051 A 
ATOM     21  C   UNL A   1      43.956  30.134  26.776  1.00  0.00     0.134 A 
BRANCH  21  22
ATOM     22  C   UNL A   1      44.108  31.498  27.257  1.00  0.00     0.017 A 
ATOM     23  C   UNL A   1      44.371  32.556  26.380  1.00  0.00     0.012 A 
ATOM     24  C   UNL A   1      43.926  31.779  28.620  1.00  0.00     0.012 A 
ATOM     25  C   UNL A   1      44.428  33.870  26.855  1.00  0.00     0.001 A 
ATOM     26  C   UNL A   1      43.994  33.089  29.096  1.00  0.00     0.001 A 
ATOM     27  C   UNL A   1      44.238  34.136  28.211  1.00  0.00     0.000 A 
ENDBRANCH  21  22
ENDBRANCH  13  17
ENDBRANCH   5   8
ENDBRANCH   3   4
ENDBRANCH   2   3
ENDBRANCH   1   2
BRANCH   1  28
ATOM     28  C   UNL A   1      42.629  23.380  26.741  1.00  0.00     0.002 C 
BRANCH  28  29
ATOM     29  C   UNL A   1      41.855  22.200  26.148  1.00  0.00     0.021 C 
BRANCH  29  30
ATOM     30  C   UNL A   1      40.526  21.878  26.826  1.00  0.00     0.116 C 
BRANCH  30  31
ATOM     31  N   UNL A   1      39.384  22.290  26.031  1.00  0.00    -0.352 N 
ATOM     32  C   UNL A   1      38.673  23.460  26.060  1.00  0.00     0.251 C 
ATOM     33  H   UNL A   1      39.074  21.628  25.371  1.00  0.00     0.163 HD
ATOM     34  O   UNL A   1      37.629  23.557  25.423  1.00  0.00    -0.269 OA
BRANCH  32  35
ATOM     35  C   UNL A   1      39.146  24.608  26.866  1.00  0.00     0.039 A 
ATOM     36  C   UNL A   1      38.778  24.670  28.213  1.00  0.00     0.014 A 
ATOM     37  C   UNL A   1      39.894  25.643  26.296  1.00  0.00     0.014 A 
ATOM     38  C   UNL A   1      39.178  25.757  28.993  1.00  0.00     0.010 A 
ATOM     39  C   UNL A   1      40.348  26.694  27.091  1.00  0.00     0.010 A 
ATOM     40  C   UNL A   1      39.975  26.772  28.441  1.00  0.00    -0.014 A 
BRANCH  40  41
ATOM     41  C   UNL A   1      40.378  27.942  29.262  1.00  0.00     0.031 A 
ATOM     42  C   UNL A   1      41.761  28.011  29.851  1.00  0.00     0.074 A 
ATOM     43  C   UNL A   1      39.496  28.933  29.491  1.00  0.00     0.049 A 
ATOM     44  N   UNL A   1      42.302  28.950  30.586  1.00  0.00    -0.248 NA
ATOM     45  C   UNL A   1      42.643  26.861  29.605  1.00  0.00     0.031 C 
ATOM     46  C   UNL A   1      38.112  28.958  29.018  1.00  0.00     0.029 A 
ATOM     47  N   UNL A   1      39.635  30.112  30.180  1.00  0.00    -0.354 N 
ATOM     48  C   UNL A   1      43.579  28.498  30.896  1.00  0.00     0.074 A 
ATOM     49  C   UNL A   1      43.712  27.179  30.319  1.00  0.00     0.031 C 
ATOM     50  C   UNL A   1      37.536  30.107  29.406  1.00  0.00     0.029 A 
ATOM     51  C   UNL A   1      38.503  30.889  30.173  1.00  0.00     0.049 A 
ATOM     52  H   UNL A   1      40.466  30.375  30.637  1.00  0.00     0.167 HD
ATOM     53  C   UNL A   1      44.561  29.136  31.576  1.00  0.00     0.037 A 
ATOM     54  C   UNL A   1      38.276  32.100  30.715  1.00  0.00     0.037 A 
ATOM     55  C   UNL A   1      44.438  30.463  32.122  1.00  0.00     0.049 A 
ATOM     56  C   UNL A   1      39.391  32.799  31.444  1.00  0.00     0.074 A 
ATOM     57  C   UNL A   1      45.393  31.222  32.775  1.00  0.00     0.029 A 
ATOM     58  N   UNL A   1      43.282  31.229  32.074  1.00  0.00    -0.354 N 
ATOM     59  N   UNL A   1      40.618  32.392  31.667  1.00  0.00    -0.248 NA
ATOM     60  C   UNL A   1      39.094  34.133  31.982  1.00  0.00     0.031 C 
ATOM     61  C   UNL A   1      44.804  32.433  33.156  1.00  0.00     0.029 A 
ATOM     62  C   UNL A   1      43.495  32.446  32.702  1.00  0.00     0.049 A 
ATOM     63  H   UNL A   1      42.435  30.949  31.658  1.00  0.00     0.167 HD
ATOM     64  C   UNL A   1      41.244  33.426  32.349  1.00  0.00     0.074 A 
ATOM     65  C   UNL A   1      40.268  34.488  32.484  1.00  0.00     0.031 C 
ATOM     66  C   UNL A   1      42.512  33.491  32.826  1.00  0.00     0.037 A 
BRANCH  53  67
ATOM     67  C   UNL A   1      45.861  28.408  31.759  1.00  0.00     0.064 A 
ATOM     68  C   UNL A   1      46.007  27.396  32.720  1.00  0.00     0.173 A 
ATOM     69  C   UNL A   1      46.967  28.707  30.949  1.00  0.00     0.173 A 
ATOM     70  F   UNL A   1      44.984  27.081  33.529  1.00  0.00    -0.203 F 
ATOM     71  C   UNL A   1      47.221  26.733  32.885  1.00  0.00     0.198 A 
ATOM     72  C   UNL A   1      48.171  28.021  31.096  1.00  0.00     0.198 A 
ATOM     73  F   UNL A   1      46.881  29.663  30.011  1.00  0.00    -0.203 F 
ATOM     74  F   UNL A   1      47.351  25.805  33.843  1.00  0.00    -0.200 F 
ATOM     75  C   UNL A   1      48.298  27.040  32.069  1.00  0.00     0.200 A 
ATOM     76  F   UNL A   1      49.208  28.313  30.299  1.00  0.00    -0.200 F 
ATOM     77  F   UNL A   1      49.464  26.398  32.225  1.00  0.00    -0.200 F 
ENDBRANCH  53  67
BRANCH  54  78
ATOM     78  C   UNL A   1      36.949  32.747  30.554  1.00  0.00     0.064 A 
ATOM     79  C   UNL A   1      35.985  32.674  31.569  1.00  0.00     0.173 A 
ATOM     80  C   UNL A   1      36.614  33.446  29.385  1.00  0.00     0.173 A 
ATOM     81  F   UNL A   1      36.252  32.000  32.697  1.00  0.00    -0.203 F 
ATOM     82  C   UNL A   1      34.729  33.256  31.414  1.00  0.00     0.198 A 
ATOM     83  C   UNL A   1      35.368  34.050  29.241  1.00  0.00     0.198 A 
ATOM     84  F   UNL A   1      37.504  33.549  28.386  1.00  0.00    -0.203 F 
ATOM     85  F   UNL A   1      33.811  33.132  32.382  1.00  0.00    -0.200 F 
ATOM     86  C   UNL A   1      34.423  33.949  30.251  1.00  0.00     0.200 A 
ATOM     87  F   UNL A   1      35.080  34.730  28.122  1.00  0.00    -0.200 F 
ATOM     88  F   UNL A   1      33.215  34.510  30.103  1.00  0.00    -0.200 F 
ENDBRANCH  54  78
BRANCH  66  89
ATOM     89  C   UNL A   1      42.917  34.760  33.516  1.00  0.00     0.064 A 
ATOM     90  C   UNL A   1      43.422  35.856  32.800  1.00  0.00     0.173 A 
ATOM     91  C   UNL A   1      42.783  34.888  34.907  1.00  0.00     0.173 A 
ATOM     92  F   UNL A   1      43.582  35.776  31.470  1.00  0.00    -0.203 F 
ATOM     93  C   UNL A   1      43.807  37.022  33.455  1.00  0.00     0.198 A 
ATOM     94  C   UNL A   1      43.142  36.067  35.554  1.00  0.00     0.198 A 
ATOM     95  F   UNL A   1      42.300  33.872  35.636  1.00  0.00    -0.203 F 
ATOM     96  F   UNL A   1      44.338  38.036  32.757  1.00  0.00    -0.200 F 
ATOM     97  C   UNL A   1      43.663  37.129  34.830  1.00  0.00     0.200 A 
ATOM     98  F   UNL A   1      42.990  36.172  36.882  1.00  0.00    -0.200 F 
ATOM     99  F   UNL A   1      44.035  38.251  35.459  1.00  0.00    -0.200 F 
ENDBRANCH  66  89
ENDBRANCH  40  41
ENDBRANCH  32  35
ENDBRANCH  30  31
ENDBRANCH  29  30
ENDBRANCH  28  29
ENDBRANCH   1  28
TORSDOF 15
ENDMDL
