MODEL 1
REMARK VINA RESULT:     -11.8      0.000      0.000
REMARK SMILES O=C(Cc1ccccc1-c1ccn(C(F)F)c(=O)c1)NCCCCCCNC(=O)c1ccc(-c2c3nc(c(-c4c(F)c(F)c(F)c(F)c4F)c4ccc([nH]4)c(-c4c(F)c(F)c(F)c(F)c4F)c4nc(c(-c5c(F)c(F)c(F)c(F)c5F)c5ccc2[nH]5)C=C4)C=C3)cc1
REMARK SMILES IDX 23 1 22 2 21 3 20 4 1 5 2 6 3 8 4 9 5 10 9 11 6 12 8 13 7 14
REMARK SMILES IDX 10 15 11 16 19 17 12 18 17 19 13 20 18 21 14 22 15 23 16 24
REMARK SMILES IDX 24 25 25 26 26 27 27 28 28 29 29 31 30 32 31 33 92 34 32 35
REMARK SMILES IDX 91 36 33 37 34 38 35 39 85 40 36 41 90 42 84 43 86 44 37 45
REMARK SMILES IDX 89 46 83 47 82 48 38 50 70 51 50 52 69 53 51 54 54 55 68 56
REMARK SMILES IDX 87 57 52 58 53 59 67 61 88 62 55 63 39 64 40 65 48 66 41 67
REMARK SMILES IDX 42 68 46 69 49 70 43 71 44 72 47 73 45 74 71 75 72 76 80 77
REMARK SMILES IDX 73 78 74 79 78 80 81 81 75 82 76 83 79 84 77 85 56 86 57 87
REMARK SMILES IDX 65 88 58 89 59 90 63 91 66 92 60 93 61 94 64 95 62 96
REMARK H PARENT 20 7 27 30 86 49 54 60
REMARK Flexibility Score: inf
ROOT
ATOM      1  C   UNL A   1      34.281  32.155  28.228  1.00  0.00     0.002 C 
ENDROOT
BRANCH   1   2
ATOM      2  C   UNL A   1      35.596  31.411  27.967  1.00  0.00     0.021 C 
BRANCH   2   3
ATOM      3  C   UNL A   1      35.493  29.887  28.058  1.00  0.00     0.116 C 
BRANCH   3   4
ATOM      4  N   UNL A   1      34.123  29.440  27.920  1.00  0.00    -0.356 N 
ATOM      5  O   UNL A   1      34.233  28.926  25.688  1.00  0.00    -0.275 OA
ATOM      6  C   UNL A   1      33.586  29.015  26.728  1.00  0.00     0.224 C 
ATOM      7  H   UNL A   1      33.547  29.441  28.720  1.00  0.00     0.163 HD
BRANCH   6   8
ATOM      8  C   UNL A   1      32.090  28.770  26.759  1.00  0.00     0.136 C 
BRANCH   8   9
ATOM      9  C   UNL A   1      31.463  28.451  25.416  1.00  0.00    -0.031 A 
ATOM     10  C   UNL A   1      31.003  29.536  24.646  1.00  0.00     0.005 A 
ATOM     11  C   UNL A   1      31.322  27.140  24.902  1.00  0.00    -0.014 A 
ATOM     12  C   UNL A   1      30.399  29.335  23.405  1.00  0.00     0.000 A 
ATOM     13  C   UNL A   1      30.698  26.956  23.655  1.00  0.00     0.009 A 
ATOM     14  C   UNL A   1      30.240  28.045  22.913  1.00  0.00     0.001 A 
BRANCH  11  15
ATOM     15  C   UNL A   1      31.836  25.943  25.608  1.00  0.00    -0.011 A 
ATOM     16  C   UNL A   1      33.232  25.548  25.600  1.00  0.00     0.027 A 
ATOM     17  C   UNL A   1      30.947  25.165  26.250  1.00  0.00     0.080 A 
ATOM     18  C   UNL A   1      33.607  24.364  26.099  1.00  0.00     0.095 A 
ATOM     19  C   UNL A   1      31.358  23.867  26.855  1.00  0.00     0.255 A 
ATOM     20  N   UNL A   1      32.686  23.517  26.688  1.00  0.00    -0.258 N 
ATOM     21  O   UNL A   1      30.497  23.183  27.400  1.00  0.00    -0.269 OA
BRANCH  20  22
ATOM     22  C   UNL A   1      33.075  22.204  27.134  1.00  0.00     0.451 C 
ATOM     23  F   UNL A   1      34.329  21.898  26.726  1.00  0.00    -0.185 F 
ATOM     24  F   UNL A   1      33.044  22.133  28.488  1.00  0.00    -0.185 F 
ENDBRANCH  20  22
ENDBRANCH  11  15
ENDBRANCH   8   9
ENDBRANCH   6   8
ENDBRANCH   3   4
ENDBRANCH   2   3
ENDBRANCH   1   2
BRANCH   1  25
ATOM     25  C   UNL A   1      34.402  33.448  29.041  1.00  0.00     0.002 C 
BRANCH  25  26
ATOM     26  C   UNL A   1      33.277  34.458  28.810  1.00  0.00     0.021 C 
BRANCH  26  27
ATOM     27  C   UNL A   1      33.492  35.814  29.474  1.00  0.00     0.116 C 
BRANCH  27  28
ATOM     28  N   UNL A   1      32.547  36.065  30.552  1.00  0.00    -0.352 N 
ATOM     29  C   UNL A   1      32.593  35.652  31.860  1.00  0.00     0.251 C 
ATOM     30  H   UNL A   1      31.765  36.609  30.308  1.00  0.00     0.163 HD
ATOM     31  O   UNL A   1      31.624  35.811  32.599  1.00  0.00    -0.269 OA
BRANCH  29  32
ATOM     32  C   UNL A   1      33.803  34.983  32.382  1.00  0.00     0.039 A 
ATOM     33  C   UNL A   1      33.690  33.691  32.902  1.00  0.00     0.014 A 
ATOM     34  C   UNL A   1      35.046  35.622  32.358  1.00  0.00     0.014 A 
ATOM     35  C   UNL A   1      34.834  33.014  33.331  1.00  0.00     0.010 A 
ATOM     36  C   UNL A   1      36.194  34.918  32.714  1.00  0.00     0.010 A 
ATOM     37  C   UNL A   1      36.101  33.606  33.201  1.00  0.00    -0.014 A 
BRANCH  37  38
ATOM     38  C   UNL A   1      37.338  32.864  33.558  1.00  0.00     0.031 A 
ATOM     39  C   UNL A   1      38.064  33.168  34.839  1.00  0.00     0.074 A 
ATOM     40  C   UNL A   1      37.845  31.960  32.696  1.00  0.00     0.049 A 
ATOM     41  N   UNL A   1      39.193  32.679  35.288  1.00  0.00    -0.248 NA
ATOM     42  C   UNL A   1      37.451  34.171  35.724  1.00  0.00     0.031 C 
ATOM     43  C   UNL A   1      37.257  31.604  31.403  1.00  0.00     0.029 A 
ATOM     44  N   UNL A   1      38.974  31.182  32.772  1.00  0.00    -0.354 N 
ATOM     45  C   UNL A   1      39.428  33.320  36.497  1.00  0.00     0.074 A 
ATOM     46  C   UNL A   1      38.356  34.274  36.685  1.00  0.00     0.031 C 
ATOM     47  C   UNL A   1      38.014  30.662  30.820  1.00  0.00     0.029 A 
ATOM     48  C   UNL A   1      39.164  30.379  31.673  1.00  0.00     0.049 A 
ATOM     49  H   UNL A   1      39.587  31.198  33.541  1.00  0.00     0.167 HD
ATOM     50  C   UNL A   1      40.434  33.116  37.381  1.00  0.00     0.037 A 
ATOM     51  C   UNL A   1      40.160  29.521  31.381  1.00  0.00     0.037 A 
ATOM     52  C   UNL A   1      41.492  32.156  37.196  1.00  0.00     0.049 A 
ATOM     53  C   UNL A   1      41.283  29.336  32.367  1.00  0.00     0.074 A 
ATOM     54  C   UNL A   1      42.528  31.840  38.058  1.00  0.00     0.029 A 
ATOM     55  N   UNL A   1      41.651  31.361  36.072  1.00  0.00    -0.354 N 
ATOM     56  N   UNL A   1      41.460  29.901  33.536  1.00  0.00    -0.248 NA
ATOM     57  C   UNL A   1      42.344  28.390  31.992  1.00  0.00     0.031 C 
ATOM     58  C   UNL A   1      43.346  30.894  37.430  1.00  0.00     0.029 A 
ATOM     59  C   UNL A   1      42.784  30.573  36.204  1.00  0.00     0.049 A 
ATOM     60  H   UNL A   1      41.047  31.355  35.293  1.00  0.00     0.167 HD
ATOM     61  C   UNL A   1      42.630  29.357  34.049  1.00  0.00     0.074 A 
ATOM     62  C   UNL A   1      43.113  28.406  33.071  1.00  0.00     0.031 C 
ATOM     63  C   UNL A   1      43.249  29.622  35.227  1.00  0.00     0.037 A 
BRANCH  50  64
ATOM     64  C   UNL A   1      40.442  33.947  38.632  1.00  0.00     0.064 A 
ATOM     65  C   UNL A   1      41.127  35.170  38.699  1.00  0.00     0.173 A 
ATOM     66  C   UNL A   1      39.719  33.540  39.764  1.00  0.00     0.173 A 
ATOM     67  F   UNL A   1      41.842  35.603  37.650  1.00  0.00    -0.203 F 
ATOM     68  C   UNL A   1      41.113  35.938  39.861  1.00  0.00     0.198 A 
ATOM     69  C   UNL A   1      39.677  34.327  40.912  1.00  0.00     0.198 A 
ATOM     70  F   UNL A   1      39.039  32.383  39.752  1.00  0.00    -0.203 F 
ATOM     71  F   UNL A   1      41.816  37.078  39.917  1.00  0.00    -0.200 F 
ATOM     72  C   UNL A   1      40.382  35.520  40.962  1.00  0.00     0.200 A 
ATOM     73  F   UNL A   1      38.957  33.929  41.969  1.00  0.00    -0.200 F 
ATOM     74  F   UNL A   1      40.359  36.266  42.076  1.00  0.00    -0.200 F 
ENDBRANCH  50  64
BRANCH  51  75
ATOM     75  C   UNL A   1      40.134  28.754  30.107  1.00  0.00     0.064 A 
ATOM     76  C   UNL A   1      40.721  29.272  28.944  1.00  0.00     0.173 A 
ATOM     77  C   UNL A   1      39.512  27.500  30.020  1.00  0.00     0.173 A 
ATOM     78  F   UNL A   1      41.308  30.478  28.971  1.00  0.00    -0.203 F 
ATOM     79  C   UNL A   1      40.667  28.577  27.738  1.00  0.00     0.198 A 
ATOM     80  C   UNL A   1      39.487  26.791  28.820  1.00  0.00     0.198 A 
ATOM     81  F   UNL A   1      38.938  26.956  31.103  1.00  0.00    -0.203 F 
ATOM     82  F   UNL A   1      41.190  29.120  26.631  1.00  0.00    -0.200 F 
ATOM     83  C   UNL A   1      40.055  27.334  27.678  1.00  0.00     0.200 A 
ATOM     84  F   UNL A   1      38.908  25.583  28.770  1.00  0.00    -0.200 F 
ATOM     85  F   UNL A   1      40.005  26.665  26.519  1.00  0.00    -0.200 F 
ENDBRANCH  51  75
BRANCH  63  86
ATOM     86  C   UNL A   1      44.493  28.843  35.545  1.00  0.00     0.064 A 
ATOM     87  C   UNL A   1      45.770  29.318  35.208  1.00  0.00     0.173 A 
ATOM     88  C   UNL A   1      44.409  27.624  36.234  1.00  0.00     0.173 A 
ATOM     89  F   UNL A   1      45.906  30.471  34.536  1.00  0.00    -0.203 F 
ATOM     90  C   UNL A   1      46.912  28.589  35.527  1.00  0.00     0.198 A 
ATOM     91  C   UNL A   1      45.555  26.914  36.582  1.00  0.00     0.198 A 
ATOM     92  F   UNL A   1      43.214  27.128  36.587  1.00  0.00    -0.203 F 
ATOM     93  F   UNL A   1      48.118  29.038  35.151  1.00  0.00    -0.200 F 
ATOM     94  C   UNL A   1      46.805  27.393  36.221  1.00  0.00     0.200 A 
ATOM     95  F   UNL A   1      45.449  25.767  37.268  1.00  0.00    -0.200 F 
ATOM     96  F   UNL A   1      47.907  26.698  36.536  1.00  0.00    -0.200 F 
ENDBRANCH  63  86
ENDBRANCH  37  38
ENDBRANCH  29  32
ENDBRANCH  27  28
ENDBRANCH  26  27
ENDBRANCH  25  26
ENDBRANCH   1  25
TORSDOF 16
ENDMDL
MODEL 2
REMARK VINA RESULT:     -11.8      4.268      6.675
REMARK SMILES O=C(Cc1ccccc1-c1ccn(C(F)F)c(=O)c1)NCCCCCCNC(=O)c1ccc(-c2c3nc(c(-c4c(F)c(F)c(F)c(F)c4F)c4ccc([nH]4)c(-c4c(F)c(F)c(F)c(F)c4F)c4nc(c(-c5c(F)c(F)c(F)c(F)c5F)c5ccc2[nH]5)C=C4)C=C3)cc1
REMARK SMILES IDX 23 1 22 2 21 3 20 4 1 5 2 6 3 8 4 9 5 10 9 11 6 12 8 13 7 14
REMARK SMILES IDX 10 15 11 16 19 17 12 18 17 19 13 20 18 21 14 22 15 23 16 24
REMARK SMILES IDX 24 25 25 26 26 27 27 28 28 29 29 31 30 32 31 33 92 34 32 35
REMARK SMILES IDX 91 36 33 37 34 38 35 39 85 40 36 41 90 42 84 43 86 44 37 45
REMARK SMILES IDX 89 46 83 47 82 48 38 50 70 51 50 52 69 53 51 54 54 55 68 56
REMARK SMILES IDX 87 57 52 58 53 59 67 61 88 62 55 63 39 64 40 65 48 66 41 67
REMARK SMILES IDX 42 68 46 69 49 70 43 71 44 72 47 73 45 74 71 75 72 76 80 77
REMARK SMILES IDX 73 78 74 79 78 80 81 81 75 82 76 83 79 84 77 85 56 86 57 87
REMARK SMILES IDX 65 88 58 89 59 90 63 91 66 92 60 93 61 94 64 95 62 96
REMARK H PARENT 20 7 27 30 86 49 54 60
REMARK Flexibility Score: inf
ROOT
ATOM      1  C   UNL A   1      32.556  27.038  24.123  1.00  0.00     0.002 C 
ENDROOT
BRANCH   1   2
ATOM      2  C   UNL A   1      33.120  27.377  22.739  1.00  0.00     0.021 C 
BRANCH   2   3
ATOM      3  C   UNL A   1      33.345  26.168  21.830  1.00  0.00     0.116 C 
BRANCH   3   4
ATOM      4  N   UNL A   1      33.303  24.929  22.577  1.00  0.00    -0.356 N 
ATOM      5  O   UNL A   1      33.352  23.523  20.765  1.00  0.00    -0.275 OA
ATOM      6  C   UNL A   1      33.283  23.691  21.980  1.00  0.00     0.224 C 
ATOM      7  H   UNL A   1      33.288  24.975  23.561  1.00  0.00     0.163 HD
BRANCH   6   8
ATOM      8  C   UNL A   1      33.048  22.533  22.932  1.00  0.00     0.136 C 
BRANCH   8   9
ATOM      9  C   UNL A   1      32.593  22.927  24.324  1.00  0.00    -0.031 A 
ATOM     10  C   UNL A   1      31.227  23.221  24.496  1.00  0.00     0.005 A 
ATOM     11  C   UNL A   1      33.457  23.012  25.442  1.00  0.00    -0.014 A 
ATOM     12  C   UNL A   1      30.723  23.608  25.737  1.00  0.00     0.000 A 
ATOM     13  C   UNL A   1      32.933  23.417  26.683  1.00  0.00     0.009 A 
ATOM     14  C   UNL A   1      31.577  23.713  26.828  1.00  0.00     0.001 A 
BRANCH  11  15
ATOM     15  C   UNL A   1      34.893  22.657  25.374  1.00  0.00    -0.011 A 
ATOM     16  C   UNL A   1      35.373  21.309  25.134  1.00  0.00     0.027 A 
ATOM     17  C   UNL A   1      35.790  23.635  25.590  1.00  0.00     0.080 A 
ATOM     18  C   UNL A   1      36.673  21.017  25.265  1.00  0.00     0.095 A 
ATOM     19  C   UNL A   1      37.246  23.334  25.688  1.00  0.00     0.255 A 
ATOM     20  N   UNL A   1      37.596  22.001  25.570  1.00  0.00    -0.258 N 
ATOM     21  O   UNL A   1      38.016  24.262  25.919  1.00  0.00    -0.269 OA
BRANCH  20  22
ATOM     22  C   UNL A   1      38.976  21.665  25.807  1.00  0.00     0.451 C 
ATOM     23  F   UNL A   1      39.361  22.015  27.057  1.00  0.00    -0.185 F 
ATOM     24  F   UNL A   1      39.172  20.331  25.665  1.00  0.00    -0.185 F 
ENDBRANCH  20  22
ENDBRANCH  11  15
ENDBRANCH   8   9
ENDBRANCH   6   8
ENDBRANCH   3   4
ENDBRANCH   2   3
ENDBRANCH   1   2
BRANCH   1  25
ATOM     25  C   UNL A   1      33.576  27.008  25.266  1.00  0.00     0.002 C 
BRANCH  25  26
ATOM     26  C   UNL A   1      33.986  28.383  25.796  1.00  0.00     0.021 C 
BRANCH  26  27
ATOM     27  C   UNL A   1      33.771  28.579  27.293  1.00  0.00     0.116 C 
BRANCH  27  28
ATOM     28  N   UNL A   1      33.722  29.983  27.672  1.00  0.00    -0.352 N 
ATOM     29  C   UNL A   1      34.663  30.741  28.323  1.00  0.00     0.251 C 
ATOM     30  H   UNL A   1      32.896  30.457  27.426  1.00  0.00     0.163 HD
ATOM     31  O   UNL A   1      34.391  31.872  28.718  1.00  0.00    -0.269 OA
BRANCH  29  32
ATOM     32  C   UNL A   1      36.009  30.185  28.581  1.00  0.00     0.039 A 
ATOM     33  C   UNL A   1      36.972  30.250  27.572  1.00  0.00     0.014 A 
ATOM     34  C   UNL A   1      36.323  29.603  29.813  1.00  0.00     0.014 A 
ATOM     35  C   UNL A   1      38.270  29.797  27.822  1.00  0.00     0.010 A 
ATOM     36  C   UNL A   1      37.635  29.224  30.086  1.00  0.00     0.010 A 
ATOM     37  C   UNL A   1      38.623  29.319  29.095  1.00  0.00    -0.014 A 
BRANCH  37  38
ATOM     38  C   UNL A   1      40.022  28.928  29.410  1.00  0.00     0.031 A 
ATOM     39  C   UNL A   1      40.903  29.842  30.215  1.00  0.00     0.074 A 
ATOM     40  C   UNL A   1      40.518  27.776  28.916  1.00  0.00     0.049 A 
ATOM     41  N   UNL A   1      42.168  29.707  30.529  1.00  0.00    -0.248 NA
ATOM     42  C   UNL A   1      40.290  31.082  30.713  1.00  0.00     0.031 C 
ATOM     43  C   UNL A   1      39.777  26.823  28.089  1.00  0.00     0.029 A 
ATOM     44  N   UNL A   1      41.767  27.216  29.029  1.00  0.00    -0.354 N 
ATOM     45  C   UNL A   1      42.501  30.846  31.251  1.00  0.00     0.074 A 
ATOM     46  C   UNL A   1      41.324  31.687  31.279  1.00  0.00     0.031 C 
ATOM     47  C   UNL A   1      40.574  25.785  27.790  1.00  0.00     0.029 A 
ATOM     48  C   UNL A   1      41.896  26.020  28.365  1.00  0.00     0.049 A 
ATOM     49  H   UNL A   1      42.499  27.632  29.538  1.00  0.00     0.167 HD
ATOM     50  C   UNL A   1      43.674  31.152  31.854  1.00  0.00     0.037 A 
ATOM     51  C   UNL A   1      42.962  25.209  28.225  1.00  0.00     0.037 A 
ATOM     52  C   UNL A   1      44.839  30.306  31.836  1.00  0.00     0.049 A 
ATOM     53  C   UNL A   1      44.264  25.589  28.880  1.00  0.00     0.074 A 
ATOM     54  C   UNL A   1      46.059  30.505  32.460  1.00  0.00     0.029 A 
ATOM     55  N   UNL A   1      44.932  29.102  31.154  1.00  0.00    -0.354 N 
ATOM     56  N   UNL A   1      44.548  26.637  29.613  1.00  0.00    -0.248 NA
ATOM     57  C   UNL A   1      45.394  24.669  28.688  1.00  0.00     0.031 C 
ATOM     58  C   UNL A   1      46.908  29.449  32.109  1.00  0.00     0.029 A 
ATOM     59  C   UNL A   1      46.197  28.559  31.319  1.00  0.00     0.049 A 
ATOM     60  H   UNL A   1      44.205  28.691  30.630  1.00  0.00     0.167 HD
ATOM     61  C   UNL A   1      45.874  26.487  29.998  1.00  0.00     0.074 A 
ATOM     62  C   UNL A   1      46.334  25.238  29.428  1.00  0.00     0.031 C 
ATOM     63  C   UNL A   1      46.640  27.310  30.754  1.00  0.00     0.037 A 
BRANCH  50  64
ATOM     64  C   UNL A   1      43.760  32.459  32.589  1.00  0.00     0.064 A 
ATOM     65  C   UNL A   1      44.207  33.630  31.959  1.00  0.00     0.173 A 
ATOM     66  C   UNL A   1      43.346  32.555  33.927  1.00  0.00     0.173 A 
ATOM     67  F   UNL A   1      44.623  33.595  30.684  1.00  0.00    -0.203 F 
ATOM     68  C   UNL A   1      44.266  34.839  32.648  1.00  0.00     0.198 A 
ATOM     69  C   UNL A   1      43.373  33.772  34.603  1.00  0.00     0.198 A 
ATOM     70  F   UNL A   1      42.901  31.468  34.576  1.00  0.00    -0.203 F 
ATOM     71  F   UNL A   1      44.745  35.933  32.039  1.00  0.00    -0.200 F 
ATOM     72  C   UNL A   1      43.842  34.910  33.965  1.00  0.00     0.200 A 
ATOM     73  F   UNL A   1      42.947  33.841  35.871  1.00  0.00    -0.200 F 
ATOM     74  F   UNL A   1      43.888  36.077  34.625  1.00  0.00    -0.200 F 
ENDBRANCH  50  64
BRANCH  51  75
ATOM     75  C   UNL A   1      42.843  23.947  27.447  1.00  0.00     0.064 A 
ATOM     76  C   UNL A   1      42.446  22.755  28.068  1.00  0.00     0.173 A 
ATOM     77  C   UNL A   1      43.136  23.902  26.076  1.00  0.00     0.173 A 
ATOM     78  F   UNL A   1      42.176  22.742  29.382  1.00  0.00    -0.203 F 
ATOM     79  C   UNL A   1      42.368  21.561  27.354  1.00  0.00     0.198 A 
ATOM     80  C   UNL A   1      43.027  22.714  25.356  1.00  0.00     0.198 A 
ATOM     81  F   UNL A   1      43.517  25.014  25.432  1.00  0.00    -0.203 F 
ATOM     82  F   UNL A   1      42.037  20.426  27.984  1.00  0.00    -0.200 F 
ATOM     83  C   UNL A   1      42.653  21.542  25.997  1.00  0.00     0.200 A 
ATOM     84  F   UNL A   1      43.289  22.703  24.042  1.00  0.00    -0.200 F 
ATOM     85  F   UNL A   1      42.577  20.395  25.310  1.00  0.00    -0.200 F 
ENDBRANCH  51  75
BRANCH  63  86
ATOM     86  C   UNL A   1      48.045  26.869  31.050  1.00  0.00     0.064 A 
ATOM     87  C   UNL A   1      48.344  26.021  32.126  1.00  0.00     0.173 A 
ATOM     88  C   UNL A   1      49.103  27.267  30.217  1.00  0.00     0.173 A 
ATOM     89  F   UNL A   1      47.373  25.622  32.962  1.00  0.00    -0.203 F 
ATOM     90  C   UNL A   1      49.652  25.610  32.373  1.00  0.00     0.198 A 
ATOM     91  C   UNL A   1      50.403  26.827  30.446  1.00  0.00     0.198 A 
ATOM     92  F   UNL A   1      48.872  28.072  29.168  1.00  0.00    -0.203 F 
ATOM     93  F   UNL A   1      49.920  24.840  33.437  1.00  0.00    -0.200 F 
ATOM     94  C   UNL A   1      50.678  26.005  31.528  1.00  0.00     0.200 A 
ATOM     95  F   UNL A   1      51.390  27.197  29.618  1.00  0.00    -0.200 F 
ATOM     96  F   UNL A   1      51.934  25.600  31.762  1.00  0.00    -0.200 F 
ENDBRANCH  63  86
ENDBRANCH  37  38
ENDBRANCH  29  32
ENDBRANCH  27  28
ENDBRANCH  26  27
ENDBRANCH  25  26
ENDBRANCH   1  25
TORSDOF 16
ENDMDL
MODEL 3
REMARK VINA RESULT:     -11.7      2.294      3.590
REMARK SMILES O=C(Cc1ccccc1-c1ccn(C(F)F)c(=O)c1)NCCCCCCNC(=O)c1ccc(-c2c3nc(c(-c4c(F)c(F)c(F)c(F)c4F)c4ccc([nH]4)c(-c4c(F)c(F)c(F)c(F)c4F)c4nc(c(-c5c(F)c(F)c(F)c(F)c5F)c5ccc2[nH]5)C=C4)C=C3)cc1
REMARK SMILES IDX 23 1 22 2 21 3 20 4 1 5 2 6 3 8 4 9 5 10 9 11 6 12 8 13 7 14
REMARK SMILES IDX 10 15 11 16 19 17 12 18 17 19 13 20 18 21 14 22 15 23 16 24
REMARK SMILES IDX 24 25 25 26 26 27 27 28 28 29 29 31 30 32 31 33 92 34 32 35
REMARK SMILES IDX 91 36 33 37 34 38 35 39 85 40 36 41 90 42 84 43 86 44 37 45
REMARK SMILES IDX 89 46 83 47 82 48 38 50 70 51 50 52 69 53 51 54 54 55 68 56
REMARK SMILES IDX 87 57 52 58 53 59 67 61 88 62 55 63 39 64 40 65 48 66 41 67
REMARK SMILES IDX 42 68 46 69 49 70 43 71 44 72 47 73 45 74 71 75 72 76 80 77
REMARK SMILES IDX 73 78 74 79 78 80 81 81 75 82 76 83 79 84 77 85 56 86 57 87
REMARK SMILES IDX 65 88 58 89 59 90 63 91 66 92 60 93 61 94 64 95 62 96
REMARK H PARENT 20 7 27 30 86 49 54 60
REMARK Flexibility Score: inf
ROOT
ATOM      1  C   UNL A   1      35.011  32.474  28.129  1.00  0.00     0.002 C 
ENDROOT
BRANCH   1   2
ATOM      2  C   UNL A   1      33.778  31.597  27.883  1.00  0.00     0.021 C 
BRANCH   2   3
ATOM      3  C   UNL A   1      34.075  30.256  27.209  1.00  0.00     0.116 C 
BRANCH   3   4
ATOM      4  N   UNL A   1      32.896  29.418  27.158  1.00  0.00    -0.356 N 
ATOM      5  O   UNL A   1      33.389  28.386  25.169  1.00  0.00    -0.275 OA
ATOM      6  C   UNL A   1      32.628  28.558  26.118  1.00  0.00     0.224 C 
ATOM      7  H   UNL A   1      32.254  29.464  27.904  1.00  0.00     0.163 HD
BRANCH   6   8
ATOM      8  C   UNL A   1      31.256  27.914  26.167  1.00  0.00     0.136 C 
BRANCH   8   9
ATOM      9  C   UNL A   1      31.149  26.578  25.458  1.00  0.00    -0.031 A 
ATOM     10  C   UNL A   1      31.653  25.449  26.131  1.00  0.00     0.005 A 
ATOM     11  C   UNL A   1      30.574  26.408  24.176  1.00  0.00    -0.014 A 
ATOM     12  C   UNL A   1      31.611  24.182  25.549  1.00  0.00     0.000 A 
ATOM     13  C   UNL A   1      30.553  25.126  23.599  1.00  0.00     0.009 A 
ATOM     14  C   UNL A   1      31.067  24.022  24.280  1.00  0.00     0.001 A 
BRANCH  11  15
ATOM     15  C   UNL A   1      29.957  27.524  23.421  1.00  0.00    -0.011 A 
ATOM     16  C   UNL A   1      30.719  28.466  22.623  1.00  0.00     0.027 A 
ATOM     17  C   UNL A   1      28.626  27.687  23.522  1.00  0.00     0.080 A 
ATOM     18  C   UNL A   1      30.131  29.556  22.115  1.00  0.00     0.095 A 
ATOM     19  C   UNL A   1      27.949  28.869  22.918  1.00  0.00     0.255 A 
ATOM     20  N   UNL A   1      28.776  29.779  22.283  1.00  0.00    -0.258 N 
ATOM     21  O   UNL A   1      26.737  28.983  23.069  1.00  0.00    -0.269 OA
BRANCH  20  22
ATOM     22  C   UNL A   1      28.169  30.999  21.820  1.00  0.00     0.451 C 
ATOM     23  F   UNL A   1      29.053  32.024  21.831  1.00  0.00    -0.185 F 
ATOM     24  F   UNL A   1      27.713  30.852  20.551  1.00  0.00    -0.185 F 
ENDBRANCH  20  22
ENDBRANCH  11  15
ENDBRANCH   8   9
ENDBRANCH   6   8
ENDBRANCH   3   4
ENDBRANCH   2   3
ENDBRANCH   1   2
BRANCH   1  25
ATOM     25  C   UNL A   1      34.809  33.645  29.094  1.00  0.00     0.002 C 
BRANCH  25  26
ATOM     26  C   UNL A   1      33.455  34.347  28.978  1.00  0.00     0.021 C 
BRANCH  26  27
ATOM     27  C   UNL A   1      33.467  35.824  29.355  1.00  0.00     0.116 C 
BRANCH  27  28
ATOM     28  N   UNL A   1      32.544  36.134  30.436  1.00  0.00    -0.352 N 
ATOM     29  C   UNL A   1      32.596  35.760  31.756  1.00  0.00     0.251 C 
ATOM     30  H   UNL A   1      31.774  36.691  30.186  1.00  0.00     0.163 HD
ATOM     31  O   UNL A   1      31.641  35.967  32.502  1.00  0.00    -0.269 OA
BRANCH  29  32
ATOM     32  C   UNL A   1      33.795  35.074  32.283  1.00  0.00     0.039 A 
ATOM     33  C   UNL A   1      33.659  33.788  32.813  1.00  0.00     0.014 A 
ATOM     34  C   UNL A   1      35.049  35.691  32.254  1.00  0.00     0.014 A 
ATOM     35  C   UNL A   1      34.792  33.095  33.248  1.00  0.00     0.010 A 
ATOM     36  C   UNL A   1      36.184  34.970  32.616  1.00  0.00     0.010 A 
ATOM     37  C   UNL A   1      36.069  33.664  33.113  1.00  0.00    -0.014 A 
BRANCH  37  38
ATOM     38  C   UNL A   1      37.293  32.904  33.476  1.00  0.00     0.031 A 
ATOM     39  C   UNL A   1      38.017  33.198  34.760  1.00  0.00     0.074 A 
ATOM     40  C   UNL A   1      37.789  31.991  32.617  1.00  0.00     0.049 A 
ATOM     41  N   UNL A   1      39.137  32.692  35.214  1.00  0.00    -0.248 NA
ATOM     42  C   UNL A   1      37.417  34.211  35.641  1.00  0.00     0.031 C 
ATOM     43  C   UNL A   1      37.202  31.643  31.323  1.00  0.00     0.029 A 
ATOM     44  N   UNL A   1      38.906  31.196  32.699  1.00  0.00    -0.354 N 
ATOM     45  C   UNL A   1      39.378  33.331  36.423  1.00  0.00     0.074 A 
ATOM     46  C   UNL A   1      38.319  34.301  36.606  1.00  0.00     0.031 C 
ATOM     47  C   UNL A   1      37.946  30.689  30.743  1.00  0.00     0.029 A 
ATOM     48  C   UNL A   1      39.089  30.389  31.601  1.00  0.00     0.049 A 
ATOM     49  H   UNL A   1      39.516  31.203  33.470  1.00  0.00     0.167 HD
ATOM     50  C   UNL A   1      40.377  33.112  37.312  1.00  0.00     0.037 A 
ATOM     51  C   UNL A   1      40.072  29.515  31.315  1.00  0.00     0.037 A 
ATOM     52  C   UNL A   1      41.420  32.136  37.133  1.00  0.00     0.049 A 
ATOM     53  C   UNL A   1      41.189  29.315  32.305  1.00  0.00     0.074 A 
ATOM     54  C   UNL A   1      42.448  31.805  37.999  1.00  0.00     0.029 A 
ATOM     55  N   UNL A   1      41.572  31.338  36.009  1.00  0.00    -0.354 N 
ATOM     56  N   UNL A   1      41.370  29.878  33.474  1.00  0.00    -0.248 NA
ATOM     57  C   UNL A   1      42.237  28.353  31.935  1.00  0.00     0.031 C 
ATOM     58  C   UNL A   1      43.254  30.846  37.375  1.00  0.00     0.029 A 
ATOM     59  C   UNL A   1      42.692  30.533  36.147  1.00  0.00     0.049 A 
ATOM     60  H   UNL A   1      40.972  31.340  35.228  1.00  0.00     0.167 HD
ATOM     61  C   UNL A   1      42.529  29.317  33.993  1.00  0.00     0.074 A 
ATOM     62  C   UNL A   1      43.001  28.357  33.018  1.00  0.00     0.031 C 
ATOM     63  C   UNL A   1      43.147  29.574  35.172  1.00  0.00     0.037 A 
BRANCH  50  64
ATOM     64  C   UNL A   1      40.392  33.945  38.562  1.00  0.00     0.064 A 
ATOM     65  C   UNL A   1      39.700  33.551  39.717  1.00  0.00     0.173 A 
ATOM     66  C   UNL A   1      41.144  35.129  38.622  1.00  0.00     0.173 A 
ATOM     67  F   UNL A   1      38.959  32.433  39.713  1.00  0.00    -0.203 F 
ATOM     68  C   UNL A   1      39.736  34.325  40.874  1.00  0.00     0.198 A 
ATOM     69  C   UNL A   1      41.206  35.882  39.791  1.00  0.00     0.198 A 
ATOM     70  F   UNL A   1      41.831  35.548  37.549  1.00  0.00    -0.203 F 
ATOM     71  F   UNL A   1      39.026  33.953  41.950  1.00  0.00    -0.200 F 
ATOM     72  C   UNL A   1      40.495  35.484  40.913  1.00  0.00     0.200 A 
ATOM     73  F   UNL A   1      41.953  36.994  39.831  1.00  0.00    -0.200 F 
ATOM     74  F   UNL A   1      40.538  36.223  42.031  1.00  0.00    -0.200 F 
ENDBRANCH  50  64
BRANCH  51  75
ATOM     75  C   UNL A   1      40.040  28.748  30.041  1.00  0.00     0.064 A 
ATOM     76  C   UNL A   1      39.435  27.485  29.977  1.00  0.00     0.173 A 
ATOM     77  C   UNL A   1      40.624  29.251  28.868  1.00  0.00     0.173 A 
ATOM     78  F   UNL A   1      38.882  26.952  31.077  1.00  0.00    -0.203 F 
ATOM     79  C   UNL A   1      39.434  26.745  28.797  1.00  0.00     0.198 A 
ATOM     80  C   UNL A   1      40.594  28.523  27.680  1.00  0.00     0.198 A 
ATOM     81  F   UNL A   1      41.213  30.455  28.873  1.00  0.00    -0.203 F 
ATOM     82  F   UNL A   1      38.895  25.519  28.779  1.00  0.00    -0.200 F 
ATOM     83  C   UNL A   1      40.008  27.266  27.648  1.00  0.00     0.200 A 
ATOM     84  F   UNL A   1      41.137  29.037  26.568  1.00  0.00    -0.200 F 
ATOM     85  F   UNL A   1      40.007  26.555  26.513  1.00  0.00    -0.200 F 
ENDBRANCH  51  75
BRANCH  63  86
ATOM     86  C   UNL A   1      44.378  28.777  35.497  1.00  0.00     0.064 A 
ATOM     87  C   UNL A   1      44.308  27.550  36.173  1.00  0.00     0.173 A 
ATOM     88  C   UNL A   1      45.642  29.227  35.086  1.00  0.00     0.173 A 
ATOM     89  F   UNL A   1      43.126  27.080  36.600  1.00  0.00    -0.203 F 
ATOM     90  C   UNL A   1      45.460  26.818  36.449  1.00  0.00     0.198 A 
ATOM     91  C   UNL A   1      46.788  28.477  35.334  1.00  0.00     0.198 A 
ATOM     92  F   UNL A   1      45.765  30.391  34.429  1.00  0.00    -0.203 F 
ATOM     93  F   UNL A   1      45.374  25.673  37.140  1.00  0.00    -0.200 F 
ATOM     94  C   UNL A   1      46.697  27.276  36.022  1.00  0.00     0.200 A 
ATOM     95  F   UNL A   1      47.980  28.914  34.905  1.00  0.00    -0.200 F 
ATOM     96  F   UNL A   1      47.803  26.565  36.280  1.00  0.00    -0.200 F 
ENDBRANCH  63  86
ENDBRANCH  37  38
ENDBRANCH  29  32
ENDBRANCH  27  28
ENDBRANCH  26  27
ENDBRANCH  25  26
ENDBRANCH   1  25
TORSDOF 16
ENDMDL
