MODEL 1
REMARK VINA RESULT:     -14.7      0.000      0.000
REMARK SMILES Cc1c(NC(=O)c2cccc(-c3cc4ccccc4oc3=O)c2)cccc1C(=O)NCCCCCCNC(=O)c1ccc(-c2c3nc(c(-c4c(F)c(F)c(F)c(F)c4F)c4ccc([nH]4)c(-c4c(F)c(F)c(F)c(F)c4F)c4nc(c(-c5c(F)c(F)c(F)c(F)c5F)c5ccc2[nH]5)C=C4)C=C3)cc1
REMARK SMILES IDX 33 1 32 2 31 3 30 4 28 5 29 6 27 8 1 9 2 10 3 11 24 12 26 13
REMARK SMILES IDX 25 14 4 15 5 16 6 18 7 19 8 20 23 21 9 22 11 23 10 24 12 25
REMARK SMILES IDX 13 26 21 27 14 28 20 29 22 30 15 31 19 32 16 33 18 34 17 35
REMARK SMILES IDX 34 36 35 37 36 38 37 39 38 40 39 42 40 43 41 44 102 45 42 46
REMARK SMILES IDX 101 47 43 48 44 49 45 50 95 51 46 52 100 53 94 54 96 55
REMARK SMILES IDX 47 56 99 57 93 58 92 59 48 61 80 62 60 63 79 64 61 65 64 66
REMARK SMILES IDX 78 67 97 68 62 69 63 70 77 72 98 73 65 74 49 75 50 76 58 77
REMARK SMILES IDX 51 78 52 79 56 80 59 81 53 82 54 83 57 84 55 85 81 86 82 87
REMARK SMILES IDX 90 88 83 89 84 90 88 91 91 92 85 93 86 94 89 95 87 96 66 97
REMARK SMILES IDX 67 98 75 99 68 100 69 101 73 102 76 103 70 104 71 105 74 106
REMARK SMILES IDX 72 107
REMARK H PARENT 30 7 4 17 37 41 96 60 64 71
REMARK Flexibility Score: inf
ROOT
ATOM      1  C   UNL A   1      37.399  21.227  24.664  1.00  0.00     0.002 C 
ENDROOT
BRANCH   1   2
ATOM      2  C   UNL A   1      36.773  19.867  25.001  1.00  0.00     0.021 C 
BRANCH   2   3
ATOM      3  C   UNL A   1      35.234  19.811  24.974  1.00  0.00     0.116 C 
BRANCH   3   4
ATOM      4  N   UNL A   1      34.685  20.669  26.003  1.00  0.00    -0.352 N 
ATOM      5  C   UNL A   1      33.800  21.708  26.075  1.00  0.00     0.251 C 
ATOM      6  O   UNL A   1      33.680  22.173  27.216  1.00  0.00    -0.269 OA
ATOM      7  H   UNL A   1      35.047  20.443  26.891  1.00  0.00     0.163 HD
BRANCH   5   8
ATOM      8  C   UNL A   1      32.960  22.327  24.988  1.00  0.00     0.044 A 
ATOM      9  C   UNL A   1      34.755  22.965  23.266  1.00  0.00     0.047 C 
ATOM     10  C   UNL A   1      33.338  22.900  23.750  1.00  0.00    -0.015 A 
ATOM     11  C   UNL A   1      32.350  23.565  22.960  1.00  0.00     0.045 A 
ATOM     12  C   UNL A   1      31.035  23.702  23.410  1.00  0.00     0.026 A 
ATOM     13  C   UNL A   1      31.610  22.486  25.396  1.00  0.00     0.014 A 
ATOM     14  C   UNL A   1      30.667  23.172  24.634  1.00  0.00     0.003 A 
BRANCH  11  15
ATOM     15  N   UNL A   1      32.709  24.076  21.695  1.00  0.00    -0.322 N 
ATOM     16  C   UNL A   1      32.837  25.371  21.240  1.00  0.00     0.255 C 
ATOM     17  H   UNL A   1      32.900  23.387  21.018  1.00  0.00     0.170 HD
ATOM     18  O   UNL A   1      32.809  25.578  20.025  1.00  0.00    -0.269 OA
BRANCH  16  19
ATOM     19  C   UNL A   1      33.169  26.503  22.152  1.00  0.00     0.040 A 
ATOM     20  C   UNL A   1      33.829  27.619  21.626  1.00  0.00     0.014 A 
ATOM     21  C   UNL A   1      32.988  26.413  23.539  1.00  0.00     0.022 A 
ATOM     22  C   UNL A   1      34.262  28.643  22.470  1.00  0.00     0.001 A 
ATOM     23  C   UNL A   1      33.412  27.437  24.401  1.00  0.00    -0.010 A 
ATOM     24  C   UNL A   1      34.050  28.555  23.848  1.00  0.00     0.009 A 
BRANCH  23  25
ATOM     25  C   UNL A   1      33.339  27.327  25.883  1.00  0.00     0.068 A 
ATOM     26  C   UNL A   1      34.068  28.108  26.712  1.00  0.00     0.028 A 
ATOM     27  C   UNL A   1      31.944  27.156  26.408  1.00  0.00     0.344 A 
ATOM     28  C   UNL A   1      33.442  29.426  26.960  1.00  0.00     0.018 A 
ATOM     29  O   UNL A   1      31.277  28.366  26.619  1.00  0.00    -0.422 OA
ATOM     30  O   UNL A   1      31.416  26.061  26.536  1.00  0.00    -0.246 OA
ATOM     31  C   UNL A   1      34.181  30.560  27.283  1.00  0.00     0.012 A 
ATOM     32  C   UNL A   1      32.053  29.529  26.811  1.00  0.00     0.138 A 
ATOM     33  C   UNL A   1      33.527  31.788  27.402  1.00  0.00     0.001 A 
ATOM     34  C   UNL A   1      31.403  30.754  26.877  1.00  0.00     0.048 A 
ATOM     35  C   UNL A   1      32.152  31.893  27.165  1.00  0.00     0.004 A 
ENDBRANCH  23  25
ENDBRANCH  16  19
ENDBRANCH  11  15
ENDBRANCH   5   8
ENDBRANCH   3   4
ENDBRANCH   2   3
ENDBRANCH   1   2
BRANCH   1  36
ATOM     36  C   UNL A   1      37.322  22.309  25.752  1.00  0.00     0.002 C 
BRANCH  36  37
ATOM     37  C   UNL A   1      38.522  23.253  25.842  1.00  0.00     0.021 C 
BRANCH  37  38
ATOM     38  C   UNL A   1      39.652  22.730  26.722  1.00  0.00     0.116 C 
BRANCH  38  39
ATOM     39  N   UNL A   1      40.979  23.112  26.251  1.00  0.00    -0.352 N 
ATOM     40  C   UNL A   1      41.561  24.361  26.184  1.00  0.00     0.251 C 
ATOM     41  H   UNL A   1      41.542  22.370  25.933  1.00  0.00     0.163 HD
ATOM     42  O   UNL A   1      42.688  24.496  25.713  1.00  0.00    -0.269 OA
BRANCH  40  43
ATOM     43  C   UNL A   1      40.872  25.521  26.791  1.00  0.00     0.039 A 
ATOM     44  C   UNL A   1      40.932  26.751  26.126  1.00  0.00     0.014 A 
ATOM     45  C   UNL A   1      40.321  25.439  28.068  1.00  0.00     0.014 A 
ATOM     46  C   UNL A   1      40.650  27.922  26.826  1.00  0.00     0.010 A 
ATOM     47  C   UNL A   1      40.124  26.600  28.788  1.00  0.00     0.010 A 
ATOM     48  C   UNL A   1      40.352  27.842  28.187  1.00  0.00    -0.014 A 
BRANCH  48  49
ATOM     49  C   UNL A   1      40.361  28.997  29.078  1.00  0.00     0.031 A 
ATOM     50  C   UNL A   1      39.257  29.979  29.056  1.00  0.00     0.074 A 
ATOM     51  C   UNL A   1      41.362  29.128  29.976  1.00  0.00     0.049 A 
ATOM     52  N   UNL A   1      39.344  31.182  29.517  1.00  0.00    -0.248 NA
ATOM     53  C   UNL A   1      37.957  29.680  28.469  1.00  0.00     0.031 C 
ATOM     54  C   UNL A   1      41.434  30.056  31.102  1.00  0.00     0.029 A 
ATOM     55  N   UNL A   1      42.652  28.575  29.899  1.00  0.00    -0.354 N 
ATOM     56  C   UNL A   1      38.087  31.737  29.500  1.00  0.00     0.074 A 
ATOM     57  C   UNL A   1      37.261  30.770  28.810  1.00  0.00     0.031 C 
ATOM     58  C   UNL A   1      42.725  30.264  31.404  1.00  0.00     0.029 A 
ATOM     59  C   UNL A   1      43.516  29.584  30.394  1.00  0.00     0.049 A 
ATOM     60  H   UNL A   1      42.902  27.681  29.572  1.00  0.00     0.167 HD
ATOM     61  C   UNL A   1      37.865  32.914  30.154  1.00  0.00     0.037 A 
ATOM     62  C   UNL A   1      44.437  30.176  29.579  1.00  0.00     0.037 A 
ATOM     63  C   UNL A   1      39.097  33.469  30.703  1.00  0.00     0.049 A 
ATOM     64  C   UNL A   1      44.271  31.671  29.415  1.00  0.00     0.074 A 
ATOM     65  C   UNL A   1      39.705  33.430  31.946  1.00  0.00     0.029 A 
ATOM     66  N   UNL A   1      40.048  33.953  29.825  1.00  0.00    -0.354 N 
ATOM     67  N   UNL A   1      43.259  32.354  29.871  1.00  0.00    -0.248 NA
ATOM     68  C   UNL A   1      45.188  32.494  28.622  1.00  0.00     0.031 C 
ATOM     69  C   UNL A   1      41.051  33.868  31.795  1.00  0.00     0.029 A 
ATOM     70  C   UNL A   1      41.253  34.175  30.462  1.00  0.00     0.049 A 
ATOM     71  H   UNL A   1      39.887  34.118  28.868  1.00  0.00     0.167 HD
ATOM     72  C   UNL A   1      43.349  33.642  29.421  1.00  0.00     0.074 A 
ATOM     73  C   UNL A   1      44.571  33.686  28.642  1.00  0.00     0.031 C 
ATOM     74  C   UNL A   1      42.399  34.583  29.675  1.00  0.00     0.037 A 
BRANCH  61  75
ATOM     75  C   UNL A   1      36.494  33.456  30.474  1.00  0.00     0.064 A 
ATOM     76  C   UNL A   1      35.655  33.944  29.450  1.00  0.00     0.173 A 
ATOM     77  C   UNL A   1      35.964  33.560  31.773  1.00  0.00     0.173 A 
ATOM     78  F   UNL A   1      35.984  33.822  28.157  1.00  0.00    -0.203 F 
ATOM     79  C   UNL A   1      34.444  34.588  29.716  1.00  0.00     0.198 A 
ATOM     80  C   UNL A   1      34.783  34.259  32.046  1.00  0.00     0.198 A 
ATOM     81  F   UNL A   1      36.544  32.942  32.810  1.00  0.00    -0.203 F 
ATOM     82  F   UNL A   1      33.690  35.032  28.700  1.00  0.00    -0.200 F 
ATOM     83  C   UNL A   1      34.028  34.783  31.017  1.00  0.00     0.200 A 
ATOM     84  F   UNL A   1      34.384  34.419  33.316  1.00  0.00    -0.200 F 
ATOM     85  F   UNL A   1      32.895  35.449  31.275  1.00  0.00    -0.200 F 
ENDBRANCH  61  75
BRANCH  62  86
ATOM     86  C   UNL A   1      44.948  29.263  28.521  1.00  0.00     0.064 A 
ATOM     87  C   UNL A   1      45.899  28.286  28.875  1.00  0.00     0.173 A 
ATOM     88  C   UNL A   1      44.278  29.103  27.303  1.00  0.00     0.173 A 
ATOM     89  F   UNL A   1      46.571  28.390  30.033  1.00  0.00    -0.203 F 
ATOM     90  C   UNL A   1      46.076  27.138  28.108  1.00  0.00     0.198 A 
ATOM     91  C   UNL A   1      44.477  27.963  26.524  1.00  0.00     0.198 A 
ATOM     92  F   UNL A   1      43.347  29.987  26.917  1.00  0.00    -0.203 F 
ATOM     93  F   UNL A   1      46.896  26.167  28.536  1.00  0.00    -0.200 F 
ATOM     94  C   UNL A   1      45.345  26.966  26.945  1.00  0.00     0.200 A 
ATOM     95  F   UNL A   1      43.752  27.787  25.410  1.00  0.00    -0.200 F 
ATOM     96  F   UNL A   1      45.445  25.824  26.251  1.00  0.00    -0.200 F 
ENDBRANCH  62  86
BRANCH  74  97
ATOM     97  C   UNL A   1      42.507  35.989  29.190  1.00  0.00     0.064 A 
ATOM     98  C   UNL A   1      41.935  36.396  27.975  1.00  0.00     0.173 A 
ATOM     99  C   UNL A   1      43.292  36.936  29.873  1.00  0.00     0.173 A 
ATOM    100  F   UNL A   1      41.196  35.541  27.251  1.00  0.00    -0.203 F 
ATOM    101  C   UNL A   1      42.122  37.687  27.483  1.00  0.00     0.198 A 
ATOM    102  C   UNL A   1      43.511  38.211  29.358  1.00  0.00     0.198 A 
ATOM    103  F   UNL A   1      43.843  36.649  31.062  1.00  0.00    -0.203 F 
ATOM    104  F   UNL A   1      41.528  38.054  26.338  1.00  0.00    -0.200 F 
ATOM    105  C   UNL A   1      42.921  38.589  28.166  1.00  0.00     0.200 A 
ATOM    106  F   UNL A   1      44.296  39.072  30.022  1.00  0.00    -0.200 F 
ATOM    107  F   UNL A   1      43.117  39.821  27.679  1.00  0.00    -0.200 F 
ENDBRANCH  74  97
ENDBRANCH  48  49
ENDBRANCH  40  43
ENDBRANCH  38  39
ENDBRANCH  37  38
ENDBRANCH  36  37
ENDBRANCH   1  36
TORSDOF 16
ENDMDL
MODEL 2
REMARK VINA RESULT:     -14.0      1.132      2.067
REMARK SMILES Cc1c(NC(=O)c2cccc(-c3cc4ccccc4oc3=O)c2)cccc1C(=O)NCCCCCCNC(=O)c1ccc(-c2c3nc(c(-c4c(F)c(F)c(F)c(F)c4F)c4ccc([nH]4)c(-c4c(F)c(F)c(F)c(F)c4F)c4nc(c(-c5c(F)c(F)c(F)c(F)c5F)c5ccc2[nH]5)C=C4)C=C3)cc1
REMARK SMILES IDX 33 1 32 2 31 3 30 4 28 5 29 6 27 8 1 9 2 10 3 11 24 12 26 13
REMARK SMILES IDX 25 14 4 15 5 16 6 18 7 19 8 20 23 21 9 22 11 23 10 24 12 25
REMARK SMILES IDX 13 26 21 27 14 28 20 29 22 30 15 31 19 32 16 33 18 34 17 35
REMARK SMILES IDX 34 36 35 37 36 38 37 39 38 40 39 42 40 43 41 44 102 45 42 46
REMARK SMILES IDX 101 47 43 48 44 49 45 50 95 51 46 52 100 53 94 54 96 55
REMARK SMILES IDX 47 56 99 57 93 58 92 59 48 61 80 62 60 63 79 64 61 65 64 66
REMARK SMILES IDX 78 67 97 68 62 69 63 70 77 72 98 73 65 74 49 75 50 76 58 77
REMARK SMILES IDX 51 78 52 79 56 80 59 81 53 82 54 83 57 84 55 85 81 86 82 87
REMARK SMILES IDX 90 88 83 89 84 90 88 91 91 92 85 93 86 94 89 95 87 96 66 97
REMARK SMILES IDX 67 98 75 99 68 100 69 101 73 102 76 103 70 104 71 105 74 106
REMARK SMILES IDX 72 107
REMARK H PARENT 30 7 4 17 37 41 96 60 64 71
REMARK Flexibility Score: inf
ROOT
ATOM      1  C   UNL A   1      36.968  19.861  24.365  1.00  0.00     0.002 C 
ENDROOT
BRANCH   1   2
ATOM      2  C   UNL A   1      35.885  19.018  25.052  1.00  0.00     0.021 C 
BRANCH   2   3
ATOM      3  C   UNL A   1      34.695  18.602  24.168  1.00  0.00     0.116 C 
BRANCH   3   4
ATOM      4  N   UNL A   1      33.463  19.140  24.703  1.00  0.00    -0.352 N 
ATOM      5  C   UNL A   1      32.831  20.351  24.742  1.00  0.00     0.251 C 
ATOM      6  O   UNL A   1      31.771  20.333  25.383  1.00  0.00    -0.269 OA
ATOM      7  H   UNL A   1      32.938  18.446  25.164  1.00  0.00     0.163 HD
BRANCH   5   8
ATOM      8  C   UNL A   1      33.227  21.659  24.108  1.00  0.00     0.044 A 
ATOM      9  C   UNL A   1      31.919  21.564  21.899  1.00  0.00     0.047 C 
ATOM     10  C   UNL A   1      32.862  22.223  22.861  1.00  0.00    -0.015 A 
ATOM     11  C   UNL A   1      33.507  23.420  22.422  1.00  0.00     0.045 A 
ATOM     12  C   UNL A   1      34.522  24.014  23.176  1.00  0.00     0.026 A 
ATOM     13  C   UNL A   1      34.257  22.305  24.839  1.00  0.00     0.014 A 
ATOM     14  C   UNL A   1      34.905  23.449  24.380  1.00  0.00     0.003 A 
BRANCH  11  15
ATOM     15  N   UNL A   1      33.096  24.022  21.214  1.00  0.00    -0.322 N 
ATOM     16  C   UNL A   1      32.538  25.255  20.955  1.00  0.00     0.255 C 
ATOM     17  H   UNL A   1      33.231  23.461  20.416  1.00  0.00     0.170 HD
ATOM     18  O   UNL A   1      31.938  25.423  19.893  1.00  0.00    -0.269 OA
BRANCH  16  19
ATOM     19  C   UNL A   1      32.772  26.433  21.840  1.00  0.00     0.040 A 
ATOM     20  C   UNL A   1      33.865  27.265  21.575  1.00  0.00     0.014 A 
ATOM     21  C   UNL A   1      32.034  26.634  23.015  1.00  0.00     0.022 A 
ATOM     22  C   UNL A   1      34.186  28.305  22.450  1.00  0.00     0.001 A 
ATOM     23  C   UNL A   1      32.340  27.679  23.902  1.00  0.00    -0.010 A 
ATOM     24  C   UNL A   1      33.425  28.514  23.602  1.00  0.00     0.009 A 
BRANCH  23  25
ATOM     25  C   UNL A   1      31.653  27.854  25.210  1.00  0.00     0.068 A 
ATOM     26  C   UNL A   1      30.530  27.178  25.543  1.00  0.00     0.028 A 
ATOM     27  C   UNL A   1      32.590  27.932  26.378  1.00  0.00     0.344 A 
ATOM     28  C   UNL A   1      30.809  25.826  26.076  1.00  0.00     0.018 A 
ATOM     29  O   UNL A   1      32.934  26.682  26.901  1.00  0.00    -0.422 OA
ATOM     30  O   UNL A   1      33.081  28.984  26.763  1.00  0.00    -0.246 OA
ATOM     31  C   UNL A   1      29.903  24.776  25.970  1.00  0.00     0.012 A 
ATOM     32  C   UNL A   1      32.061  25.599  26.664  1.00  0.00     0.138 A 
ATOM     33  C   UNL A   1      30.280  23.503  26.407  1.00  0.00     0.001 A 
ATOM     34  C   UNL A   1      32.462  24.329  27.053  1.00  0.00     0.048 A 
ATOM     35  C   UNL A   1      31.565  23.272  26.912  1.00  0.00     0.004 A 
ENDBRANCH  23  25
ENDBRANCH  16  19
ENDBRANCH  11  15
ENDBRANCH   5   8
ENDBRANCH   3   4
ENDBRANCH   2   3
ENDBRANCH   1   2
BRANCH   1  36
ATOM     36  C   UNL A   1      37.975  20.570  25.284  1.00  0.00     0.002 C 
BRANCH  36  37
ATOM     37  C   UNL A   1      38.066  22.090  25.129  1.00  0.00     0.021 C 
BRANCH  37  38
ATOM     38  C   UNL A   1      38.651  22.798  26.345  1.00  0.00     0.116 C 
BRANCH  38  39
ATOM     39  N   UNL A   1      40.106  22.905  26.310  1.00  0.00    -0.352 N 
ATOM     40  C   UNL A   1      40.910  24.008  26.510  1.00  0.00     0.251 C 
ATOM     41  H   UNL A   1      40.584  22.067  26.115  1.00  0.00     0.163 HD
ATOM     42  O   UNL A   1      42.130  23.914  26.399  1.00  0.00    -0.269 OA
BRANCH  40  43
ATOM     43  C   UNL A   1      40.307  25.276  26.977  1.00  0.00     0.039 A 
ATOM     44  C   UNL A   1      40.689  26.464  26.343  1.00  0.00     0.014 A 
ATOM     45  C   UNL A   1      39.512  25.313  28.121  1.00  0.00     0.014 A 
ATOM     46  C   UNL A   1      40.464  27.683  26.980  1.00  0.00     0.010 A 
ATOM     47  C   UNL A   1      39.365  26.509  28.794  1.00  0.00     0.010 A 
ATOM     48  C   UNL A   1      39.898  27.685  28.256  1.00  0.00    -0.014 A 
BRANCH  48  49
ATOM     49  C   UNL A   1      39.916  28.847  29.137  1.00  0.00     0.031 A 
ATOM     50  C   UNL A   1      38.869  29.886  29.042  1.00  0.00     0.074 A 
ATOM     51  C   UNL A   1      40.866  28.934  30.094  1.00  0.00     0.049 A 
ATOM     52  N   UNL A   1      38.994  31.087  29.499  1.00  0.00    -0.248 NA
ATOM     53  C   UNL A   1      37.593  29.651  28.379  1.00  0.00     0.031 C 
ATOM     54  C   UNL A   1      40.919  29.868  31.216  1.00  0.00     0.029 A 
ATOM     55  N   UNL A   1      42.127  28.312  30.100  1.00  0.00    -0.354 N 
ATOM     56  C   UNL A   1      37.772  31.709  29.401  1.00  0.00     0.074 A 
ATOM     57  C   UNL A   1      36.938  30.780  28.669  1.00  0.00     0.031 C 
ATOM     58  C   UNL A   1      42.199  30.010  31.594  1.00  0.00     0.029 A 
ATOM     59  C   UNL A   1      43.012  29.278  30.639  1.00  0.00     0.049 A 
ATOM     60  H   UNL A   1      42.347  27.402  29.794  1.00  0.00     0.167 HD
ATOM     61  C   UNL A   1      37.574  32.902  30.032  1.00  0.00     0.037 A 
ATOM     62  C   UNL A   1      44.011  29.811  29.877  1.00  0.00     0.037 A 
ATOM     63  C   UNL A   1      38.798  33.396  30.651  1.00  0.00     0.049 A 
ATOM     64  C   UNL A   1      43.937  31.312  29.693  1.00  0.00     0.074 A 
ATOM     65  C   UNL A   1      39.328  33.338  31.929  1.00  0.00     0.029 A 
ATOM     66  N   UNL A   1      39.825  33.820  29.829  1.00  0.00    -0.354 N 
ATOM     67  N   UNL A   1      42.937  32.052  30.082  1.00  0.00    -0.248 NA
ATOM     68  C   UNL A   1      44.943  32.076  28.951  1.00  0.00     0.031 C 
ATOM     69  C   UNL A   1      40.702  33.702  31.857  1.00  0.00     0.029 A 
ATOM     70  C   UNL A   1      41.001  33.984  30.536  1.00  0.00     0.049 A 
ATOM     71  H   UNL A   1      39.732  33.983  28.863  1.00  0.00     0.167 HD
ATOM     72  C   UNL A   1      43.123  33.329  29.629  1.00  0.00     0.074 A 
ATOM     73  C   UNL A   1      44.391  33.300  28.926  1.00  0.00     0.031 C 
ATOM     74  C   UNL A   1      42.212  34.321  29.818  1.00  0.00     0.037 A 
BRANCH  61  75
ATOM     75  C   UNL A   1      36.217  33.520  30.264  1.00  0.00     0.064 A 
ATOM     76  C   UNL A   1      35.461  34.024  29.185  1.00  0.00     0.173 A 
ATOM     77  C   UNL A   1      35.625  33.683  31.529  1.00  0.00     0.173 A 
ATOM     78  F   UNL A   1      35.852  33.853  27.915  1.00  0.00    -0.203 F 
ATOM     79  C   UNL A   1      34.271  34.734  29.369  1.00  0.00     0.198 A 
ATOM     80  C   UNL A   1      34.468  34.447  31.721  1.00  0.00     0.198 A 
ATOM     81  F   UNL A   1      36.116  33.064  32.610  1.00  0.00    -0.203 F 
ATOM     82  F   UNL A   1      33.597  35.190  28.303  1.00  0.00    -0.200 F 
ATOM     83  C   UNL A   1      33.797  34.983  30.640  1.00  0.00     0.200 A 
ATOM     84  F   UNL A   1      34.011  34.659  32.963  1.00  0.00    -0.200 F 
ATOM     85  F   UNL A   1      32.688  35.711  30.822  1.00  0.00    -0.200 F 
ENDBRANCH  61  75
BRANCH  62  86
ATOM     86  C   UNL A   1      44.536  28.862  28.859  1.00  0.00     0.064 A 
ATOM     87  C   UNL A   1      45.317  27.772  29.291  1.00  0.00     0.173 A 
ATOM     88  C   UNL A   1      44.001  28.803  27.567  1.00  0.00     0.173 A 
ATOM     89  F   UNL A   1      45.852  27.776  30.523  1.00  0.00    -0.203 F 
ATOM     90  C   UNL A   1      45.449  26.624  28.516  1.00  0.00     0.198 A 
ATOM     91  C   UNL A   1      44.158  27.660  26.782  1.00  0.00     0.198 A 
ATOM     92  F   UNL A   1      43.233  29.798  27.102  1.00  0.00    -0.203 F 
ATOM     93  F   UNL A   1      46.093  25.556  29.007  1.00  0.00    -0.200 F 
ATOM     94  C   UNL A   1      44.848  26.560  27.271  1.00  0.00     0.200 A 
ATOM     95  F   UNL A   1      43.556  27.590  25.586  1.00  0.00    -0.200 F 
ATOM     96  F   UNL A   1      44.896  25.426  26.559  1.00  0.00    -0.200 F 
ENDBRANCH  62  86
BRANCH  74  97
ATOM     97  C   UNL A   1      42.425  35.715  29.331  1.00  0.00     0.064 A 
ATOM     98  C   UNL A   1      41.864  36.169  28.128  1.00  0.00     0.173 A 
ATOM     99  C   UNL A   1      43.299  36.594  29.997  1.00  0.00     0.173 A 
ATOM    100  F   UNL A   1      41.043  35.379  27.418  1.00  0.00    -0.203 F 
ATOM    101  C   UNL A   1      42.145  37.441  27.631  1.00  0.00     0.198 A 
ATOM    102  C   UNL A   1      43.611  37.847  29.477  1.00  0.00     0.198 A 
ATOM    103  F   UNL A   1      43.849  36.260  31.175  1.00  0.00    -0.203 F 
ATOM    104  F   UNL A   1      41.560  37.857  26.499  1.00  0.00    -0.200 F 
ATOM    105  C   UNL A   1      43.029  38.273  28.298  1.00  0.00     0.200 A 
ATOM    106  F   UNL A   1      44.477  38.639  30.125  1.00  0.00    -0.200 F 
ATOM    107  F   UNL A   1      43.316  39.486  27.807  1.00  0.00    -0.200 F 
ENDBRANCH  74  97
ENDBRANCH  48  49
ENDBRANCH  40  43
ENDBRANCH  38  39
ENDBRANCH  37  38
ENDBRANCH  36  37
ENDBRANCH   1  36
TORSDOF 16
ENDMDL
MODEL 3
REMARK VINA RESULT:     -13.6      1.955      3.868
REMARK SMILES Cc1c(NC(=O)c2cccc(-c3cc4ccccc4oc3=O)c2)cccc1C(=O)NCCCCCCNC(=O)c1ccc(-c2c3nc(c(-c4c(F)c(F)c(F)c(F)c4F)c4ccc([nH]4)c(-c4c(F)c(F)c(F)c(F)c4F)c4nc(c(-c5c(F)c(F)c(F)c(F)c5F)c5ccc2[nH]5)C=C4)C=C3)cc1
REMARK SMILES IDX 33 1 32 2 31 3 30 4 28 5 29 6 27 8 1 9 2 10 3 11 24 12 26 13
REMARK SMILES IDX 25 14 4 15 5 16 6 18 7 19 8 20 23 21 9 22 11 23 10 24 12 25
REMARK SMILES IDX 13 26 21 27 14 28 20 29 22 30 15 31 19 32 16 33 18 34 17 35
REMARK SMILES IDX 34 36 35 37 36 38 37 39 38 40 39 42 40 43 41 44 102 45 42 46
REMARK SMILES IDX 101 47 43 48 44 49 45 50 95 51 46 52 100 53 94 54 96 55
REMARK SMILES IDX 47 56 99 57 93 58 92 59 48 61 80 62 60 63 79 64 61 65 64 66
REMARK SMILES IDX 78 67 97 68 62 69 63 70 77 72 98 73 65 74 49 75 50 76 58 77
REMARK SMILES IDX 51 78 52 79 56 80 59 81 53 82 54 83 57 84 55 85 81 86 82 87
REMARK SMILES IDX 90 88 83 89 84 90 88 91 91 92 85 93 86 94 89 95 87 96 66 97
REMARK SMILES IDX 67 98 75 99 68 100 69 101 73 102 76 103 70 104 71 105 74 106
REMARK SMILES IDX 72 107
REMARK H PARENT 30 7 4 17 37 41 96 60 64 71
REMARK Flexibility Score: inf
ROOT
ATOM      1  C   UNL A   1      35.642  22.244  25.088  1.00  0.00     0.002 C 
ENDROOT
BRANCH   1   2
ATOM      2  C   UNL A   1      34.593  22.897  24.177  1.00  0.00     0.021 C 
BRANCH   2   3
ATOM      3  C   UNL A   1      34.777  24.403  23.913  1.00  0.00     0.116 C 
BRANCH   3   4
ATOM      4  N   UNL A   1      33.778  24.871  22.977  1.00  0.00    -0.352 N 
ATOM      5  C   UNL A   1      32.677  25.680  23.006  1.00  0.00     0.251 C 
ATOM      6  O   UNL A   1      32.086  25.747  21.919  1.00  0.00    -0.269 OA
ATOM      7  H   UNL A   1      33.934  24.510  22.074  1.00  0.00     0.163 HD
BRANCH   5   8
ATOM      8  C   UNL A   1      32.118  26.496  24.143  1.00  0.00     0.044 A 
ATOM      9  C   UNL A   1      32.396  28.882  23.234  1.00  0.00     0.047 C 
ATOM     10  C   UNL A   1      31.988  27.898  24.290  1.00  0.00    -0.015 A 
ATOM     11  C   UNL A   1      31.562  28.431  25.546  1.00  0.00     0.045 A 
ATOM     12  C   UNL A   1      31.322  27.598  26.641  1.00  0.00     0.026 A 
ATOM     13  C   UNL A   1      31.854  25.693  25.283  1.00  0.00     0.014 A 
ATOM     14  C   UNL A   1      31.479  26.229  26.513  1.00  0.00     0.003 A 
BRANCH  11  15
ATOM     15  N   UNL A   1      31.365  29.822  25.673  1.00  0.00    -0.322 N 
ATOM     16  C   UNL A   1      31.982  30.758  26.475  1.00  0.00     0.255 C 
ATOM     17  H   UNL A   1      30.663  30.187  25.087  1.00  0.00     0.170 HD
ATOM     18  O   UNL A   1      31.413  31.832  26.677  1.00  0.00    -0.269 OA
BRANCH  16  19
ATOM     19  C   UNL A   1      33.378  30.582  26.971  1.00  0.00     0.040 A 
ATOM     20  C   UNL A   1      34.023  29.362  26.741  1.00  0.00     0.014 A 
ATOM     21  C   UNL A   1      33.995  31.532  27.796  1.00  0.00     0.022 A 
ATOM     22  C   UNL A   1      35.281  29.116  27.294  1.00  0.00     0.001 A 
ATOM     23  C   UNL A   1      35.262  31.303  28.355  1.00  0.00    -0.010 A 
ATOM     24  C   UNL A   1      35.899  30.082  28.091  1.00  0.00     0.009 A 
BRANCH  23  25
ATOM     25  C   UNL A   1      35.899  32.237  29.323  1.00  0.00     0.068 A 
ATOM     26  C   UNL A   1      36.274  33.492  28.990  1.00  0.00     0.028 A 
ATOM     27  C   UNL A   1      35.269  32.216  30.684  1.00  0.00     0.344 A 
ATOM     28  C   UNL A   1      35.160  34.464  29.061  1.00  0.00     0.018 A 
ATOM     29  O   UNL A   1      34.177  33.079  30.805  1.00  0.00    -0.422 OA
ATOM     30  O   UNL A   1      35.620  31.441  31.563  1.00  0.00    -0.246 OA
ATOM     31  C   UNL A   1      35.119  35.618  28.284  1.00  0.00     0.012 A 
ATOM     32  C   UNL A   1      34.088  34.170  29.914  1.00  0.00     0.138 A 
ATOM     33  C   UNL A   1      33.985  36.433  28.334  1.00  0.00     0.001 A 
ATOM     34  C   UNL A   1      32.937  34.947  29.931  1.00  0.00     0.048 A 
ATOM     35  C   UNL A   1      32.885  36.082  29.125  1.00  0.00     0.004 A 
ENDBRANCH  23  25
ENDBRANCH  16  19
ENDBRANCH  11  15
ENDBRANCH   5   8
ENDBRANCH   3   4
ENDBRANCH   2   3
ENDBRANCH   1   2
BRANCH   1  36
ATOM     36  C   UNL A   1      36.874  23.093  25.438  1.00  0.00     0.002 C 
BRANCH  36  37
ATOM     37  C   UNL A   1      38.188  22.328  25.604  1.00  0.00     0.021 C 
BRANCH  37  38
ATOM     38  C   UNL A   1      39.149  22.964  26.602  1.00  0.00     0.116 C 
BRANCH  38  39
ATOM     39  N   UNL A   1      40.506  23.114  26.086  1.00  0.00    -0.352 N 
ATOM     40  C   UNL A   1      41.385  24.168  26.219  1.00  0.00     0.251 C 
ATOM     41  H   UNL A   1      40.844  22.349  25.565  1.00  0.00     0.163 HD
ATOM     42  O   UNL A   1      42.485  24.132  25.673  1.00  0.00    -0.269 OA
BRANCH  40  43
ATOM     43  C   UNL A   1      41.046  25.291  27.121  1.00  0.00     0.039 A 
ATOM     44  C   UNL A   1      40.722  26.527  26.548  1.00  0.00     0.014 A 
ATOM     45  C   UNL A   1      41.206  25.176  28.500  1.00  0.00     0.014 A 
ATOM     46  C   UNL A   1      40.781  27.679  27.329  1.00  0.00     0.010 A 
ATOM     47  C   UNL A   1      41.350  26.323  29.255  1.00  0.00     0.010 A 
ATOM     48  C   UNL A   1      41.203  27.578  28.655  1.00  0.00    -0.014 A 
BRANCH  48  49
ATOM     49  C   UNL A   1      41.610  28.727  29.456  1.00  0.00     0.031 A 
ATOM     50  C   UNL A   1      40.615  29.713  29.925  1.00  0.00     0.074 A 
ATOM     51  C   UNL A   1      42.905  28.847  29.825  1.00  0.00     0.049 A 
ATOM     52  N   UNL A   1      40.905  30.913  30.306  1.00  0.00    -0.248 NA
ATOM     53  C   UNL A   1      39.187  29.425  29.967  1.00  0.00     0.031 C 
ATOM     54  C   UNL A   1      43.470  29.766  30.809  1.00  0.00     0.029 A 
ATOM     55  N   UNL A   1      44.026  28.288  29.187  1.00  0.00    -0.354 N 
ATOM     56  C   UNL A   1      39.772  31.475  30.844  1.00  0.00     0.074 A 
ATOM     57  C   UNL A   1      38.720  30.516  30.583  1.00  0.00     0.031 C 
ATOM     58  C   UNL A   1      44.763  29.966  30.514  1.00  0.00     0.029 A 
ATOM     59  C   UNL A   1      45.026  29.289  29.257  1.00  0.00     0.049 A 
ATOM     60  H   UNL A   1      44.100  27.395  28.780  1.00  0.00     0.167 HD
ATOM     61  C   UNL A   1      39.867  32.648  31.534  1.00  0.00     0.037 A 
ATOM     62  C   UNL A   1      45.501  29.882  28.123  1.00  0.00     0.037 A 
ATOM     63  C   UNL A   1      41.219  33.193  31.489  1.00  0.00     0.049 A 
ATOM     64  C   UNL A   1      45.291  31.379  28.054  1.00  0.00     0.074 A 
ATOM     65  C   UNL A   1      42.311  33.143  32.339  1.00  0.00     0.029 A 
ATOM     66  N   UNL A   1      41.692  33.679  30.285  1.00  0.00    -0.354 N 
ATOM     67  N   UNL A   1      44.587  32.063  28.910  1.00  0.00    -0.248 NA
ATOM     68  C   UNL A   1      45.773  32.203  26.942  1.00  0.00     0.031 C 
ATOM     69  C   UNL A   1      43.458  33.576  31.614  1.00  0.00     0.029 A 
ATOM     70  C   UNL A   1      43.057  33.890  30.328  1.00  0.00     0.049 A 
ATOM     71  H   UNL A   1      41.130  33.851  29.496  1.00  0.00     0.167 HD
ATOM     72  C   UNL A   1      44.479  33.355  28.472  1.00  0.00     0.074 A 
ATOM     73  C   UNL A   1      45.236  33.398  27.236  1.00  0.00     0.031 C 
ATOM     74  C   UNL A   1      43.744  34.298  29.121  1.00  0.00     0.037 A 
BRANCH  61  75
ATOM     75  C   UNL A   1      38.780  33.194  32.426  1.00  0.00     0.064 A 
ATOM     76  C   UNL A   1      38.507  32.599  33.676  1.00  0.00     0.173 A 
ATOM     77  C   UNL A   1      37.945  34.274  32.089  1.00  0.00     0.173 A 
ATOM     78  F   UNL A   1      39.281  31.624  34.171  1.00  0.00    -0.203 F 
ATOM     79  C   UNL A   1      37.417  32.977  34.464  1.00  0.00     0.198 A 
ATOM     80  C   UNL A   1      36.817  34.612  32.846  1.00  0.00     0.198 A 
ATOM     81  F   UNL A   1      38.224  35.070  31.049  1.00  0.00    -0.203 F 
ATOM     82  F   UNL A   1      37.208  32.373  35.643  1.00  0.00    -0.200 F 
ATOM     83  C   UNL A   1      36.547  33.955  34.029  1.00  0.00     0.200 A 
ATOM     84  F   UNL A   1      35.996  35.582  32.418  1.00  0.00    -0.200 F 
ATOM     85  F   UNL A   1      35.471  34.280  34.757  1.00  0.00    -0.200 F 
ENDBRANCH  61  75
BRANCH  62  86
ATOM     86  C   UNL A   1      45.489  28.974  26.944  1.00  0.00     0.064 A 
ATOM     87  C   UNL A   1      46.570  28.088  26.764  1.00  0.00     0.173 A 
ATOM     88  C   UNL A   1      44.315  28.717  26.227  1.00  0.00     0.173 A 
ATOM     89  F   UNL A   1      47.720  28.287  27.429  1.00  0.00    -0.203 F 
ATOM     90  C   UNL A   1      46.437  26.930  26.003  1.00  0.00     0.198 A 
ATOM     91  C   UNL A   1      44.194  27.568  25.445  1.00  0.00     0.198 A 
ATOM     92  F   UNL A   1      43.244  29.510  26.368  1.00  0.00    -0.203 F 
ATOM     93  F   UNL A   1      47.441  26.043  25.954  1.00  0.00    -0.200 F 
ATOM     94  C   UNL A   1      45.239  26.659  25.364  1.00  0.00     0.200 A 
ATOM     95  F   UNL A   1      43.027  27.295  24.845  1.00  0.00    -0.200 F 
ATOM     96  F   UNL A   1      45.076  25.504  24.705  1.00  0.00    -0.200 F 
ENDBRANCH  62  86
BRANCH  74  97
ATOM     97  C   UNL A   1      43.639  35.707  28.643  1.00  0.00     0.064 A 
ATOM     98  C   UNL A   1      42.581  36.130  27.824  1.00  0.00     0.173 A 
ATOM     99  C   UNL A   1      44.662  36.639  28.895  1.00  0.00     0.173 A 
ATOM    100  F   UNL A   1      41.581  35.291  27.514  1.00  0.00    -0.203 F 
ATOM    101  C   UNL A   1      42.541  37.423  27.303  1.00  0.00     0.198 A 
ATOM    102  C   UNL A   1      44.640  37.916  28.339  1.00  0.00     0.198 A 
ATOM    103  F   UNL A   1      45.691  36.335  29.700  1.00  0.00    -0.203 F 
ATOM    104  F   UNL A   1      41.495  37.807  26.557  1.00  0.00    -0.200 F 
ATOM    105  C   UNL A   1      43.576  38.310  27.549  1.00  0.00     0.200 A 
ATOM    106  F   UNL A   1      45.653  38.762  28.574  1.00  0.00    -0.200 F 
ATOM    107  F   UNL A   1      43.546  39.544  27.029  1.00  0.00    -0.200 F 
ENDBRANCH  74  97
ENDBRANCH  48  49
ENDBRANCH  40  43
ENDBRANCH  38  39
ENDBRANCH  37  38
ENDBRANCH  36  37
ENDBRANCH   1  36
TORSDOF 16
ENDMDL
