MODEL 1
REMARK VINA RESULT:     -12.6      0.000      0.000
REMARK SMILES C[N@@H+]1CC[N@H+](Cc2ccc(C#CC(C)(C)O)s2)C[C@H]1C(=O)NCCCCCCNC(=O)c1ccc(-c2c3nc(c(-c4c(F)c(F)c(F)c(F)c4F)c4ccc([nH]4)c(-c4c(F)c(F)c(F)c(F)c4F)c4nc(c(-c5c(F)c(F)c(F)c(F)c5F)c5ccc2[nH]5)C=C4)C=C3)cc1
REMARK SMILES IDX 24 1 23 2 22 3 20 4 21 5 19 7 1 8 2 9 3 10 4 12 18 13 5 14
REMARK SMILES IDX 6 16 7 17 8 18 17 19 9 20 10 21 11 22 12 23 13 24 14 25
REMARK SMILES IDX 15 26 16 27 25 29 26 30 27 31 28 32 29 33 30 34 31 36 32 37
REMARK SMILES IDX 33 38 94 39 34 40 93 41 35 42 36 43 37 44 87 45 38 46 92 47
REMARK SMILES IDX 86 48 88 49 39 50 91 51 85 52 84 53 40 55 72 56 52 57 71 58
REMARK SMILES IDX 53 59 56 60 70 61 89 62 54 63 55 64 69 66 90 67 57 68 41 69
REMARK SMILES IDX 42 70 50 71 43 72 44 73 48 74 51 75 45 76 46 77 49 78 47 79
REMARK SMILES IDX 73 80 74 81 82 82 75 83 76 84 80 85 83 86 77 87 78 88 81 89
REMARK SMILES IDX 79 90 58 91 59 92 67 93 60 94 61 95 65 96 68 97 62 98 63 99
REMARK SMILES IDX 66 100 64 101
REMARK H PARENT 22 6 2 11 5 15 16 28 29 35 88 54 56 65
REMARK Flexibility Score: inf
ROOT
ATOM      1  C   UNL A   1      31.080  27.207  26.542  1.00  0.00     0.021 C 
ENDROOT
BRANCH   1   2
ATOM      2  C   UNL A   1      31.924  25.938  26.507  1.00  0.00     0.116 C 
BRANCH   2   3
ATOM      3  N   UNL A   1      31.145  24.772  26.872  1.00  0.00    -0.351 N 
ATOM      4  C   UNL A   1      31.123  23.546  26.276  1.00  0.00     0.284 C 
ATOM      5  O   UNL A   1      30.340  22.701  26.718  1.00  0.00    -0.268 OA
ATOM      6  H   UNL A   1      30.557  24.879  27.654  1.00  0.00     0.163 HD
BRANCH   4   7
ATOM      7  C   UNL A   1      32.090  23.219  25.126  1.00  0.00     0.329 C 
ATOM      8  C   UNL A   1      33.368  21.526  26.319  1.00  0.00     0.333 C 
ATOM      9  N   UNL A   1      32.508  21.786  25.158  1.00  0.00    -0.318 N 
ATOM     10  C   UNL A   1      33.205  21.412  23.917  1.00  0.00     0.325 C 
ATOM     11  H   UNL A   1      31.667  21.216  25.237  1.00  0.00     0.348 HD
ATOM     12  C   UNL A   1      32.523  21.887  22.610  1.00  0.00     0.324 C 
ATOM     13  C   UNL A   1      31.424  23.692  23.798  1.00  0.00     0.339 C 
ATOM     14  N   UNL A   1      32.080  23.284  22.545  1.00  0.00    -0.320 N 
ATOM     15  H   UNL A   1      31.368  23.309  21.815  1.00  0.00     0.348 HD
BRANCH  14  16
ATOM     16  C   UNL A   1      33.051  24.249  22.010  1.00  0.00     0.310 C 
BRANCH  16  17
ATOM     17  C   UNL A   1      32.704  25.683  22.248  1.00  0.00     0.060 A 
ATOM     18  C   UNL A   1      33.418  26.650  22.927  1.00  0.00     0.022 A 
ATOM     19  S   UNL A   1      31.232  26.327  21.643  1.00  0.00    -0.126 S 
ATOM     20  C   UNL A   1      32.597  27.769  23.255  1.00  0.00     0.029 A 
ATOM     21  C   UNL A   1      31.340  27.655  22.708  1.00  0.00     0.077 A 
BRANCH  21  22
ATOM     22  C   UNL A   1      30.283  28.581  22.879  1.00  0.00    -0.053 C 
ATOM     23  C   UNL A   1      29.277  29.391  22.701  1.00  0.00    -0.063 C 
BRANCH  23  24
ATOM     24  C   UNL A   1      28.105  30.335  22.494  1.00  0.00     0.120 C 
ATOM     25  C   UNL A   1      28.204  31.503  23.473  1.00  0.00     0.056 C 
ATOM     26  C   UNL A   1      28.083  30.823  21.048  1.00  0.00     0.056 C 
BRANCH  24  27
ATOM     27  O   UNL A   1      26.905  29.614  22.759  1.00  0.00    -0.378 OA
ATOM     28  H   UNL A   1      26.799  28.909  22.100  1.00  0.00     0.212 HD
ENDBRANCH  24  27
ENDBRANCH  23  24
ENDBRANCH  21  22
ENDBRANCH  16  17
ENDBRANCH  14  16
ENDBRANCH   4   7
ENDBRANCH   2   3
ENDBRANCH   1   2
BRANCH   1  29
ATOM     29  C   UNL A   1      31.539  28.225  27.588  1.00  0.00     0.002 C 
BRANCH  29  30
ATOM     30  C   UNL A   1      32.870  28.926  27.283  1.00  0.00     0.002 C 
BRANCH  30  31
ATOM     31  C   UNL A   1      32.832  30.462  27.255  1.00  0.00     0.021 C 
BRANCH  31  32
ATOM     32  C   UNL A   1      34.181  31.106  27.518  1.00  0.00     0.116 C 
BRANCH  32  33
ATOM     33  N   UNL A   1      34.166  31.930  28.720  1.00  0.00    -0.352 N 
ATOM     34  C   UNL A   1      34.990  31.848  29.823  1.00  0.00     0.251 C 
ATOM     35  H   UNL A   1      33.481  32.636  28.748  1.00  0.00     0.163 HD
ATOM     36  O   UNL A   1      34.674  32.352  30.885  1.00  0.00    -0.269 OA
BRANCH  34  37
ATOM     37  C   UNL A   1      36.266  31.123  29.691  1.00  0.00     0.039 A 
ATOM     38  C   UNL A   1      37.443  31.817  29.405  1.00  0.00     0.014 A 
ATOM     39  C   UNL A   1      36.275  29.743  29.883  1.00  0.00     0.014 A 
ATOM     40  C   UNL A   1      38.648  31.121  29.392  1.00  0.00     0.010 A 
ATOM     41  C   UNL A   1      37.473  29.081  29.995  1.00  0.00     0.010 A 
ATOM     42  C   UNL A   1      38.659  29.754  29.712  1.00  0.00    -0.014 A 
BRANCH  42  43
ATOM     43  C   UNL A   1      39.930  29.054  29.886  1.00  0.00     0.031 A 
ATOM     44  C   UNL A   1      40.382  28.942  31.301  1.00  0.00     0.074 A 
ATOM     45  C   UNL A   1      40.527  28.365  28.888  1.00  0.00     0.049 A 
ATOM     46  N   UNL A   1      41.461  29.418  31.828  1.00  0.00    -0.248 NA
ATOM     47  C   UNL A   1      39.472  28.325  32.282  1.00  0.00     0.031 C 
ATOM     48  C   UNL A   1      40.002  28.135  27.534  1.00  0.00     0.029 A 
ATOM     49  N   UNL A   1      41.669  27.618  28.897  1.00  0.00    -0.354 N 
ATOM     50  C   UNL A   1      41.468  28.989  33.156  1.00  0.00     0.074 A 
ATOM     51  C   UNL A   1      40.151  28.477  33.421  1.00  0.00     0.031 C 
ATOM     52  C   UNL A   1      40.676  27.121  26.954  1.00  0.00     0.029 A 
ATOM     53  C   UNL A   1      41.790  26.760  27.811  1.00  0.00     0.049 A 
ATOM     54  H   UNL A   1      42.345  27.680  29.610  1.00  0.00     0.167 HD
ATOM     55  C   UNL A   1      42.648  28.834  33.821  1.00  0.00     0.037 A 
ATOM     56  C   UNL A   1      42.730  25.806  27.616  1.00  0.00     0.037 A 
ATOM     57  C   UNL A   1      43.716  29.479  33.100  1.00  0.00     0.049 A 
ATOM     58  C   UNL A   1      43.891  26.135  28.470  1.00  0.00     0.074 A 
ATOM     59  C   UNL A   1      44.174  30.762  32.907  1.00  0.00     0.029 A 
ATOM     60  N   UNL A   1      44.268  28.693  32.127  1.00  0.00    -0.354 N 
ATOM     61  N   UNL A   1      44.649  27.179  28.280  1.00  0.00    -0.248 NA
ATOM     62  C   UNL A   1      44.032  25.487  29.769  1.00  0.00     0.031 C 
ATOM     63  C   UNL A   1      44.892  30.743  31.673  1.00  0.00     0.029 A 
ATOM     64  C   UNL A   1      44.880  29.445  31.166  1.00  0.00     0.049 A 
ATOM     65  H   UNL A   1      44.230  27.709  32.120  1.00  0.00     0.167 HD
ATOM     66  C   UNL A   1      45.013  27.567  29.552  1.00  0.00     0.074 A 
ATOM     67  C   UNL A   1      44.778  26.402  30.394  1.00  0.00     0.031 C 
ATOM     68  C   UNL A   1      45.146  28.889  29.860  1.00  0.00     0.037 A 
BRANCH  55  69
ATOM     69  C   UNL A   1      42.975  27.706  34.788  1.00  0.00     0.064 A 
ATOM     70  C   UNL A   1      43.351  28.043  36.110  1.00  0.00     0.173 A 
ATOM     71  C   UNL A   1      43.284  26.386  34.397  1.00  0.00     0.173 A 
ATOM     72  F   UNL A   1      43.103  29.266  36.603  1.00  0.00    -0.203 F 
ATOM     73  C   UNL A   1      44.080  27.168  36.923  1.00  0.00     0.198 A 
ATOM     74  C   UNL A   1      43.971  25.500  35.229  1.00  0.00     0.198 A 
ATOM     75  F   UNL A   1      43.041  25.929  33.165  1.00  0.00    -0.203 F 
ATOM     76  F   UNL A   1      44.534  27.585  38.113  1.00  0.00    -0.200 F 
ATOM     77  C   UNL A   1      44.403  25.903  36.474  1.00  0.00     0.200 A 
ATOM     78  F   UNL A   1      44.288  24.282  34.770  1.00  0.00    -0.200 F 
ATOM     79  F   UNL A   1      45.164  25.088  37.217  1.00  0.00    -0.200 F 
ENDBRANCH  55  69
BRANCH  56  80
ATOM     80  C   UNL A   1      42.622  24.530  26.878  1.00  0.00     0.064 A 
ATOM     81  C   UNL A   1      43.226  24.355  25.624  1.00  0.00     0.173 A 
ATOM     82  C   UNL A   1      42.152  23.366  27.518  1.00  0.00     0.173 A 
ATOM     83  F   UNL A   1      43.730  25.409  24.967  1.00  0.00    -0.203 F 
ATOM     84  C   UNL A   1      43.381  23.087  25.057  1.00  0.00     0.198 A 
ATOM     85  C   UNL A   1      42.304  22.101  26.951  1.00  0.00     0.198 A 
ATOM     86  F   UNL A   1      41.624  23.429  28.750  1.00  0.00    -0.203 F 
ATOM     87  F   UNL A   1      44.021  22.952  23.887  1.00  0.00    -0.200 F 
ATOM     88  C   UNL A   1      42.933  21.960  25.727  1.00  0.00     0.200 A 
ATOM     89  F   UNL A   1      41.899  21.016  27.625  1.00  0.00    -0.200 F 
ATOM     90  F   UNL A   1      43.144  20.739  25.216  1.00  0.00    -0.200 F 
ENDBRANCH  56  80
BRANCH  68  91
ATOM     91  C   UNL A   1      45.412  29.833  28.733  1.00  0.00     0.064 A 
ATOM     92  C   UNL A   1      44.417  30.502  28.004  1.00  0.00     0.173 A 
ATOM     93  C   UNL A   1      46.748  30.124  28.430  1.00  0.00     0.173 A 
ATOM     94  F   UNL A   1      43.120  30.334  28.291  1.00  0.00    -0.203 F 
ATOM     95  C   UNL A   1      44.750  31.394  26.987  1.00  0.00     0.198 A 
ATOM     96  C   UNL A   1      47.079  31.043  27.440  1.00  0.00     0.198 A 
ATOM     97  F   UNL A   1      47.737  29.542  29.126  1.00  0.00    -0.203 F 
ATOM     98  F   UNL A   1      43.785  32.008  26.288  1.00  0.00    -0.200 F 
ATOM     99  C   UNL A   1      46.080  31.668  26.711  1.00  0.00     0.200 A 
ATOM    100  F   UNL A   1      48.365  31.334  27.207  1.00  0.00    -0.200 F 
ATOM    101  F   UNL A   1      46.402  32.551  25.754  1.00  0.00    -0.200 F 
ENDBRANCH  68  91
ENDBRANCH  42  43
ENDBRANCH  34  37
ENDBRANCH  32  33
ENDBRANCH  31  32
ENDBRANCH  30  31
ENDBRANCH  29  30
ENDBRANCH   1  29
TORSDOF 18
ENDMDL
MODEL 2
REMARK VINA RESULT:     -12.3      3.117      8.271
REMARK SMILES C[N@@H+]1CC[N@H+](Cc2ccc(C#CC(C)(C)O)s2)C[C@H]1C(=O)NCCCCCCNC(=O)c1ccc(-c2c3nc(c(-c4c(F)c(F)c(F)c(F)c4F)c4ccc([nH]4)c(-c4c(F)c(F)c(F)c(F)c4F)c4nc(c(-c5c(F)c(F)c(F)c(F)c5F)c5ccc2[nH]5)C=C4)C=C3)cc1
REMARK SMILES IDX 24 1 23 2 22 3 20 4 21 5 19 7 1 8 2 9 3 10 4 12 18 13 5 14
REMARK SMILES IDX 6 16 7 17 8 18 17 19 9 20 10 21 11 22 12 23 13 24 14 25
REMARK SMILES IDX 15 26 16 27 25 29 26 30 27 31 28 32 29 33 30 34 31 36 32 37
REMARK SMILES IDX 33 38 94 39 34 40 93 41 35 42 36 43 37 44 87 45 38 46 92 47
REMARK SMILES IDX 86 48 88 49 39 50 91 51 85 52 84 53 40 55 72 56 52 57 71 58
REMARK SMILES IDX 53 59 56 60 70 61 89 62 54 63 55 64 69 66 90 67 57 68 41 69
REMARK SMILES IDX 42 70 50 71 43 72 44 73 48 74 51 75 45 76 46 77 49 78 47 79
REMARK SMILES IDX 73 80 74 81 82 82 75 83 76 84 80 85 83 86 77 87 78 88 81 89
REMARK SMILES IDX 79 90 58 91 59 92 67 93 60 94 61 95 65 96 68 97 62 98 63 99
REMARK SMILES IDX 66 100 64 101
REMARK H PARENT 22 6 2 11 5 15 16 28 29 35 88 54 56 65
REMARK Flexibility Score: inf
ROOT
ATOM      1  C   UNL A   1      39.062  23.430  26.763  1.00  0.00     0.021 C 
ENDROOT
BRANCH   1   2
ATOM      2  C   UNL A   1      37.647  23.475  26.198  1.00  0.00     0.116 C 
BRANCH   2   3
ATOM      3  N   UNL A   1      37.651  23.404  24.751  1.00  0.00    -0.351 N 
ATOM      4  C   UNL A   1      36.684  22.915  23.923  1.00  0.00     0.284 C 
ATOM      5  O   UNL A   1      36.914  22.899  22.710  1.00  0.00    -0.268 OA
ATOM      6  H   UNL A   1      38.457  23.756  24.308  1.00  0.00     0.163 HD
BRANCH   4   7
ATOM      7  C   UNL A   1      35.330  22.454  24.489  1.00  0.00     0.329 C 
ATOM      8  C   UNL A   1      35.995  20.158  24.949  1.00  0.00     0.333 C 
ATOM      9  N   UNL A   1      35.507  21.410  25.541  1.00  0.00    -0.318 N 
ATOM     10  C   UNL A   1      34.249  21.172  26.265  1.00  0.00     0.325 C 
ATOM     11  H   UNL A   1      36.200  21.751  26.207  1.00  0.00     0.348 HD
ATOM     12  C   UNL A   1      33.489  22.450  26.703  1.00  0.00     0.324 C 
ATOM     13  C   UNL A   1      34.546  23.726  24.932  1.00  0.00     0.339 C 
ATOM     14  N   UNL A   1      33.310  23.508  25.702  1.00  0.00    -0.320 N 
ATOM     15  H   UNL A   1      33.138  24.359  26.236  1.00  0.00     0.348 HD
BRANCH  14  16
ATOM     16  C   UNL A   1      32.081  23.440  24.897  1.00  0.00     0.310 C 
BRANCH  16  17
ATOM     17  C   UNL A   1      31.230  24.666  24.952  1.00  0.00     0.060 A 
ATOM     18  C   UNL A   1      30.262  25.014  25.873  1.00  0.00     0.022 A 
ATOM     19  S   UNL A   1      31.384  25.879  23.747  1.00  0.00    -0.126 S 
ATOM     20  C   UNL A   1      29.425  26.058  25.381  1.00  0.00     0.029 A 
ATOM     21  C   UNL A   1      29.868  26.535  24.170  1.00  0.00     0.077 A 
BRANCH  21  22
ATOM     22  C   UNL A   1      29.236  27.546  23.405  1.00  0.00    -0.053 C 
ATOM     23  C   UNL A   1      28.858  28.679  22.883  1.00  0.00    -0.063 C 
BRANCH  23  24
ATOM     24  C   UNL A   1      28.416  30.000  22.274  1.00  0.00     0.120 C 
ATOM     25  C   UNL A   1      27.660  30.820  23.316  1.00  0.00     0.056 C 
ATOM     26  C   UNL A   1      29.632  30.757  21.746  1.00  0.00     0.056 C 
BRANCH  24  27
ATOM     27  O   UNL A   1      27.539  29.714  21.188  1.00  0.00    -0.378 OA
ATOM     28  H   UNL A   1      27.788  28.866  20.786  1.00  0.00     0.212 HD
ENDBRANCH  24  27
ENDBRANCH  23  24
ENDBRANCH  21  22
ENDBRANCH  16  17
ENDBRANCH  14  16
ENDBRANCH   4   7
ENDBRANCH   2   3
ENDBRANCH   1   2
BRANCH   1  29
ATOM     29  C   UNL A   1      39.738  22.063  26.630  1.00  0.00     0.002 C 
BRANCH  29  30
ATOM     30  C   UNL A   1      40.942  21.833  27.555  1.00  0.00     0.002 C 
BRANCH  30  31
ATOM     31  C   UNL A   1      41.799  20.596  27.249  1.00  0.00     0.021 C 
BRANCH  31  32
ATOM     32  C   UNL A   1      41.842  20.238  25.774  1.00  0.00     0.116 C 
BRANCH  32  33
ATOM     33  N   UNL A   1      43.176  19.835  25.350  1.00  0.00    -0.352 N 
ATOM     34  C   UNL A   1      44.255  20.637  25.045  1.00  0.00     0.251 C 
ATOM     35  H   UNL A   1      43.327  18.865  25.272  1.00  0.00     0.163 HD
ATOM     36  O   UNL A   1      45.191  20.214  24.390  1.00  0.00    -0.269 OA
BRANCH  34  37
ATOM     37  C   UNL A   1      44.248  22.031  25.521  1.00  0.00     0.039 A 
ATOM     38  C   UNL A   1      43.432  22.981  24.903  1.00  0.00     0.014 A 
ATOM     39  C   UNL A   1      45.050  22.372  26.608  1.00  0.00     0.014 A 
ATOM     40  C   UNL A   1      43.367  24.263  25.441  1.00  0.00     0.010 A 
ATOM     41  C   UNL A   1      44.889  23.595  27.213  1.00  0.00     0.010 A 
ATOM     42  C   UNL A   1      44.081  24.557  26.612  1.00  0.00    -0.014 A 
BRANCH  42  43
ATOM     43  C   UNL A   1      43.878  25.835  27.292  1.00  0.00     0.031 A 
ATOM     44  C   UNL A   1      44.843  26.900  26.900  1.00  0.00     0.074 A 
ATOM     45  C   UNL A   1      42.779  26.102  28.032  1.00  0.00     0.049 A 
ATOM     46  N   UNL A   1      45.691  27.518  27.654  1.00  0.00    -0.248 NA
ATOM     47  C   UNL A   1      44.965  27.246  25.473  1.00  0.00     0.031 C 
ATOM     48  C   UNL A   1      41.606  25.236  28.218  1.00  0.00     0.029 A 
ATOM     49  N   UNL A   1      42.411  27.248  28.676  1.00  0.00    -0.354 N 
ATOM     50  C   UNL A   1      46.310  28.470  26.844  1.00  0.00     0.074 A 
ATOM     51  C   UNL A   1      45.955  28.141  25.491  1.00  0.00     0.031 C 
ATOM     52  C   UNL A   1      40.576  25.965  28.696  1.00  0.00     0.029 A 
ATOM     53  C   UNL A   1      41.067  27.291  29.025  1.00  0.00     0.049 A 
ATOM     54  H   UNL A   1      43.041  27.977  28.875  1.00  0.00     0.167 HD
ATOM     55  C   UNL A   1      46.822  29.609  27.393  1.00  0.00     0.037 A 
ATOM     56  C   UNL A   1      40.383  28.339  29.541  1.00  0.00     0.037 A 
ATOM     57  C   UNL A   1      46.921  29.474  28.823  1.00  0.00     0.049 A 
ATOM     58  C   UNL A   1      41.365  29.264  30.145  1.00  0.00     0.074 A 
ATOM     59  C   UNL A   1      47.755  28.853  29.724  1.00  0.00     0.029 A 
ATOM     60  N   UNL A   1      45.764  29.788  29.481  1.00  0.00    -0.354 N 
ATOM     61  N   UNL A   1      42.073  28.971  31.200  1.00  0.00    -0.248 NA
ATOM     62  C   UNL A   1      41.829  30.417  29.380  1.00  0.00     0.031 C 
ATOM     63  C   UNL A   1      46.982  28.656  30.908  1.00  0.00     0.029 A 
ATOM     64  C   UNL A   1      45.711  29.191  30.709  1.00  0.00     0.049 A 
ATOM     65  H   UNL A   1      45.059  30.370  29.117  1.00  0.00     0.167 HD
ATOM     66  C   UNL A   1      43.281  29.602  30.982  1.00  0.00     0.074 A 
ATOM     67  C   UNL A   1      43.010  30.616  29.972  1.00  0.00     0.031 C 
ATOM     68  C   UNL A   1      44.447  29.022  31.386  1.00  0.00     0.037 A 
BRANCH  55  69
ATOM     69  C   UNL A   1      46.740  30.999  26.778  1.00  0.00     0.064 A 
ATOM     70  C   UNL A   1      47.894  31.817  26.811  1.00  0.00     0.173 A 
ATOM     71  C   UNL A   1      45.534  31.677  26.502  1.00  0.00     0.173 A 
ATOM     72  F   UNL A   1      49.102  31.287  27.055  1.00  0.00    -0.203 F 
ATOM     73  C   UNL A   1      47.824  33.210  26.696  1.00  0.00     0.198 A 
ATOM     74  C   UNL A   1      45.475  33.063  26.341  1.00  0.00     0.198 A 
ATOM     75  F   UNL A   1      44.351  31.057  26.486  1.00  0.00    -0.203 F 
ATOM     76  F   UNL A   1      48.926  33.950  26.875  1.00  0.00    -0.200 F 
ATOM     77  C   UNL A   1      46.611  33.832  26.477  1.00  0.00     0.200 A 
ATOM     78  F   UNL A   1      44.287  33.651  26.144  1.00  0.00    -0.200 F 
ATOM     79  F   UNL A   1      46.526  35.169  26.440  1.00  0.00    -0.200 F 
ENDBRANCH  55  69
BRANCH  56  80
ATOM     80  C   UNL A   1      38.954  28.685  29.389  1.00  0.00     0.064 A 
ATOM     81  C   UNL A   1      38.118  28.850  30.503  1.00  0.00     0.173 A 
ATOM     82  C   UNL A   1      38.449  29.128  28.151  1.00  0.00     0.173 A 
ATOM     83  F   UNL A   1      38.540  28.486  31.722  1.00  0.00    -0.203 F 
ATOM     84  C   UNL A   1      36.862  29.454  30.392  1.00  0.00     0.198 A 
ATOM     85  C   UNL A   1      37.195  29.728  28.039  1.00  0.00     0.198 A 
ATOM     86  F   UNL A   1      39.206  29.074  27.045  1.00  0.00    -0.203 F 
ATOM     87  F   UNL A   1      36.117  29.654  31.488  1.00  0.00    -0.200 F 
ATOM     88  C   UNL A   1      36.408  29.905  29.162  1.00  0.00     0.200 A 
ATOM     89  F   UNL A   1      36.782  30.192  26.852  1.00  0.00    -0.200 F 
ATOM     90  F   UNL A   1      35.235  30.546  29.067  1.00  0.00    -0.200 F 
ENDBRANCH  56  80
BRANCH  68  91
ATOM     91  C   UNL A   1      44.367  28.016  32.488  1.00  0.00     0.064 A 
ATOM     92  C   UNL A   1      44.246  28.336  33.850  1.00  0.00     0.173 A 
ATOM     93  C   UNL A   1      44.337  26.663  32.132  1.00  0.00     0.173 A 
ATOM     94  F   UNL A   1      44.187  29.610  34.257  1.00  0.00    -0.203 F 
ATOM     95  C   UNL A   1      44.143  27.336  34.814  1.00  0.00     0.198 A 
ATOM     96  C   UNL A   1      44.197  25.668  33.093  1.00  0.00     0.198 A 
ATOM     97  F   UNL A   1      44.408  26.307  30.840  1.00  0.00    -0.203 F 
ATOM     98  F   UNL A   1      44.050  27.661  36.112  1.00  0.00    -0.200 F 
ATOM     99  C   UNL A   1      44.111  26.003  34.434  1.00  0.00     0.200 A 
ATOM    100  F   UNL A   1      44.126  24.384  32.715  1.00  0.00    -0.200 F 
ATOM    101  F   UNL A   1      43.979  25.042  35.359  1.00  0.00    -0.200 F 
ENDBRANCH  68  91
ENDBRANCH  42  43
ENDBRANCH  34  37
ENDBRANCH  32  33
ENDBRANCH  31  32
ENDBRANCH  30  31
ENDBRANCH  29  30
ENDBRANCH   1  29
TORSDOF 18
ENDMDL
MODEL 3
REMARK VINA RESULT:     -12.2      3.425      9.080
REMARK SMILES C[N@@H+]1CC[N@H+](Cc2ccc(C#CC(C)(C)O)s2)C[C@H]1C(=O)NCCCCCCNC(=O)c1ccc(-c2c3nc(c(-c4c(F)c(F)c(F)c(F)c4F)c4ccc([nH]4)c(-c4c(F)c(F)c(F)c(F)c4F)c4nc(c(-c5c(F)c(F)c(F)c(F)c5F)c5ccc2[nH]5)C=C4)C=C3)cc1
REMARK SMILES IDX 24 1 23 2 22 3 20 4 21 5 19 7 1 8 2 9 3 10 4 12 18 13 5 14
REMARK SMILES IDX 6 16 7 17 8 18 17 19 9 20 10 21 11 22 12 23 13 24 14 25
REMARK SMILES IDX 15 26 16 27 25 29 26 30 27 31 28 32 29 33 30 34 31 36 32 37
REMARK SMILES IDX 33 38 94 39 34 40 93 41 35 42 36 43 37 44 87 45 38 46 92 47
REMARK SMILES IDX 86 48 88 49 39 50 91 51 85 52 84 53 40 55 72 56 52 57 71 58
REMARK SMILES IDX 53 59 56 60 70 61 89 62 54 63 55 64 69 66 90 67 57 68 41 69
REMARK SMILES IDX 42 70 50 71 43 72 44 73 48 74 51 75 45 76 46 77 49 78 47 79
REMARK SMILES IDX 73 80 74 81 82 82 75 83 76 84 80 85 83 86 77 87 78 88 81 89
REMARK SMILES IDX 79 90 58 91 59 92 67 93 60 94 61 95 65 96 68 97 62 98 63 99
REMARK SMILES IDX 66 100 64 101
REMARK H PARENT 22 6 2 11 5 15 16 28 29 35 88 54 56 65
REMARK Flexibility Score: inf
ROOT
ATOM      1  C   UNL A   1      36.279  22.918  23.813  1.00  0.00     0.021 C 
ENDROOT
BRANCH   1   2
ATOM      2  C   UNL A   1      35.014  23.749  23.996  1.00  0.00     0.116 C 
BRANCH   2   3
ATOM      3  N   UNL A   1      34.617  24.390  22.759  1.00  0.00    -0.351 N 
ATOM      4  C   UNL A   1      33.619  25.297  22.556  1.00  0.00     0.284 C 
ATOM      5  O   UNL A   1      33.412  25.681  21.402  1.00  0.00    -0.268 OA
ATOM      6  H   UNL A   1      35.136  24.138  21.961  1.00  0.00     0.163 HD
BRANCH   4   7
ATOM      7  C   UNL A   1      32.823  25.862  23.744  1.00  0.00     0.329 C 
ATOM      8  C   UNL A   1      33.876  28.057  23.758  1.00  0.00     0.333 C 
ATOM      9  N   UNL A   1      32.607  27.333  23.605  1.00  0.00    -0.318 N 
ATOM     10  C   UNL A   1      31.626  27.817  24.588  1.00  0.00     0.325 C 
ATOM     11  H   UNL A   1      32.239  27.507  22.671  1.00  0.00     0.348 HD
ATOM     12  C   UNL A   1      30.344  26.956  24.718  1.00  0.00     0.324 C 
ATOM     13  C   UNL A   1      31.529  25.007  23.897  1.00  0.00     0.339 C 
ATOM     14  N   UNL A   1      30.513  25.504  24.838  1.00  0.00    -0.320 N 
ATOM     15  H   UNL A   1      29.620  25.103  24.552  1.00  0.00     0.348 HD
BRANCH  14  16
ATOM     16  C   UNL A   1      30.621  24.974  26.206  1.00  0.00     0.310 C 
BRANCH  16  17
ATOM     17  C   UNL A   1      31.400  23.704  26.324  1.00  0.00     0.060 A 
ATOM     18  C   UNL A   1      32.576  23.465  27.006  1.00  0.00     0.022 A 
ATOM     19  S   UNL A   1      30.853  22.279  25.538  1.00  0.00    -0.126 S 
ATOM     20  C   UNL A   1      33.190  22.252  26.575  1.00  0.00     0.029 A 
ATOM     21  C   UNL A   1      32.397  21.571  25.682  1.00  0.00     0.077 A 
BRANCH  21  22
ATOM     22  C   UNL A   1      32.739  20.353  25.044  1.00  0.00    -0.053 C 
ATOM     23  C   UNL A   1      32.923  19.099  24.742  1.00  0.00    -0.063 C 
BRANCH  23  24
ATOM     24  C   UNL A   1      33.139  17.636  24.389  1.00  0.00     0.120 C 
ATOM     25  C   UNL A   1      34.616  17.390  24.091  1.00  0.00     0.056 C 
ATOM     26  C   UNL A   1      32.648  16.751  25.531  1.00  0.00     0.056 C 
BRANCH  24  27
ATOM     27  O   UNL A   1      32.379  17.348  23.218  1.00  0.00    -0.378 OA
ATOM     28  H   UNL A   1      31.443  17.256  23.455  1.00  0.00     0.212 HD
ENDBRANCH  24  27
ENDBRANCH  23  24
ENDBRANCH  21  22
ENDBRANCH  16  17
ENDBRANCH  14  16
ENDBRANCH   4   7
ENDBRANCH   2   3
ENDBRANCH   1   2
BRANCH   1  29
ATOM     29  C   UNL A   1      36.279  21.610  24.608  1.00  0.00     0.002 C 
BRANCH  29  30
ATOM     30  C   UNL A   1      37.660  21.119  25.066  1.00  0.00     0.002 C 
BRANCH  30  31
ATOM     31  C   UNL A   1      38.579  22.179  25.692  1.00  0.00     0.021 C 
BRANCH  31  32
ATOM     32  C   UNL A   1      39.626  21.598  26.624  1.00  0.00     0.116 C 
BRANCH  32  33
ATOM     33  N   UNL A   1      40.946  21.565  26.008  1.00  0.00    -0.352 N 
ATOM     34  C   UNL A   1      41.837  22.604  25.840  1.00  0.00     0.251 C 
ATOM     35  H   UNL A   1      41.240  20.689  25.669  1.00  0.00     0.163 HD
ATOM     36  O   UNL A   1      42.741  22.535  25.028  1.00  0.00    -0.269 OA
BRANCH  34  37
ATOM     37  C   UNL A   1      41.664  23.814  26.662  1.00  0.00     0.039 A 
ATOM     38  C   UNL A   1      42.252  23.895  27.927  1.00  0.00     0.014 A 
ATOM     39  C   UNL A   1      40.928  24.877  26.144  1.00  0.00     0.014 A 
ATOM     40  C   UNL A   1      42.161  25.089  28.635  1.00  0.00     0.010 A 
ATOM     41  C   UNL A   1      40.947  26.092  26.784  1.00  0.00     0.010 A 
ATOM     42  C   UNL A   1      41.526  26.194  28.047  1.00  0.00    -0.014 A 
BRANCH  42  43
ATOM     43  C   UNL A   1      41.585  27.503  28.695  1.00  0.00     0.031 A 
ATOM     44  C   UNL A   1      42.747  28.340  28.284  1.00  0.00     0.074 A 
ATOM     45  C   UNL A   1      40.561  28.006  29.420  1.00  0.00     0.049 A 
ATOM     46  N   UNL A   1      43.701  28.791  29.029  1.00  0.00    -0.248 NA
ATOM     47  C   UNL A   1      42.939  28.619  26.850  1.00  0.00     0.031 C 
ATOM     48  C   UNL A   1      39.237  27.401  29.619  1.00  0.00     0.029 A 
ATOM     49  N   UNL A   1      40.433  29.218  30.035  1.00  0.00    -0.354 N 
ATOM     50  C   UNL A   1      44.503  29.578  28.201  1.00  0.00     0.074 A 
ATOM     51  C   UNL A   1      44.091  29.294  26.854  1.00  0.00     0.031 C 
ATOM     52  C   UNL A   1      38.376  28.336  30.072  1.00  0.00     0.029 A 
ATOM     53  C   UNL A   1      39.124  29.542  30.372  1.00  0.00     0.049 A 
ATOM     54  H   UNL A   1      41.198  29.810  30.220  1.00  0.00     0.167 HD
ATOM     55  C   UNL A   1      45.234  30.603  28.726  1.00  0.00     0.037 A 
ATOM     56  C   UNL A   1      38.667  30.720  30.858  1.00  0.00     0.037 A 
ATOM     57  C   UNL A   1      45.300  30.485  30.160  1.00  0.00     0.049 A 
ATOM     58  C   UNL A   1      39.815  31.441  31.447  1.00  0.00     0.074 A 
ATOM     59  C   UNL A   1      45.989  29.731  31.081  1.00  0.00     0.029 A 
ATOM     60  N   UNL A   1      44.230  31.044  30.802  1.00  0.00    -0.354 N 
ATOM     61  N   UNL A   1      40.447  31.036  32.513  1.00  0.00    -0.248 NA
ATOM     62  C   UNL A   1      40.505  32.456  30.659  1.00  0.00     0.031 C 
ATOM     63  C   UNL A   1      45.190  29.724  32.264  1.00  0.00     0.029 A 
ATOM     64  C   UNL A   1      44.054  30.501  32.043  1.00  0.00     0.049 A 
ATOM     65  H   UNL A   1      43.658  31.748  30.419  1.00  0.00     0.167 HD
ATOM     66  C   UNL A   1      41.758  31.403  32.289  1.00  0.00     0.074 A 
ATOM     67  C   UNL A   1      41.701  32.426  31.253  1.00  0.00     0.031 C 
ATOM     68  C   UNL A   1      42.781  30.609  32.715  1.00  0.00     0.037 A 
BRANCH  55  69
ATOM     69  C   UNL A   1      45.437  31.964  28.078  1.00  0.00     0.064 A 
ATOM     70  C   UNL A   1      44.293  32.729  27.748  1.00  0.00     0.173 A 
ATOM     71  C   UNL A   1      46.633  32.379  27.454  1.00  0.00     0.173 A 
ATOM     72  F   UNL A   1      43.097  32.439  28.283  1.00  0.00    -0.203 F 
ATOM     73  C   UNL A   1      44.326  33.742  26.784  1.00  0.00     0.198 A 
ATOM     74  C   UNL A   1      46.670  33.422  26.527  1.00  0.00     0.198 A 
ATOM     75  F   UNL A   1      47.789  31.731  27.621  1.00  0.00    -0.203 F 
ATOM     76  F   UNL A   1      43.189  34.340  26.405  1.00  0.00    -0.200 F 
ATOM     77  C   UNL A   1      45.514  34.076  26.163  1.00  0.00     0.200 A 
ATOM     78  F   UNL A   1      47.830  33.722  25.924  1.00  0.00    -0.200 F 
ATOM     79  F   UNL A   1      45.539  34.994  25.187  1.00  0.00    -0.200 F 
ENDBRANCH  55  69
BRANCH  56  80
ATOM     80  C   UNL A   1      37.339  31.344  30.688  1.00  0.00     0.064 A 
ATOM     81  C   UNL A   1      36.462  31.509  31.771  1.00  0.00     0.173 A 
ATOM     82  C   UNL A   1      37.017  32.040  29.506  1.00  0.00     0.173 A 
ATOM     83  F   UNL A   1      36.718  30.908  32.941  1.00  0.00    -0.203 F 
ATOM     84  C   UNL A   1      35.346  32.347  31.688  1.00  0.00     0.198 A 
ATOM     85  C   UNL A   1      35.902  32.874  29.423  1.00  0.00     0.198 A 
ATOM     86  F   UNL A   1      37.835  31.998  28.444  1.00  0.00    -0.203 F 
ATOM     87  F   UNL A   1      34.567  32.530  32.763  1.00  0.00    -0.200 F 
ATOM     88  C   UNL A   1      35.075  33.040  30.519  1.00  0.00     0.200 A 
ATOM     89  F   UNL A   1      35.671  33.566  28.298  1.00  0.00    -0.200 F 
ATOM     90  F   UNL A   1      34.046  33.896  30.462  1.00  0.00    -0.200 F 
ENDBRANCH  56  80
BRANCH  68  91
ATOM     91  C   UNL A   1      42.496  29.668  33.840  1.00  0.00     0.064 A 
ATOM     92  C   UNL A   1      41.987  28.369  33.682  1.00  0.00     0.173 A 
ATOM     93  C   UNL A   1      42.827  30.084  35.135  1.00  0.00     0.173 A 
ATOM     94  F   UNL A   1      41.722  27.875  32.466  1.00  0.00    -0.203 F 
ATOM     95  C   UNL A   1      41.781  27.541  34.783  1.00  0.00     0.198 A 
ATOM     96  C   UNL A   1      42.656  29.242  36.229  1.00  0.00     0.198 A 
ATOM     97  F   UNL A   1      43.356  31.301  35.335  1.00  0.00    -0.203 F 
ATOM     98  F   UNL A   1      41.274  26.311  34.614  1.00  0.00    -0.200 F 
ATOM     99  C   UNL A   1      42.122  27.976  36.054  1.00  0.00     0.200 A 
ATOM    100  F   UNL A   1      43.026  29.654  37.449  1.00  0.00    -0.200 F 
ATOM    101  F   UNL A   1      41.954  27.168  37.111  1.00  0.00    -0.200 F 
ENDBRANCH  68  91
ENDBRANCH  42  43
ENDBRANCH  34  37
ENDBRANCH  32  33
ENDBRANCH  31  32
ENDBRANCH  30  31
ENDBRANCH  29  30
ENDBRANCH   1  29
TORSDOF 18
ENDMDL
