MODEL 1
REMARK VINA RESULT:     -12.0      0.000      0.000
REMARK SMILES COc1ccc(-c2sc(N)nc2C(=O)NCCCCCCNC(=O)c2ccc(-c3c4nc(c(-c5c(F)c(F)c(F)c(F)c5F)c5ccc([nH]5)c(-c5c(F)c(F)c(F)c(F)c5F)c5nc(c(-c6c(F)c(F)c(F)c(F)c6F)c6ccc3[nH]6)C=C5)C=C4)cc2)cc1OC
REMARK SMILES IDX 18 1 17 2 16 3 15 4 13 5 14 6 12 8 7 9 8 10 9 11 11 12 6 13
REMARK SMILES IDX 3 14 4 15 89 16 5 17 88 18 2 19 1 20 90 21 91 22 10 23 19 26
REMARK SMILES IDX 20 27 21 28 22 29 23 30 24 32 25 33 26 34 87 35 27 36 86 37
REMARK SMILES IDX 28 38 29 39 30 40 80 41 31 42 85 43 79 44 81 45 32 46 84 47
REMARK SMILES IDX 78 48 77 49 33 51 65 52 45 53 64 54 46 55 49 56 63 57 82 58
REMARK SMILES IDX 47 59 48 60 62 62 83 63 50 64 34 65 35 66 43 67 36 68 37 69
REMARK SMILES IDX 41 70 44 71 38 72 39 73 42 74 40 75 66 76 67 77 75 78 68 79
REMARK SMILES IDX 69 80 73 81 76 82 70 83 71 84 74 85 72 86 51 87 52 88 60 89
REMARK SMILES IDX 53 90 54 91 58 92 61 93 55 94 56 95 59 96 57 97
REMARK H PARENT 15 7 10 24 10 25 22 31 81 50 49 61
REMARK Flexibility Score: inf
ROOT
ATOM      1  C   UNL A   1      32.513  29.900  26.743  1.00  0.00     0.002 C 
ENDROOT
BRANCH   1   2
ATOM      2  C   UNL A   1      31.713  28.854  27.528  1.00  0.00     0.021 C 
BRANCH   2   3
ATOM      3  C   UNL A   1      32.127  27.405  27.280  1.00  0.00     0.116 C 
BRANCH   3   4
ATOM      4  N   UNL A   1      31.062  26.640  26.665  1.00  0.00    -0.351 N 
ATOM      5  C   UNL A   1      30.659  26.510  25.360  1.00  0.00     0.271 C 
ATOM      6  O   UNL A   1      29.683  25.775  25.169  1.00  0.00    -0.267 OA
ATOM      7  H   UNL A   1      30.526  26.114  27.303  1.00  0.00     0.163 HD
BRANCH   5   8
ATOM      8  C   UNL A   1      31.355  27.198  24.259  1.00  0.00     0.149 A 
ATOM      9  C   UNL A   1      32.589  26.799  23.747  1.00  0.00     0.069 A 
ATOM     10  S   UNL A   1      33.092  27.881  22.512  1.00  0.00    -0.096 S 
ATOM     11  C   UNL A   1      31.644  28.770  22.703  1.00  0.00     0.181 A 
ATOM     12  N   UNL A   1      30.848  28.346  23.647  1.00  0.00    -0.215 NA
BRANCH   9  13
ATOM     13  C   UNL A   1      33.408  25.630  24.068  1.00  0.00    -0.002 A 
ATOM     14  C   UNL A   1      34.743  23.266  24.790  1.00  0.00     0.160 A 
ATOM     15  C   UNL A   1      34.986  24.461  25.484  1.00  0.00     0.051 A 
ATOM     16  C   UNL A   1      33.845  23.247  23.717  1.00  0.00     0.161 A 
ATOM     17  C   UNL A   1      34.326  25.641  25.122  1.00  0.00     0.014 A 
ATOM     18  C   UNL A   1      33.199  24.438  23.362  1.00  0.00     0.060 A 
BRANCH  14  19
ATOM     19  O   UNL A   1      35.290  22.113  25.287  1.00  0.00    -0.493 OA
ATOM     20  C   UNL A   1      34.419  21.455  26.203  1.00  0.00     0.278 C 
ENDBRANCH  14  19
BRANCH  16  21
ATOM     21  O   UNL A   1      33.448  22.193  22.943  1.00  0.00    -0.493 OA
ATOM     22  C   UNL A   1      32.079  21.827  22.939  1.00  0.00     0.278 C 
ENDBRANCH  16  21
ENDBRANCH   9  13
BRANCH  11  23
ATOM     23  N   UNL A   1      31.347  29.821  21.934  1.00  0.00    -0.375 N 
ATOM     24  H   UNL A   1      30.743  29.712  21.163  1.00  0.00     0.159 HD
ATOM     25  H   UNL A   1      31.730  30.704  22.137  1.00  0.00     0.159 HD
ENDBRANCH  11  23
ENDBRANCH   5   8
ENDBRANCH   3   4
ENDBRANCH   2   3
ENDBRANCH   1   2
BRANCH   1  26
ATOM     26  C   UNL A   1      31.681  30.880  25.910  1.00  0.00     0.002 C 
BRANCH  26  27
ATOM     27  C   UNL A   1      31.377  32.220  26.584  1.00  0.00     0.021 C 
BRANCH  27  28
ATOM     28  C   UNL A   1      32.545  32.832  27.349  1.00  0.00     0.116 C 
BRANCH  28  29
ATOM     29  N   UNL A   1      32.329  34.235  27.661  1.00  0.00    -0.352 N 
ATOM     30  C   UNL A   1      32.938  35.019  28.608  1.00  0.00     0.251 C 
ATOM     31  H   UNL A   1      31.648  34.689  27.114  1.00  0.00     0.163 HD
ATOM     32  O   UNL A   1      32.507  36.143  28.854  1.00  0.00    -0.269 OA
BRANCH  30  33
ATOM     33  C   UNL A   1      34.104  34.502  29.354  1.00  0.00     0.039 A 
ATOM     34  C   UNL A   1      33.898  33.914  30.605  1.00  0.00     0.014 A 
ATOM     35  C   UNL A   1      35.395  34.594  28.826  1.00  0.00     0.014 A 
ATOM     36  C   UNL A   1      34.977  33.360  31.296  1.00  0.00     0.010 A 
ATOM     37  C   UNL A   1      36.457  33.977  29.481  1.00  0.00     0.010 A 
ATOM     38  C   UNL A   1      36.260  33.354  30.723  1.00  0.00    -0.014 A 
BRANCH  38  39
ATOM     39  C   UNL A   1      37.402  32.692  31.404  1.00  0.00     0.031 A 
ATOM     40  C   UNL A   1      38.115  31.543  30.747  1.00  0.00     0.074 A 
ATOM     41  C   UNL A   1      37.758  33.088  32.641  1.00  0.00     0.049 A 
ATOM     42  N   UNL A   1      39.093  30.804  31.206  1.00  0.00    -0.248 NA
ATOM     43  C   UNL A   1      37.649  31.155  29.407  1.00  0.00     0.031 C 
ATOM     44  C   UNL A   1      37.113  34.158  33.404  1.00  0.00     0.029 A 
ATOM     45  N   UNL A   1      38.743  32.629  33.481  1.00  0.00    -0.354 N 
ATOM     46  C   UNL A   1      39.350  29.861  30.219  1.00  0.00     0.074 A 
ATOM     47  C   UNL A   1      38.390  30.085  29.161  1.00  0.00     0.031 C 
ATOM     48  C   UNL A   1      37.733  34.290  34.587  1.00  0.00     0.029 A 
ATOM     49  C   UNL A   1      38.791  33.290  34.685  1.00  0.00     0.049 A 
ATOM     50  H   UNL A   1      39.357  31.898  33.243  1.00  0.00     0.167 HD
ATOM     51  C   UNL A   1      40.316  28.912  30.189  1.00  0.00     0.037 A 
ATOM     52  C   UNL A   1      39.593  33.104  35.751  1.00  0.00     0.037 A 
ATOM     53  C   UNL A   1      41.283  28.706  31.236  1.00  0.00     0.049 A 
ATOM     54  C   UNL A   1      40.648  32.033  35.697  1.00  0.00     0.074 A 
ATOM     55  C   UNL A   1      42.338  27.812  31.273  1.00  0.00     0.029 A 
ATOM     56  N   UNL A   1      41.308  29.403  32.436  1.00  0.00    -0.354 N 
ATOM     57  N   UNL A   1      40.931  31.196  34.727  1.00  0.00    -0.248 NA
ATOM     58  C   UNL A   1      41.503  31.883  36.883  1.00  0.00     0.031 C 
ATOM     59  C   UNL A   1      42.968  27.929  32.516  1.00  0.00     0.029 A 
ATOM     60  C   UNL A   1      42.344  28.938  33.231  1.00  0.00     0.049 A 
ATOM     61  H   UNL A   1      40.682  30.121  32.686  1.00  0.00     0.167 HD
ATOM     62  C   UNL A   1      42.010  30.445  35.172  1.00  0.00     0.074 A 
ATOM     63  C   UNL A   1      42.342  30.934  36.494  1.00  0.00     0.031 C 
ATOM     64  C   UNL A   1      42.667  29.440  34.543  1.00  0.00     0.037 A 
BRANCH  51  65
ATOM     65  C   UNL A   1      40.378  28.021  28.981  1.00  0.00     0.064 A 
ATOM     66  C   UNL A   1      39.670  26.809  28.922  1.00  0.00     0.173 A 
ATOM     67  C   UNL A   1      41.119  28.402  27.852  1.00  0.00     0.173 A 
ATOM     68  F   UNL A   1      38.954  26.394  29.977  1.00  0.00    -0.203 F 
ATOM     69  C   UNL A   1      39.730  25.999  27.791  1.00  0.00     0.198 A 
ATOM     70  C   UNL A   1      41.150  27.604  26.711  1.00  0.00     0.198 A 
ATOM     71  F   UNL A   1      41.809  29.552  27.852  1.00  0.00    -0.203 F 
ATOM     72  F   UNL A   1      39.087  24.823  27.777  1.00  0.00    -0.200 F 
ATOM     73  C   UNL A   1      40.462  26.400  26.683  1.00  0.00     0.200 A 
ATOM     74  F   UNL A   1      41.845  28.002  25.636  1.00  0.00    -0.200 F 
ATOM     75  F   UNL A   1      40.510  25.624  25.592  1.00  0.00    -0.200 F 
ENDBRANCH  51  65
BRANCH  52  76
ATOM     76  C   UNL A   1      39.443  33.966  36.953  1.00  0.00     0.064 A 
ATOM     77  C   UNL A   1      40.060  35.224  37.018  1.00  0.00     0.173 A 
ATOM     78  C   UNL A   1      38.691  33.551  38.061  1.00  0.00     0.173 A 
ATOM     79  F   UNL A   1      40.808  35.657  35.993  1.00  0.00    -0.203 F 
ATOM     80  C   UNL A   1      39.949  36.023  38.154  1.00  0.00     0.198 A 
ATOM     81  C   UNL A   1      38.553  34.364  39.184  1.00  0.00     0.198 A 
ATOM     82  F   UNL A   1      38.076  32.358  38.048  1.00  0.00    -0.203 F 
ATOM     83  F   UNL A   1      40.589  37.198  38.210  1.00  0.00    -0.200 F 
ATOM     84  C   UNL A   1      39.190  35.595  39.233  1.00  0.00     0.200 A 
ATOM     85  F   UNL A   1      37.807  33.953  40.218  1.00  0.00    -0.200 F 
ATOM     86  F   UNL A   1      39.079  36.365  40.325  1.00  0.00    -0.200 F 
ENDBRANCH  52  76
BRANCH  64  87
ATOM     87  C   UNL A   1      43.836  28.825  35.258  1.00  0.00     0.064 A 
ATOM     88  C   UNL A   1      45.146  29.278  35.055  1.00  0.00     0.173 A 
ATOM     89  C   UNL A   1      43.633  27.797  36.193  1.00  0.00     0.173 A 
ATOM     90  F   UNL A   1      45.396  30.247  34.161  1.00  0.00    -0.203 F 
ATOM     91  C   UNL A   1      46.216  28.708  35.742  1.00  0.00     0.198 A 
ATOM     92  C   UNL A   1      44.699  27.253  36.902  1.00  0.00     0.198 A 
ATOM     93  F   UNL A   1      42.397  27.332  36.431  1.00  0.00    -0.203 F 
ATOM     94  F   UNL A   1      47.466  29.124  35.496  1.00  0.00    -0.200 F 
ATOM     95  C   UNL A   1      45.990  27.703  36.671  1.00  0.00     0.200 A 
ATOM     96  F   UNL A   1      44.478  26.293  37.811  1.00  0.00    -0.200 F 
ATOM     97  F   UNL A   1      47.020  27.163  37.339  1.00  0.00    -0.200 F 
ENDBRANCH  64  87
ENDBRANCH  38  39
ENDBRANCH  30  33
ENDBRANCH  28  29
ENDBRANCH  27  28
ENDBRANCH  26  27
ENDBRANCH   1  26
TORSDOF 17
ENDMDL
MODEL 2
REMARK VINA RESULT:     -11.7      1.661      7.607
REMARK SMILES COc1ccc(-c2sc(N)nc2C(=O)NCCCCCCNC(=O)c2ccc(-c3c4nc(c(-c5c(F)c(F)c(F)c(F)c5F)c5ccc([nH]5)c(-c5c(F)c(F)c(F)c(F)c5F)c5nc(c(-c6c(F)c(F)c(F)c(F)c6F)c6ccc3[nH]6)C=C5)C=C4)cc2)cc1OC
REMARK SMILES IDX 18 1 17 2 16 3 15 4 13 5 14 6 12 8 7 9 8 10 9 11 11 12 6 13
REMARK SMILES IDX 3 14 4 15 89 16 5 17 88 18 2 19 1 20 90 21 91 22 10 23 19 26
REMARK SMILES IDX 20 27 21 28 22 29 23 30 24 32 25 33 26 34 87 35 27 36 86 37
REMARK SMILES IDX 28 38 29 39 30 40 80 41 31 42 85 43 79 44 81 45 32 46 84 47
REMARK SMILES IDX 78 48 77 49 33 51 65 52 45 53 64 54 46 55 49 56 63 57 82 58
REMARK SMILES IDX 47 59 48 60 62 62 83 63 50 64 34 65 35 66 43 67 36 68 37 69
REMARK SMILES IDX 41 70 44 71 38 72 39 73 42 74 40 75 66 76 67 77 75 78 68 79
REMARK SMILES IDX 69 80 73 81 76 82 70 83 71 84 74 85 72 86 51 87 52 88 60 89
REMARK SMILES IDX 53 90 54 91 58 92 61 93 55 94 56 95 59 96 57 97
REMARK H PARENT 15 7 10 24 10 25 22 31 81 50 49 61
REMARK Flexibility Score: inf
ROOT
ATOM      1  C   UNL A   1      34.501  32.014  28.855  1.00  0.00     0.002 C 
ENDROOT
BRANCH   1   2
ATOM      2  C   UNL A   1      33.734  31.589  27.598  1.00  0.00     0.021 C 
BRANCH   2   3
ATOM      3  C   UNL A   1      33.907  30.125  27.199  1.00  0.00     0.116 C 
BRANCH   3   4
ATOM      4  N   UNL A   1      32.830  29.299  27.705  1.00  0.00    -0.351 N 
ATOM      5  C   UNL A   1      31.966  28.433  27.084  1.00  0.00     0.271 C 
ATOM      6  O   UNL A   1      31.134  27.885  27.816  1.00  0.00    -0.267 OA
ATOM      7  H   UNL A   1      32.692  29.373  28.678  1.00  0.00     0.163 HD
BRANCH   5   8
ATOM      8  C   UNL A   1      32.036  28.171  25.636  1.00  0.00     0.149 A 
ATOM      9  C   UNL A   1      32.453  26.961  25.082  1.00  0.00     0.069 A 
ATOM     10  S   UNL A   1      32.444  27.064  23.368  1.00  0.00    -0.096 S 
ATOM     11  C   UNL A   1      31.857  28.667  23.469  1.00  0.00     0.181 A 
ATOM     12  N   UNL A   1      31.717  29.136  24.679  1.00  0.00    -0.215 NA
BRANCH   9  13
ATOM     13  C   UNL A   1      32.806  25.700  25.734  1.00  0.00    -0.002 A 
ATOM     14  C   UNL A   1      33.523  23.170  26.725  1.00  0.00     0.160 A 
ATOM     15  C   UNL A   1      32.200  23.625  26.826  1.00  0.00     0.051 A 
ATOM     16  C   UNL A   1      34.503  23.985  26.145  1.00  0.00     0.161 A 
ATOM     17  C   UNL A   1      31.841  24.888  26.337  1.00  0.00     0.014 A 
ATOM     18  C   UNL A   1      34.131  25.248  25.669  1.00  0.00     0.060 A 
BRANCH  14  19
ATOM     19  O   UNL A   1      33.782  21.872  27.069  1.00  0.00    -0.493 OA
ATOM     20  C   UNL A   1      33.572  20.974  25.982  1.00  0.00     0.278 C 
ENDBRANCH  14  19
BRANCH  16  21
ATOM     21  O   UNL A   1      35.825  23.717  25.924  1.00  0.00    -0.493 OA
ATOM     22  C   UNL A   1      36.261  23.487  24.595  1.00  0.00     0.278 C 
ENDBRANCH  16  21
ENDBRANCH   9  13
BRANCH  11  23
ATOM     23  N   UNL A   1      31.557  29.384  22.382  1.00  0.00    -0.375 N 
ATOM     24  H   UNL A   1      32.271  29.659  21.762  1.00  0.00     0.159 HD
ATOM     25  H   UNL A   1      30.624  29.638  22.201  1.00  0.00     0.159 HD
ENDBRANCH  11  23
ENDBRANCH   5   8
ENDBRANCH   3   4
ENDBRANCH   2   3
ENDBRANCH   1   2
BRANCH   1  26
ATOM     26  C   UNL A   1      34.663  33.525  29.051  1.00  0.00     0.002 C 
BRANCH  26  27
ATOM     27  C   UNL A   1      33.371  34.340  28.962  1.00  0.00     0.021 C 
BRANCH  27  28
ATOM     28  C   UNL A   1      33.487  35.779  29.452  1.00  0.00     0.116 C 
BRANCH  28  29
ATOM     29  N   UNL A   1      32.584  36.064  30.555  1.00  0.00    -0.352 N 
ATOM     30  C   UNL A   1      32.660  35.666  31.866  1.00  0.00     0.251 C 
ATOM     31  H   UNL A   1      31.805  36.623  30.329  1.00  0.00     0.163 HD
ATOM     32  O   UNL A   1      31.713  35.852  32.627  1.00  0.00    -0.269 OA
BRANCH  30  33
ATOM     33  C   UNL A   1      33.876  34.988  32.361  1.00  0.00     0.039 A 
ATOM     34  C   UNL A   1      33.764  33.697  32.883  1.00  0.00     0.014 A 
ATOM     35  C   UNL A   1      35.121  35.621  32.313  1.00  0.00     0.014 A 
ATOM     36  C   UNL A   1      34.910  33.015  33.295  1.00  0.00     0.010 A 
ATOM     37  C   UNL A   1      36.271  34.913  32.655  1.00  0.00     0.010 A 
ATOM     38  C   UNL A   1      36.178  33.604  33.150  1.00  0.00    -0.014 A 
BRANCH  38  39
ATOM     39  C   UNL A   1      37.414  32.860  33.500  1.00  0.00     0.031 A 
ATOM     40  C   UNL A   1      38.146  33.162  34.778  1.00  0.00     0.074 A 
ATOM     41  C   UNL A   1      37.912  31.952  32.637  1.00  0.00     0.049 A 
ATOM     42  N   UNL A   1      39.269  32.661  35.229  1.00  0.00    -0.248 NA
ATOM     43  C   UNL A   1      37.552  34.183  35.655  1.00  0.00     0.031 C 
ATOM     44  C   UNL A   1      37.321  31.606  31.343  1.00  0.00     0.029 A 
ATOM     45  N   UNL A   1      39.034  31.165  32.711  1.00  0.00    -0.354 N 
ATOM     46  C   UNL A   1      39.519  33.312  36.430  1.00  0.00     0.074 A 
ATOM     47  C   UNL A   1      38.462  34.283  36.612  1.00  0.00     0.031 C 
ATOM     48  C   UNL A   1      38.071  30.659  30.757  1.00  0.00     0.029 A 
ATOM     49  C   UNL A   1      39.215  30.360  31.612  1.00  0.00     0.049 A 
ATOM     50  H   UNL A   1      39.649  31.174  33.479  1.00  0.00     0.167 HD
ATOM     51  C   UNL A   1      40.524  33.099  37.312  1.00  0.00     0.037 A 
ATOM     52  C   UNL A   1      40.199  29.488  31.322  1.00  0.00     0.037 A 
ATOM     53  C   UNL A   1      41.562  32.117  37.137  1.00  0.00     0.049 A 
ATOM     54  C   UNL A   1      41.313  29.282  32.313  1.00  0.00     0.074 A 
ATOM     55  C   UNL A   1      42.590  31.784  38.001  1.00  0.00     0.029 A 
ATOM     56  N   UNL A   1      41.707  31.313  36.015  1.00  0.00    -0.354 N 
ATOM     57  N   UNL A   1      41.498  29.849  33.481  1.00  0.00    -0.248 NA
ATOM     58  C   UNL A   1      42.352  28.309  31.950  1.00  0.00     0.031 C 
ATOM     59  C   UNL A   1      43.388  30.818  37.380  1.00  0.00     0.029 A 
ATOM     60  C   UNL A   1      42.824  30.505  36.154  1.00  0.00     0.049 A 
ATOM     61  H   UNL A   1      41.105  31.316  35.236  1.00  0.00     0.167 HD
ATOM     62  C   UNL A   1      42.652  29.282  34.003  1.00  0.00     0.074 A 
ATOM     63  C   UNL A   1      43.118  28.315  33.031  1.00  0.00     0.031 C 
ATOM     64  C   UNL A   1      43.271  29.540  35.181  1.00  0.00     0.037 A 
BRANCH  51  65
ATOM     65  C   UNL A   1      40.551  33.946  38.553  1.00  0.00     0.064 A 
ATOM     66  C   UNL A   1      41.287  35.140  38.615  1.00  0.00     0.173 A 
ATOM     67  C   UNL A   1      39.798  33.582  39.680  1.00  0.00     0.173 A 
ATOM     68  F   UNL A   1      42.031  35.529  37.569  1.00  0.00    -0.203 F 
ATOM     69  C   UNL A   1      41.294  35.920  39.769  1.00  0.00     0.198 A 
ATOM     70  C   UNL A   1      39.782  34.382  40.820  1.00  0.00     0.198 A 
ATOM     71  F   UNL A   1      39.071  32.455  39.673  1.00  0.00    -0.203 F 
ATOM     72  F   UNL A   1      42.045  37.028  39.822  1.00  0.00    -0.200 F 
ATOM     73  C   UNL A   1      40.535  35.545  40.867  1.00  0.00     0.200 A 
ATOM     74  F   UNL A   1      39.035  34.026  41.875  1.00  0.00    -0.200 F 
ATOM     75  F   UNL A   1      40.535  36.301  41.974  1.00  0.00    -0.200 F 
ENDBRANCH  51  65
BRANCH  52  76
ATOM     76  C   UNL A   1      40.165  28.727  30.046  1.00  0.00     0.064 A 
ATOM     77  C   UNL A   1      39.510  27.489  29.963  1.00  0.00     0.173 A 
ATOM     78  C   UNL A   1      40.789  29.212  28.887  1.00  0.00     0.173 A 
ATOM     79  F   UNL A   1      38.916  26.972  31.048  1.00  0.00    -0.203 F 
ATOM     80  C   UNL A   1      39.501  26.757  28.777  1.00  0.00     0.198 A 
ATOM     81  C   UNL A   1      40.752  28.494  27.694  1.00  0.00     0.198 A 
ATOM     82  F   UNL A   1      41.425  30.393  28.912  1.00  0.00    -0.203 F 
ATOM     83  F   UNL A   1      38.911  25.555  28.739  1.00  0.00    -0.200 F 
ATOM     84  C   UNL A   1      40.116  27.263  27.643  1.00  0.00     0.200 A 
ATOM     85  F   UNL A   1      41.335  28.994  26.596  1.00  0.00    -0.200 F 
ATOM     86  F   UNL A   1      40.104  26.560  26.501  1.00  0.00    -0.200 F 
ENDBRANCH  52  76
BRANCH  64  87
ATOM     87  C   UNL A   1      44.500  28.738  35.505  1.00  0.00     0.064 A 
ATOM     88  C   UNL A   1      45.783  29.184  35.159  1.00  0.00     0.173 A 
ATOM     89  C   UNL A   1      44.391  27.531  36.213  1.00  0.00     0.173 A 
ATOM     90  F   UNL A   1      45.940  30.323  34.469  1.00  0.00    -0.203 F 
ATOM     91  C   UNL A   1      46.912  28.436  35.486  1.00  0.00     0.198 A 
ATOM     92  C   UNL A   1      45.523  26.803  36.567  1.00  0.00     0.198 A 
ATOM     93  F   UNL A   1      43.187  27.064  36.575  1.00  0.00    -0.203 F 
ATOM     94  F   UNL A   1      48.126  28.856  35.101  1.00  0.00    -0.200 F 
ATOM     95  C   UNL A   1      46.781  27.252  36.196  1.00  0.00     0.200 A 
ATOM     96  F   UNL A   1      45.397  25.668  37.267  1.00  0.00    -0.200 F 
ATOM     97  F   UNL A   1      47.871  26.539  36.519  1.00  0.00    -0.200 F 
ENDBRANCH  64  87
ENDBRANCH  38  39
ENDBRANCH  30  33
ENDBRANCH  28  29
ENDBRANCH  27  28
ENDBRANCH  26  27
ENDBRANCH   1  26
TORSDOF 17
ENDMDL
MODEL 3
REMARK VINA RESULT:     -11.6      5.337     10.552
REMARK SMILES COc1ccc(-c2sc(N)nc2C(=O)NCCCCCCNC(=O)c2ccc(-c3c4nc(c(-c5c(F)c(F)c(F)c(F)c5F)c5ccc([nH]5)c(-c5c(F)c(F)c(F)c(F)c5F)c5nc(c(-c6c(F)c(F)c(F)c(F)c6F)c6ccc3[nH]6)C=C5)C=C4)cc2)cc1OC
REMARK SMILES IDX 18 1 17 2 16 3 15 4 13 5 14 6 12 8 7 9 8 10 9 11 11 12 6 13
REMARK SMILES IDX 3 14 4 15 89 16 5 17 88 18 2 19 1 20 90 21 91 22 10 23 19 26
REMARK SMILES IDX 20 27 21 28 22 29 23 30 24 32 25 33 26 34 87 35 27 36 86 37
REMARK SMILES IDX 28 38 29 39 30 40 80 41 31 42 85 43 79 44 81 45 32 46 84 47
REMARK SMILES IDX 78 48 77 49 33 51 65 52 45 53 64 54 46 55 49 56 63 57 82 58
REMARK SMILES IDX 47 59 48 60 62 62 83 63 50 64 34 65 35 66 43 67 36 68 37 69
REMARK SMILES IDX 41 70 44 71 38 72 39 73 42 74 40 75 66 76 67 77 75 78 68 79
REMARK SMILES IDX 69 80 73 81 76 82 70 83 71 84 74 85 72 86 51 87 52 88 60 89
REMARK SMILES IDX 53 90 54 91 58 92 61 93 55 94 56 95 59 96 57 97
REMARK H PARENT 15 7 10 24 10 25 22 31 81 50 49 61
REMARK Flexibility Score: inf
ROOT
ATOM      1  C   UNL A   1      35.753  21.339  24.701  1.00  0.00     0.002 C 
ENDROOT
BRANCH   1   2
ATOM      2  C   UNL A   1      35.266  21.484  26.147  1.00  0.00     0.021 C 
BRANCH   2   3
ATOM      3  C   UNL A   1      35.056  22.922  26.617  1.00  0.00     0.116 C 
BRANCH   3   4
ATOM      4  N   UNL A   1      33.755  23.103  27.229  1.00  0.00    -0.351 N 
ATOM      5  C   UNL A   1      32.512  23.330  26.696  1.00  0.00     0.271 C 
ATOM      6  O   UNL A   1      31.592  23.455  27.512  1.00  0.00    -0.267 OA
ATOM      7  H   UNL A   1      33.766  23.053  28.213  1.00  0.00     0.163 HD
BRANCH   5   8
ATOM      8  C   UNL A   1      32.293  23.409  25.241  1.00  0.00     0.149 A 
ATOM      9  C   UNL A   1      32.205  24.606  24.531  1.00  0.00     0.069 A 
ATOM     10  S   UNL A   1      31.896  24.285  22.872  1.00  0.00    -0.096 S 
ATOM     11  C   UNL A   1      31.940  22.605  23.191  1.00  0.00     0.181 A 
ATOM     12  N   UNL A   1      32.119  22.278  24.442  1.00  0.00    -0.215 NA
BRANCH   9  13
ATOM     13  C   UNL A   1      32.393  25.985  24.983  1.00  0.00    -0.002 A 
ATOM     14  C   UNL A   1      32.799  28.700  25.578  1.00  0.00     0.160 A 
ATOM     15  C   UNL A   1      33.746  27.739  25.960  1.00  0.00     0.051 A 
ATOM     16  C   UNL A   1      31.631  28.310  24.912  1.00  0.00     0.161 A 
ATOM     17  C   UNL A   1      33.543  26.384  25.669  1.00  0.00     0.014 A 
ATOM     18  C   UNL A   1      31.439  26.951  24.636  1.00  0.00     0.060 A 
BRANCH  14  19
ATOM     19  O   UNL A   1      33.123  30.020  25.742  1.00  0.00    -0.493 OA
ATOM     20  C   UNL A   1      33.236  30.379  27.117  1.00  0.00     0.278 C 
ENDBRANCH  14  19
BRANCH  16  21
ATOM     21  O   UNL A   1      30.613  29.085  24.430  1.00  0.00    -0.493 OA
ATOM     22  C   UNL A   1      30.517  29.291  23.032  1.00  0.00     0.278 C 
ENDBRANCH  16  21
ENDBRANCH   9  13
BRANCH  11  23
ATOM     23  N   UNL A   1      31.807  21.694  22.223  1.00  0.00    -0.375 N 
ATOM     24  H   UNL A   1      30.926  21.537  21.813  1.00  0.00     0.159 HD
ATOM     25  H   UNL A   1      32.589  21.179  21.920  1.00  0.00     0.159 HD
ENDBRANCH  11  23
ENDBRANCH   5   8
ENDBRANCH   3   4
ENDBRANCH   2   3
ENDBRANCH   1   2
BRANCH   1  26
ATOM     26  C   UNL A   1      37.272  21.385  24.508  1.00  0.00     0.002 C 
BRANCH  26  27
ATOM     27  C   UNL A   1      38.021  20.104  24.882  1.00  0.00     0.021 C 
BRANCH  27  28
ATOM     28  C   UNL A   1      39.049  20.264  25.996  1.00  0.00     0.116 C 
BRANCH  28  29
ATOM     29  N   UNL A   1      40.084  19.245  25.946  1.00  0.00    -0.352 N 
ATOM     30  C   UNL A   1      41.444  19.380  26.074  1.00  0.00     0.251 C 
ATOM     31  H   UNL A   1      39.765  18.326  25.799  1.00  0.00     0.163 HD
ATOM     32  O   UNL A   1      42.187  18.433  25.829  1.00  0.00    -0.269 OA
BRANCH  30  33
ATOM     33  C   UNL A   1      42.021  20.676  26.486  1.00  0.00     0.039 A 
ATOM     34  C   UNL A   1      42.400  21.590  25.500  1.00  0.00     0.014 A 
ATOM     35  C   UNL A   1      42.187  20.992  27.838  1.00  0.00     0.014 A 
ATOM     36  C   UNL A   1      42.885  22.846  25.870  1.00  0.00     0.010 A 
ATOM     37  C   UNL A   1      42.602  22.270  28.204  1.00  0.00     0.010 A 
ATOM     38  C   UNL A   1      42.955  23.210  27.224  1.00  0.00    -0.014 A 
BRANCH  38  39
ATOM     39  C   UNL A   1      43.385  24.572  27.633  1.00  0.00     0.031 A 
ATOM     40  C   UNL A   1      42.364  25.617  27.984  1.00  0.00     0.074 A 
ATOM     41  C   UNL A   1      44.696  24.884  27.629  1.00  0.00     0.049 A 
ATOM     42  N   UNL A   1      42.542  26.874  28.307  1.00  0.00    -0.248 NA
ATOM     43  C   UNL A   1      40.953  25.204  27.940  1.00  0.00     0.031 C 
ATOM     44  C   UNL A   1      45.780  23.972  27.259  1.00  0.00     0.029 A 
ATOM     45  N   UNL A   1      45.339  26.058  27.932  1.00  0.00    -0.354 N 
ATOM     46  C   UNL A   1      41.270  27.400  28.494  1.00  0.00     0.074 A 
ATOM     47  C   UNL A   1      40.328  26.344  28.193  1.00  0.00     0.031 C 
ATOM     48  C   UNL A   1      46.954  24.612  27.382  1.00  0.00     0.029 A 
ATOM     49  C   UNL A   1      46.705  25.988  27.798  1.00  0.00     0.049 A 
ATOM     50  H   UNL A   1      44.867  26.873  28.220  1.00  0.00     0.167 HD
ATOM     51  C   UNL A   1      40.923  28.644  28.903  1.00  0.00     0.037 A 
ATOM     52  C   UNL A   1      47.649  26.931  27.981  1.00  0.00     0.037 A 
ATOM     53  C   UNL A   1      41.865  29.685  29.221  1.00  0.00     0.049 A 
ATOM     54  C   UNL A   1      47.234  28.309  28.421  1.00  0.00     0.074 A 
ATOM     55  C   UNL A   1      41.614  30.958  29.701  1.00  0.00     0.029 A 
ATOM     56  N   UNL A   1      43.241  29.573  29.084  1.00  0.00    -0.354 N 
ATOM     57  N   UNL A   1      46.033  28.774  28.667  1.00  0.00    -0.248 NA
ATOM     58  C   UNL A   1      48.308  29.293  28.617  1.00  0.00     0.031 C 
ATOM     59  C   UNL A   1      42.834  31.635  29.803  1.00  0.00     0.029 A 
ATOM     60  C   UNL A   1      43.850  30.765  29.444  1.00  0.00     0.049 A 
ATOM     61  H   UNL A   1      43.715  28.767  28.776  1.00  0.00     0.167 HD
ATOM     62  C   UNL A   1      46.208  30.089  29.073  1.00  0.00     0.074 A 
ATOM     63  C   UNL A   1      47.633  30.345  29.056  1.00  0.00     0.031 C 
ATOM     64  C   UNL A   1      45.272  31.003  29.429  1.00  0.00     0.037 A 
BRANCH  51  65
ATOM     65  C   UNL A   1      39.457  28.949  29.032  1.00  0.00     0.064 A 
ATOM     66  C   UNL A   1      38.789  28.846  30.263  1.00  0.00     0.173 A 
ATOM     67  C   UNL A   1      38.721  29.390  27.922  1.00  0.00     0.173 A 
ATOM     68  F   UNL A   1      39.444  28.420  31.353  1.00  0.00    -0.203 F 
ATOM     69  C   UNL A   1      37.432  29.141  30.369  1.00  0.00     0.198 A 
ATOM     70  C   UNL A   1      37.372  29.717  28.039  1.00  0.00     0.198 A 
ATOM     71  F   UNL A   1      39.311  29.514  26.724  1.00  0.00    -0.203 F 
ATOM     72  F   UNL A   1      36.804  28.986  31.542  1.00  0.00    -0.200 F 
ATOM     73  C   UNL A   1      36.727  29.584  29.260  1.00  0.00     0.200 A 
ATOM     74  F   UNL A   1      36.696  30.159  26.970  1.00  0.00    -0.200 F 
ATOM     75  F   UNL A   1      35.423  29.878  29.366  1.00  0.00    -0.200 F 
ENDBRANCH  51  65
BRANCH  52  76
ATOM     76  C   UNL A   1      49.082  26.598  27.768  1.00  0.00     0.064 A 
ATOM     77  C   UNL A   1      49.640  26.609  26.481  1.00  0.00     0.173 A 
ATOM     78  C   UNL A   1      49.921  26.256  28.839  1.00  0.00     0.173 A 
ATOM     79  F   UNL A   1      48.875  26.909  25.422  1.00  0.00    -0.203 F 
ATOM     80  C   UNL A   1      50.975  26.268  26.272  1.00  0.00     0.198 A 
ATOM     81  C   UNL A   1      51.263  25.946  28.632  1.00  0.00     0.198 A 
ATOM     82  F   UNL A   1      49.438  26.235  30.090  1.00  0.00    -0.203 F 
ATOM     83  F   UNL A   1      51.470  26.238  25.027  1.00  0.00    -0.200 F 
ATOM     84  C   UNL A   1      51.787  25.943  27.348  1.00  0.00     0.200 A 
ATOM     85  F   UNL A   1      52.047  25.647  29.677  1.00  0.00    -0.200 F 
ATOM     86  F   UNL A   1      53.072  25.619  27.148  1.00  0.00    -0.200 F 
ENDBRANCH  52  76
BRANCH  64  87
ATOM     87  C   UNL A   1      45.758  32.355  29.866  1.00  0.00     0.064 A 
ATOM     88  C   UNL A   1      45.875  33.423  28.965  1.00  0.00     0.173 A 
ATOM     89  C   UNL A   1      46.068  32.596  31.214  1.00  0.00     0.173 A 
ATOM     90  F   UNL A   1      45.606  33.243  27.663  1.00  0.00    -0.203 F 
ATOM     91  C   UNL A   1      46.309  34.676  29.393  1.00  0.00     0.198 A 
ATOM     92  C   UNL A   1      46.469  33.856  31.644  1.00  0.00     0.198 A 
ATOM     93  F   UNL A   1      45.966  31.609  32.118  1.00  0.00    -0.203 F 
ATOM     94  F   UNL A   1      46.460  35.670  28.506  1.00  0.00    -0.200 F 
ATOM     95  C   UNL A   1      46.597  34.893  30.732  1.00  0.00     0.200 A 
ATOM     96  F   UNL A   1      46.732  34.069  32.941  1.00  0.00    -0.200 F 
ATOM     97  F   UNL A   1      47.004  36.103  31.143  1.00  0.00    -0.200 F 
ENDBRANCH  64  87
ENDBRANCH  38  39
ENDBRANCH  30  33
ENDBRANCH  28  29
ENDBRANCH  27  28
ENDBRANCH  26  27
ENDBRANCH   1  26
TORSDOF 17
ENDMDL
