MODEL 1
REMARK VINA RESULT:     -11.5      0.000      0.000
REMARK SMILES CCC(C)(C)NC(=O)[C@@H](C)Oc1ccc(C)nc1C(=O)NCCCCCCNC(=O)c1ccc(-c2c3nc(c(-c4c(F)c(F)c(F)c(F)c4F)c4ccc([nH]4)c(-c4c(F)c(F)c(F)c(F)c4F)c4nc(c(-c5c(F)c(F)c(F)c(F)c5F)c5ccc2[nH]5)C=C4)C=C3)cc1
REMARK SMILES IDX 23 1 22 2 21 3 19 4 20 5 18 7 12 8 13 9 14 10 17 11 15 12
REMARK SMILES IDX 16 13 11 14 9 15 10 16 7 17 6 18 8 20 3 21 4 22 5 23 2 24
REMARK SMILES IDX 1 25 24 26 25 27 26 28 27 29 28 30 29 31 30 33 31 34 32 35
REMARK SMILES IDX 93 36 33 37 92 38 34 39 35 40 36 41 86 42 37 43 91 44 85 45
REMARK SMILES IDX 87 46 38 47 90 48 84 49 83 50 39 52 71 53 51 54 70 55 52 56
REMARK SMILES IDX 55 57 69 58 88 59 53 60 54 61 68 63 89 64 56 65 40 66 41 67
REMARK SMILES IDX 49 68 42 69 43 70 47 71 50 72 44 73 45 74 48 75 46 76 72 77
REMARK SMILES IDX 73 78 81 79 74 80 75 81 79 82 82 83 76 84 77 85 80 86 78 87
REMARK SMILES IDX 57 88 58 89 66 90 59 91 60 92 64 93 67 94 61 95 62 96 65 97
REMARK SMILES IDX 63 98
REMARK H PARENT 21 6 6 19 28 32 87 51 55 62
REMARK Flexibility Score: inf
ROOT
ATOM      1  C   UNL A   1      33.298  29.614  27.150  1.00  0.00     0.021 C 
ENDROOT
BRANCH   1   2
ATOM      2  C   UNL A   1      33.961  28.521  26.309  1.00  0.00     0.116 C 
BRANCH   2   3
ATOM      3  N   UNL A   1      34.025  28.957  24.932  1.00  0.00    -0.351 N 
ATOM      4  C   UNL A   1      33.366  28.579  23.787  1.00  0.00     0.273 C 
ATOM      5  O   UNL A   1      33.834  29.050  22.743  1.00  0.00    -0.267 OA
ATOM      6  H   UNL A   1      34.679  29.676  24.784  1.00  0.00     0.163 HD
BRANCH   4   7
ATOM      7  C   UNL A   1      32.098  27.762  23.722  1.00  0.00     0.170 A 
ATOM      8  C   UNL A   1      31.973  26.368  23.697  1.00  0.00     0.151 A 
ATOM      9  C   UNL A   1      30.693  25.846  23.897  1.00  0.00     0.051 A 
ATOM     10  C   UNL A   1      29.577  26.675  23.776  1.00  0.00     0.027 A 
ATOM     11  N   UNL A   1      31.001  28.566  23.575  1.00  0.00    -0.244 NA
ATOM     12  C   UNL A   1      29.780  28.010  23.487  1.00  0.00     0.038 A 
ATOM     13  C   UNL A   1      28.677  28.882  22.969  1.00  0.00     0.067 C 
BRANCH   8  14
ATOM     14  O   UNL A   1      33.036  25.617  23.283  1.00  0.00    -0.478 OA
BRANCH  14  15
ATOM     15  C   UNL A   1      33.481  24.492  24.024  1.00  0.00     0.259 C 
ATOM     16  C   UNL A   1      34.353  24.989  25.198  1.00  0.00     0.064 C 
BRANCH  15  17
ATOM     17  C   UNL A   1      34.225  23.241  23.485  1.00  0.00     0.261 C 
ATOM     18  N   UNL A   1      33.716  21.982  23.581  1.00  0.00    -0.348 N 
ATOM     19  H   UNL A   1      33.425  21.607  22.717  1.00  0.00     0.164 HD
ATOM     20  O   UNL A   1      35.211  23.389  22.750  1.00  0.00    -0.271 OA
BRANCH  18  21
ATOM     21  C   UNL A   1      33.515  21.063  24.725  1.00  0.00     0.034 C 
ATOM     22  C   UNL A   1      34.873  20.375  25.008  1.00  0.00     0.034 C 
ATOM     23  C   UNL A   1      32.543  19.968  24.233  1.00  0.00     0.034 C 
BRANCH  21  24
ATOM     24  C   UNL A   1      32.966  21.615  26.064  1.00  0.00     0.024 C 
ATOM     25  C   UNL A   1      33.907  21.779  27.244  1.00  0.00     0.006 C 
ENDBRANCH  21  24
ENDBRANCH  18  21
ENDBRANCH  15  17
ENDBRANCH  14  15
ENDBRANCH   8  14
ENDBRANCH   4   7
ENDBRANCH   2   3
ENDBRANCH   1   2
BRANCH   1  26
ATOM     26  C   UNL A   1      31.793  29.769  26.917  1.00  0.00     0.002 C 
BRANCH  26  27
ATOM     27  C   UNL A   1      31.426  31.007  26.089  1.00  0.00     0.002 C 
BRANCH  27  28
ATOM     28  C   UNL A   1      31.353  32.325  26.873  1.00  0.00     0.021 C 
BRANCH  28  29
ATOM     29  C   UNL A   1      32.693  33.039  27.051  1.00  0.00     0.116 C 
BRANCH  29  30
ATOM     30  N   UNL A   1      32.513  34.366  27.621  1.00  0.00    -0.352 N 
ATOM     31  C   UNL A   1      33.036  34.895  28.767  1.00  0.00     0.251 C 
ATOM     32  H   UNL A   1      31.930  34.969  27.106  1.00  0.00     0.163 HD
ATOM     33  O   UNL A   1      32.535  35.912  29.263  1.00  0.00    -0.269 OA
BRANCH  31  34
ATOM     34  C   UNL A   1      34.202  34.270  29.421  1.00  0.00     0.039 A 
ATOM     35  C   UNL A   1      35.488  34.578  28.965  1.00  0.00     0.014 A 
ATOM     36  C   UNL A   1      34.028  33.330  30.442  1.00  0.00     0.014 A 
ATOM     37  C   UNL A   1      36.599  33.977  29.561  1.00  0.00     0.010 A 
ATOM     38  C   UNL A   1      35.139  32.779  31.077  1.00  0.00     0.010 A 
ATOM     39  C   UNL A   1      36.434  33.089  30.636  1.00  0.00    -0.014 A 
BRANCH  39  40
ATOM     40  C   UNL A   1      37.603  32.463  31.305  1.00  0.00     0.031 A 
ATOM     41  C   UNL A   1      38.353  31.348  30.627  1.00  0.00     0.074 A 
ATOM     42  C   UNL A   1      37.948  32.854  32.547  1.00  0.00     0.049 A 
ATOM     43  N   UNL A   1      39.343  30.620  31.080  1.00  0.00    -0.248 NA
ATOM     44  C   UNL A   1      37.915  30.986  29.270  1.00  0.00     0.031 C 
ATOM     45  C   UNL A   1      37.274  33.895  33.323  1.00  0.00     0.029 A 
ATOM     46  N   UNL A   1      38.943  32.410  33.381  1.00  0.00    -0.354 N 
ATOM     47  C   UNL A   1      39.630  29.705  30.075  1.00  0.00     0.074 A 
ATOM     48  C   UNL A   1      38.685  29.940  29.005  1.00  0.00     0.031 C 
ATOM     49  C   UNL A   1      37.882  34.020  34.513  1.00  0.00     0.029 A 
ATOM     50  C   UNL A   1      38.966  33.045  34.599  1.00  0.00     0.049 A 
ATOM     51  H   UNL A   1      39.581  31.703  33.130  1.00  0.00     0.167 HD
ATOM     52  C   UNL A   1      40.606  28.767  30.043  1.00  0.00     0.037 A 
ATOM     53  C   UNL A   1      39.765  32.856  35.665  1.00  0.00     0.037 A 
ATOM     54  C   UNL A   1      41.569  28.563  31.092  1.00  0.00     0.049 A 
ATOM     55  C   UNL A   1      40.843  31.808  35.598  1.00  0.00     0.074 A 
ATOM     56  C   UNL A   1      42.641  27.688  31.122  1.00  0.00     0.029 A 
ATOM     57  N   UNL A   1      41.577  29.246  32.300  1.00  0.00    -0.354 N 
ATOM     58  N   UNL A   1      41.151  30.998  34.614  1.00  0.00    -0.248 NA
ATOM     59  C   UNL A   1      41.692  31.654  36.787  1.00  0.00     0.031 C 
ATOM     60  C   UNL A   1      43.272  27.810  32.364  1.00  0.00     0.029 A 
ATOM     61  C   UNL A   1      42.621  28.796  33.090  1.00  0.00     0.049 A 
ATOM     62  H   UNL A   1      40.934  29.945  32.558  1.00  0.00     0.167 HD
ATOM     63  C   UNL A   1      42.244  30.264  35.052  1.00  0.00     0.074 A 
ATOM     64  C   UNL A   1      42.557  30.733  36.385  1.00  0.00     0.031 C 
ATOM     65  C   UNL A   1      42.928  29.287  34.408  1.00  0.00     0.037 A 
BRANCH  52  66
ATOM     66  C   UNL A   1      40.693  27.887  28.829  1.00  0.00     0.064 A 
ATOM     67  C   UNL A   1      39.944  26.707  28.721  1.00  0.00     0.173 A 
ATOM     68  C   UNL A   1      41.488  28.263  27.735  1.00  0.00     0.173 A 
ATOM     69  F   UNL A   1      39.176  26.299  29.743  1.00  0.00    -0.203 F 
ATOM     70  C   UNL A   1      40.001  25.924  27.571  1.00  0.00     0.198 A 
ATOM     71  C   UNL A   1      41.522  27.493  26.576  1.00  0.00     0.198 A 
ATOM     72  F   UNL A   1      42.220  29.386  27.783  1.00  0.00    -0.203 F 
ATOM     73  F   UNL A   1      39.305  24.781  27.504  1.00  0.00    -0.200 F 
ATOM     74  C   UNL A   1      40.783  26.321  26.496  1.00  0.00     0.200 A 
ATOM     75  F   UNL A   1      42.267  27.885  25.533  1.00  0.00    -0.200 F 
ATOM     76  F   UNL A   1      40.826  25.574  25.385  1.00  0.00    -0.200 F 
ENDBRANCH  52  66
BRANCH  53  77
ATOM     77  C   UNL A   1      39.592  33.686  36.887  1.00  0.00     0.064 A 
ATOM     78  C   UNL A   1      40.292  34.890  37.040  1.00  0.00     0.173 A 
ATOM     79  C   UNL A   1      38.747  33.285  37.930  1.00  0.00     0.173 A 
ATOM     80  F   UNL A   1      41.128  35.306  36.077  1.00  0.00    -0.203 F 
ATOM     81  C   UNL A   1      40.175  35.649  38.203  1.00  0.00     0.198 A 
ATOM     82  C   UNL A   1      38.608  34.058  39.082  1.00  0.00     0.198 A 
ATOM     83  F   UNL A   1      38.051  32.142  37.831  1.00  0.00    -0.203 F 
ATOM     84  F   UNL A   1      40.897  36.768  38.345  1.00  0.00    -0.200 F 
ATOM     85  C   UNL A   1      39.330  35.234  39.221  1.00  0.00     0.200 A 
ATOM     86  F   UNL A   1      37.781  33.661  40.057  1.00  0.00    -0.200 F 
ATOM     87  F   UNL A   1      39.220  35.962  40.340  1.00  0.00    -0.200 F 
ENDBRANCH  53  77
BRANCH  65  88
ATOM     88  C   UNL A   1      44.109  28.692  35.117  1.00  0.00     0.064 A 
ATOM     89  C   UNL A   1      43.979  27.569  35.948  1.00  0.00     0.173 A 
ATOM     90  C   UNL A   1      45.392  29.230  34.933  1.00  0.00     0.173 A 
ATOM     91  F   UNL A   1      42.771  27.029  36.168  1.00  0.00    -0.203 F 
ATOM     92  C   UNL A   1      45.088  27.021  36.586  1.00  0.00     0.198 A 
ATOM     93  C   UNL A   1      46.502  28.661  35.549  1.00  0.00     0.198 A 
ATOM     94  F   UNL A   1      45.569  30.299  34.142  1.00  0.00    -0.203 F 
ATOM     95  F   UNL A   1      44.935  25.977  37.412  1.00  0.00    -0.200 F 
ATOM     96  C   UNL A   1      46.348  27.562  36.380  1.00  0.00     0.200 A 
ATOM     97  F   UNL A   1      47.721  29.178  35.338  1.00  0.00    -0.200 F 
ATOM     98  F   UNL A   1      47.416  27.029  36.991  1.00  0.00    -0.200 F 
ENDBRANCH  65  88
ENDBRANCH  39  40
ENDBRANCH  31  34
ENDBRANCH  29  30
ENDBRANCH  28  29
ENDBRANCH  27  28
ENDBRANCH  26  27
ENDBRANCH   1  26
TORSDOF 18
ENDMDL
MODEL 2
REMARK VINA RESULT:     -11.3      0.682      7.265
REMARK SMILES CCC(C)(C)NC(=O)[C@@H](C)Oc1ccc(C)nc1C(=O)NCCCCCCNC(=O)c1ccc(-c2c3nc(c(-c4c(F)c(F)c(F)c(F)c4F)c4ccc([nH]4)c(-c4c(F)c(F)c(F)c(F)c4F)c4nc(c(-c5c(F)c(F)c(F)c(F)c5F)c5ccc2[nH]5)C=C4)C=C3)cc1
REMARK SMILES IDX 23 1 22 2 21 3 19 4 20 5 18 7 12 8 13 9 14 10 17 11 15 12
REMARK SMILES IDX 16 13 11 14 9 15 10 16 7 17 6 18 8 20 3 21 4 22 5 23 2 24
REMARK SMILES IDX 1 25 24 26 25 27 26 28 27 29 28 30 29 31 30 33 31 34 32 35
REMARK SMILES IDX 93 36 33 37 92 38 34 39 35 40 36 41 86 42 37 43 91 44 85 45
REMARK SMILES IDX 87 46 38 47 90 48 84 49 83 50 39 52 71 53 51 54 70 55 52 56
REMARK SMILES IDX 55 57 69 58 88 59 53 60 54 61 68 63 89 64 56 65 40 66 41 67
REMARK SMILES IDX 49 68 42 69 43 70 47 71 50 72 44 73 45 74 48 75 46 76 72 77
REMARK SMILES IDX 73 78 81 79 74 80 75 81 79 82 82 83 76 84 77 85 80 86 78 87
REMARK SMILES IDX 57 88 58 89 66 90 59 91 60 92 64 93 67 94 61 95 62 96 65 97
REMARK SMILES IDX 63 98
REMARK H PARENT 21 6 6 19 28 32 87 51 55 62
REMARK Flexibility Score: inf
ROOT
ATOM      1  C   UNL A   1      32.558  28.939  26.915  1.00  0.00     0.021 C 
ENDROOT
BRANCH   1   2
ATOM      2  C   UNL A   1      33.768  28.209  26.327  1.00  0.00     0.116 C 
BRANCH   2   3
ATOM      3  N   UNL A   1      34.027  28.719  24.999  1.00  0.00    -0.351 N 
ATOM      4  C   UNL A   1      33.382  28.590  23.793  1.00  0.00     0.273 C 
ATOM      5  O   UNL A   1      34.017  29.015  22.820  1.00  0.00    -0.267 OA
ATOM      6  H   UNL A   1      34.837  29.273  24.948  1.00  0.00     0.163 HD
BRANCH   4   7
ATOM      7  C   UNL A   1      31.968  28.099  23.590  1.00  0.00     0.170 A 
ATOM      8  C   UNL A   1      31.543  26.799  23.297  1.00  0.00     0.151 A 
ATOM      9  C   UNL A   1      30.175  26.541  23.412  1.00  0.00     0.051 A 
ATOM     10  C   UNL A   1      29.270  27.603  23.472  1.00  0.00     0.027 A 
ATOM     11  N   UNL A   1      31.078  29.138  23.619  1.00  0.00    -0.244 NA
ATOM     12  C   UNL A   1      29.767  28.891  23.444  1.00  0.00     0.038 A 
ATOM     13  C   UNL A   1      28.896  30.066  23.123  1.00  0.00     0.067 C 
BRANCH   8  14
ATOM     14  O   UNL A   1      32.427  25.926  22.729  1.00  0.00    -0.478 OA
BRANCH  14  15
ATOM     15  C   UNL A   1      32.813  24.730  23.386  1.00  0.00     0.259 C 
ATOM     16  C   UNL A   1      34.028  25.034  24.290  1.00  0.00     0.064 C 
BRANCH  15  17
ATOM     17  C   UNL A   1      33.142  23.360  22.735  1.00  0.00     0.261 C 
ATOM     18  N   UNL A   1      32.660  22.180  23.215  1.00  0.00    -0.348 N 
ATOM     19  H   UNL A   1      31.978  21.768  22.636  1.00  0.00     0.164 HD
ATOM     20  O   UNL A   1      33.679  23.329  21.620  1.00  0.00    -0.271 OA
BRANCH  18  21
ATOM     21  C   UNL A   1      32.959  21.394  24.434  1.00  0.00     0.034 C 
ATOM     22  C   UNL A   1      34.497  21.388  24.612  1.00  0.00     0.034 C 
ATOM     23  C   UNL A   1      32.530  19.942  24.126  1.00  0.00     0.034 C 
BRANCH  21  24
ATOM     24  C   UNL A   1      32.319  21.799  25.784  1.00  0.00     0.024 C 
ATOM     25  C   UNL A   1      33.205  22.308  26.907  1.00  0.00     0.006 C 
ENDBRANCH  21  24
ENDBRANCH  18  21
ENDBRANCH  15  17
ENDBRANCH  14  15
ENDBRANCH   8  14
ENDBRANCH   4   7
ENDBRANCH   2   3
ENDBRANCH   1   2
BRANCH   1  26
ATOM     26  C   UNL A   1      32.682  30.464  26.929  1.00  0.00     0.002 C 
BRANCH  26  27
ATOM     27  C   UNL A   1      31.405  31.186  26.479  1.00  0.00     0.002 C 
BRANCH  27  28
ATOM     28  C   UNL A   1      31.402  32.708  26.687  1.00  0.00     0.021 C 
BRANCH  28  29
ATOM     29  C   UNL A   1      32.762  33.307  27.044  1.00  0.00     0.116 C 
BRANCH  29  30
ATOM     30  N   UNL A   1      32.612  34.553  27.781  1.00  0.00    -0.352 N 
ATOM     31  C   UNL A   1      33.131  34.910  28.994  1.00  0.00     0.251 C 
ATOM     32  H   UNL A   1      32.058  35.238  27.342  1.00  0.00     0.163 HD
ATOM     33  O   UNL A   1      32.653  35.870  29.612  1.00  0.00    -0.269 OA
BRANCH  31  34
ATOM     34  C   UNL A   1      34.265  34.168  29.577  1.00  0.00     0.039 A 
ATOM     35  C   UNL A   1      35.565  34.467  29.159  1.00  0.00     0.014 A 
ATOM     36  C   UNL A   1      34.044  33.130  30.488  1.00  0.00     0.014 A 
ATOM     37  C   UNL A   1      36.646  33.757  29.686  1.00  0.00     0.010 A 
ATOM     38  C   UNL A   1      35.127  32.464  31.059  1.00  0.00     0.010 A 
ATOM     39  C   UNL A   1      36.437  32.764  30.656  1.00  0.00    -0.014 A 
BRANCH  39  40
ATOM     40  C   UNL A   1      37.574  32.018  31.254  1.00  0.00     0.031 A 
ATOM     41  C   UNL A   1      38.062  32.365  32.634  1.00  0.00     0.074 A 
ATOM     42  C   UNL A   1      38.206  31.075  30.529  1.00  0.00     0.049 A 
ATOM     43  N   UNL A   1      39.088  31.889  33.294  1.00  0.00    -0.248 NA
ATOM     44  C   UNL A   1      37.312  33.403  33.360  1.00  0.00     0.031 C 
ATOM     45  C   UNL A   1      37.852  30.678  29.166  1.00  0.00     0.029 A 
ATOM     46  N   UNL A   1      39.290  30.289  30.833  1.00  0.00    -0.354 N 
ATOM     47  C   UNL A   1      39.119  32.582  34.497  1.00  0.00     0.074 A 
ATOM     48  C   UNL A   1      38.034  33.540  34.462  1.00  0.00     0.031 C 
ATOM     49  C   UNL A   1      38.692  29.715  28.756  1.00  0.00     0.029 A 
ATOM     50  C   UNL A   1      39.665  29.450  29.812  1.00  0.00     0.049 A 
ATOM     51  H   UNL A   1      39.754  30.323  31.700  1.00  0.00     0.167 HD
ATOM     52  C   UNL A   1      39.964  32.419  35.543  1.00  0.00     0.037 A 
ATOM     53  C   UNL A   1      40.684  28.575  29.734  1.00  0.00     0.037 A 
ATOM     54  C   UNL A   1      41.016  31.439  35.589  1.00  0.00     0.049 A 
ATOM     55  C   UNL A   1      41.604  28.413  30.914  1.00  0.00     0.074 A 
ATOM     56  C   UNL A   1      41.879  31.147  36.632  1.00  0.00     0.029 A 
ATOM     57  N   UNL A   1      41.348  30.588  34.545  1.00  0.00    -0.354 N 
ATOM     58  N   UNL A   1      41.579  29.023  32.074  1.00  0.00    -0.248 NA
ATOM     59  C   UNL A   1      42.692  27.435  30.777  1.00  0.00     0.031 C 
ATOM     60  C   UNL A   1      42.760  30.150  36.205  1.00  0.00     0.029 A 
ATOM     61  C   UNL A   1      42.417  29.786  34.912  1.00  0.00     0.049 A 
ATOM     62  H   UNL A   1      40.893  30.559  33.673  1.00  0.00     0.167 HD
ATOM     63  C   UNL A   1      42.622  28.482  32.814  1.00  0.00     0.074 A 
ATOM     64  C   UNL A   1      43.253  27.484  31.977  1.00  0.00     0.031 C 
ATOM     65  C   UNL A   1      43.020  28.785  34.073  1.00  0.00     0.037 A 
BRANCH  52  66
ATOM     66  C   UNL A   1      39.787  33.317  36.733  1.00  0.00     0.064 A 
ATOM     67  C   UNL A   1      40.488  34.524  36.855  1.00  0.00     0.173 A 
ATOM     68  C   UNL A   1      38.857  32.994  37.734  1.00  0.00     0.173 A 
ATOM     69  F   UNL A   1      41.396  34.874  35.930  1.00  0.00    -0.203 F 
ATOM     70  C   UNL A   1      40.281  35.368  37.944  1.00  0.00     0.198 A 
ATOM     71  C   UNL A   1      38.631  33.852  38.807  1.00  0.00     0.198 A 
ATOM     72  F   UNL A   1      38.154  31.853  37.663  1.00  0.00    -0.203 F 
ATOM     73  F   UNL A   1      40.989  36.500  38.058  1.00  0.00    -0.200 F 
ATOM     74  C   UNL A   1      39.347  35.036  38.914  1.00  0.00     0.200 A 
ATOM     75  F   UNL A   1      37.719  33.536  39.736  1.00  0.00    -0.200 F 
ATOM     76  F   UNL A   1      39.138  35.855  39.953  1.00  0.00    -0.200 F 
ENDBRANCH  52  66
BRANCH  53  77
ATOM     77  C   UNL A   1      40.884  27.765  28.503  1.00  0.00     0.064 A 
ATOM     78  C   UNL A   1      41.725  28.216  27.477  1.00  0.00     0.173 A 
ATOM     79  C   UNL A   1      40.224  26.543  28.316  1.00  0.00     0.173 A 
ATOM     80  F   UNL A   1      42.362  29.391  27.600  1.00  0.00    -0.203 F 
ATOM     81  C   UNL A   1      41.877  27.490  26.298  1.00  0.00     0.198 A 
ATOM     82  C   UNL A   1      40.399  25.802  27.149  1.00  0.00     0.198 A 
ATOM     83  F   UNL A   1      39.411  26.064  29.270  1.00  0.00    -0.203 F 
ATOM     84  F   UNL A   1      42.645  27.972  25.311  1.00  0.00    -0.200 F 
ATOM     85  C   UNL A   1      41.218  26.281  26.137  1.00  0.00     0.200 A 
ATOM     86  F   UNL A   1      39.771  24.628  27.002  1.00  0.00    -0.200 F 
ATOM     87  F   UNL A   1      41.363  25.583  25.002  1.00  0.00    -0.200 F 
ENDBRANCH  53  77
BRANCH  65  88
ATOM     88  C   UNL A   1      44.166  27.998  34.639  1.00  0.00     0.064 A 
ATOM     89  C   UNL A   1      45.490  28.449  34.538  1.00  0.00     0.173 A 
ATOM     90  C   UNL A   1      43.930  26.796  35.324  1.00  0.00     0.173 A 
ATOM     91  F   UNL A   1      45.768  29.583  33.879  1.00  0.00    -0.203 F 
ATOM     92  C   UNL A   1      46.538  27.713  35.082  1.00  0.00     0.198 A 
ATOM     93  C   UNL A   1      44.977  26.078  35.893  1.00  0.00     0.198 A 
ATOM     94  F   UNL A   1      42.680  26.326  35.454  1.00  0.00    -0.203 F 
ATOM     95  F   UNL A   1      47.801  28.138  34.934  1.00  0.00    -0.200 F 
ATOM     96  C   UNL A   1      46.281  26.533  35.765  1.00  0.00     0.200 A 
ATOM     97  F   UNL A   1      44.724  24.945  36.564  1.00  0.00    -0.200 F 
ATOM     98  F   UNL A   1      47.291  25.830  36.295  1.00  0.00    -0.200 F 
ENDBRANCH  65  88
ENDBRANCH  39  40
ENDBRANCH  31  34
ENDBRANCH  29  30
ENDBRANCH  28  29
ENDBRANCH  27  28
ENDBRANCH  26  27
ENDBRANCH   1  26
TORSDOF 18
ENDMDL
MODEL 3
REMARK VINA RESULT:     -11.2      1.992      8.226
REMARK SMILES CCC(C)(C)NC(=O)[C@@H](C)Oc1ccc(C)nc1C(=O)NCCCCCCNC(=O)c1ccc(-c2c3nc(c(-c4c(F)c(F)c(F)c(F)c4F)c4ccc([nH]4)c(-c4c(F)c(F)c(F)c(F)c4F)c4nc(c(-c5c(F)c(F)c(F)c(F)c5F)c5ccc2[nH]5)C=C4)C=C3)cc1
REMARK SMILES IDX 23 1 22 2 21 3 19 4 20 5 18 7 12 8 13 9 14 10 17 11 15 12
REMARK SMILES IDX 16 13 11 14 9 15 10 16 7 17 6 18 8 20 3 21 4 22 5 23 2 24
REMARK SMILES IDX 1 25 24 26 25 27 26 28 27 29 28 30 29 31 30 33 31 34 32 35
REMARK SMILES IDX 93 36 33 37 92 38 34 39 35 40 36 41 86 42 37 43 91 44 85 45
REMARK SMILES IDX 87 46 38 47 90 48 84 49 83 50 39 52 71 53 51 54 70 55 52 56
REMARK SMILES IDX 55 57 69 58 88 59 53 60 54 61 68 63 89 64 56 65 40 66 41 67
REMARK SMILES IDX 49 68 42 69 43 70 47 71 50 72 44 73 45 74 48 75 46 76 72 77
REMARK SMILES IDX 73 78 81 79 74 80 75 81 79 82 82 83 76 84 77 85 80 86 78 87
REMARK SMILES IDX 57 88 58 89 66 90 59 91 60 92 64 93 67 94 61 95 62 96 65 97
REMARK SMILES IDX 63 98
REMARK H PARENT 21 6 6 19 28 32 87 51 55 62
REMARK Flexibility Score: inf
ROOT
ATOM      1  C   UNL A   1      34.644  31.717  28.489  1.00  0.00     0.021 C 
ENDROOT
BRANCH   1   2
ATOM      2  C   UNL A   1      34.495  30.561  27.497  1.00  0.00     0.116 C 
BRANCH   2   3
ATOM      3  N   UNL A   1      33.377  29.737  27.899  1.00  0.00    -0.351 N 
ATOM      4  C   UNL A   1      32.660  28.743  27.277  1.00  0.00     0.273 C 
ATOM      5  O   UNL A   1      31.631  28.399  27.871  1.00  0.00    -0.267 OA
ATOM      6  H   UNL A   1      33.061  29.929  28.811  1.00  0.00     0.163 HD
BRANCH   4   7
ATOM      7  C   UNL A   1      33.079  27.992  26.035  1.00  0.00     0.170 A 
ATOM      8  C   UNL A   1      33.053  28.438  24.710  1.00  0.00     0.151 A 
ATOM      9  C   UNL A   1      33.730  27.660  23.768  1.00  0.00     0.051 A 
ATOM     10  C   UNL A   1      34.101  26.351  24.084  1.00  0.00     0.027 A 
ATOM     11  N   UNL A   1      33.416  26.699  26.333  1.00  0.00    -0.244 NA
ATOM     12  C   UNL A   1      33.806  25.873  25.346  1.00  0.00     0.038 A 
ATOM     13  C   UNL A   1      33.810  24.407  25.656  1.00  0.00     0.067 C 
BRANCH   8  14
ATOM     14  O   UNL A   1      32.218  29.466  24.375  1.00  0.00    -0.478 OA
BRANCH  14  15
ATOM     15  C   UNL A   1      30.901  29.229  23.904  1.00  0.00     0.259 C 
ATOM     16  C   UNL A   1      30.458  27.825  24.368  1.00  0.00     0.064 C 
BRANCH  15  17
ATOM     17  C   UNL A   1      30.388  29.340  22.444  1.00  0.00     0.261 C 
ATOM     18  N   UNL A   1      29.883  30.494  21.925  1.00  0.00    -0.348 N 
ATOM     19  H   UNL A   1      30.472  30.918  21.259  1.00  0.00     0.164 HD
ATOM     20  O   UNL A   1      30.631  28.429  21.641  1.00  0.00    -0.271 OA
BRANCH  18  21
ATOM     21  C   UNL A   1      28.624  31.237  22.163  1.00  0.00     0.034 C 
ATOM     22  C   UNL A   1      27.917  31.395  20.795  1.00  0.00     0.034 C 
ATOM     23  C   UNL A   1      29.038  32.650  22.629  1.00  0.00     0.034 C 
BRANCH  21  24
ATOM     24  C   UNL A   1      27.591  30.689  23.179  1.00  0.00     0.024 C 
ATOM     25  C   UNL A   1      27.139  29.243  23.076  1.00  0.00     0.006 C 
ENDBRANCH  21  24
ENDBRANCH  18  21
ENDBRANCH  15  17
ENDBRANCH  14  15
ENDBRANCH   8  14
ENDBRANCH   4   7
ENDBRANCH   2   3
ENDBRANCH   1   2
BRANCH   1  26
ATOM     26  C   UNL A   1      35.125  33.029  27.865  1.00  0.00     0.002 C 
BRANCH  26  27
ATOM     27  C   UNL A   1      35.288  34.166  28.882  1.00  0.00     0.002 C 
BRANCH  27  28
ATOM     28  C   UNL A   1      34.234  35.280  28.797  1.00  0.00     0.021 C 
BRANCH  28  29
ATOM     29  C   UNL A   1      32.879  34.927  29.411  1.00  0.00     0.116 C 
BRANCH  29  30
ATOM     30  N   UNL A   1      32.566  35.796  30.535  1.00  0.00    -0.352 N 
ATOM     31  C   UNL A   1      33.003  35.731  31.828  1.00  0.00     0.251 C 
ATOM     32  H   UNL A   1      31.951  36.538  30.335  1.00  0.00     0.163 HD
ATOM     33  O   UNL A   1      32.400  36.348  32.715  1.00  0.00    -0.269 OA
BRANCH  31  34
ATOM     34  C   UNL A   1      34.196  34.938  32.182  1.00  0.00     0.039 A 
ATOM     35  C   UNL A   1      35.449  35.558  32.196  1.00  0.00     0.014 A 
ATOM     36  C   UNL A   1      34.090  33.567  32.436  1.00  0.00     0.014 A 
ATOM     37  C   UNL A   1      36.589  34.814  32.507  1.00  0.00     0.010 A 
ATOM     38  C   UNL A   1      35.219  32.839  32.806  1.00  0.00     0.010 A 
ATOM     39  C   UNL A   1      36.480  33.453  32.836  1.00  0.00    -0.014 A 
BRANCH  39  40
ATOM     40  C   UNL A   1      37.675  32.650  33.200  1.00  0.00     0.031 A 
ATOM     41  C   UNL A   1      38.402  32.922  34.490  1.00  0.00     0.074 A 
ATOM     42  C   UNL A   1      38.142  31.723  32.342  1.00  0.00     0.049 A 
ATOM     43  N   UNL A   1      39.508  32.389  34.945  1.00  0.00    -0.248 NA
ATOM     44  C   UNL A   1      37.824  33.948  35.372  1.00  0.00     0.031 C 
ATOM     45  C   UNL A   1      37.548  31.396  31.046  1.00  0.00     0.029 A 
ATOM     46  N   UNL A   1      39.234  30.895  32.426  1.00  0.00    -0.354 N 
ATOM     47  C   UNL A   1      39.767  33.028  36.152  1.00  0.00     0.074 A 
ATOM     48  C   UNL A   1      38.727  34.016  36.340  1.00  0.00     0.031 C 
ATOM     49  C   UNL A   1      38.273  30.429  30.461  1.00  0.00     0.029 A 
ATOM     50  C   UNL A   1      39.401  30.091  31.324  1.00  0.00     0.049 A 
ATOM     51  H   UNL A   1      39.839  30.877  33.202  1.00  0.00     0.167 HD
ATOM     52  C   UNL A   1      40.771  32.796  37.030  1.00  0.00     0.037 A 
ATOM     53  C   UNL A   1      40.361  29.192  31.040  1.00  0.00     0.037 A 
ATOM     54  C   UNL A   1      41.781  31.785  36.859  1.00  0.00     0.049 A 
ATOM     55  C   UNL A   1      41.462  28.953  32.038  1.00  0.00     0.074 A 
ATOM     56  C   UNL A   1      42.797  31.424  37.727  1.00  0.00     0.029 A 
ATOM     57  N   UNL A   1      41.901  30.972  35.741  1.00  0.00    -0.354 N 
ATOM     58  N   UNL A   1      41.655  29.512  33.208  1.00  0.00    -0.248 NA
ATOM     59  C   UNL A   1      42.476  27.952  31.680  1.00  0.00     0.031 C 
ATOM     60  C   UNL A   1      43.558  30.422  37.117  1.00  0.00     0.029 A 
ATOM     61  C   UNL A   1      42.988  30.126  35.889  1.00  0.00     0.049 A 
ATOM     62  H   UNL A   1      41.304  30.994  34.959  1.00  0.00     0.167 HD
ATOM     63  C   UNL A   1      42.788  28.910  33.737  1.00  0.00     0.074 A 
ATOM     64  C   UNL A   1      43.233  27.932  32.767  1.00  0.00     0.031 C 
ATOM     65  C   UNL A   1      43.405  29.146  34.920  1.00  0.00     0.037 A 
BRANCH  52  66
ATOM     66  C   UNL A   1      40.830  33.644  38.267  1.00  0.00     0.064 A 
ATOM     67  C   UNL A   1      41.638  34.788  38.337  1.00  0.00     0.173 A 
ATOM     68  C   UNL A   1      40.019  33.344  39.373  1.00  0.00     0.173 A 
ATOM     69  F   UNL A   1      42.439  35.112  37.310  1.00  0.00    -0.203 F 
ATOM     70  C   UNL A   1      41.649  35.590  39.476  1.00  0.00     0.198 A 
ATOM     71  C   UNL A   1      40.011  34.164  40.499  1.00  0.00     0.198 A 
ATOM     72  F   UNL A   1      39.222  32.266  39.357  1.00  0.00    -0.203 F 
ATOM     73  F   UNL A   1      42.457  36.658  39.534  1.00  0.00    -0.200 F 
ATOM     74  C   UNL A   1      40.829  35.283  40.552  1.00  0.00     0.200 A 
ATOM     75  F   UNL A   1      39.210  33.873  41.533  1.00  0.00    -0.200 F 
ATOM     76  F   UNL A   1      40.830  36.063  41.641  1.00  0.00    -0.200 F 
ENDBRANCH  52  66
BRANCH  53  77
ATOM     77  C   UNL A   1      40.321  28.432  29.762  1.00  0.00     0.064 A 
ATOM     78  C   UNL A   1      39.605  27.232  29.664  1.00  0.00     0.173 A 
ATOM     79  C   UNL A   1      41.011  28.875  28.626  1.00  0.00     0.173 A 
ATOM     80  F   UNL A   1      38.945  26.756  30.731  1.00  0.00    -0.203 F 
ATOM     81  C   UNL A   1      39.604  26.488  28.486  1.00  0.00     0.198 A 
ATOM     82  C   UNL A   1      40.986  28.145  27.439  1.00  0.00     0.198 A 
ATOM     83  F   UNL A   1      41.708  30.021  28.666  1.00  0.00    -0.203 F 
ATOM     84  F   UNL A   1      38.955  25.316  28.438  1.00  0.00    -0.200 F 
ATOM     85  C   UNL A   1      40.291  26.947  27.374  1.00  0.00     0.200 A 
ATOM     86  F   UNL A   1      41.641  28.599  26.362  1.00  0.00    -0.200 F 
ATOM     87  F   UNL A   1      40.292  26.230  26.242  1.00  0.00    -0.200 F 
ENDBRANCH  53  77
BRANCH  65  88
ATOM     88  C   UNL A   1      44.602  28.303  35.252  1.00  0.00     0.064 A 
ATOM     89  C   UNL A   1      44.476  27.076  35.918  1.00  0.00     0.173 A 
ATOM     90  C   UNL A   1      45.886  28.713  34.864  1.00  0.00     0.173 A 
ATOM     91  F   UNL A   1      43.271  26.648  36.324  1.00  0.00    -0.203 F 
ATOM     92  C   UNL A   1      45.596  26.300  36.205  1.00  0.00     0.198 A 
ATOM     93  C   UNL A   1      47.001  27.921  35.125  1.00  0.00     0.198 A 
ATOM     94  F   UNL A   1      46.059  29.876  34.217  1.00  0.00    -0.203 F 
ATOM     95  F   UNL A   1      45.458  25.153  36.883  1.00  0.00    -0.200 F 
ATOM     96  C   UNL A   1      46.855  26.720  35.801  1.00  0.00     0.200 A 
ATOM     97  F   UNL A   1      48.215  28.322  34.723  1.00  0.00    -0.200 F 
ATOM     98  F   UNL A   1      47.931  25.968  36.072  1.00  0.00    -0.200 F 
ENDBRANCH  65  88
ENDBRANCH  39  40
ENDBRANCH  31  34
ENDBRANCH  29  30
ENDBRANCH  28  29
ENDBRANCH  27  28
ENDBRANCH  26  27
ENDBRANCH   1  26
TORSDOF 18
ENDMDL
