MODEL 1
REMARK VINA RESULT:     -12.8      0.000      0.000
REMARK SMILES O=C(C[NH+]1CCN(c2ncc(C(F)(F)F)cc2Cl)CC1)NCCCCCCNC(=O)c1ccc(-c2c3nc(c(-c4c(F)c(F)c(F)c(F)c4F)c4ccc([nH]4)c(-c4c(F)c(F)c(F)c(F)c4F)c4nc(c(-c5c(F)c(F)c(F)c(F)c5F)c5ccc2[nH]5)C=C4)C=C3)cc1
REMARK SMILES IDX 24 1 23 2 22 3 21 4 1 5 2 6 3 8 4 9 5 10 20 11 6 13 19 14
REMARK SMILES IDX 7 15 8 16 9 17 17 18 10 19 16 20 18 21 11 22 12 23 13 24
REMARK SMILES IDX 14 25 15 26 25 27 26 28 27 29 28 30 29 31 30 33 31 34 32 35
REMARK SMILES IDX 93 36 33 37 92 38 34 39 35 40 36 41 86 42 37 43 91 44 85 45
REMARK SMILES IDX 87 46 38 47 90 48 84 49 83 50 39 52 71 53 51 54 70 55 52 56
REMARK SMILES IDX 55 57 69 58 88 59 53 60 54 61 68 63 89 64 56 65 40 66 41 67
REMARK SMILES IDX 49 68 42 69 43 70 47 71 50 72 44 73 45 74 48 75 46 76 72 77
REMARK SMILES IDX 73 78 81 79 74 80 75 81 79 82 82 83 76 84 77 85 80 86 78 87
REMARK SMILES IDX 57 88 58 89 66 90 59 91 60 92 64 93 67 94 61 95 62 96 65 97
REMARK SMILES IDX 63 98
REMARK H PARENT 21 7 4 12 28 32 87 51 55 62
REMARK Flexibility Score: inf
ROOT
ATOM      1  C   UNL A   1      33.001  30.116  27.202  1.00  0.00     0.002 C 
ENDROOT
BRANCH   1   2
ATOM      2  C   UNL A   1      32.845  28.640  27.583  1.00  0.00     0.021 C 
BRANCH   2   3
ATOM      3  C   UNL A   1      31.411  28.125  27.505  1.00  0.00     0.116 C 
BRANCH   3   4
ATOM      4  N   UNL A   1      31.326  26.862  26.804  1.00  0.00    -0.351 N 
ATOM      5  O   UNL A   1      30.953  27.812  24.755  1.00  0.00    -0.269 OA
ATOM      6  C   UNL A   1      31.103  26.808  25.446  1.00  0.00     0.275 C 
ATOM      7  H   UNL A   1      31.430  26.023  27.309  1.00  0.00     0.163 HD
BRANCH   6   8
ATOM      8  C   UNL A   1      31.051  25.391  24.878  1.00  0.00     0.363 C 
BRANCH   8   9
ATOM      9  N   UNL A   1      32.301  24.879  24.299  1.00  0.00    -0.324 N 
ATOM     10  C   UNL A   1      33.350  24.366  25.197  1.00  0.00     0.284 C 
ATOM     11  C   UNL A   1      32.128  24.012  23.124  1.00  0.00     0.284 C 
ATOM     12  H   UNL A   1      32.688  25.770  23.991  1.00  0.00     0.348 HD
ATOM     13  C   UNL A   1      33.316  22.842  25.503  1.00  0.00     0.179 C 
ATOM     14  C   UNL A   1      31.976  22.511  23.452  1.00  0.00     0.179 C 
ATOM     15  N   UNL A   1      33.111  22.069  24.269  1.00  0.00    -0.344 N 
BRANCH  15  16
ATOM     16  C   UNL A   1      33.352  20.699  24.318  1.00  0.00     0.147 A 
ATOM     17  N   UNL A   1      32.328  19.867  24.011  1.00  0.00    -0.237 NA
ATOM     18  C   UNL A   1      34.604  20.167  24.680  1.00  0.00     0.084 A 
ATOM     19  C   UNL A   1      32.541  18.525  24.027  1.00  0.00     0.126 A 
ATOM     20  C   UNL A   1      34.799  18.782  24.681  1.00  0.00     0.039 A 
ATOM     21  Cl  UNL A   1      35.923  21.152  25.212  1.00  0.00    -0.080 Cl
ATOM     22  C   UNL A   1      33.748  17.932  24.342  1.00  0.00     0.075 A 
BRANCH  22  23
ATOM     23  C   UNL A   1      33.880  16.442  24.296  1.00  0.00     0.417 C 
ATOM     24  F   UNL A   1      34.785  15.968  25.193  1.00  0.00    -0.166 F 
ATOM     25  F   UNL A   1      32.705  15.815  24.568  1.00  0.00    -0.166 F 
ATOM     26  F   UNL A   1      34.279  15.977  23.080  1.00  0.00    -0.166 F 
ENDBRANCH  22  23
ENDBRANCH  15  16
ENDBRANCH   8   9
ENDBRANCH   6   8
ENDBRANCH   3   4
ENDBRANCH   2   3
ENDBRANCH   1   2
BRANCH   1  27
ATOM     27  C   UNL A   1      31.780  30.726  26.509  1.00  0.00     0.002 C 
BRANCH  27  28
ATOM     28  C   UNL A   1      31.541  32.208  26.769  1.00  0.00     0.021 C 
BRANCH  28  29
ATOM     29  C   UNL A   1      32.737  32.959  27.340  1.00  0.00     0.116 C 
BRANCH  29  30
ATOM     30  N   UNL A   1      32.440  34.339  27.705  1.00  0.00    -0.352 N 
ATOM     31  C   UNL A   1      32.999  35.128  28.684  1.00  0.00     0.251 C 
ATOM     32  H   UNL A   1      31.734  34.771  27.171  1.00  0.00     0.163 HD
ATOM     33  O   UNL A   1      32.533  36.229  28.934  1.00  0.00    -0.269 OA
BRANCH  31  34
ATOM     34  C   UNL A   1      34.152  34.608  29.456  1.00  0.00     0.039 A 
ATOM     35  C   UNL A   1      33.926  33.986  30.685  1.00  0.00     0.014 A 
ATOM     36  C   UNL A   1      35.442  34.685  28.931  1.00  0.00     0.014 A 
ATOM     37  C   UNL A   1      34.985  33.348  31.338  1.00  0.00     0.010 A 
ATOM     38  C   UNL A   1      36.471  33.969  29.530  1.00  0.00     0.010 A 
ATOM     39  C   UNL A   1      36.253  33.288  30.737  1.00  0.00    -0.014 A 
BRANCH  39  40
ATOM     40  C   UNL A   1      37.367  32.507  31.335  1.00  0.00     0.031 A 
ATOM     41  C   UNL A   1      37.871  32.847  32.710  1.00  0.00     0.074 A 
ATOM     42  C   UNL A   1      37.993  31.569  30.600  1.00  0.00     0.049 A 
ATOM     43  N   UNL A   1      38.898  32.362  33.360  1.00  0.00    -0.248 NA
ATOM     44  C   UNL A   1      37.148  33.904  33.434  1.00  0.00     0.031 C 
ATOM     45  C   UNL A   1      37.647  31.192  29.228  1.00  0.00     0.029 A 
ATOM     46  N   UNL A   1      39.066  30.765  30.902  1.00  0.00    -0.354 N 
ATOM     47  C   UNL A   1      38.965  33.080  34.548  1.00  0.00     0.074 A 
ATOM     48  C   UNL A   1      37.908  34.066  34.505  1.00  0.00     0.031 C 
ATOM     49  C   UNL A   1      38.463  30.207  28.822  1.00  0.00     0.029 A 
ATOM     50  C   UNL A   1      39.416  29.909  29.886  1.00  0.00     0.049 A 
ATOM     51  H   UNL A   1      39.539  30.800  31.764  1.00  0.00     0.167 HD
ATOM     52  C   UNL A   1      39.814  32.914  35.590  1.00  0.00     0.037 A 
ATOM     53  C   UNL A   1      40.393  28.985  29.825  1.00  0.00     0.037 A 
ATOM     54  C   UNL A   1      40.827  31.894  35.651  1.00  0.00     0.049 A 
ATOM     55  C   UNL A   1      41.302  28.798  31.008  1.00  0.00     0.074 A 
ATOM     56  C   UNL A   1      41.671  31.577  36.701  1.00  0.00     0.029 A 
ATOM     57  N   UNL A   1      41.131  31.023  34.616  1.00  0.00    -0.354 N 
ATOM     58  N   UNL A   1      41.303  29.425  32.159  1.00  0.00    -0.248 NA
ATOM     59  C   UNL A   1      42.344  27.769  30.882  1.00  0.00     0.031 C 
ATOM     60  C   UNL A   1      42.512  30.538  36.286  1.00  0.00     0.029 A 
ATOM     61  C   UNL A   1      42.164  30.181  34.993  1.00  0.00     0.049 A 
ATOM     62  H   UNL A   1      40.679  31.005  33.741  1.00  0.00     0.167 HD
ATOM     63  C   UNL A   1      42.322  28.849  32.905  1.00  0.00     0.074 A 
ATOM     64  C   UNL A   1      42.911  27.815  32.080  1.00  0.00     0.031 C 
ATOM     65  C   UNL A   1      42.732  29.150  34.162  1.00  0.00     0.037 A 
BRANCH  52  66
ATOM     66  C   UNL A   1      39.673  33.855  36.750  1.00  0.00     0.064 A 
ATOM     67  C   UNL A   1      40.334  35.092  36.783  1.00  0.00     0.173 A 
ATOM     68  C   UNL A   1      38.859  33.519  37.842  1.00  0.00     0.173 A 
ATOM     69  F   UNL A   1      41.135  35.456  35.770  1.00  0.00    -0.203 F 
ATOM     70  C   UNL A   1      40.219  35.938  37.883  1.00  0.00     0.198 A 
ATOM     71  C   UNL A   1      38.720  34.382  38.927  1.00  0.00     0.198 A 
ATOM     72  F   UNL A   1      38.200  32.350  37.862  1.00  0.00    -0.203 F 
ATOM     73  F   UNL A   1      40.910  37.086  37.918  1.00  0.00    -0.200 F 
ATOM     74  C   UNL A   1      39.408  35.586  38.951  1.00  0.00     0.200 A 
ATOM     75  F   UNL A   1      37.927  34.045  39.954  1.00  0.00    -0.200 F 
ATOM     76  F   UNL A   1      39.299  36.401  40.009  1.00  0.00    -0.200 F 
ENDBRANCH  52  66
BRANCH  53  77
ATOM     77  C   UNL A   1      40.528  28.127  28.620  1.00  0.00     0.064 A 
ATOM     78  C   UNL A   1      39.870  26.890  28.554  1.00  0.00     0.173 A 
ATOM     79  C   UNL A   1      41.302  28.515  27.519  1.00  0.00     0.173 A 
ATOM     80  F   UNL A   1      39.134  26.468  29.593  1.00  0.00    -0.203 F 
ATOM     81  C   UNL A   1      39.995  26.068  27.436  1.00  0.00     0.198 A 
ATOM     82  C   UNL A   1      41.408  27.702  26.392  1.00  0.00     0.198 A 
ATOM     83  F   UNL A   1      41.948  29.690  27.533  1.00  0.00    -0.203 F 
ATOM     84  F   UNL A   1      39.387  24.874  27.416  1.00  0.00    -0.200 F 
ATOM     85  C   UNL A   1      40.760  26.476  26.355  1.00  0.00     0.200 A 
ATOM     86  F   UNL A   1      42.138  28.104  25.343  1.00  0.00    -0.200 F 
ATOM     87  F   UNL A   1      40.876  25.686  25.278  1.00  0.00    -0.200 F 
ENDBRANCH  53  77
BRANCH  65  88
ATOM     88  C   UNL A   1      43.846  28.325  34.734  1.00  0.00     0.064 A 
ATOM     89  C   UNL A   1      45.186  28.721  34.624  1.00  0.00     0.173 A 
ATOM     90  C   UNL A   1      43.565  27.137  35.427  1.00  0.00     0.173 A 
ATOM     91  F   UNL A   1      45.507  29.840  33.957  1.00  0.00    -0.203 F 
ATOM     92  C   UNL A   1      46.208  27.945  35.166  1.00  0.00     0.198 A 
ATOM     93  C   UNL A   1      44.585  26.378  35.990  1.00  0.00     0.198 A 
ATOM     94  F   UNL A   1      42.297  26.717  35.562  1.00  0.00    -0.203 F 
ATOM     95  F   UNL A   1      47.485  28.318  35.009  1.00  0.00    -0.200 F 
ATOM     96  C   UNL A   1      45.906  26.779  35.853  1.00  0.00     0.200 A 
ATOM     97  F   UNL A   1      44.292  25.257  36.664  1.00  0.00    -0.200 F 
ATOM     98  F   UNL A   1      46.890  26.035  36.378  1.00  0.00    -0.200 F 
ENDBRANCH  65  88
ENDBRANCH  39  40
ENDBRANCH  31  34
ENDBRANCH  29  30
ENDBRANCH  28  29
ENDBRANCH  27  28
ENDBRANCH   1  27
TORSDOF 16
ENDMDL
MODEL 2
REMARK VINA RESULT:     -12.6      0.866      7.312
REMARK SMILES O=C(C[NH+]1CCN(c2ncc(C(F)(F)F)cc2Cl)CC1)NCCCCCCNC(=O)c1ccc(-c2c3nc(c(-c4c(F)c(F)c(F)c(F)c4F)c4ccc([nH]4)c(-c4c(F)c(F)c(F)c(F)c4F)c4nc(c(-c5c(F)c(F)c(F)c(F)c5F)c5ccc2[nH]5)C=C4)C=C3)cc1
REMARK SMILES IDX 24 1 23 2 22 3 21 4 1 5 2 6 3 8 4 9 5 10 20 11 6 13 19 14
REMARK SMILES IDX 7 15 8 16 9 17 17 18 10 19 16 20 18 21 11 22 12 23 13 24
REMARK SMILES IDX 14 25 15 26 25 27 26 28 27 29 28 30 29 31 30 33 31 34 32 35
REMARK SMILES IDX 93 36 33 37 92 38 34 39 35 40 36 41 86 42 37 43 91 44 85 45
REMARK SMILES IDX 87 46 38 47 90 48 84 49 83 50 39 52 71 53 51 54 70 55 52 56
REMARK SMILES IDX 55 57 69 58 88 59 53 60 54 61 68 63 89 64 56 65 40 66 41 67
REMARK SMILES IDX 49 68 42 69 43 70 47 71 50 72 44 73 45 74 48 75 46 76 72 77
REMARK SMILES IDX 73 78 81 79 74 80 75 81 79 82 82 83 76 84 77 85 80 86 78 87
REMARK SMILES IDX 57 88 58 89 66 90 59 91 60 92 64 93 67 94 61 95 62 96 65 97
REMARK SMILES IDX 63 98
REMARK H PARENT 21 7 4 12 28 32 87 51 55 62
REMARK Flexibility Score: inf
ROOT
ATOM      1  C   UNL A   1      31.776  29.312  25.572  1.00  0.00     0.002 C 
ENDROOT
BRANCH   1   2
ATOM      2  C   UNL A   1      30.890  30.053  24.567  1.00  0.00     0.021 C 
BRANCH   2   3
ATOM      3  C   UNL A   1      30.205  29.143  23.552  1.00  0.00     0.116 C 
BRANCH   3   4
ATOM      4  N   UNL A   1      30.994  27.965  23.261  1.00  0.00    -0.351 N 
ATOM      5  O   UNL A   1      29.317  26.491  23.770  1.00  0.00    -0.269 OA
ATOM      6  C   UNL A   1      30.467  26.699  23.393  1.00  0.00     0.275 C 
ATOM      7  H   UNL A   1      31.926  28.070  22.963  1.00  0.00     0.163 HD
BRANCH   6   8
ATOM      8  C   UNL A   1      31.442  25.578  23.036  1.00  0.00     0.363 C 
BRANCH   8   9
ATOM      9  N   UNL A   1      32.202  25.001  24.155  1.00  0.00    -0.324 N 
ATOM     10  C   UNL A   1      31.521  24.087  25.089  1.00  0.00     0.284 C 
ATOM     11  C   UNL A   1      33.543  24.510  23.804  1.00  0.00     0.284 C 
ATOM     12  H   UNL A   1      32.303  25.851  24.710  1.00  0.00     0.348 HD
ATOM     13  C   UNL A   1      31.600  22.571  24.754  1.00  0.00     0.179 C 
ATOM     14  C   UNL A   1      33.588  23.033  23.359  1.00  0.00     0.179 C 
ATOM     15  N   UNL A   1      32.973  22.190  24.389  1.00  0.00    -0.344 N 
BRANCH  15  16
ATOM     16  C   UNL A   1      33.277  20.832  24.353  1.00  0.00     0.147 A 
ATOM     17  N   UNL A   1      32.362  19.995  23.810  1.00  0.00    -0.237 NA
ATOM     18  C   UNL A   1      34.483  20.317  24.865  1.00  0.00     0.084 A 
ATOM     19  C   UNL A   1      32.642  18.668  23.740  1.00  0.00     0.126 A 
ATOM     20  C   UNL A   1      34.751  18.948  24.773  1.00  0.00     0.039 A 
ATOM     21  Cl  UNL A   1      35.646  21.296  25.692  1.00  0.00    -0.080 Cl
ATOM     22  C   UNL A   1      33.814  18.094  24.192  1.00  0.00     0.075 A 
BRANCH  22  23
ATOM     23  C   UNL A   1      34.033  16.622  24.034  1.00  0.00     0.417 C 
ATOM     24  F   UNL A   1      32.926  15.892  24.337  1.00  0.00    -0.166 F 
ATOM     25  F   UNL A   1      34.377  16.288  22.762  1.00  0.00    -0.166 F 
ATOM     26  F   UNL A   1      35.027  16.140  24.829  1.00  0.00    -0.166 F 
ENDBRANCH  22  23
ENDBRANCH  15  16
ENDBRANCH   8   9
ENDBRANCH   6   8
ENDBRANCH   3   4
ENDBRANCH   2   3
ENDBRANCH   1   2
BRANCH   1  27
ATOM     27  C   UNL A   1      32.063  30.087  26.861  1.00  0.00     0.002 C 
BRANCH  27  28
ATOM     28  C   UNL A   1      31.791  31.584  26.809  1.00  0.00     0.021 C 
BRANCH  28  29
ATOM     29  C   UNL A   1      32.926  32.460  27.328  1.00  0.00     0.116 C 
BRANCH  29  30
ATOM     30  N   UNL A   1      32.533  33.843  27.569  1.00  0.00    -0.352 N 
ATOM     31  C   UNL A   1      33.024  34.748  28.482  1.00  0.00     0.251 C 
ATOM     32  H   UNL A   1      31.808  34.179  26.993  1.00  0.00     0.163 HD
ATOM     33  O   UNL A   1      32.483  35.832  28.631  1.00  0.00    -0.269 OA
BRANCH  31  34
ATOM     34  C   UNL A   1      34.197  34.375  29.306  1.00  0.00     0.039 A 
ATOM     35  C   UNL A   1      33.994  33.820  30.571  1.00  0.00     0.014 A 
ATOM     36  C   UNL A   1      35.489  34.519  28.799  1.00  0.00     0.014 A 
ATOM     37  C   UNL A   1      35.086  33.313  31.283  1.00  0.00     0.010 A 
ATOM     38  C   UNL A   1      36.557  33.929  29.462  1.00  0.00     0.010 A 
ATOM     39  C   UNL A   1      36.367  33.314  30.709  1.00  0.00    -0.014 A 
BRANCH  39  40
ATOM     40  C   UNL A   1      37.526  32.667  31.376  1.00  0.00     0.031 A 
ATOM     41  C   UNL A   1      38.232  31.518  30.711  1.00  0.00     0.074 A 
ATOM     42  C   UNL A   1      37.873  33.042  32.622  1.00  0.00     0.049 A 
ATOM     43  N   UNL A   1      39.187  30.752  31.174  1.00  0.00    -0.248 NA
ATOM     44  C   UNL A   1      37.772  31.154  29.362  1.00  0.00     0.031 C 
ATOM     45  C   UNL A   1      37.224  34.096  33.404  1.00  0.00     0.029 A 
ATOM     46  N   UNL A   1      38.854  32.568  33.458  1.00  0.00    -0.354 N 
ATOM     47  C   UNL A   1      39.414  29.798  30.191  1.00  0.00     0.074 A 
ATOM     48  C   UNL A   1      38.462  30.049  29.131  1.00  0.00     0.031 C 
ATOM     49  C   UNL A   1      37.848  34.215  34.587  1.00  0.00     0.029 A 
ATOM     50  C   UNL A   1      38.913  33.220  34.665  1.00  0.00     0.049 A 
ATOM     51  H   UNL A   1      39.458  31.829  33.215  1.00  0.00     0.167 HD
ATOM     52  C   UNL A   1      40.348  28.817  30.163  1.00  0.00     0.037 A 
ATOM     53  C   UNL A   1      39.737  33.038  35.714  1.00  0.00     0.037 A 
ATOM     54  C   UNL A   1      41.328  28.607  31.195  1.00  0.00     0.049 A 
ATOM     55  C   UNL A   1      40.787  31.964  35.645  1.00  0.00     0.074 A 
ATOM     56  C   UNL A   1      42.380  27.708  31.216  1.00  0.00     0.029 A 
ATOM     57  N   UNL A   1      41.378  29.310  32.389  1.00  0.00    -0.354 N 
ATOM     58  N   UNL A   1      41.047  31.121  34.676  1.00  0.00    -0.248 NA
ATOM     59  C   UNL A   1      41.660  31.819  36.818  1.00  0.00     0.031 C 
ATOM     60  C   UNL A   1      43.043  27.840  32.442  1.00  0.00     0.029 A 
ATOM     61  C   UNL A   1      42.429  28.851  33.165  1.00  0.00     0.049 A 
ATOM     62  H   UNL A   1      40.757  30.029  32.648  1.00  0.00     0.167 HD
ATOM     63  C   UNL A   1      42.130  30.368  35.106  1.00  0.00     0.074 A 
ATOM     64  C   UNL A   1      42.485  30.861  36.421  1.00  0.00     0.031 C 
ATOM     65  C   UNL A   1      42.774  29.359  34.469  1.00  0.00     0.037 A 
BRANCH  52  66
ATOM     66  C   UNL A   1      40.354  27.904  28.972  1.00  0.00     0.064 A 
ATOM     67  C   UNL A   1      39.603  26.720  28.945  1.00  0.00     0.173 A 
ATOM     68  C   UNL A   1      41.115  28.223  27.837  1.00  0.00     0.173 A 
ATOM     69  F   UNL A   1      38.868  26.362  30.009  1.00  0.00    -0.203 F 
ATOM     70  C   UNL A   1      39.646  25.867  27.844  1.00  0.00     0.198 A 
ATOM     71  C   UNL A   1      41.131  27.384  26.725  1.00  0.00     0.198 A 
ATOM     72  F   UNL A   1      41.849  29.345  27.806  1.00  0.00    -0.203 F 
ATOM     73  F   UNL A   1      38.969  24.710  27.869  1.00  0.00    -0.200 F 
ATOM     74  C   UNL A   1      40.405  26.202  26.733  1.00  0.00     0.200 A 
ATOM     75  F   UNL A   1      41.856  27.714  25.648  1.00  0.00    -0.200 F 
ATOM     76  F   UNL A   1      40.446  25.381  25.676  1.00  0.00    -0.200 F 
ENDBRANCH  52  66
BRANCH  53  77
ATOM     77  C   UNL A   1      39.640  33.930  36.898  1.00  0.00     0.064 A 
ATOM     78  C   UNL A   1      38.859  33.560  38.002  1.00  0.00     0.173 A 
ATOM     79  C   UNL A   1      40.317  35.155  36.957  1.00  0.00     0.173 A 
ATOM     80  F   UNL A   1      38.176  32.406  37.981  1.00  0.00    -0.203 F 
ATOM     81  C   UNL A   1      38.748  34.390  39.115  1.00  0.00     0.198 A 
ATOM     82  C   UNL A   1      40.224  35.974  38.081  1.00  0.00     0.198 A 
ATOM     83  F   UNL A   1      41.080  35.552  35.928  1.00  0.00    -0.203 F 
ATOM     84  F   UNL A   1      37.963  34.030  40.140  1.00  0.00    -0.200 F 
ATOM     85  C   UNL A   1      39.433  35.594  39.156  1.00  0.00     0.200 A 
ATOM     86  F   UNL A   1      40.898  37.131  38.123  1.00  0.00    -0.200 F 
ATOM     87  F   UNL A   1      39.329  36.391  40.229  1.00  0.00    -0.200 F 
ENDBRANCH  53  77
BRANCH  65  88
ATOM     88  C   UNL A   1      43.950  28.748  35.170  1.00  0.00     0.064 A 
ATOM     89  C   UNL A   1      43.807  27.642  36.020  1.00  0.00     0.173 A 
ATOM     90  C   UNL A   1      45.242  29.257  34.963  1.00  0.00     0.173 A 
ATOM     91  F   UNL A   1      42.591  27.130  36.262  1.00  0.00    -0.203 F 
ATOM     92  C   UNL A   1      44.911  27.084  36.659  1.00  0.00     0.198 A 
ATOM     93  C   UNL A   1      46.346  28.680  35.581  1.00  0.00     0.198 A 
ATOM     94  F   UNL A   1      45.431  30.311  34.155  1.00  0.00    -0.203 F 
ATOM     95  F   UNL A   1      44.745  26.057  37.504  1.00  0.00    -0.200 F 
ATOM     96  C   UNL A   1      46.179  27.598  36.434  1.00  0.00     0.200 A 
ATOM     97  F   UNL A   1      47.572  29.170  35.354  1.00  0.00    -0.200 F 
ATOM     98  F   UNL A   1      47.241  27.057  37.046  1.00  0.00    -0.200 F 
ENDBRANCH  65  88
ENDBRANCH  39  40
ENDBRANCH  31  34
ENDBRANCH  29  30
ENDBRANCH  28  29
ENDBRANCH  27  28
ENDBRANCH   1  27
TORSDOF 16
ENDMDL
MODEL 3
REMARK VINA RESULT:     -12.6      6.265     10.748
REMARK SMILES O=C(C[NH+]1CCN(c2ncc(C(F)(F)F)cc2Cl)CC1)NCCCCCCNC(=O)c1ccc(-c2c3nc(c(-c4c(F)c(F)c(F)c(F)c4F)c4ccc([nH]4)c(-c4c(F)c(F)c(F)c(F)c4F)c4nc(c(-c5c(F)c(F)c(F)c(F)c5F)c5ccc2[nH]5)C=C4)C=C3)cc1
REMARK SMILES IDX 24 1 23 2 22 3 21 4 1 5 2 6 3 8 4 9 5 10 20 11 6 13 19 14
REMARK SMILES IDX 7 15 8 16 9 17 17 18 10 19 16 20 18 21 11 22 12 23 13 24
REMARK SMILES IDX 14 25 15 26 25 27 26 28 27 29 28 30 29 31 30 33 31 34 32 35
REMARK SMILES IDX 93 36 33 37 92 38 34 39 35 40 36 41 86 42 37 43 91 44 85 45
REMARK SMILES IDX 87 46 38 47 90 48 84 49 83 50 39 52 71 53 51 54 70 55 52 56
REMARK SMILES IDX 55 57 69 58 88 59 53 60 54 61 68 63 89 64 56 65 40 66 41 67
REMARK SMILES IDX 49 68 42 69 43 70 47 71 50 72 44 73 45 74 48 75 46 76 72 77
REMARK SMILES IDX 73 78 81 79 74 80 75 81 79 82 82 83 76 84 77 85 80 86 78 87
REMARK SMILES IDX 57 88 58 89 66 90 59 91 60 92 64 93 67 94 61 95 62 96 65 97
REMARK SMILES IDX 63 98
REMARK H PARENT 21 7 4 12 28 32 87 51 55 62
REMARK Flexibility Score: inf
ROOT
ATOM      1  C   UNL A   1      35.874  21.846  24.527  1.00  0.00     0.002 C 
ENDROOT
BRANCH   1   2
ATOM      2  C   UNL A   1      35.172  20.606  25.089  1.00  0.00     0.021 C 
BRANCH   2   3
ATOM      3  C   UNL A   1      34.196  20.905  26.224  1.00  0.00     0.116 C 
BRANCH   3   4
ATOM      4  N   UNL A   1      33.322  22.014  25.909  1.00  0.00    -0.351 N 
ATOM      5  O   UNL A   1      31.680  20.701  25.002  1.00  0.00    -0.269 OA
ATOM      6  C   UNL A   1      32.097  21.814  25.311  1.00  0.00     0.275 C 
ATOM      7  H   UNL A   1      33.608  22.930  26.126  1.00  0.00     0.163 HD
BRANCH   6   8
ATOM      8  C   UNL A   1      31.309  23.098  25.061  1.00  0.00     0.363 C 
BRANCH   8   9
ATOM      9  N   UNL A   1      32.091  24.343  25.037  1.00  0.00    -0.324 N 
ATOM     10  C   UNL A   1      32.433  24.951  23.740  1.00  0.00     0.284 C 
ATOM     11  C   UNL A   1      31.664  25.359  26.012  1.00  0.00     0.284 C 
ATOM     12  H   UNL A   1      32.983  23.955  25.343  1.00  0.00     0.348 HD
ATOM     13  C   UNL A   1      31.440  26.015  23.191  1.00  0.00     0.179 C 
ATOM     14  C   UNL A   1      30.590  26.336  25.490  1.00  0.00     0.179 C 
ATOM     15  N   UNL A   1      31.056  26.962  24.248  1.00  0.00    -0.344 N 
BRANCH  15  16
ATOM     16  C   UNL A   1      30.419  28.137  23.861  1.00  0.00     0.147 A 
ATOM     17  N   UNL A   1      29.420  28.043  22.950  1.00  0.00    -0.237 NA
ATOM     18  C   UNL A   1      30.786  29.396  24.372  1.00  0.00     0.084 A 
ATOM     19  C   UNL A   1      28.765  29.171  22.572  1.00  0.00     0.126 A 
ATOM     20  C   UNL A   1      30.089  30.541  23.972  1.00  0.00     0.039 A 
ATOM     21  Cl  UNL A   1      32.133  29.622  25.435  1.00  0.00    -0.080 Cl
ATOM     22  C   UNL A   1      29.048  30.434  23.052  1.00  0.00     0.075 A 
BRANCH  22  23
ATOM     23  C   UNL A   1      28.238  31.605  22.590  1.00  0.00     0.417 C 
ATOM     24  F   UNL A   1      27.597  31.368  21.415  1.00  0.00    -0.166 F 
ATOM     25  F   UNL A   1      27.278  31.952  23.488  1.00  0.00    -0.166 F 
ATOM     26  F   UNL A   1      28.984  32.726  22.389  1.00  0.00    -0.166 F 
ENDBRANCH  22  23
ENDBRANCH  15  16
ENDBRANCH   8   9
ENDBRANCH   6   8
ENDBRANCH   3   4
ENDBRANCH   2   3
ENDBRANCH   1   2
BRANCH   1  27
ATOM     27  C   UNL A   1      37.403  21.778  24.552  1.00  0.00     0.002 C 
BRANCH  27  28
ATOM     28  C   UNL A   1      38.002  20.451  25.001  1.00  0.00     0.021 C 
BRANCH  28  29
ATOM     29  C   UNL A   1      39.147  20.570  25.999  1.00  0.00     0.116 C 
BRANCH  29  30
ATOM     30  N   UNL A   1      40.038  19.416  26.004  1.00  0.00    -0.352 N 
ATOM     31  C   UNL A   1      41.409  19.367  26.126  1.00  0.00     0.251 C 
ATOM     32  H   UNL A   1      39.594  18.543  25.907  1.00  0.00     0.163 HD
ATOM     33  O   UNL A   1      42.005  18.311  25.980  1.00  0.00    -0.269 OA
BRANCH  31  34
ATOM     34  C   UNL A   1      42.152  20.617  26.401  1.00  0.00     0.039 A 
ATOM     35  C   UNL A   1      42.663  21.358  25.332  1.00  0.00     0.014 A 
ATOM     36  C   UNL A   1      42.289  21.083  27.709  1.00  0.00     0.014 A 
ATOM     37  C   UNL A   1      43.218  22.618  25.572  1.00  0.00     0.010 A 
ATOM     38  C   UNL A   1      42.750  22.373  27.935  1.00  0.00     0.010 A 
ATOM     39  C   UNL A   1      43.215  23.158  26.868  1.00  0.00    -0.014 A 
BRANCH  39  40
ATOM     40  C   UNL A   1      43.674  24.544  27.141  1.00  0.00     0.031 A 
ATOM     41  C   UNL A   1      42.704  25.570  27.658  1.00  0.00     0.074 A 
ATOM     42  C   UNL A   1      44.932  24.905  26.823  1.00  0.00     0.049 A 
ATOM     43  N   UNL A   1      42.878  26.852  27.854  1.00  0.00    -0.248 NA
ATOM     44  C   UNL A   1      41.342  25.099  27.954  1.00  0.00     0.031 C 
ATOM     45  C   UNL A   1      45.950  24.024  26.251  1.00  0.00     0.029 A 
ATOM     46  N   UNL A   1      45.567  26.119  26.926  1.00  0.00    -0.354 N 
ATOM     47  C   UNL A   1      41.643  27.343  28.258  1.00  0.00     0.074 A 
ATOM     48  C   UNL A   1      40.717  26.233  28.228  1.00  0.00     0.031 C 
ATOM     49  C   UNL A   1      47.091  24.713  26.090  1.00  0.00     0.029 A 
ATOM     50  C   UNL A   1      46.874  26.094  26.508  1.00  0.00     0.049 A 
ATOM     51  H   UNL A   1      45.125  26.930  27.267  1.00  0.00     0.167 HD
ATOM     52  C   UNL A   1      41.317  28.600  28.643  1.00  0.00     0.037 A 
ATOM     53  C   UNL A   1      47.796  27.075  26.471  1.00  0.00     0.037 A 
ATOM     54  C   UNL A   1      42.255  29.689  28.723  1.00  0.00     0.049 A 
ATOM     55  C   UNL A   1      47.417  28.455  26.935  1.00  0.00     0.074 A 
ATOM     56  C   UNL A   1      42.050  30.973  29.196  1.00  0.00     0.029 A 
ATOM     57  N   UNL A   1      43.581  29.617  28.322  1.00  0.00    -0.354 N 
ATOM     58  N   UNL A   1      46.269  28.889  27.394  1.00  0.00    -0.248 NA
ATOM     59  C   UNL A   1      48.468  29.480  26.877  1.00  0.00     0.031 C 
ATOM     60  C   UNL A   1      43.242  31.690  29.045  1.00  0.00     0.029 A 
ATOM     61  C   UNL A   1      44.201  30.840  28.517  1.00  0.00     0.049 A 
ATOM     62  H   UNL A   1      44.017  28.815  27.953  1.00  0.00     0.167 HD
ATOM     63  C   UNL A   1      46.465  30.227  27.708  1.00  0.00     0.074 A 
ATOM     64  C   UNL A   1      47.847  30.530  27.397  1.00  0.00     0.031 C 
ATOM     65  C   UNL A   1      45.581  31.123  28.210  1.00  0.00     0.037 A 
BRANCH  52  66
ATOM     66  C   UNL A   1      39.886  28.859  29.012  1.00  0.00     0.064 A 
ATOM     67  C   UNL A   1      39.415  28.674  30.320  1.00  0.00     0.173 A 
ATOM     68  C   UNL A   1      38.973  29.305  28.045  1.00  0.00     0.173 A 
ATOM     69  F   UNL A   1      40.244  28.237  31.280  1.00  0.00    -0.203 F 
ATOM     70  C   UNL A   1      38.076  28.886  30.638  1.00  0.00     0.198 A 
ATOM     71  C   UNL A   1      37.641  29.547  28.373  1.00  0.00     0.198 A 
ATOM     72  F   UNL A   1      39.370  29.503  26.778  1.00  0.00    -0.203 F 
ATOM     73  F   UNL A   1      37.638  28.642  31.882  1.00  0.00    -0.200 F 
ATOM     74  C   UNL A   1      37.191  29.328  29.666  1.00  0.00     0.200 A 
ATOM     75  F   UNL A   1      36.789  29.985  27.435  1.00  0.00    -0.200 F 
ATOM     76  F   UNL A   1      35.903  29.530  29.973  1.00  0.00    -0.200 F 
ENDBRANCH  52  66
BRANCH  53  77
ATOM     77  C   UNL A   1      49.182  26.775  26.031  1.00  0.00     0.064 A 
ATOM     78  C   UNL A   1      49.566  26.994  24.700  1.00  0.00     0.173 A 
ATOM     79  C   UNL A   1      50.146  26.274  26.915  1.00  0.00     0.173 A 
ATOM     80  F   UNL A   1      48.671  27.454  23.813  1.00  0.00    -0.203 F 
ATOM     81  C   UNL A   1      50.859  26.707  24.267  1.00  0.00     0.198 A 
ATOM     82  C   UNL A   1      51.446  26.010  26.487  1.00  0.00     0.198 A 
ATOM     83  F   UNL A   1      49.829  26.052  28.199  1.00  0.00    -0.203 F 
ATOM     84  F   UNL A   1      51.187  26.888  22.981  1.00  0.00    -0.200 F 
ATOM     85  C   UNL A   1      51.799  26.220  25.162  1.00  0.00     0.200 A 
ATOM     86  F   UNL A   1      52.356  25.550  27.356  1.00  0.00    -0.200 F 
ATOM     87  F   UNL A   1      53.043  25.948  24.746  1.00  0.00    -0.200 F 
ENDBRANCH  53  77
BRANCH  65  88
ATOM     88  C   UNL A   1      46.091  32.505  28.490  1.00  0.00     0.064 A 
ATOM     89  C   UNL A   1      46.670  32.840  29.721  1.00  0.00     0.173 A 
ATOM     90  C   UNL A   1      46.027  33.498  27.500  1.00  0.00     0.173 A 
ATOM     91  F   UNL A   1      46.738  31.929  30.705  1.00  0.00    -0.203 F 
ATOM     92  C   UNL A   1      47.143  34.127  29.963  1.00  0.00     0.198 A 
ATOM     93  C   UNL A   1      46.526  34.775  27.734  1.00  0.00     0.198 A 
ATOM     94  F   UNL A   1      45.486  33.225  26.303  1.00  0.00    -0.203 F 
ATOM     95  F   UNL A   1      47.650  34.438  31.163  1.00  0.00    -0.200 F 
ATOM     96  C   UNL A   1      47.077  35.091  28.967  1.00  0.00     0.200 A 
ATOM     97  F   UNL A   1      46.472  35.702  26.768  1.00  0.00    -0.200 F 
ATOM     98  F   UNL A   1      47.537  36.328  29.200  1.00  0.00    -0.200 F 
ENDBRANCH  65  88
ENDBRANCH  39  40
ENDBRANCH  31  34
ENDBRANCH  29  30
ENDBRANCH  28  29
ENDBRANCH  27  28
ENDBRANCH   1  27
TORSDOF 16
ENDMDL
