MODEL 1
REMARK VINA RESULT:     -12.5      0.000      0.000
REMARK SMILES CCSc1ccc(-c2cc(Cl)cc3c2O[C@H](C(F)(F)F)C(C(=O)NCCCCCCNC(=O)c2ccc(-c4c5nc(c(-c6c(F)c(F)c(F)c(F)c6F)c6ccc([nH]6)c(-c6c(F)c(F)c(F)c(F)c6F)c6nc(c(-c7c(F)c(F)c(F)c(F)c7F)c7ccc4[nH]7)C=C6)C=C5)cc2)=C3)cc1
REMARK SMILES IDX 27 1 26 2 25 3 24 4 22 5 23 6 21 8 8 9 9 10 14 11 10 12
REMARK SMILES IDX 13 13 15 14 11 15 12 16 97 17 16 18 7 19 4 20 5 21 99 22
REMARK SMILES IDX 6 23 98 24 3 25 2 26 1 27 17 28 18 29 19 30 20 31 28 32
REMARK SMILES IDX 29 33 30 34 31 35 32 36 33 38 34 39 35 40 96 41 36 42 95 43
REMARK SMILES IDX 37 44 38 45 39 46 89 47 40 48 94 49 88 50 90 51 41 52 93 53
REMARK SMILES IDX 87 54 86 55 42 57 74 58 54 59 73 60 55 61 58 62 72 63 91 64
REMARK SMILES IDX 56 65 57 66 71 68 92 69 59 70 43 71 44 72 52 73 45 74 46 75
REMARK SMILES IDX 50 76 53 77 47 78 48 79 51 80 49 81 75 82 76 83 84 84 77 85
REMARK SMILES IDX 78 86 82 87 85 88 79 89 80 90 83 91 81 92 60 93 61 94 69 95
REMARK SMILES IDX 62 96 63 97 67 98 70 99 64 100 65 101 68 102 66 103
REMARK H PARENT 24 7 31 37 90 56 58 67
REMARK Flexibility Score: inf
ROOT
ATOM      1  C   UNL A   1      36.246  21.095  24.799  1.00  0.00     0.002 C 
ENDROOT
BRANCH   1   2
ATOM      2  C   UNL A   1      34.803  21.276  25.300  1.00  0.00     0.021 C 
BRANCH   2   3
ATOM      3  C   UNL A   1      34.687  21.834  26.726  1.00  0.00     0.116 C 
BRANCH   3   4
ATOM      4  N   UNL A   1      34.467  23.264  26.676  1.00  0.00    -0.352 N 
ATOM      5  C   UNL A   1      33.949  23.921  25.609  1.00  0.00     0.251 C 
ATOM      6  O   UNL A   1      34.541  24.878  25.127  1.00  0.00    -0.270 OA
ATOM      7  H   UNL A   1      34.710  23.795  27.468  1.00  0.00     0.163 HD
BRANCH   5   8
ATOM      8  C   UNL A   1      32.576  23.510  25.198  1.00  0.00     0.067 C 
ATOM      9  C   UNL A   1      31.104  27.161  24.248  1.00  0.00     0.026 A 
ATOM     10  C   UNL A   1      31.534  28.044  25.274  1.00  0.00     0.033 A 
ATOM     11  C   UNL A   1      31.244  25.789  24.507  1.00  0.00     0.135 A 
ATOM     12  C   UNL A   1      31.881  27.597  26.545  1.00  0.00     0.042 A 
ATOM     13  C   UNL A   1      31.480  25.362  25.836  1.00  0.00     0.019 A 
ATOM     14  O   UNL A   1      31.230  24.817  23.512  1.00  0.00    -0.475 OA
ATOM     15  Cl  UNL A   1      32.402  28.723  27.734  1.00  0.00    -0.084 Cl
ATOM     16  C   UNL A   1      31.775  26.257  26.860  1.00  0.00     0.032 A 
ATOM     17  C   UNL A   1      31.631  23.911  26.072  1.00  0.00     0.025 C 
ATOM     18  C   UNL A   1      32.248  23.742  23.731  1.00  0.00     0.314 C 
BRANCH   9  19
ATOM     19  C   UNL A   1      30.314  27.812  23.173  1.00  0.00    -0.015 A 
ATOM     20  C   UNL A   1      28.793  29.918  21.975  1.00  0.00     0.007 A 
ATOM     21  C   UNL A   1      30.164  29.777  21.724  1.00  0.00     0.015 A 
ATOM     22  C   UNL A   1      28.173  28.939  22.751  1.00  0.00     0.015 A 
ATOM     23  C   UNL A   1      30.911  28.736  22.297  1.00  0.00     0.010 A 
ATOM     24  C   UNL A   1      28.917  27.888  23.321  1.00  0.00     0.010 A 
BRANCH  20  25
ATOM     25  S   UNL A   1      28.028  31.398  21.320  1.00  0.00    -0.126 SA
BRANCH  25  26
ATOM     26  C   UNL A   1      28.626  32.782  22.351  1.00  0.00     0.071 C 
ATOM     27  C   UNL A   1      28.939  32.336  23.768  1.00  0.00     0.016 C 
ENDBRANCH  25  26
ENDBRANCH  20  25
ENDBRANCH   9  19
BRANCH  18  28
ATOM     28  C   UNL A   1      31.816  22.387  23.126  1.00  0.00     0.429 C 
ATOM     29  F   UNL A   1      32.527  22.050  22.029  1.00  0.00    -0.167 F 
ATOM     30  F   UNL A   1      31.944  21.383  24.026  1.00  0.00    -0.167 F 
ATOM     31  F   UNL A   1      30.506  22.382  22.751  1.00  0.00    -0.167 F 
ENDBRANCH  18  28
ENDBRANCH   5   8
ENDBRANCH   3   4
ENDBRANCH   2   3
ENDBRANCH   1   2
BRANCH   1  32
ATOM     32  C   UNL A   1      36.823  19.692  25.001  1.00  0.00     0.002 C 
BRANCH  32  33
ATOM     33  C   UNL A   1      38.319  19.578  24.715  1.00  0.00     0.021 C 
BRANCH  33  34
ATOM     34  C   UNL A   1      39.212  19.886  25.910  1.00  0.00     0.116 C 
BRANCH  34  35
ATOM     35  N   UNL A   1      40.378  19.020  25.967  1.00  0.00    -0.352 N 
ATOM     36  C   UNL A   1      41.697  19.358  26.099  1.00  0.00     0.251 C 
ATOM     37  H   UNL A   1      40.192  18.055  25.904  1.00  0.00     0.163 HD
ATOM     38  O   UNL A   1      42.572  18.502  25.951  1.00  0.00    -0.269 OA
BRANCH  36  39
ATOM     39  C   UNL A   1      42.077  20.753  26.397  1.00  0.00     0.039 A 
ATOM     40  C   UNL A   1      42.284  21.122  27.728  1.00  0.00     0.014 A 
ATOM     41  C   UNL A   1      42.208  21.700  25.376  1.00  0.00     0.014 A 
ATOM     42  C   UNL A   1      42.649  22.434  28.031  1.00  0.00     0.010 A 
ATOM     43  C   UNL A   1      42.659  22.982  25.672  1.00  0.00     0.010 A 
ATOM     44  C   UNL A   1      42.858  23.370  27.005  1.00  0.00    -0.014 A 
BRANCH  44  45
ATOM     45  C   UNL A   1      43.242  24.768  27.322  1.00  0.00     0.031 A 
ATOM     46  C   UNL A   1      44.642  25.248  27.045  1.00  0.00     0.074 A 
ATOM     47  C   UNL A   1      42.340  25.599  27.878  1.00  0.00     0.049 A 
ATOM     48  N   UNL A   1      45.169  26.428  27.250  1.00  0.00    -0.248 NA
ATOM     49  C   UNL A   1      45.583  24.262  26.488  1.00  0.00     0.031 C 
ATOM     50  C   UNL A   1      40.971  25.235  28.243  1.00  0.00     0.029 A 
ATOM     51  N   UNL A   1      42.440  26.920  28.233  1.00  0.00    -0.354 N 
ATOM     52  C   UNL A   1      46.497  26.323  26.854  1.00  0.00     0.074 A 
ATOM     53  C   UNL A   1      46.715  24.947  26.466  1.00  0.00     0.031 C 
ATOM     54  C   UNL A   1      40.348  26.316  28.741  1.00  0.00     0.029 A 
ATOM     55  C   UNL A   1      41.283  27.435  28.763  1.00  0.00     0.049 A 
ATOM     56  H   UNL A   1      43.263  27.448  28.119  1.00  0.00     0.167 HD
ATOM     57  C   UNL A   1      47.440  27.292  26.788  1.00  0.00     0.037 A 
ATOM     58  C   UNL A   1      41.008  28.674  29.214  1.00  0.00     0.037 A 
ATOM     59  C   UNL A   1      47.214  28.664  27.162  1.00  0.00     0.049 A 
ATOM     60  C   UNL A   1      42.075  29.734  29.133  1.00  0.00     0.074 A 
ATOM     61  C   UNL A   1      48.088  29.734  27.095  1.00  0.00     0.029 A 
ATOM     62  N   UNL A   1      46.022  29.153  27.680  1.00  0.00    -0.354 N 
ATOM     63  N   UNL A   1      43.305  29.641  28.690  1.00  0.00    -0.248 NA
ATOM     64  C   UNL A   1      41.706  31.077  29.600  1.00  0.00     0.031 C 
ATOM     65  C   UNL A   1      47.444  30.858  27.622  1.00  0.00     0.029 A 
ATOM     66  C   UNL A   1      46.147  30.506  27.956  1.00  0.00     0.049 A 
ATOM     67  H   UNL A   1      45.209  28.618  27.830  1.00  0.00     0.167 HD
ATOM     68  C   UNL A   1      43.848  30.915  28.794  1.00  0.00     0.074 A 
ATOM     69  C   UNL A   1      42.804  31.767  29.325  1.00  0.00     0.031 C 
ATOM     70  C   UNL A   1      45.095  31.342  28.479  1.00  0.00     0.037 A 
BRANCH  57  71
ATOM     71  C   UNL A   1      48.802  26.900  26.287  1.00  0.00     0.064 A 
ATOM     72  C   UNL A   1      49.154  27.023  24.933  1.00  0.00     0.173 A 
ATOM     73  C   UNL A   1      49.777  26.418  27.173  1.00  0.00     0.173 A 
ATOM     74  F   UNL A   1      48.257  27.467  24.040  1.00  0.00    -0.203 F 
ATOM     75  C   UNL A   1      50.416  26.644  24.481  1.00  0.00     0.198 A 
ATOM     76  C   UNL A   1      51.050  26.073  26.724  1.00  0.00     0.198 A 
ATOM     77  F   UNL A   1      49.499  26.284  28.479  1.00  0.00    -0.203 F 
ATOM     78  F   UNL A   1      50.706  26.713  23.174  1.00  0.00    -0.200 F 
ATOM     79  C   UNL A   1      51.365  26.177  25.378  1.00  0.00     0.200 A 
ATOM     80  F   UNL A   1      51.970  25.637  27.594  1.00  0.00    -0.200 F 
ATOM     81  F   UNL A   1      52.580  25.818  24.942  1.00  0.00    -0.200 F 
ENDBRANCH  57  71
BRANCH  58  82
ATOM     82  C   UNL A   1      39.659  28.985  29.755  1.00  0.00     0.064 A 
ATOM     83  C   UNL A   1      38.643  29.483  28.928  1.00  0.00     0.173 A 
ATOM     84  C   UNL A   1      39.358  28.793  31.112  1.00  0.00     0.173 A 
ATOM     85  F   UNL A   1      38.886  29.701  27.626  1.00  0.00    -0.203 F 
ATOM     86  C   UNL A   1      37.388  29.804  29.440  1.00  0.00     0.198 A 
ATOM     87  C   UNL A   1      38.092  29.082  31.617  1.00  0.00     0.198 A 
ATOM     88  F   UNL A   1      40.292  28.310  31.946  1.00  0.00    -0.203 F 
ATOM     89  F   UNL A   1      36.452  30.329  28.637  1.00  0.00    -0.200 F 
ATOM     90  C   UNL A   1      37.112  29.597  30.783  1.00  0.00     0.200 A 
ATOM     91  F   UNL A   1      37.824  28.864  32.912  1.00  0.00    -0.200 F 
ATOM     92  F   UNL A   1      35.903  29.902  31.276  1.00  0.00    -0.200 F 
ENDBRANCH  58  82
BRANCH  70  93
ATOM     93  C   UNL A   1      45.386  32.805  28.657  1.00  0.00     0.064 A 
ATOM     94  C   UNL A   1      45.116  33.744  27.650  1.00  0.00     0.173 A 
ATOM     95  C   UNL A   1      45.924  33.278  29.864  1.00  0.00     0.173 A 
ATOM     96  F   UNL A   1      44.614  33.344  26.472  1.00  0.00    -0.203 F 
ATOM     97  C   UNL A   1      45.412  35.093  27.829  1.00  0.00     0.198 A 
ATOM     98  C   UNL A   1      46.183  34.632  30.055  1.00  0.00     0.198 A 
ATOM     99  F   UNL A   1      46.192  32.426  30.866  1.00  0.00    -0.203 F 
ATOM    100  F   UNL A   1      45.205  35.961  26.830  1.00  0.00    -0.200 F 
ATOM    101  C   UNL A   1      45.938  35.537  29.033  1.00  0.00     0.200 A 
ATOM    102  F   UNL A   1      46.674  35.061  31.226  1.00  0.00    -0.200 F 
ATOM    103  F   UNL A   1      46.218  36.836  29.206  1.00  0.00    -0.200 F 
ENDBRANCH  70  93
ENDBRANCH  44  45
ENDBRANCH  36  39
ENDBRANCH  34  35
ENDBRANCH  33  34
ENDBRANCH  32  33
ENDBRANCH   1  32
TORSDOF 17
ENDMDL
MODEL 2
REMARK VINA RESULT:     -12.3      0.621      7.039
REMARK SMILES CCSc1ccc(-c2cc(Cl)cc3c2O[C@H](C(F)(F)F)C(C(=O)NCCCCCCNC(=O)c2ccc(-c4c5nc(c(-c6c(F)c(F)c(F)c(F)c6F)c6ccc([nH]6)c(-c6c(F)c(F)c(F)c(F)c6F)c6nc(c(-c7c(F)c(F)c(F)c(F)c7F)c7ccc4[nH]7)C=C6)C=C5)cc2)=C3)cc1
REMARK SMILES IDX 27 1 26 2 25 3 24 4 22 5 23 6 21 8 8 9 9 10 14 11 10 12
REMARK SMILES IDX 13 13 15 14 11 15 12 16 97 17 16 18 7 19 4 20 5 21 99 22
REMARK SMILES IDX 6 23 98 24 3 25 2 26 1 27 17 28 18 29 19 30 20 31 28 32
REMARK SMILES IDX 29 33 30 34 31 35 32 36 33 38 34 39 35 40 96 41 36 42 95 43
REMARK SMILES IDX 37 44 38 45 39 46 89 47 40 48 94 49 88 50 90 51 41 52 93 53
REMARK SMILES IDX 87 54 86 55 42 57 74 58 54 59 73 60 55 61 58 62 72 63 91 64
REMARK SMILES IDX 56 65 57 66 71 68 92 69 59 70 43 71 44 72 52 73 45 74 46 75
REMARK SMILES IDX 50 76 53 77 47 78 48 79 51 80 49 81 75 82 76 83 84 84 77 85
REMARK SMILES IDX 78 86 82 87 85 88 79 89 80 90 83 91 81 92 60 93 61 94 69 95
REMARK SMILES IDX 62 96 63 97 67 98 70 99 64 100 65 101 68 102 66 103
REMARK H PARENT 24 7 31 37 90 56 58 67
REMARK Flexibility Score: inf
ROOT
ATOM      1  C   UNL A   1      36.490  21.172  25.181  1.00  0.00     0.002 C 
ENDROOT
BRANCH   1   2
ATOM      2  C   UNL A   1      35.127  21.334  25.875  1.00  0.00     0.021 C 
BRANCH   2   3
ATOM      3  C   UNL A   1      35.106  22.368  27.010  1.00  0.00     0.116 C 
BRANCH   3   4
ATOM      4  N   UNL A   1      35.007  23.702  26.455  1.00  0.00    -0.352 N 
ATOM      5  C   UNL A   1      34.430  23.993  25.262  1.00  0.00     0.251 C 
ATOM      6  O   UNL A   1      35.046  24.636  24.421  1.00  0.00    -0.270 OA
ATOM      7  H   UNL A   1      35.383  24.446  26.977  1.00  0.00     0.163 HD
BRANCH   5   8
ATOM      8  C   UNL A   1      32.989  23.634  25.134  1.00  0.00     0.067 C 
ATOM      9  C   UNL A   1      31.532  27.286  24.164  1.00  0.00     0.026 A 
ATOM     10  C   UNL A   1      32.178  28.214  25.023  1.00  0.00     0.033 A 
ATOM     11  C   UNL A   1      31.657  25.930  24.504  1.00  0.00     0.135 A 
ATOM     12  C   UNL A   1      32.727  27.840  26.246  1.00  0.00     0.042 A 
ATOM     13  C   UNL A   1      32.108  25.587  25.802  1.00  0.00     0.019 A 
ATOM     14  O   UNL A   1      31.422  24.891  23.609  1.00  0.00    -0.475 OA
ATOM     15  Cl  UNL A   1      33.502  29.017  27.230  1.00  0.00    -0.084 Cl
ATOM     16  C   UNL A   1      32.621  26.535  26.682  1.00  0.00     0.032 A 
ATOM     17  C   UNL A   1      32.235  24.150  26.125  1.00  0.00     0.025 C 
ATOM     18  C   UNL A   1      32.414  23.778  23.733  1.00  0.00     0.314 C 
BRANCH   9  19
ATOM     19  C   UNL A   1      30.592  27.902  23.194  1.00  0.00    -0.015 A 
ATOM     20  C   UNL A   1      28.654  29.809  22.304  1.00  0.00     0.007 A 
ATOM     21  C   UNL A   1      30.017  29.967  22.018  1.00  0.00     0.015 A 
ATOM     22  C   UNL A   1      28.261  28.639  22.954  1.00  0.00     0.015 A 
ATOM     23  C   UNL A   1      30.969  29.026  22.438  1.00  0.00     0.010 A 
ATOM     24  C   UNL A   1      29.213  27.687  23.371  1.00  0.00     0.010 A 
BRANCH  20  25
ATOM     25  S   UNL A   1      27.598  31.183  21.859  1.00  0.00    -0.126 SA
BRANCH  25  26
ATOM     26  C   UNL A   1      28.685  32.647  21.744  1.00  0.00     0.071 C 
ATOM     27  C   UNL A   1      28.870  33.319  23.092  1.00  0.00     0.016 C 
ENDBRANCH  25  26
ENDBRANCH  20  25
ENDBRANCH   9  19
BRANCH  18  28
ATOM     28  C   UNL A   1      31.822  22.409  23.325  1.00  0.00     0.429 C 
ATOM     29  F   UNL A   1      32.475  21.842  22.289  1.00  0.00    -0.167 F 
ATOM     30  F   UNL A   1      31.846  21.535  24.359  1.00  0.00    -0.167 F 
ATOM     31  F   UNL A   1      30.515  22.503  22.950  1.00  0.00    -0.167 F 
ENDBRANCH  18  28
ENDBRANCH   5   8
ENDBRANCH   3   4
ENDBRANCH   2   3
ENDBRANCH   1   2
BRANCH   1  32
ATOM     32  C   UNL A   1      36.891  19.724  24.889  1.00  0.00     0.002 C 
BRANCH  32  33
ATOM     33  C   UNL A   1      38.390  19.518  24.670  1.00  0.00     0.021 C 
BRANCH  33  34
ATOM     34  C   UNL A   1      39.256  19.879  25.869  1.00  0.00     0.116 C 
BRANCH  34  35
ATOM     35  N   UNL A   1      40.369  18.962  26.044  1.00  0.00    -0.352 N 
ATOM     36  C   UNL A   1      41.694  19.242  26.237  1.00  0.00     0.251 C 
ATOM     37  H   UNL A   1      40.137  18.005  26.022  1.00  0.00     0.163 HD
ATOM     38  O   UNL A   1      42.531  18.338  26.190  1.00  0.00    -0.269 OA
BRANCH  36  39
ATOM     39  C   UNL A   1      42.128  20.632  26.483  1.00  0.00     0.039 A 
ATOM     40  C   UNL A   1      42.423  21.021  27.791  1.00  0.00     0.014 A 
ATOM     41  C   UNL A   1      42.224  21.554  25.436  1.00  0.00     0.014 A 
ATOM     42  C   UNL A   1      42.840  22.328  28.044  1.00  0.00     0.010 A 
ATOM     43  C   UNL A   1      42.726  22.829  25.678  1.00  0.00     0.010 A 
ATOM     44  C   UNL A   1      43.013  23.237  26.988  1.00  0.00    -0.014 A 
BRANCH  44  45
ATOM     45  C   UNL A   1      43.452  24.630  27.252  1.00  0.00     0.031 A 
ATOM     46  C   UNL A   1      42.468  25.648  27.764  1.00  0.00     0.074 A 
ATOM     47  C   UNL A   1      44.728  24.985  27.011  1.00  0.00     0.049 A 
ATOM     48  N   UNL A   1      42.656  26.910  28.054  1.00  0.00    -0.248 NA
ATOM     49  C   UNL A   1      41.079  25.194  27.947  1.00  0.00     0.031 C 
ATOM     50  C   UNL A   1      45.760  24.104  26.464  1.00  0.00     0.029 A 
ATOM     51  N   UNL A   1      45.374  26.181  27.195  1.00  0.00    -0.354 N 
ATOM     52  C   UNL A   1      41.416  27.397  28.447  1.00  0.00     0.074 A 
ATOM     53  C   UNL A   1      40.468  26.317  28.289  1.00  0.00     0.031 C 
ATOM     54  C   UNL A   1      46.918  24.779  26.387  1.00  0.00     0.029 A 
ATOM     55  C   UNL A   1      46.701  26.148  26.845  1.00  0.00     0.049 A 
ATOM     56  H   UNL A   1      44.929  26.986  27.546  1.00  0.00     0.167 HD
ATOM     57  C   UNL A   1      41.102  28.623  28.930  1.00  0.00     0.037 A 
ATOM     58  C   UNL A   1      47.638  27.115  26.890  1.00  0.00     0.037 A 
ATOM     59  C   UNL A   1      42.053  29.690  29.099  1.00  0.00     0.049 A 
ATOM     60  C   UNL A   1      47.263  28.470  27.426  1.00  0.00     0.074 A 
ATOM     61  C   UNL A   1      41.847  30.957  29.616  1.00  0.00     0.029 A 
ATOM     62  N   UNL A   1      43.394  29.615  28.747  1.00  0.00    -0.354 N 
ATOM     63  N   UNL A   1      46.103  28.898  27.862  1.00  0.00    -0.248 NA
ATOM     64  C   UNL A   1      48.335  29.472  27.492  1.00  0.00     0.031 C 
ATOM     65  C   UNL A   1      43.050  31.665  29.529  1.00  0.00     0.029 A 
ATOM     66  C   UNL A   1      44.022  30.820  29.019  1.00  0.00     0.049 A 
ATOM     67  H   UNL A   1      43.832  28.822  28.362  1.00  0.00     0.167 HD
ATOM     68  C   UNL A   1      46.311  30.206  28.283  1.00  0.00     0.074 A 
ATOM     69  C   UNL A   1      47.714  30.492  28.066  1.00  0.00     0.031 C 
ATOM     70  C   UNL A   1      45.422  31.088  28.802  1.00  0.00     0.037 A 
BRANCH  57  71
ATOM     71  C   UNL A   1      39.669  28.871  29.311  1.00  0.00     0.064 A 
ATOM     72  C   UNL A   1      39.202  28.637  30.615  1.00  0.00     0.173 A 
ATOM     73  C   UNL A   1      38.755  29.370  28.371  1.00  0.00     0.173 A 
ATOM     74  F   UNL A   1      40.029  28.149  31.551  1.00  0.00    -0.203 F 
ATOM     75  C   UNL A   1      37.868  28.859  30.951  1.00  0.00     0.198 A 
ATOM     76  C   UNL A   1      37.431  29.625  28.720  1.00  0.00     0.198 A 
ATOM     77  F   UNL A   1      39.147  29.617  27.111  1.00  0.00    -0.203 F 
ATOM     78  F   UNL A   1      37.434  28.570  32.186  1.00  0.00    -0.200 F 
ATOM     79  C   UNL A   1      36.986  29.359  30.006  1.00  0.00     0.200 A 
ATOM     80  F   UNL A   1      36.584  30.123  27.809  1.00  0.00    -0.200 F 
ATOM     81  F   UNL A   1      35.705  29.577  30.333  1.00  0.00    -0.200 F 
ENDBRANCH  57  71
BRANCH  58  82
ATOM     82  C   UNL A   1      49.025  26.825  26.440  1.00  0.00     0.064 A 
ATOM     83  C   UNL A   1      49.411  27.024  25.106  1.00  0.00     0.173 A 
ATOM     84  C   UNL A   1      49.993  26.342  27.331  1.00  0.00     0.173 A 
ATOM     85  F   UNL A   1      48.517  27.468  24.210  1.00  0.00    -0.203 F 
ATOM     86  C   UNL A   1      50.701  26.723  24.676  1.00  0.00     0.198 A 
ATOM     87  C   UNL A   1      51.294  26.073  26.908  1.00  0.00     0.198 A 
ATOM     88  F   UNL A   1      49.679  26.142  28.621  1.00  0.00    -0.203 F 
ATOM     89  F   UNL A   1      51.027  26.872  23.385  1.00  0.00    -0.200 F 
ATOM     90  C   UNL A   1      51.643  26.254  25.579  1.00  0.00     0.200 A 
ATOM     91  F   UNL A   1      52.205  25.638  27.789  1.00  0.00    -0.200 F 
ATOM     92  F   UNL A   1      52.887  25.969  25.167  1.00  0.00    -0.200 F 
ENDBRANCH  58  82
BRANCH  70  93
ATOM     93  C   UNL A   1      45.950  32.433  29.215  1.00  0.00     0.064 A 
ATOM     94  C   UNL A   1      46.462  32.668  30.500  1.00  0.00     0.173 A 
ATOM     95  C   UNL A   1      45.964  33.498  28.300  1.00  0.00     0.173 A 
ATOM     96  F   UNL A   1      46.460  31.688  31.417  1.00  0.00    -0.203 F 
ATOM     97  C   UNL A   1      46.929  33.927  30.867  1.00  0.00     0.198 A 
ATOM     98  C   UNL A   1      46.467  34.746  28.658  1.00  0.00     0.198 A 
ATOM     99  F   UNL A   1      45.498  33.327  27.054  1.00  0.00    -0.203 F 
ATOM    100  F   UNL A   1      47.352  34.145  32.119  1.00  0.00    -0.200 F 
ATOM    101  C   UNL A   1      46.937  34.963  29.943  1.00  0.00     0.200 A 
ATOM    102  F   UNL A   1      46.493  35.739  27.759  1.00  0.00    -0.200 F 
ATOM    103  F   UNL A   1      47.391  36.173  30.297  1.00  0.00    -0.200 F 
ENDBRANCH  70  93
ENDBRANCH  44  45
ENDBRANCH  36  39
ENDBRANCH  34  35
ENDBRANCH  33  34
ENDBRANCH  32  33
ENDBRANCH   1  32
TORSDOF 17
ENDMDL
MODEL 3
REMARK VINA RESULT:     -11.9      2.915      4.028
REMARK SMILES CCSc1ccc(-c2cc(Cl)cc3c2O[C@H](C(F)(F)F)C(C(=O)NCCCCCCNC(=O)c2ccc(-c4c5nc(c(-c6c(F)c(F)c(F)c(F)c6F)c6ccc([nH]6)c(-c6c(F)c(F)c(F)c(F)c6F)c6nc(c(-c7c(F)c(F)c(F)c(F)c7F)c7ccc4[nH]7)C=C6)C=C5)cc2)=C3)cc1
REMARK SMILES IDX 27 1 26 2 25 3 24 4 22 5 23 6 21 8 8 9 9 10 14 11 10 12
REMARK SMILES IDX 13 13 15 14 11 15 12 16 97 17 16 18 7 19 4 20 5 21 99 22
REMARK SMILES IDX 6 23 98 24 3 25 2 26 1 27 17 28 18 29 19 30 20 31 28 32
REMARK SMILES IDX 29 33 30 34 31 35 32 36 33 38 34 39 35 40 96 41 36 42 95 43
REMARK SMILES IDX 37 44 38 45 39 46 89 47 40 48 94 49 88 50 90 51 41 52 93 53
REMARK SMILES IDX 87 54 86 55 42 57 74 58 54 59 73 60 55 61 58 62 72 63 91 64
REMARK SMILES IDX 56 65 57 66 71 68 92 69 59 70 43 71 44 72 52 73 45 74 46 75
REMARK SMILES IDX 50 76 53 77 47 78 48 79 51 80 49 81 75 82 76 83 84 84 77 85
REMARK SMILES IDX 78 86 82 87 85 88 79 89 80 90 83 91 81 92 60 93 61 94 69 95
REMARK SMILES IDX 62 96 63 97 67 98 70 99 64 100 65 101 68 102 66 103
REMARK H PARENT 24 7 31 37 90 56 58 67
REMARK Flexibility Score: inf
ROOT
ATOM      1  C   UNL A   1      40.672  21.004  25.821  1.00  0.00     0.002 C 
ENDROOT
BRANCH   1   2
ATOM      2  C   UNL A   1      39.238  20.553  26.149  1.00  0.00     0.021 C 
BRANCH   2   3
ATOM      3  C   UNL A   1      38.513  19.840  24.998  1.00  0.00     0.116 C 
BRANCH   3   4
ATOM      4  N   UNL A   1      37.128  20.261  24.957  1.00  0.00    -0.352 N 
ATOM      5  C   UNL A   1      36.644  21.358  25.591  1.00  0.00     0.251 C 
ATOM      6  O   UNL A   1      35.680  21.261  26.340  1.00  0.00    -0.270 OA
ATOM      7  H   UNL A   1      36.497  19.715  24.436  1.00  0.00     0.163 HD
BRANCH   5   8
ATOM      8  C   UNL A   1      37.243  22.661  25.183  1.00  0.00     0.067 C 
ATOM      9  C   UNL A   1      33.824  24.756  24.618  1.00  0.00     0.026 A 
ATOM     10  C   UNL A   1      32.936  23.892  23.924  1.00  0.00     0.033 A 
ATOM     11  C   UNL A   1      35.169  24.358  24.671  1.00  0.00     0.135 A 
ATOM     12  C   UNL A   1      33.386  22.820  23.158  1.00  0.00     0.042 A 
ATOM     13  C   UNL A   1      35.618  23.343  23.792  1.00  0.00     0.019 A 
ATOM     14  O   UNL A   1      36.081  24.861  25.592  1.00  0.00    -0.475 OA
ATOM     15  Cl  UNL A   1      32.252  21.810  22.353  1.00  0.00    -0.084 Cl
ATOM     16  C   UNL A   1      34.740  22.589  23.020  1.00  0.00     0.032 A 
ATOM     17  C   UNL A   1      37.038  22.940  23.880  1.00  0.00     0.025 C 
ATOM     18  C   UNL A   1      36.993  23.812  26.145  1.00  0.00     0.314 C 
BRANCH   9  19
ATOM     19  C   UNL A   1      33.252  26.087  24.943  1.00  0.00    -0.015 A 
ATOM     20  C   UNL A   1      33.204  28.665  26.183  1.00  0.00     0.007 A 
ATOM     21  C   UNL A   1      33.653  28.498  24.866  1.00  0.00     0.015 A 
ATOM     22  C   UNL A   1      32.689  27.545  26.837  1.00  0.00     0.015 A 
ATOM     23  C   UNL A   1      33.663  27.238  24.248  1.00  0.00     0.010 A 
ATOM     24  C   UNL A   1      32.689  26.280  26.217  1.00  0.00     0.010 A 
BRANCH  20  25
ATOM     25  S   UNL A   1      33.427  30.296  26.884  1.00  0.00    -0.126 SA
BRANCH  25  26
ATOM     26  C   UNL A   1      35.009  30.250  27.795  1.00  0.00     0.071 C 
ATOM     27  C   UNL A   1      35.470  31.638  28.198  1.00  0.00     0.016 C 
ENDBRANCH  25  26
ENDBRANCH  20  25
ENDBRANCH   9  19
BRANCH  18  28
ATOM     28  C   UNL A   1      38.368  24.383  26.561  1.00  0.00     0.429 C 
ATOM     29  F   UNL A   1      39.146  24.703  25.505  1.00  0.00    -0.167 F 
ATOM     30  F   UNL A   1      38.230  25.492  27.325  1.00  0.00    -0.167 F 
ATOM     31  F   UNL A   1      39.086  23.503  27.314  1.00  0.00    -0.167 F 
ENDBRANCH  18  28
ENDBRANCH   5   8
ENDBRANCH   3   4
ENDBRANCH   2   3
ENDBRANCH   1   2
BRANCH   1  32
ATOM     32  C   UNL A   1      41.763  20.319  26.648  1.00  0.00     0.002 C 
BRANCH  32  33
ATOM     33  C   UNL A   1      42.176  18.942  26.129  1.00  0.00     0.021 C 
BRANCH  33  34
ATOM     34  C   UNL A   1      43.682  18.723  26.060  1.00  0.00     0.116 C 
BRANCH  34  35
ATOM     35  N   UNL A   1      44.168  18.652  24.692  1.00  0.00    -0.352 N 
ATOM     36  C   UNL A   1      44.616  19.661  23.884  1.00  0.00     0.251 C 
ATOM     37  H   UNL A   1      44.178  17.753  24.292  1.00  0.00     0.163 HD
ATOM     38  O   UNL A   1      44.826  19.448  22.688  1.00  0.00    -0.269 OA
BRANCH  36  39
ATOM     39  C   UNL A   1      44.830  21.013  24.437  1.00  0.00     0.039 A 
ATOM     40  C   UNL A   1      44.141  22.087  23.870  1.00  0.00     0.014 A 
ATOM     41  C   UNL A   1      45.721  21.229  25.494  1.00  0.00     0.014 A 
ATOM     42  C   UNL A   1      44.325  23.371  24.381  1.00  0.00     0.010 A 
ATOM     43  C   UNL A   1      45.834  22.494  26.059  1.00  0.00     0.010 A 
ATOM     44  C   UNL A   1      45.158  23.583  25.491  1.00  0.00    -0.014 A 
BRANCH  44  45
ATOM     45  C   UNL A   1      45.361  24.949  26.036  1.00  0.00     0.031 A 
ATOM     46  C   UNL A   1      46.726  25.582  25.997  1.00  0.00     0.074 A 
ATOM     47  C   UNL A   1      44.324  25.610  26.585  1.00  0.00     0.049 A 
ATOM     48  N   UNL A   1      47.106  26.761  26.421  1.00  0.00    -0.248 NA
ATOM     49  C   UNL A   1      47.818  24.772  25.432  1.00  0.00     0.031 C 
ATOM     50  C   UNL A   1      42.968  25.080  26.730  1.00  0.00     0.029 A 
ATOM     51  N   UNL A   1      44.250  26.869  27.123  1.00  0.00    -0.354 N 
ATOM     52  C   UNL A   1      48.472  26.829  26.178  1.00  0.00     0.074 A 
ATOM     53  C   UNL A   1      48.870  25.548  25.639  1.00  0.00     0.031 C 
ATOM     54  C   UNL A   1      42.188  26.020  27.289  1.00  0.00     0.029 A 
ATOM     55  C   UNL A   1      42.996  27.201  27.573  1.00  0.00     0.049 A 
ATOM     56  H   UNL A   1      45.022  27.477  27.181  1.00  0.00     0.167 HD
ATOM     57  C   UNL A   1      49.312  27.876  26.356  1.00  0.00     0.037 A 
ATOM     58  C   UNL A   1      42.549  28.334  28.150  1.00  0.00     0.037 A 
ATOM     59  C   UNL A   1      48.908  29.154  26.880  1.00  0.00     0.049 A 
ATOM     60  C   UNL A   1      43.505  29.482  28.341  1.00  0.00     0.074 A 
ATOM     61  C   UNL A   1      49.671  30.294  27.064  1.00  0.00     0.029 A 
ATOM     62  N   UNL A   1      47.624  29.459  27.312  1.00  0.00    -0.354 N 
ATOM     63  N   UNL A   1      44.779  29.560  28.042  1.00  0.00    -0.248 NA
ATOM     64  C   UNL A   1      42.952  30.706  28.935  1.00  0.00     0.031 C 
ATOM     65  C   UNL A   1      48.862  31.271  27.654  1.00  0.00     0.029 A 
ATOM     66  C   UNL A   1      47.579  30.763  27.778  1.00  0.00     0.049 A 
ATOM     67  H   UNL A   1      46.859  28.840  27.289  1.00  0.00     0.167 HD
ATOM     68  C   UNL A   1      45.173  30.847  28.380  1.00  0.00     0.074 A 
ATOM     69  C   UNL A   1      43.997  31.521  28.890  1.00  0.00     0.031 C 
ATOM     70  C   UNL A   1      46.398  31.421  28.278  1.00  0.00     0.037 A 
BRANCH  57  71
ATOM     71  C   UNL A   1      50.754  27.679  25.976  1.00  0.00     0.064 A 
ATOM     72  C   UNL A   1      51.199  27.855  24.656  1.00  0.00     0.173 A 
ATOM     73  C   UNL A   1      51.707  27.334  26.946  1.00  0.00     0.173 A 
ATOM     74  F   UNL A   1      50.328  28.173  23.686  1.00  0.00    -0.203 F 
ATOM     75  C   UNL A   1      52.535  27.656  24.316  1.00  0.00     0.198 A 
ATOM     76  C   UNL A   1      53.049  27.172  26.609  1.00  0.00     0.198 A 
ATOM     77  F   UNL A   1      51.340  27.158  28.224  1.00  0.00    -0.203 F 
ATOM     78  F   UNL A   1      52.922  27.770  23.038  1.00  0.00    -0.200 F 
ATOM     79  C   UNL A   1      53.460  27.323  25.294  1.00  0.00     0.200 A 
ATOM     80  F   UNL A   1      53.944  26.864  27.558  1.00  0.00    -0.200 F 
ATOM     81  F   UNL A   1      54.746  27.138  24.965  1.00  0.00    -0.200 F 
ENDBRANCH  57  71
BRANCH  58  82
ATOM     82  C   UNL A   1      41.126  28.445  28.561  1.00  0.00     0.064 A 
ATOM     83  C   UNL A   1      40.150  28.919  27.672  1.00  0.00     0.173 A 
ATOM     84  C   UNL A   1      40.710  28.083  29.851  1.00  0.00     0.173 A 
ATOM     85  F   UNL A   1      40.499  29.295  26.433  1.00  0.00    -0.203 F 
ATOM     86  C   UNL A   1      38.820  29.054  28.067  1.00  0.00     0.198 A 
ATOM     87  C   UNL A   1      39.374  28.186  30.233  1.00  0.00     0.198 A 
ATOM     88  F   UNL A   1      41.602  27.615  30.737  1.00  0.00    -0.203 F 
ATOM     89  F   UNL A   1      37.919  29.559  27.214  1.00  0.00    -0.200 F 
ATOM     90  C   UNL A   1      38.432  28.681  29.345  1.00  0.00     0.200 A 
ATOM     91  F   UNL A   1      39.001  27.807  31.463  1.00  0.00    -0.200 F 
ATOM     92  F   UNL A   1      37.152  28.806  29.722  1.00  0.00    -0.200 F 
ENDBRANCH  58  82
BRANCH  70  93
ATOM     93  C   UNL A   1      46.517  32.863  28.684  1.00  0.00     0.064 A 
ATOM     94  C   UNL A   1      46.848  33.241  29.993  1.00  0.00     0.173 A 
ATOM     95  C   UNL A   1      46.317  33.882  27.739  1.00  0.00     0.173 A 
ATOM     96  F   UNL A   1      47.037  32.308  30.938  1.00  0.00    -0.203 F 
ATOM     97  C   UNL A   1      46.935  34.584  30.352  1.00  0.00     0.198 A 
ATOM     98  C   UNL A   1      46.442  35.223  28.091  1.00  0.00     0.198 A 
ATOM     99  F   UNL A   1      46.009  33.578  26.469  1.00  0.00    -0.203 F 
ATOM    100  F   UNL A   1      47.189  34.921  31.623  1.00  0.00    -0.200 F 
ATOM    101  C   UNL A   1      46.739  35.573  29.399  1.00  0.00     0.200 A 
ATOM    102  F   UNL A   1      46.271  36.176  27.165  1.00  0.00    -0.200 F 
ATOM    103  F   UNL A   1      46.827  36.865  29.745  1.00  0.00    -0.200 F 
ENDBRANCH  70  93
ENDBRANCH  44  45
ENDBRANCH  36  39
ENDBRANCH  34  35
ENDBRANCH  33  34
ENDBRANCH  32  33
ENDBRANCH   1  32
TORSDOF 17
ENDMDL
