MODEL 1
REMARK VINA RESULT:     -12.4      0.000      0.000
REMARK SMILES Cc1ccccc1O[C@@H](C)C(=O)Oc1ccccc1C(=O)NCCCCCCNC(=O)c1ccc(-c2c3nc(c(-c4c(F)c(F)c(F)c(F)c4F)c4ccc([nH]4)c(-c4c(F)c(F)c(F)c(F)c4F)c4nc(c(-c5c(F)c(F)c(F)c(F)c5F)c5ccc2[nH]5)C=C4)C=C3)cc1
REMARK SMILES IDX 24 1 23 2 22 3 20 4 21 5 19 7 14 8 15 9 16 10 18 11 17 12
REMARK SMILES IDX 13 13 11 14 12 15 9 16 10 17 8 18 7 19 1 20 2 21 3 22 4 23
REMARK SMILES IDX 6 24 5 25 25 26 26 27 27 28 28 29 29 30 30 31 31 33 32 34
REMARK SMILES IDX 33 35 94 36 34 37 93 38 35 39 36 40 37 41 87 42 38 43 92 44
REMARK SMILES IDX 86 45 88 46 39 47 91 48 85 49 84 50 40 52 72 53 52 54 71 55
REMARK SMILES IDX 53 56 56 57 70 58 89 59 54 60 55 61 69 63 90 64 57 65 41 66
REMARK SMILES IDX 42 67 50 68 43 69 44 70 48 71 51 72 45 73 46 74 49 75 47 76
REMARK SMILES IDX 73 77 74 78 82 79 75 80 76 81 80 82 83 83 77 84 78 85 81 86
REMARK SMILES IDX 79 87 58 88 59 89 67 90 60 91 61 92 65 93 68 94 62 95 63 96
REMARK SMILES IDX 66 97 64 98
REMARK H PARENT 22 6 29 32 88 51 56 62
REMARK Flexibility Score: inf
ROOT
ATOM      1  C   UNL A   1      33.761  27.237  25.495  1.00  0.00     0.021 C 
ENDROOT
BRANCH   1   2
ATOM      2  C   UNL A   1      34.111  25.759  25.325  1.00  0.00     0.116 C 
BRANCH   2   3
ATOM      3  N   UNL A   1      34.095  25.244  23.969  1.00  0.00    -0.352 N 
ATOM      4  C   UNL A   1      34.648  24.085  23.455  1.00  0.00     0.255 C 
ATOM      5  O   UNL A   1      34.329  23.721  22.326  1.00  0.00    -0.269 OA
ATOM      6  H   UNL A   1      33.617  25.804  23.315  1.00  0.00     0.163 HD
BRANCH   4   7
ATOM      7  C   UNL A   1      35.611  23.264  24.239  1.00  0.00     0.082 A 
ATOM      8  C   UNL A   1      35.364  21.923  24.573  1.00  0.00     0.143 A 
ATOM      9  C   UNL A   1      36.271  21.190  25.352  1.00  0.00     0.048 A 
ATOM     10  C   UNL A   1      37.431  21.793  25.827  1.00  0.00     0.004 A 
ATOM     11  C   UNL A   1      36.751  23.871  24.791  1.00  0.00     0.018 A 
ATOM     12  C   UNL A   1      37.662  23.139  25.562  1.00  0.00     0.001 A 
BRANCH   8  13
ATOM     13  O   UNL A   1      34.126  21.253  24.413  1.00  0.00    -0.423 OA
BRANCH  13  14
ATOM     14  C   UNL A   1      33.261  20.865  25.421  1.00  0.00     0.352 C 
ATOM     15  O   UNL A   1      32.919  19.707  25.642  1.00  0.00    -0.247 OA
BRANCH  14  16
ATOM     16  C   UNL A   1      32.803  22.098  26.248  1.00  0.00     0.280 C 
ATOM     17  C   UNL A   1      33.348  22.084  27.679  1.00  0.00     0.066 C 
BRANCH  16  18
ATOM     18  O   UNL A   1      31.521  22.700  26.264  1.00  0.00    -0.479 OA
BRANCH  18  19
ATOM     19  C   UNL A   1      31.110  23.750  25.504  1.00  0.00     0.123 A 
ATOM     20  C   UNL A   1      31.151  22.748  23.109  1.00  0.00     0.048 C 
ATOM     21  C   UNL A   1      30.931  23.841  24.116  1.00  0.00    -0.009 A 
ATOM     22  C   UNL A   1      30.388  25.036  23.584  1.00  0.00     0.007 A 
ATOM     23  C   UNL A   1      30.011  26.103  24.396  1.00  0.00     0.001 A 
ATOM     24  C   UNL A   1      30.707  24.833  26.310  1.00  0.00     0.047 A 
ATOM     25  C   UNL A   1      30.165  25.999  25.769  1.00  0.00     0.004 A 
ENDBRANCH  18  19
ENDBRANCH  16  18
ENDBRANCH  14  16
ENDBRANCH  13  14
ENDBRANCH   8  13
ENDBRANCH   4   7
ENDBRANCH   2   3
ENDBRANCH   1   2
BRANCH   1  26
ATOM     26  C   UNL A   1      33.614  27.823  26.903  1.00  0.00     0.002 C 
BRANCH  26  27
ATOM     27  C   UNL A   1      32.350  28.615  27.265  1.00  0.00     0.002 C 
BRANCH  27  28
ATOM     28  C   UNL A   1      32.418  30.142  27.233  1.00  0.00     0.021 C 
BRANCH  28  29
ATOM     29  C   UNL A   1      33.817  30.739  27.148  1.00  0.00     0.116 C 
BRANCH  29  30
ATOM     30  N   UNL A   1      34.225  31.538  28.300  1.00  0.00    -0.352 N 
ATOM     31  C   UNL A   1      35.249  31.289  29.208  1.00  0.00     0.251 C 
ATOM     32  H   UNL A   1      33.705  32.360  28.454  1.00  0.00     0.163 HD
ATOM     33  O   UNL A   1      35.464  32.039  30.138  1.00  0.00    -0.269 OA
BRANCH  31  34
ATOM     34  C   UNL A   1      36.159  30.148  28.937  1.00  0.00     0.039 A 
ATOM     35  C   UNL A   1      36.565  29.367  30.023  1.00  0.00     0.014 A 
ATOM     36  C   UNL A   1      36.794  30.033  27.706  1.00  0.00     0.014 A 
ATOM     37  C   UNL A   1      37.774  28.680  29.948  1.00  0.00     0.010 A 
ATOM     38  C   UNL A   1      38.039  29.441  27.661  1.00  0.00     0.010 A 
ATOM     39  C   UNL A   1      38.559  28.825  28.804  1.00  0.00    -0.014 A 
BRANCH  39  40
ATOM     40  C   UNL A   1      39.961  28.431  28.746  1.00  0.00     0.031 A 
ATOM     41  C   UNL A   1      40.324  27.048  28.382  1.00  0.00     0.074 A 
ATOM     42  C   UNL A   1      40.934  29.343  28.962  1.00  0.00     0.049 A 
ATOM     43  N   UNL A   1      41.398  26.450  28.779  1.00  0.00    -0.248 NA
ATOM     44  C   UNL A   1      39.474  26.213  27.545  1.00  0.00     0.031 C 
ATOM     45  C   UNL A   1      42.365  29.175  28.717  1.00  0.00     0.029 A 
ATOM     46  N   UNL A   1      40.839  30.571  29.637  1.00  0.00    -0.354 N 
ATOM     47  C   UNL A   1      41.526  25.297  28.043  1.00  0.00     0.074 A 
ATOM     48  C   UNL A   1      40.270  25.159  27.338  1.00  0.00     0.031 C 
ATOM     49  C   UNL A   1      43.039  30.053  29.475  1.00  0.00     0.029 A 
ATOM     50  C   UNL A   1      42.072  30.733  30.315  1.00  0.00     0.049 A 
ATOM     51  H   UNL A   1      40.074  31.191  29.639  1.00  0.00     0.167 HD
ATOM     52  C   UNL A   1      42.733  24.662  27.990  1.00  0.00     0.037 A 
ATOM     53  C   UNL A   1      42.134  30.820  31.675  1.00  0.00     0.037 A 
ATOM     54  C   UNL A   1      43.726  25.328  28.829  1.00  0.00     0.049 A 
ATOM     55  C   UNL A   1      42.938  29.721  32.322  1.00  0.00     0.074 A 
ATOM     56  C   UNL A   1      44.725  26.244  28.539  1.00  0.00     0.029 A 
ATOM     57  N   UNL A   1      43.565  25.351  30.212  1.00  0.00    -0.354 N 
ATOM     58  N   UNL A   1      43.281  28.621  31.710  1.00  0.00    -0.248 NA
ATOM     59  C   UNL A   1      43.388  29.751  33.711  1.00  0.00     0.031 C 
ATOM     60  C   UNL A   1      45.128  26.858  29.749  1.00  0.00     0.029 A 
ATOM     61  C   UNL A   1      44.386  26.309  30.780  1.00  0.00     0.049 A 
ATOM     62  H   UNL A   1      42.953  24.767  30.717  1.00  0.00     0.167 HD
ATOM     63  C   UNL A   1      43.949  27.802  32.582  1.00  0.00     0.074 A 
ATOM     64  C   UNL A   1      44.012  28.564  33.816  1.00  0.00     0.031 C 
ATOM     65  C   UNL A   1      44.385  26.562  32.212  1.00  0.00     0.037 A 
BRANCH  52  66
ATOM     66  C   UNL A   1      43.069  23.654  26.911  1.00  0.00     0.064 A 
ATOM     67  C   UNL A   1      42.765  22.285  27.066  1.00  0.00     0.173 A 
ATOM     68  C   UNL A   1      43.764  23.974  25.730  1.00  0.00     0.173 A 
ATOM     69  F   UNL A   1      41.998  21.845  28.070  1.00  0.00    -0.203 F 
ATOM     70  C   UNL A   1      43.247  21.307  26.192  1.00  0.00     0.198 A 
ATOM     71  C   UNL A   1      44.298  22.992  24.888  1.00  0.00     0.198 A 
ATOM     72  F   UNL A   1      43.915  25.248  25.342  1.00  0.00    -0.203 F 
ATOM     73  F   UNL A   1      42.941  20.018  26.403  1.00  0.00    -0.200 F 
ATOM     74  C   UNL A   1      44.054  21.655  25.129  1.00  0.00     0.200 A 
ATOM     75  F   UNL A   1      45.060  23.353  23.845  1.00  0.00    -0.200 F 
ATOM     76  F   UNL A   1      44.569  20.713  24.329  1.00  0.00    -0.200 F 
ENDBRANCH  52  66
BRANCH  53  77
ATOM     77  C   UNL A   1      40.942  31.493  32.250  1.00  0.00     0.064 A 
ATOM     78  C   UNL A   1      39.969  30.666  32.842  1.00  0.00     0.173 A 
ATOM     79  C   UNL A   1      40.984  32.834  32.645  1.00  0.00     0.173 A 
ATOM     80  F   UNL A   1      39.876  29.376  32.477  1.00  0.00    -0.203 F 
ATOM     81  C   UNL A   1      39.201  31.110  33.914  1.00  0.00     0.198 A 
ATOM     82  C   UNL A   1      40.187  33.286  33.698  1.00  0.00     0.198 A 
ATOM     83  F   UNL A   1      41.888  33.670  32.111  1.00  0.00    -0.203 F 
ATOM     84  F   UNL A   1      38.402  30.254  34.565  1.00  0.00    -0.200 F 
ATOM     85  C   UNL A   1      39.341  32.411  34.367  1.00  0.00     0.200 A 
ATOM     86  F   UNL A   1      40.309  34.549  34.130  1.00  0.00    -0.200 F 
ATOM     87  F   UNL A   1      38.697  32.807  35.473  1.00  0.00    -0.200 F 
ENDBRANCH  53  77
BRANCH  65  88
ATOM     88  C   UNL A   1      44.961  25.526  33.142  1.00  0.00     0.064 A 
ATOM     89  C   UNL A   1      46.319  25.169  33.169  1.00  0.00     0.173 A 
ATOM     90  C   UNL A   1      44.154  24.934  34.143  1.00  0.00     0.173 A 
ATOM     91  F   UNL A   1      47.208  25.759  32.358  1.00  0.00    -0.203 F 
ATOM     92  C   UNL A   1      46.818  24.228  34.071  1.00  0.00     0.198 A 
ATOM     93  C   UNL A   1      44.666  24.038  35.081  1.00  0.00     0.198 A 
ATOM     94  F   UNL A   1      42.850  25.226  34.254  1.00  0.00    -0.203 F 
ATOM     95  F   UNL A   1      48.112  23.882  34.022  1.00  0.00    -0.200 F 
ATOM     96  C   UNL A   1      45.994  23.667  35.031  1.00  0.00     0.200 A 
ATOM     97  F   UNL A   1      43.868  23.548  36.039  1.00  0.00    -0.200 F 
ATOM     98  F   UNL A   1      46.484  22.791  35.918  1.00  0.00    -0.200 F 
ENDBRANCH  65  88
ENDBRANCH  39  40
ENDBRANCH  31  34
ENDBRANCH  29  30
ENDBRANCH  28  29
ENDBRANCH  27  28
ENDBRANCH  26  27
ENDBRANCH   1  26
TORSDOF 18
ENDMDL
MODEL 2
REMARK VINA RESULT:     -12.2      1.528      3.223
REMARK SMILES Cc1ccccc1O[C@@H](C)C(=O)Oc1ccccc1C(=O)NCCCCCCNC(=O)c1ccc(-c2c3nc(c(-c4c(F)c(F)c(F)c(F)c4F)c4ccc([nH]4)c(-c4c(F)c(F)c(F)c(F)c4F)c4nc(c(-c5c(F)c(F)c(F)c(F)c5F)c5ccc2[nH]5)C=C4)C=C3)cc1
REMARK SMILES IDX 24 1 23 2 22 3 20 4 21 5 19 7 14 8 15 9 16 10 18 11 17 12
REMARK SMILES IDX 13 13 11 14 12 15 9 16 10 17 8 18 7 19 1 20 2 21 3 22 4 23
REMARK SMILES IDX 6 24 5 25 25 26 26 27 27 28 28 29 29 30 30 31 31 33 32 34
REMARK SMILES IDX 33 35 94 36 34 37 93 38 35 39 36 40 37 41 87 42 38 43 92 44
REMARK SMILES IDX 86 45 88 46 39 47 91 48 85 49 84 50 40 52 72 53 52 54 71 55
REMARK SMILES IDX 53 56 56 57 70 58 89 59 54 60 55 61 69 63 90 64 57 65 41 66
REMARK SMILES IDX 42 67 50 68 43 69 44 70 48 71 51 72 45 73 46 74 49 75 47 76
REMARK SMILES IDX 73 77 74 78 82 79 75 80 76 81 80 82 83 83 77 84 78 85 81 86
REMARK SMILES IDX 79 87 58 88 59 89 67 90 60 91 61 92 65 93 68 94 62 95 63 96
REMARK SMILES IDX 66 97 64 98
REMARK H PARENT 22 6 29 32 88 51 56 62
REMARK Flexibility Score: inf
ROOT
ATOM      1  C   UNL A   1      32.907  29.338  24.442  1.00  0.00     0.021 C 
ENDROOT
BRANCH   1   2
ATOM      2  C   UNL A   1      33.870  28.160  24.588  1.00  0.00     0.116 C 
BRANCH   2   3
ATOM      3  N   UNL A   1      34.008  27.293  23.434  1.00  0.00    -0.352 N 
ATOM      4  C   UNL A   1      33.456  26.049  23.190  1.00  0.00     0.255 C 
ATOM      5  O   UNL A   1      33.516  25.581  22.056  1.00  0.00    -0.269 OA
ATOM      6  H   UNL A   1      34.581  27.644  22.714  1.00  0.00     0.163 HD
BRANCH   4   7
ATOM      7  C   UNL A   1      32.782  25.268  24.264  1.00  0.00     0.082 A 
ATOM      8  C   UNL A   1      33.471  24.363  25.087  1.00  0.00     0.143 A 
ATOM      9  C   UNL A   1      32.798  23.609  26.059  1.00  0.00     0.048 A 
ATOM     10  C   UNL A   1      31.422  23.734  26.211  1.00  0.00     0.004 A 
ATOM     11  C   UNL A   1      31.384  25.324  24.387  1.00  0.00     0.018 A 
ATOM     12  C   UNL A   1      30.711  24.578  25.364  1.00  0.00     0.001 A 
BRANCH   8  13
ATOM     13  O   UNL A   1      34.798  23.914  24.880  1.00  0.00    -0.423 OA
BRANCH  13  14
ATOM     14  C   UNL A   1      35.196  22.840  24.104  1.00  0.00     0.352 C 
ATOM     15  O   UNL A   1      35.256  22.846  22.879  1.00  0.00    -0.247 OA
BRANCH  14  16
ATOM     16  C   UNL A   1      35.579  21.632  25.004  1.00  0.00     0.280 C 
ATOM     17  C   UNL A   1      36.938  21.029  24.636  1.00  0.00     0.066 C 
BRANCH  16  18
ATOM     18  O   UNL A   1      34.734  20.588  25.455  1.00  0.00    -0.479 OA
BRANCH  18  19
ATOM     19  C   UNL A   1      34.080  19.684  24.680  1.00  0.00     0.123 A 
ATOM     20  C   UNL A   1      32.162  21.111  23.666  1.00  0.00     0.048 C 
ATOM     21  C   UNL A   1      32.943  19.845  23.874  1.00  0.00    -0.009 A 
ATOM     22  C   UNL A   1      32.522  18.751  23.078  1.00  0.00     0.007 A 
ATOM     23  C   UNL A   1      33.212  17.542  23.058  1.00  0.00     0.001 A 
ATOM     24  C   UNL A   1      34.774  18.459  24.632  1.00  0.00     0.047 A 
ATOM     25  C   UNL A   1      34.350  17.396  23.835  1.00  0.00     0.004 A 
ENDBRANCH  18  19
ENDBRANCH  16  18
ENDBRANCH  14  16
ENDBRANCH  13  14
ENDBRANCH   8  13
ENDBRANCH   4   7
ENDBRANCH   2   3
ENDBRANCH   1   2
BRANCH   1  26
ATOM     26  C   UNL A   1      31.717  29.466  25.400  1.00  0.00     0.002 C 
BRANCH  26  27
ATOM     27  C   UNL A   1      31.967  29.777  26.881  1.00  0.00     0.002 C 
BRANCH  27  28
ATOM     28  C   UNL A   1      32.955  30.890  27.231  1.00  0.00     0.021 C 
BRANCH  28  29
ATOM     29  C   UNL A   1      34.350  30.432  27.634  1.00  0.00     0.116 C 
BRANCH  29  30
ATOM     30  N   UNL A   1      35.056  31.320  28.553  1.00  0.00    -0.352 N 
ATOM     31  C   UNL A   1      36.245  31.091  29.238  1.00  0.00     0.251 C 
ATOM     32  H   UNL A   1      34.634  32.197  28.708  1.00  0.00     0.163 HD
ATOM     33  O   UNL A   1      36.710  31.921  29.991  1.00  0.00    -0.269 OA
BRANCH  31  34
ATOM     34  C   UNL A   1      37.002  29.852  28.925  1.00  0.00     0.039 A 
ATOM     35  C   UNL A   1      37.292  28.982  29.981  1.00  0.00     0.014 A 
ATOM     36  C   UNL A   1      37.628  29.704  27.694  1.00  0.00     0.014 A 
ATOM     37  C   UNL A   1      38.402  28.147  29.884  1.00  0.00     0.010 A 
ATOM     38  C   UNL A   1      38.787  28.956  27.630  1.00  0.00     0.010 A 
ATOM     39  C   UNL A   1      39.210  28.234  28.750  1.00  0.00    -0.014 A 
BRANCH  39  40
ATOM     40  C   UNL A   1      40.549  27.662  28.683  1.00  0.00     0.031 A 
ATOM     41  C   UNL A   1      40.726  26.229  28.383  1.00  0.00     0.074 A 
ATOM     42  C   UNL A   1      41.635  28.453  28.832  1.00  0.00     0.049 A 
ATOM     43  N   UNL A   1      41.726  25.520  28.787  1.00  0.00    -0.248 NA
ATOM     44  C   UNL A   1      39.756  25.469  27.606  1.00  0.00     0.031 C 
ATOM     45  C   UNL A   1      43.026  28.094  28.567  1.00  0.00     0.029 A 
ATOM     46  N   UNL A   1      41.713  29.714  29.446  1.00  0.00    -0.354 N 
ATOM     47  C   UNL A   1      41.689  24.325  28.107  1.00  0.00     0.074 A 
ATOM     48  C   UNL A   1      40.407  24.315  27.437  1.00  0.00     0.031 C 
ATOM     49  C   UNL A   1      43.825  28.914  29.264  1.00  0.00     0.029 A 
ATOM     50  C   UNL A   1      42.975  29.750  30.089  1.00  0.00     0.049 A 
ATOM     51  H   UNL A   1      41.032  30.425  29.433  1.00  0.00     0.167 HD
ATOM     52  C   UNL A   1      42.805  23.540  28.061  1.00  0.00     0.037 A 
ATOM     53  C   UNL A   1      43.084  29.893  31.441  1.00  0.00     0.037 A 
ATOM     54  C   UNL A   1      43.895  24.115  28.845  1.00  0.00     0.049 A 
ATOM     55  C   UNL A   1      43.761  28.733  32.127  1.00  0.00     0.074 A 
ATOM     56  C   UNL A   1      44.994  24.881  28.488  1.00  0.00     0.029 A 
ATOM     57  N   UNL A   1      43.777  24.224  30.228  1.00  0.00    -0.354 N 
ATOM     58  N   UNL A   1      43.946  27.571  31.564  1.00  0.00    -0.248 NA
ATOM     59  C   UNL A   1      44.248  28.772  33.502  1.00  0.00     0.031 C 
ATOM     60  C   UNL A   1      45.504  25.496  29.656  1.00  0.00     0.029 A 
ATOM     61  C   UNL A   1      44.727  25.095  30.729  1.00  0.00     0.049 A 
ATOM     62  H   UNL A   1      43.110  23.746  30.774  1.00  0.00     0.167 HD
ATOM     63  C   UNL A   1      44.529  26.717  32.462  1.00  0.00     0.074 A 
ATOM     64  C   UNL A   1      44.721  27.522  33.654  1.00  0.00     0.031 C 
ATOM     65  C   UNL A   1      44.796  25.415  32.146  1.00  0.00     0.037 A 
BRANCH  52  66
ATOM     66  C   UNL A   1      42.982  22.449  27.028  1.00  0.00     0.064 A 
ATOM     67  C   UNL A   1      42.283  21.226  27.125  1.00  0.00     0.173 A 
ATOM     68  C   UNL A   1      43.891  22.524  25.956  1.00  0.00     0.173 A 
ATOM     69  F   UNL A   1      41.296  21.050  28.011  1.00  0.00    -0.203 F 
ATOM     70  C   UNL A   1      42.581  20.126  26.316  1.00  0.00     0.198 A 
ATOM     71  C   UNL A   1      44.231  21.408  25.185  1.00  0.00     0.198 A 
ATOM     72  F   UNL A   1      44.447  23.692  25.605  1.00  0.00    -0.203 F 
ATOM     73  F   UNL A   1      41.896  18.984  26.469  1.00  0.00    -0.200 F 
ATOM     74  C   UNL A   1      43.587  20.202  25.377  1.00  0.00     0.200 A 
ATOM     75  F   UNL A   1      45.197  21.508  24.259  1.00  0.00    -0.200 F 
ATOM     76  F   UNL A   1      43.917  19.130  24.644  1.00  0.00    -0.200 F 
ENDBRANCH  52  66
BRANCH  53  77
ATOM     77  C   UNL A   1      42.003  30.739  32.007  1.00  0.00     0.064 A 
ATOM     78  C   UNL A   1      42.133  32.131  31.843  1.00  0.00     0.173 A 
ATOM     79  C   UNL A   1      40.721  30.226  32.232  1.00  0.00     0.173 A 
ATOM     80  F   UNL A   1      43.347  32.671  31.647  1.00  0.00    -0.203 F 
ATOM     81  C   UNL A   1      41.014  32.949  31.718  1.00  0.00     0.198 A 
ATOM     82  C   UNL A   1      39.603  31.057  32.142  1.00  0.00     0.198 A 
ATOM     83  F   UNL A   1      40.538  28.908  32.401  1.00  0.00    -0.203 F 
ATOM     84  F   UNL A   1      41.163  34.242  31.398  1.00  0.00    -0.200 F 
ATOM     85  C   UNL A   1      39.747  32.402  31.829  1.00  0.00     0.200 A 
ATOM     86  F   UNL A   1      38.374  30.533  32.262  1.00  0.00    -0.200 F 
ATOM     87  F   UNL A   1      38.668  33.160  31.588  1.00  0.00    -0.200 F 
ENDBRANCH  53  77
BRANCH  65  88
ATOM     88  C   UNL A   1      45.262  24.359  33.116  1.00  0.00     0.064 A 
ATOM     89  C   UNL A   1      44.487  23.252  33.496  1.00  0.00     0.173 A 
ATOM     90  C   UNL A   1      46.588  24.375  33.608  1.00  0.00     0.173 A 
ATOM     91  F   UNL A   1      43.261  23.055  32.992  1.00  0.00    -0.203 F 
ATOM     92  C   UNL A   1      44.971  22.277  34.371  1.00  0.00     0.198 A 
ATOM     93  C   UNL A   1      47.089  23.371  34.436  1.00  0.00     0.198 A 
ATOM     94  F   UNL A   1      47.444  25.355  33.282  1.00  0.00    -0.203 F 
ATOM     95  F   UNL A   1      44.174  21.267  34.746  1.00  0.00    -0.200 F 
ATOM     96  C   UNL A   1      46.273  22.333  34.836  1.00  0.00     0.200 A 
ATOM     97  F   UNL A   1      48.368  23.409  34.831  1.00  0.00    -0.200 F 
ATOM     98  F   UNL A   1      46.745  21.377  35.648  1.00  0.00    -0.200 F 
ENDBRANCH  65  88
ENDBRANCH  39  40
ENDBRANCH  31  34
ENDBRANCH  29  30
ENDBRANCH  28  29
ENDBRANCH  27  28
ENDBRANCH  26  27
ENDBRANCH   1  26
TORSDOF 18
ENDMDL
MODEL 3
REMARK VINA RESULT:     -11.8      3.039      9.124
REMARK SMILES Cc1ccccc1O[C@@H](C)C(=O)Oc1ccccc1C(=O)NCCCCCCNC(=O)c1ccc(-c2c3nc(c(-c4c(F)c(F)c(F)c(F)c4F)c4ccc([nH]4)c(-c4c(F)c(F)c(F)c(F)c4F)c4nc(c(-c5c(F)c(F)c(F)c(F)c5F)c5ccc2[nH]5)C=C4)C=C3)cc1
REMARK SMILES IDX 24 1 23 2 22 3 20 4 21 5 19 7 14 8 15 9 16 10 18 11 17 12
REMARK SMILES IDX 13 13 11 14 12 15 9 16 10 17 8 18 7 19 1 20 2 21 3 22 4 23
REMARK SMILES IDX 6 24 5 25 25 26 26 27 27 28 28 29 29 30 30 31 31 33 32 34
REMARK SMILES IDX 33 35 94 36 34 37 93 38 35 39 36 40 37 41 87 42 38 43 92 44
REMARK SMILES IDX 86 45 88 46 39 47 91 48 85 49 84 50 40 52 72 53 52 54 71 55
REMARK SMILES IDX 53 56 56 57 70 58 89 59 54 60 55 61 69 63 90 64 57 65 41 66
REMARK SMILES IDX 42 67 50 68 43 69 44 70 48 71 51 72 45 73 46 74 49 75 47 76
REMARK SMILES IDX 73 77 74 78 82 79 75 80 76 81 80 82 83 83 77 84 78 85 81 86
REMARK SMILES IDX 79 87 58 88 59 89 67 90 60 91 61 92 65 93 68 94 62 95 63 96
REMARK SMILES IDX 66 97 64 98
REMARK H PARENT 22 6 29 32 88 51 56 62
REMARK Flexibility Score: inf
ROOT
ATOM      1  C   UNL A   1      34.161  24.077  23.134  1.00  0.00     0.021 C 
ENDROOT
BRANCH   1   2
ATOM      2  C   UNL A   1      34.250  25.562  23.482  1.00  0.00     0.116 C 
BRANCH   2   3
ATOM      3  N   UNL A   1      33.319  26.442  22.802  1.00  0.00    -0.352 N 
ATOM      4  C   UNL A   1      32.589  27.509  23.292  1.00  0.00     0.255 C 
ATOM      5  O   UNL A   1      32.029  28.264  22.501  1.00  0.00    -0.269 OA
ATOM      6  H   UNL A   1      33.187  26.250  21.845  1.00  0.00     0.163 HD
BRANCH   4   7
ATOM      7  C   UNL A   1      32.475  27.772  24.753  1.00  0.00     0.082 A 
ATOM      8  C   UNL A   1      31.548  27.106  25.571  1.00  0.00     0.143 A 
ATOM      9  C   UNL A   1      31.434  27.410  26.936  1.00  0.00     0.048 A 
ATOM     10  C   UNL A   1      32.231  28.399  27.500  1.00  0.00     0.004 A 
ATOM     11  C   UNL A   1      33.216  28.817  25.329  1.00  0.00     0.018 A 
ATOM     12  C   UNL A   1      33.110  29.116  26.693  1.00  0.00     0.001 A 
BRANCH   8  13
ATOM     13  O   UNL A   1      30.488  26.288  25.110  1.00  0.00    -0.423 OA
BRANCH  13  14
ATOM     14  C   UNL A   1      30.599  25.026  24.556  1.00  0.00     0.352 C 
ATOM     15  O   UNL A   1      30.652  24.793  23.352  1.00  0.00    -0.247 OA
BRANCH  14  16
ATOM     16  C   UNL A   1      30.675  23.947  25.672  1.00  0.00     0.280 C 
ATOM     17  C   UNL A   1      29.607  24.139  26.752  1.00  0.00     0.066 C 
BRANCH  16  18
ATOM     18  O   UNL A   1      31.838  23.415  26.282  1.00  0.00    -0.479 OA
BRANCH  18  19
ATOM     19  C   UNL A   1      32.588  22.377  25.827  1.00  0.00     0.123 A 
ATOM     20  C   UNL A   1      34.518  22.290  27.562  1.00  0.00     0.048 C 
ATOM     21  C   UNL A   1      33.777  21.835  26.337  1.00  0.00    -0.009 A 
ATOM     22  C   UNL A   1      34.305  20.673  25.722  1.00  0.00     0.007 A 
ATOM     23  C   UNL A   1      33.670  20.050  24.651  1.00  0.00     0.001 A 
ATOM     24  C   UNL A   1      31.952  21.722  24.754  1.00  0.00     0.047 A 
ATOM     25  C   UNL A   1      32.482  20.574  24.167  1.00  0.00     0.004 A 
ENDBRANCH  18  19
ENDBRANCH  16  18
ENDBRANCH  14  16
ENDBRANCH  13  14
ENDBRANCH   8  13
ENDBRANCH   4   7
ENDBRANCH   2   3
ENDBRANCH   1   2
BRANCH   1  26
ATOM     26  C   UNL A   1      35.432  23.222  23.132  1.00  0.00     0.002 C 
BRANCH  26  27
ATOM     27  C   UNL A   1      36.441  23.364  24.279  1.00  0.00     0.002 C 
BRANCH  27  28
ATOM     28  C   UNL A   1      37.431  22.223  24.519  1.00  0.00     0.021 C 
BRANCH  28  29
ATOM     29  C   UNL A   1      38.056  22.172  25.906  1.00  0.00     0.116 C 
BRANCH  29  30
ATOM     30  N   UNL A   1      39.514  22.104  25.930  1.00  0.00    -0.352 N 
ATOM     31  C   UNL A   1      40.426  23.129  26.159  1.00  0.00     0.251 C 
ATOM     32  H   UNL A   1      39.903  21.214  25.762  1.00  0.00     0.163 HD
ATOM     33  O   UNL A   1      41.623  22.928  26.130  1.00  0.00    -0.269 OA
BRANCH  31  34
ATOM     34  C   UNL A   1      39.897  24.454  26.570  1.00  0.00     0.039 A 
ATOM     35  C   UNL A   1      40.529  25.594  26.063  1.00  0.00     0.014 A 
ATOM     36  C   UNL A   1      38.995  24.555  27.622  1.00  0.00     0.014 A 
ATOM     37  C   UNL A   1      40.466  26.782  26.786  1.00  0.00     0.010 A 
ATOM     38  C   UNL A   1      39.012  25.697  28.396  1.00  0.00     0.010 A 
ATOM     39  C   UNL A   1      39.803  26.785  28.014  1.00  0.00    -0.014 A 
BRANCH  39  40
ATOM     40  C   UNL A   1      39.949  27.855  28.993  1.00  0.00     0.031 A 
ATOM     41  C   UNL A   1      38.993  28.978  29.006  1.00  0.00     0.074 A 
ATOM     42  C   UNL A   1      40.919  27.790  29.932  1.00  0.00     0.049 A 
ATOM     43  N   UNL A   1      39.277  30.169  29.417  1.00  0.00    -0.248 NA
ATOM     44  C   UNL A   1      37.625  28.845  28.525  1.00  0.00     0.031 C 
ATOM     45  C   UNL A   1      41.058  28.643  31.110  1.00  0.00     0.029 A 
ATOM     46  N   UNL A   1      42.106  27.040  29.905  1.00  0.00    -0.354 N 
ATOM     47  C   UNL A   1      38.095  30.862  29.529  1.00  0.00     0.074 A 
ATOM     48  C   UNL A   1      37.105  30.018  28.897  1.00  0.00     0.031 C 
ATOM     49  C   UNL A   1      42.337  28.618  31.513  1.00  0.00     0.029 A 
ATOM     50  C   UNL A   1      43.083  27.844  30.541  1.00  0.00     0.049 A 
ATOM     51  H   UNL A   1      42.232  26.142  29.522  1.00  0.00     0.167 HD
ATOM     52  C   UNL A   1      38.051  32.004  30.274  1.00  0.00     0.037 A 
ATOM     53  C   UNL A   1      44.197  28.271  29.881  1.00  0.00     0.037 A 
ATOM     54  C   UNL A   1      39.367  32.347  30.807  1.00  0.00     0.049 A 
ATOM     55  C   UNL A   1      44.311  29.772  29.781  1.00  0.00     0.074 A 
ATOM     56  C   UNL A   1      39.958  32.124  32.041  1.00  0.00     0.029 A 
ATOM     57  N   UNL A   1      40.397  32.705  29.942  1.00  0.00    -0.354 N 
ATOM     58  N   UNL A   1      43.318  30.587  30.008  1.00  0.00    -0.248 NA
ATOM     59  C   UNL A   1      45.529  30.471  29.384  1.00  0.00     0.031 C 
ATOM     60  C   UNL A   1      41.356  32.298  31.903  1.00  0.00     0.029 A 
ATOM     61  C   UNL A   1      41.619  32.639  30.588  1.00  0.00     0.049 A 
ATOM     62  H   UNL A   1      40.274  32.969  29.001  1.00  0.00     0.167 HD
ATOM     63  C   UNL A   1      43.722  31.875  29.775  1.00  0.00     0.074 A 
ATOM     64  C   UNL A   1      45.122  31.753  29.410  1.00  0.00     0.031 C 
ATOM     65  C   UNL A   1      42.864  32.931  29.895  1.00  0.00     0.037 A 
BRANCH  52  66
ATOM     66  C   UNL A   1      36.750  32.589  30.780  1.00  0.00     0.064 A 
ATOM     67  C   UNL A   1      35.986  33.473  29.988  1.00  0.00     0.173 A 
ATOM     68  C   UNL A   1      36.244  32.371  32.075  1.00  0.00     0.173 A 
ATOM     69  F   UNL A   1      36.267  33.680  28.696  1.00  0.00    -0.203 F 
ATOM     70  C   UNL A   1      34.901  34.190  30.499  1.00  0.00     0.198 A 
ATOM     71  C   UNL A   1      35.196  33.131  32.606  1.00  0.00     0.198 A 
ATOM     72  F   UNL A   1      36.729  31.389  32.848  1.00  0.00    -0.203 F 
ATOM     73  F   UNL A   1      34.226  35.031  29.703  1.00  0.00    -0.200 F 
ATOM     74  C   UNL A   1      34.535  34.054  31.822  1.00  0.00     0.200 A 
ATOM     75  F   UNL A   1      34.839  32.966  33.888  1.00  0.00    -0.200 F 
ATOM     76  F   UNL A   1      33.536  34.788  32.330  1.00  0.00    -0.200 F 
ENDBRANCH  52  66
BRANCH  53  77
ATOM     77  C   UNL A   1      44.670  27.285  28.877  1.00  0.00     0.064 A 
ATOM     78  C   UNL A   1      45.182  26.070  29.371  1.00  0.00     0.173 A 
ATOM     79  C   UNL A   1      44.201  27.307  27.559  1.00  0.00     0.173 A 
ATOM     80  F   UNL A   1      45.664  26.008  30.623  1.00  0.00    -0.203 F 
ATOM     81  C   UNL A   1      45.054  24.888  28.648  1.00  0.00     0.198 A 
ATOM     82  C   UNL A   1      44.107  26.124  26.824  1.00  0.00     0.198 A 
ATOM     83  F   UNL A   1      43.707  28.438  27.034  1.00  0.00    -0.203 F 
ATOM     84  F   UNL A   1      45.398  23.721  29.210  1.00  0.00    -0.200 F 
ATOM     85  C   UNL A   1      44.479  24.911  27.389  1.00  0.00     0.200 A 
ATOM     86  F   UNL A   1      43.563  26.144  25.599  1.00  0.00    -0.200 F 
ATOM     87  F   UNL A   1      44.241  23.762  26.741  1.00  0.00    -0.200 F 
ENDBRANCH  53  77
BRANCH  65  88
ATOM     88  C   UNL A   1      43.163  34.350  29.487  1.00  0.00     0.064 A 
ATOM     89  C   UNL A   1      43.278  35.415  30.394  1.00  0.00     0.173 A 
ATOM     90  C   UNL A   1      43.470  34.659  28.140  1.00  0.00     0.173 A 
ATOM     91  F   UNL A   1      43.141  35.223  31.713  1.00  0.00    -0.203 F 
ATOM     92  C   UNL A   1      43.591  36.711  29.977  1.00  0.00     0.198 A 
ATOM     93  C   UNL A   1      43.838  35.940  27.734  1.00  0.00     0.198 A 
ATOM     94  F   UNL A   1      43.441  33.719  27.183  1.00  0.00    -0.203 F 
ATOM     95  F   UNL A   1      43.636  37.705  30.875  1.00  0.00    -0.200 F 
ATOM     96  C   UNL A   1      43.877  36.972  28.649  1.00  0.00     0.200 A 
ATOM     97  F   UNL A   1      44.168  36.165  26.455  1.00  0.00    -0.200 F 
ATOM     98  F   UNL A   1      44.212  38.209  28.258  1.00  0.00    -0.200 F 
ENDBRANCH  65  88
ENDBRANCH  39  40
ENDBRANCH  31  34
ENDBRANCH  29  30
ENDBRANCH  28  29
ENDBRANCH  27  28
ENDBRANCH  26  27
ENDBRANCH   1  26
TORSDOF 18
ENDMDL
