MODEL 1
REMARK VINA RESULT:     -10.4      0.000      0.000
REMARK SMILES C[C@@H](Oc1ccc(F)cc1)C(=O)N[C@@H](CO)C(=O)NCCCCCCNC(=O)c1ccc(-c2c3nc(c(-c4c(F)c(F)c(F)c(F)c4F)c4ccc([nH]4)c(-c4c(F)c(F)c(F)c(F)c4F)c4nc(c(-c5c(F)c(F)c(F)c(F)c5F)c5ccc2[nH]5)C=C4)C=C3)cc1
REMARK SMILES IDX 21 1 20 2 19 3 17 4 18 5 14 7 13 8 11 9 12 10 2 12 1 13 3 14
REMARK SMILES IDX 4 15 5 16 10 17 6 18 9 19 7 20 8 21 15 22 16 23 22 25 23 26
REMARK SMILES IDX 24 27 25 28 26 29 27 30 28 32 29 33 30 34 91 35 31 36 90 37
REMARK SMILES IDX 32 38 33 39 34 40 84 41 35 42 89 43 83 44 85 45 36 46 88 47
REMARK SMILES IDX 82 48 81 49 37 51 69 52 49 53 68 54 50 55 53 56 67 57 86 58
REMARK SMILES IDX 51 59 52 60 66 62 87 63 54 64 38 65 39 66 47 67 40 68 41 69
REMARK SMILES IDX 45 70 48 71 42 72 43 73 46 74 44 75 70 76 71 77 79 78 72 79
REMARK SMILES IDX 73 80 77 81 80 82 74 83 75 84 78 85 76 86 55 87 56 88 64 89
REMARK SMILES IDX 57 90 58 91 62 92 65 93 59 94 60 95 63 96 61 97
REMARK H PARENT 19 6 13 11 16 24 26 31 85 50 53 61
REMARK Flexibility Score: inf
ROOT
ATOM      1  C   UNL A   1      32.963  25.149  26.125  1.00  0.00     0.021 C 
ENDROOT
BRANCH   1   2
ATOM      2  C   UNL A   1      31.557  25.732  26.193  1.00  0.00     0.116 C 
BRANCH   2   3
ATOM      3  N   UNL A   1      31.520  26.949  26.975  1.00  0.00    -0.354 N 
ATOM      4  C   UNL A   1      31.741  28.242  26.618  1.00  0.00     0.244 C 
ATOM      5  O   UNL A   1      31.407  29.110  27.432  1.00  0.00    -0.273 OA
ATOM      6  H   UNL A   1      31.300  26.819  27.925  1.00  0.00     0.163 HD
BRANCH   4   7
ATOM      7  C   UNL A   1      32.270  28.640  25.228  1.00  0.00     0.197 C 
BRANCH   7   8
ATOM      8  N   UNL A   1      31.412  29.619  24.539  1.00  0.00    -0.339 N 
ATOM      9  C   UNL A   1      30.266  29.422  23.822  1.00  0.00     0.261 C 
ATOM     10  O   UNL A   1      29.622  30.424  23.501  1.00  0.00    -0.271 OA
ATOM     11  H   UNL A   1      31.710  30.555  24.606  1.00  0.00     0.164 HD
BRANCH   9  12
ATOM     12  C   UNL A   1      29.861  28.023  23.337  1.00  0.00     0.258 C 
ATOM     13  C   UNL A   1      28.344  28.018  23.163  1.00  0.00     0.064 C 
BRANCH  12  14
ATOM     14  O   UNL A   1      30.611  27.764  22.146  1.00  0.00    -0.481 OA
BRANCH  14  15
ATOM     15  C   UNL A   1      31.475  26.714  22.198  1.00  0.00     0.120 A 
ATOM     16  C   UNL A   1      32.855  26.915  22.141  1.00  0.00     0.049 A 
ATOM     17  C   UNL A   1      30.959  25.459  22.518  1.00  0.00     0.049 A 
ATOM     18  C   UNL A   1      33.723  25.843  22.343  1.00  0.00     0.043 A 
ATOM     19  C   UNL A   1      31.828  24.388  22.734  1.00  0.00     0.043 A 
ATOM     20  C   UNL A   1      33.201  24.589  22.639  1.00  0.00     0.123 A 
ATOM     21  F   UNL A   1      34.037  23.566  22.861  1.00  0.00    -0.207 F 
ENDBRANCH  14  15
ENDBRANCH  12  14
ENDBRANCH   9  12
ENDBRANCH   7   8
BRANCH   7  22
ATOM     22  C   UNL A   1      33.754  29.035  25.270  1.00  0.00     0.191 C 
BRANCH  22  23
ATOM     23  O   UNL A   1      34.382  28.783  26.525  1.00  0.00    -0.394 OA
ATOM     24  H   UNL A   1      34.590  29.625  26.956  1.00  0.00     0.210 HD
ENDBRANCH  22  23
ENDBRANCH   7  22
ENDBRANCH   4   7
ENDBRANCH   2   3
ENDBRANCH   1   2
BRANCH   1  25
ATOM     25  C   UNL A   1      33.026  23.634  26.334  1.00  0.00     0.002 C 
BRANCH  25  26
ATOM     26  C   UNL A   1      34.378  22.990  26.009  1.00  0.00     0.002 C 
BRANCH  26  27
ATOM     27  C   UNL A   1      35.599  23.883  26.246  1.00  0.00     0.021 C 
BRANCH  27  28
ATOM     28  C   UNL A   1      36.701  23.742  25.205  1.00  0.00     0.116 C 
BRANCH  28  29
ATOM     29  N   UNL A   1      37.639  22.684  25.538  1.00  0.00    -0.352 N 
ATOM     30  C   UNL A   1      38.860  22.774  26.149  1.00  0.00     0.251 C 
ATOM     31  H   UNL A   1      37.357  21.775  25.288  1.00  0.00     0.163 HD
ATOM     32  O   UNL A   1      39.603  21.793  26.192  1.00  0.00    -0.269 OA
BRANCH  30  33
ATOM     33  C   UNL A   1      39.298  24.052  26.746  1.00  0.00     0.039 A 
ATOM     34  C   UNL A   1      40.055  24.932  25.970  1.00  0.00     0.014 A 
ATOM     35  C   UNL A   1      38.985  24.373  28.070  1.00  0.00     0.014 A 
ATOM     36  C   UNL A   1      40.471  26.148  26.510  1.00  0.00     0.010 A 
ATOM     37  C   UNL A   1      39.329  25.621  28.581  1.00  0.00     0.010 A 
ATOM     38  C   UNL A   1      40.095  26.511  27.814  1.00  0.00    -0.014 A 
BRANCH  38  39
ATOM     39  C   UNL A   1      40.527  27.802  28.403  1.00  0.00     0.031 A 
ATOM     40  C   UNL A   1      41.980  28.041  28.705  1.00  0.00     0.074 A 
ATOM     41  C   UNL A   1      39.612  28.747  28.688  1.00  0.00     0.049 A 
ATOM     42  N   UNL A   1      42.552  29.091  29.240  1.00  0.00    -0.248 NA
ATOM     43  C   UNL A   1      42.911  26.946  28.391  1.00  0.00     0.031 C 
ATOM     44  C   UNL A   1      38.171  28.616  28.469  1.00  0.00     0.029 A 
ATOM     45  N   UNL A   1      39.759  30.004  29.216  1.00  0.00    -0.354 N 
ATOM     46  C   UNL A   1      43.903  28.780  29.324  1.00  0.00     0.074 A 
ATOM     47  C   UNL A   1      44.056  27.420  28.858  1.00  0.00     0.031 C 
ATOM     48  C   UNL A   1      37.571  29.766  28.818  1.00  0.00     0.029 A 
ATOM     49  C   UNL A   1      38.577  30.697  29.320  1.00  0.00     0.049 A 
ATOM     50  H   UNL A   1      40.627  30.375  29.495  1.00  0.00     0.167 HD
ATOM     51  C   UNL A   1      44.928  29.571  29.721  1.00  0.00     0.037 A 
ATOM     52  C   UNL A   1      38.336  31.945  29.762  1.00  0.00     0.037 A 
ATOM     53  C   UNL A   1      44.772  30.929  30.171  1.00  0.00     0.049 A 
ATOM     54  C   UNL A   1      39.485  32.797  30.225  1.00  0.00     0.074 A 
ATOM     55  C   UNL A   1      45.749  31.821  30.574  1.00  0.00     0.029 A 
ATOM     56  N   UNL A   1      43.557  31.590  30.277  1.00  0.00    -0.354 N 
ATOM     57  N   UNL A   1      40.762  32.507  30.267  1.00  0.00    -0.248 NA
ATOM     58  C   UNL A   1      39.160  34.149  30.697  1.00  0.00     0.031 C 
ATOM     59  C   UNL A   1      45.121  33.007  30.967  1.00  0.00     0.029 A 
ATOM     60  C   UNL A   1      43.758  32.875  30.753  1.00  0.00     0.049 A 
ATOM     61  H   UNL A   1      42.680  31.203  30.048  1.00  0.00     0.167 HD
ATOM     62  C   UNL A   1      41.398  33.647  30.741  1.00  0.00     0.074 A 
ATOM     63  C   UNL A   1      40.364  34.637  30.965  1.00  0.00     0.031 C 
ATOM     64  C   UNL A   1      42.719  33.854  30.966  1.00  0.00     0.037 A 
BRANCH  51  65
ATOM     65  C   UNL A   1      46.312  28.987  29.670  1.00  0.00     0.064 A 
ATOM     66  C   UNL A   1      46.862  28.347  30.790  1.00  0.00     0.173 A 
ATOM     67  C   UNL A   1      47.108  29.089  28.518  1.00  0.00     0.173 A 
ATOM     68  F   UNL A   1      46.148  28.225  31.919  1.00  0.00    -0.203 F 
ATOM     69  C   UNL A   1      48.157  27.834  30.759  1.00  0.00     0.198 A 
ATOM     70  C   UNL A   1      48.389  28.545  28.479  1.00  0.00     0.198 A 
ATOM     71  F   UNL A   1      46.626  29.681  27.414  1.00  0.00    -0.203 F 
ATOM     72  F   UNL A   1      48.670  27.249  31.851  1.00  0.00    -0.200 F 
ATOM     73  C   UNL A   1      48.915  27.925  29.602  1.00  0.00     0.200 A 
ATOM     74  F   UNL A   1      49.107  28.607  27.350  1.00  0.00    -0.200 F 
ATOM     75  F   UNL A   1      50.151  27.410  29.566  1.00  0.00    -0.200 F 
ENDBRANCH  51  65
BRANCH  52  76
ATOM     76  C   UNL A   1      36.949  32.474  29.718  1.00  0.00     0.064 A 
ATOM     77  C   UNL A   1      36.466  33.179  28.606  1.00  0.00     0.173 A 
ATOM     78  C   UNL A   1      36.097  32.335  30.822  1.00  0.00     0.173 A 
ATOM     79  F   UNL A   1      37.245  33.345  27.527  1.00  0.00    -0.203 F 
ATOM     80  C   UNL A   1      35.193  33.746  28.611  1.00  0.00     0.198 A 
ATOM     81  C   UNL A   1      34.816  32.883  30.817  1.00  0.00     0.198 A 
ATOM     82  F   UNL A   1      36.509  31.655  31.903  1.00  0.00    -0.203 F 
ATOM     83  F   UNL A   1      34.772  34.452  27.552  1.00  0.00    -0.200 F 
ATOM     84  C   UNL A   1      34.369  33.597  29.716  1.00  0.00     0.200 A 
ATOM     85  F   UNL A   1      34.016  32.720  31.880  1.00  0.00    -0.200 F 
ATOM     86  F   UNL A   1      33.146  34.143  29.720  1.00  0.00    -0.200 F 
ENDBRANCH  52  76
BRANCH  64  87
ATOM     87  C   UNL A   1      43.141  35.209  31.454  1.00  0.00     0.064 A 
ATOM     88  C   UNL A   1      43.596  36.178  30.545  1.00  0.00     0.173 A 
ATOM     89  C   UNL A   1      43.172  35.525  32.820  1.00  0.00     0.173 A 
ATOM     90  F   UNL A   1      43.595  35.923  29.228  1.00  0.00    -0.203 F 
ATOM     91  C   UNL A   1      44.083  37.404  30.987  1.00  0.00     0.198 A 
ATOM     92  C   UNL A   1      43.631  36.765  33.257  1.00  0.00     0.198 A 
ATOM     93  F   UNL A   1      42.738  34.638  33.728  1.00  0.00    -0.203 F 
ATOM     94  F   UNL A   1      44.548  38.298  30.103  1.00  0.00    -0.200 F 
ATOM     95  C   UNL A   1      44.095  37.699  32.342  1.00  0.00     0.200 A 
ATOM     96  F   UNL A   1      43.620  37.058  34.564  1.00  0.00    -0.200 F 
ATOM     97  F   UNL A   1      44.555  38.884  32.767  1.00  0.00    -0.200 F 
ENDBRANCH  64  87
ENDBRANCH  38  39
ENDBRANCH  30  33
ENDBRANCH  28  29
ENDBRANCH  27  28
ENDBRANCH  26  27
ENDBRANCH  25  26
ENDBRANCH   1  25
TORSDOF 19
ENDMDL
MODEL 2
REMARK VINA RESULT:     -10.3      4.549      9.290
REMARK SMILES C[C@@H](Oc1ccc(F)cc1)C(=O)N[C@@H](CO)C(=O)NCCCCCCNC(=O)c1ccc(-c2c3nc(c(-c4c(F)c(F)c(F)c(F)c4F)c4ccc([nH]4)c(-c4c(F)c(F)c(F)c(F)c4F)c4nc(c(-c5c(F)c(F)c(F)c(F)c5F)c5ccc2[nH]5)C=C4)C=C3)cc1
REMARK SMILES IDX 21 1 20 2 19 3 17 4 18 5 14 7 13 8 11 9 12 10 2 12 1 13 3 14
REMARK SMILES IDX 4 15 5 16 10 17 6 18 9 19 7 20 8 21 15 22 16 23 22 25 23 26
REMARK SMILES IDX 24 27 25 28 26 29 27 30 28 32 29 33 30 34 91 35 31 36 90 37
REMARK SMILES IDX 32 38 33 39 34 40 84 41 35 42 89 43 83 44 85 45 36 46 88 47
REMARK SMILES IDX 82 48 81 49 37 51 69 52 49 53 68 54 50 55 53 56 67 57 86 58
REMARK SMILES IDX 51 59 52 60 66 62 87 63 54 64 38 65 39 66 47 67 40 68 41 69
REMARK SMILES IDX 45 70 48 71 42 72 43 73 46 74 44 75 70 76 71 77 79 78 72 79
REMARK SMILES IDX 73 80 77 81 80 82 74 83 75 84 78 85 76 86 55 87 56 88 64 89
REMARK SMILES IDX 57 90 58 91 62 92 65 93 59 94 60 95 63 96 61 97
REMARK H PARENT 19 6 13 11 16 24 26 31 85 50 53 61
REMARK Flexibility Score: inf
ROOT
ATOM      1  C   UNL A   1      34.909  31.903  28.207  1.00  0.00     0.021 C 
ENDROOT
BRANCH   1   2
ATOM      2  C   UNL A   1      33.665  31.244  27.623  1.00  0.00     0.116 C 
BRANCH   2   3
ATOM      3  N   UNL A   1      33.859  29.825  27.421  1.00  0.00    -0.354 N 
ATOM      4  C   UNL A   1      33.648  29.044  26.328  1.00  0.00     0.244 C 
ATOM      5  O   UNL A   1      34.125  27.904  26.355  1.00  0.00    -0.273 OA
ATOM      6  H   UNL A   1      34.199  29.341  28.208  1.00  0.00     0.163 HD
BRANCH   4   7
ATOM      7  C   UNL A   1      32.954  29.568  25.057  1.00  0.00     0.197 C 
BRANCH   7   8
ATOM      8  N   UNL A   1      33.719  29.301  23.827  1.00  0.00    -0.339 N 
ATOM      9  C   UNL A   1      33.621  28.259  22.948  1.00  0.00     0.261 C 
ATOM     10  O   UNL A   1      34.242  28.355  21.886  1.00  0.00    -0.271 OA
ATOM     11  H   UNL A   1      34.403  29.974  23.604  1.00  0.00     0.164 HD
BRANCH   9  12
ATOM     12  C   UNL A   1      32.866  26.974  23.318  1.00  0.00     0.258 C 
ATOM     13  C   UNL A   1      31.767  26.771  22.277  1.00  0.00     0.064 C 
BRANCH  12  14
ATOM     14  O   UNL A   1      33.838  25.928  23.388  1.00  0.00    -0.481 OA
BRANCH  14  15
ATOM     15  C   UNL A   1      33.847  25.192  24.533  1.00  0.00     0.120 A 
ATOM     16  C   UNL A   1      32.672  24.970  25.254  1.00  0.00     0.049 A 
ATOM     17  C   UNL A   1      35.012  24.496  24.853  1.00  0.00     0.049 A 
ATOM     18  C   UNL A   1      32.677  24.096  26.339  1.00  0.00     0.043 A 
ATOM     19  C   UNL A   1      35.013  23.609  25.931  1.00  0.00     0.043 A 
ATOM     20  C   UNL A   1      33.848  23.421  26.668  1.00  0.00     0.123 A 
ATOM     21  F   UNL A   1      33.842  22.559  27.692  1.00  0.00    -0.207 F 
ENDBRANCH  14  15
ENDBRANCH  12  14
ENDBRANCH   9  12
ENDBRANCH   7   8
BRANCH   7  22
ATOM     22  C   UNL A   1      31.484  29.130  24.983  1.00  0.00     0.191 C 
BRANCH  22  23
ATOM     23  O   UNL A   1      30.656  30.015  24.234  1.00  0.00    -0.394 OA
ATOM     24  H   UNL A   1      29.988  29.503  23.753  1.00  0.00     0.210 HD
ENDBRANCH  22  23
ENDBRANCH   7  22
ENDBRANCH   4   7
ENDBRANCH   2   3
ENDBRANCH   1   2
BRANCH   1  25
ATOM     25  C   UNL A   1      34.616  32.978  29.257  1.00  0.00     0.002 C 
BRANCH  25  26
ATOM     26  C   UNL A   1      34.590  34.415  28.725  1.00  0.00     0.002 C 
BRANCH  26  27
ATOM     27  C   UNL A   1      33.255  35.146  28.889  1.00  0.00     0.021 C 
BRANCH  27  28
ATOM     28  C   UNL A   1      33.313  36.385  29.774  1.00  0.00     0.116 C 
BRANCH  28  29
ATOM     29  N   UNL A   1      32.384  36.307  30.888  1.00  0.00    -0.352 N 
ATOM     30  C   UNL A   1      32.484  35.586  32.047  1.00  0.00     0.251 C 
ATOM     31  H   UNL A   1      31.567  36.849  30.796  1.00  0.00     0.163 HD
ATOM     32  O   UNL A   1      31.517  35.499  32.805  1.00  0.00    -0.269 OA
BRANCH  30  33
ATOM     33  C   UNL A   1      33.745  34.898  32.384  1.00  0.00     0.039 A 
ATOM     34  C   UNL A   1      33.692  33.575  32.828  1.00  0.00     0.014 A 
ATOM     35  C   UNL A   1      34.974  35.558  32.288  1.00  0.00     0.014 A 
ATOM     36  C   UNL A   1      34.873  32.903  33.144  1.00  0.00     0.010 A 
ATOM     37  C   UNL A   1      36.156  34.863  32.523  1.00  0.00     0.010 A 
ATOM     38  C   UNL A   1      36.116  33.535  32.975  1.00  0.00    -0.014 A 
BRANCH  38  39
ATOM     39  C   UNL A   1      37.381  32.834  33.304  1.00  0.00     0.031 A 
ATOM     40  C   UNL A   1      38.094  33.135  34.592  1.00  0.00     0.074 A 
ATOM     41  C   UNL A   1      37.899  31.947  32.434  1.00  0.00     0.049 A 
ATOM     42  N   UNL A   1      39.220  32.645  35.049  1.00  0.00    -0.248 NA
ATOM     43  C   UNL A   1      37.476  34.137  35.473  1.00  0.00     0.031 C 
ATOM     44  C   UNL A   1      37.314  31.598  31.139  1.00  0.00     0.029 A 
ATOM     45  N   UNL A   1      39.030  31.175  32.511  1.00  0.00    -0.354 N 
ATOM     46  C   UNL A   1      39.440  33.281  36.263  1.00  0.00     0.074 A 
ATOM     47  C   UNL A   1      38.376  34.243  36.439  1.00  0.00     0.031 C 
ATOM     48  C   UNL A   1      38.067  30.647  30.562  1.00  0.00     0.029 A 
ATOM     49  C   UNL A   1      39.205  30.349  31.428  1.00  0.00     0.049 A 
ATOM     50  H   UNL A   1      39.657  31.210  33.269  1.00  0.00     0.167 HD
ATOM     51  C   UNL A   1      40.422  33.056  37.168  1.00  0.00     0.037 A 
ATOM     52  C   UNL A   1      40.170  29.447  31.167  1.00  0.00     0.037 A 
ATOM     53  C   UNL A   1      41.472  32.087  36.995  1.00  0.00     0.049 A 
ATOM     54  C   UNL A   1      41.268  29.233  32.172  1.00  0.00     0.074 A 
ATOM     55  C   UNL A   1      42.501  31.766  37.861  1.00  0.00     0.029 A 
ATOM     56  N   UNL A   1      41.624  31.280  35.876  1.00  0.00    -0.354 N 
ATOM     57  N   UNL A   1      41.448  29.812  33.334  1.00  0.00    -0.248 NA
ATOM     58  C   UNL A   1      42.293  28.237  31.832  1.00  0.00     0.031 C 
ATOM     59  C   UNL A   1      43.303  30.799  37.247  1.00  0.00     0.029 A 
ATOM     60  C   UNL A   1      42.740  30.472  36.024  1.00  0.00     0.049 A 
ATOM     61  H   UNL A   1      41.027  31.281  35.093  1.00  0.00     0.167 HD
ATOM     62  C   UNL A   1      42.587  29.233  33.878  1.00  0.00     0.074 A 
ATOM     63  C   UNL A   1      43.051  28.250  32.921  1.00  0.00     0.031 C 
ATOM     64  C   UNL A   1      43.189  29.493  35.065  1.00  0.00     0.037 A 
BRANCH  51  65
ATOM     65  C   UNL A   1      40.395  33.865  38.434  1.00  0.00     0.064 A 
ATOM     66  C   UNL A   1      39.593  33.475  39.517  1.00  0.00     0.173 A 
ATOM     67  C   UNL A   1      41.142  35.046  38.565  1.00  0.00     0.173 A 
ATOM     68  F   UNL A   1      38.855  32.357  39.446  1.00  0.00    -0.203 F 
ATOM     69  C   UNL A   1      39.537  34.239  40.680  1.00  0.00     0.198 A 
ATOM     70  C   UNL A   1      41.111  35.789  39.742  1.00  0.00     0.198 A 
ATOM     71  F   UNL A   1      41.935  35.458  37.565  1.00  0.00    -0.203 F 
ATOM     72  F   UNL A   1      38.744  33.860  41.691  1.00  0.00    -0.200 F 
ATOM     73  C   UNL A   1      40.303  35.390  40.795  1.00  0.00     0.200 A 
ATOM     74  F   UNL A   1      41.875  36.883  39.862  1.00  0.00    -0.200 F 
ATOM     75  F   UNL A   1      40.267  36.111  41.924  1.00  0.00    -0.200 F 
ENDBRANCH  51  65
BRANCH  52  76
ATOM     76  C   UNL A   1      40.090  28.638  29.925  1.00  0.00     0.064 A 
ATOM     77  C   UNL A   1      39.448  27.392  29.899  1.00  0.00     0.173 A 
ATOM     78  C   UNL A   1      40.713  29.075  28.747  1.00  0.00     0.173 A 
ATOM     79  F   UNL A   1      38.843  26.926  31.002  1.00  0.00    -0.203 F 
ATOM     80  C   UNL A   1      39.455  26.602  28.751  1.00  0.00     0.198 A 
ATOM     81  C   UNL A   1      40.699  28.295  27.593  1.00  0.00     0.198 A 
ATOM     82  F   UNL A   1      41.325  30.268  28.718  1.00  0.00    -0.203 F 
ATOM     83  F   UNL A   1      38.871  25.395  28.766  1.00  0.00    -0.200 F 
ATOM     84  C   UNL A   1      40.080  27.055  27.599  1.00  0.00     0.200 A 
ATOM     85  F   UNL A   1      41.287  28.745  26.476  1.00  0.00    -0.200 F 
ATOM     86  F   UNL A   1      40.085  26.295  26.495  1.00  0.00    -0.200 F 
ENDBRANCH  52  76
BRANCH  64  87
ATOM     87  C   UNL A   1      44.403  28.686  35.423  1.00  0.00     0.064 A 
ATOM     88  C   UNL A   1      45.677  29.098  34.999  1.00  0.00     0.173 A 
ATOM     89  C   UNL A   1      44.302  27.469  36.112  1.00  0.00     0.173 A 
ATOM     90  F   UNL A   1      45.826  30.250  34.330  1.00  0.00    -0.203 F 
ATOM     91  C   UNL A   1      46.801  28.313  35.238  1.00  0.00     0.198 A 
ATOM     92  C   UNL A   1      45.434  26.700  36.376  1.00  0.00     0.198 A 
ATOM     93  F   UNL A   1      43.110  27.036  36.547  1.00  0.00    -0.203 F 
ATOM     94  F   UNL A   1      48.001  28.709  34.790  1.00  0.00    -0.200 F 
ATOM     95  C   UNL A   1      46.679  27.117  35.930  1.00  0.00     0.200 A 
ATOM     96  F   UNL A   1      45.319  25.557  37.066  1.00  0.00    -0.200 F 
ATOM     97  F   UNL A   1      47.764  26.367  36.168  1.00  0.00    -0.200 F 
ENDBRANCH  64  87
ENDBRANCH  38  39
ENDBRANCH  30  33
ENDBRANCH  28  29
ENDBRANCH  27  28
ENDBRANCH  26  27
ENDBRANCH  25  26
ENDBRANCH   1  25
TORSDOF 19
ENDMDL
MODEL 3
REMARK VINA RESULT:     -10.3      3.589      5.460
REMARK SMILES C[C@@H](Oc1ccc(F)cc1)C(=O)N[C@@H](CO)C(=O)NCCCCCCNC(=O)c1ccc(-c2c3nc(c(-c4c(F)c(F)c(F)c(F)c4F)c4ccc([nH]4)c(-c4c(F)c(F)c(F)c(F)c4F)c4nc(c(-c5c(F)c(F)c(F)c(F)c5F)c5ccc2[nH]5)C=C4)C=C3)cc1
REMARK SMILES IDX 21 1 20 2 19 3 17 4 18 5 14 7 13 8 11 9 12 10 2 12 1 13 3 14
REMARK SMILES IDX 4 15 5 16 10 17 6 18 9 19 7 20 8 21 15 22 16 23 22 25 23 26
REMARK SMILES IDX 24 27 25 28 26 29 27 30 28 32 29 33 30 34 91 35 31 36 90 37
REMARK SMILES IDX 32 38 33 39 34 40 84 41 35 42 89 43 83 44 85 45 36 46 88 47
REMARK SMILES IDX 82 48 81 49 37 51 69 52 49 53 68 54 50 55 53 56 67 57 86 58
REMARK SMILES IDX 51 59 52 60 66 62 87 63 54 64 38 65 39 66 47 67 40 68 41 69
REMARK SMILES IDX 45 70 48 71 42 72 43 73 46 74 44 75 70 76 71 77 79 78 72 79
REMARK SMILES IDX 73 80 77 81 80 82 74 83 75 84 78 85 76 86 55 87 56 88 64 89
REMARK SMILES IDX 57 90 58 91 62 92 65 93 59 94 60 95 63 96 61 97
REMARK H PARENT 19 6 13 11 16 24 26 31 85 50 53 61
REMARK Flexibility Score: inf
ROOT
ATOM      1  C   UNL A   1      35.848  22.161  23.851  1.00  0.00     0.021 C 
ENDROOT
BRANCH   1   2
ATOM      2  C   UNL A   1      35.751  23.662  23.608  1.00  0.00     0.116 C 
BRANCH   2   3
ATOM      3  N   UNL A   1      35.067  24.335  24.691  1.00  0.00    -0.354 N 
ATOM      4  C   UNL A   1      33.742  24.432  24.983  1.00  0.00     0.244 C 
ATOM      5  O   UNL A   1      33.448  24.864  26.103  1.00  0.00    -0.273 OA
ATOM      6  H   UNL A   1      35.660  24.804  25.322  1.00  0.00     0.163 HD
BRANCH   4   7
ATOM      7  C   UNL A   1      32.645  23.925  24.030  1.00  0.00     0.197 C 
BRANCH   7   8
ATOM      8  N   UNL A   1      31.527  23.269  24.730  1.00  0.00    -0.339 N 
ATOM      9  C   UNL A   1      31.505  22.098  25.433  1.00  0.00     0.261 C 
ATOM     10  O   UNL A   1      30.490  21.853  26.091  1.00  0.00    -0.271 OA
ATOM     11  H   UNL A   1      30.667  23.746  24.684  1.00  0.00     0.164 HD
BRANCH   9  12
ATOM     12  C   UNL A   1      32.646  21.077  25.315  1.00  0.00     0.258 C 
ATOM     13  C   UNL A   1      33.451  21.135  26.611  1.00  0.00     0.064 C 
BRANCH  12  14
ATOM     14  O   UNL A   1      32.041  19.812  25.031  1.00  0.00    -0.481 OA
BRANCH  14  15
ATOM     15  C   UNL A   1      32.861  18.727  25.098  1.00  0.00     0.120 A 
ATOM     16  C   UNL A   1      32.490  17.589  25.816  1.00  0.00     0.049 A 
ATOM     17  C   UNL A   1      33.980  18.701  24.266  1.00  0.00     0.049 A 
ATOM     18  C   UNL A   1      33.275  16.439  25.751  1.00  0.00     0.043 A 
ATOM     19  C   UNL A   1      34.758  17.545  24.189  1.00  0.00     0.043 A 
ATOM     20  C   UNL A   1      34.402  16.427  24.937  1.00  0.00     0.123 A 
ATOM     21  F   UNL A   1      35.138  15.312  24.853  1.00  0.00    -0.207 F 
ENDBRANCH  14  15
ENDBRANCH  12  14
ENDBRANCH   9  12
ENDBRANCH   7   8
BRANCH   7  22
ATOM     22  C   UNL A   1      32.204  25.007  23.034  1.00  0.00     0.191 C 
BRANCH  22  23
ATOM     23  O   UNL A   1      32.953  26.216  23.128  1.00  0.00    -0.394 OA
ATOM     24  H   UNL A   1      32.662  26.831  22.438  1.00  0.00     0.210 HD
ENDBRANCH  22  23
ENDBRANCH   7  22
ENDBRANCH   4   7
ENDBRANCH   2   3
ENDBRANCH   1   2
BRANCH   1  25
ATOM     25  C   UNL A   1      36.816  21.767  24.970  1.00  0.00     0.002 C 
BRANCH  25  26
ATOM     26  C   UNL A   1      37.040  20.260  25.133  1.00  0.00     0.002 C 
BRANCH  26  27
ATOM     27  C   UNL A   1      38.475  19.785  24.892  1.00  0.00     0.021 C 
BRANCH  27  28
ATOM     28  C   UNL A   1      39.400  19.916  26.094  1.00  0.00     0.116 C 
BRANCH  28  29
ATOM     29  N   UNL A   1      40.569  19.060  25.984  1.00  0.00    -0.352 N 
ATOM     30  C   UNL A   1      41.894  19.401  26.003  1.00  0.00     0.251 C 
ATOM     31  H   UNL A   1      40.381  18.100  25.882  1.00  0.00     0.163 HD
ATOM     32  O   UNL A   1      42.751  18.565  25.718  1.00  0.00    -0.269 OA
BRANCH  30  33
ATOM     33  C   UNL A   1      42.299  20.778  26.350  1.00  0.00     0.039 A 
ATOM     34  C   UNL A   1      42.359  21.737  25.337  1.00  0.00     0.014 A 
ATOM     35  C   UNL A   1      42.642  21.119  27.662  1.00  0.00     0.014 A 
ATOM     36  C   UNL A   1      42.731  23.046  25.644  1.00  0.00     0.010 A 
ATOM     37  C   UNL A   1      42.933  22.442  27.982  1.00  0.00     0.010 A 
ATOM     38  C   UNL A   1      43.002  23.413  26.973  1.00  0.00    -0.014 A 
BRANCH  38  39
ATOM     39  C   UNL A   1      43.396  24.801  27.316  1.00  0.00     0.031 A 
ATOM     40  C   UNL A   1      44.801  25.269  27.058  1.00  0.00     0.074 A 
ATOM     41  C   UNL A   1      42.499  25.631  27.882  1.00  0.00     0.049 A 
ATOM     42  N   UNL A   1      45.345  26.433  27.309  1.00  0.00    -0.248 NA
ATOM     43  C   UNL A   1      45.726  24.291  26.465  1.00  0.00     0.031 C 
ATOM     44  C   UNL A   1      41.118  25.279  28.209  1.00  0.00     0.029 A 
ATOM     45  N   UNL A   1      42.615  26.940  28.274  1.00  0.00    -0.354 N 
ATOM     46  C   UNL A   1      46.669  26.325  26.905  1.00  0.00     0.074 A 
ATOM     47  C   UNL A   1      46.868  24.962  26.464  1.00  0.00     0.031 C 
ATOM     48  C   UNL A   1      40.500  26.360  28.712  1.00  0.00     0.029 A 
ATOM     49  C   UNL A   1      41.451  27.466  28.778  1.00  0.00     0.049 A 
ATOM     50  H   UNL A   1      43.452  27.453  28.204  1.00  0.00     0.167 HD
ATOM     51  C   UNL A   1      47.623  27.285  26.872  1.00  0.00     0.037 A 
ATOM     52  C   UNL A   1      41.180  28.704  29.233  1.00  0.00     0.037 A 
ATOM     53  C   UNL A   1      47.416  28.644  27.299  1.00  0.00     0.049 A 
ATOM     54  C   UNL A   1      42.262  29.748  29.213  1.00  0.00     0.074 A 
ATOM     55  C   UNL A   1      48.310  29.698  27.284  1.00  0.00     0.029 A 
ATOM     56  N   UNL A   1      46.226  29.135  27.817  1.00  0.00    -0.354 N 
ATOM     57  N   UNL A   1      43.500  29.646  28.796  1.00  0.00    -0.248 NA
ATOM     58  C   UNL A   1      41.908  31.079  29.723  1.00  0.00     0.031 C 
ATOM     59  C   UNL A   1      47.677  30.815  27.837  1.00  0.00     0.029 A 
ATOM     60  C   UNL A   1      46.369  30.474  28.141  1.00  0.00     0.049 A 
ATOM     61  H   UNL A   1      45.402  28.609  27.938  1.00  0.00     0.167 HD
ATOM     62  C   UNL A   1      44.066  30.903  28.964  1.00  0.00     0.074 A 
ATOM     63  C   UNL A   1      43.031  31.754  29.514  1.00  0.00     0.031 C 
ATOM     64  C   UNL A   1      45.328  31.313  28.684  1.00  0.00     0.037 A 
BRANCH  51  65
ATOM     65  C   UNL A   1      48.975  26.899  26.339  1.00  0.00     0.064 A 
ATOM     66  C   UNL A   1      49.951  26.356  27.187  1.00  0.00     0.173 A 
ATOM     67  C   UNL A   1      49.314  27.097  24.991  1.00  0.00     0.173 A 
ATOM     68  F   UNL A   1      49.682  26.150  28.485  1.00  0.00    -0.203 F 
ATOM     69  C   UNL A   1      51.217  26.028  26.706  1.00  0.00     0.198 A 
ATOM     70  C   UNL A   1      50.569  26.736  24.507  1.00  0.00     0.198 A 
ATOM     71  F   UNL A   1      48.414  27.602  24.135  1.00  0.00    -0.203 F 
ATOM     72  F   UNL A   1      52.141  25.534  27.541  1.00  0.00    -0.200 F 
ATOM     73  C   UNL A   1      51.521  26.210  25.366  1.00  0.00     0.200 A 
ATOM     74  F   UNL A   1      50.850  26.883  23.205  1.00  0.00    -0.200 F 
ATOM     75  F   UNL A   1      52.731  25.871  24.900  1.00  0.00    -0.200 F 
ENDBRANCH  51  65
BRANCH  52  76
ATOM     76  C   UNL A   1      39.802  29.027  29.679  1.00  0.00     0.064 A 
ATOM     77  C   UNL A   1      39.405  28.868  31.015  1.00  0.00     0.173 A 
ATOM     78  C   UNL A   1      38.832  29.445  28.757  1.00  0.00     0.173 A 
ATOM     79  F   UNL A   1      40.294  28.464  31.935  1.00  0.00    -0.203 F 
ATOM     80  C   UNL A   1      38.086  29.090  31.405  1.00  0.00     0.198 A 
ATOM     81  C   UNL A   1      37.519  29.689  29.153  1.00  0.00     0.198 A 
ATOM     82  F   UNL A   1      39.167  29.627  27.471  1.00  0.00    -0.203 F 
ATOM     83  F   UNL A   1      37.724  28.889  32.681  1.00  0.00    -0.200 F 
ATOM     84  C   UNL A   1      37.145  29.501  30.474  1.00  0.00     0.200 A 
ATOM     85  F   UNL A   1      36.617  30.105  28.254  1.00  0.00    -0.200 F 
ATOM     86  F   UNL A   1      35.877  29.714  30.851  1.00  0.00    -0.200 F 
ENDBRANCH  52  76
BRANCH  64  87
ATOM     87  C   UNL A   1      45.666  32.753  28.935  1.00  0.00     0.064 A 
ATOM     88  C   UNL A   1      45.517  33.704  27.912  1.00  0.00     0.173 A 
ATOM     89  C   UNL A   1      46.210  33.181  30.154  1.00  0.00     0.173 A 
ATOM     90  F   UNL A   1      45.008  33.344  26.724  1.00  0.00    -0.203 F 
ATOM     91  C   UNL A   1      45.917  35.024  28.095  1.00  0.00     0.198 A 
ATOM     92  C   UNL A   1      46.581  34.511  30.344  1.00  0.00     0.198 A 
ATOM     93  F   UNL A   1      46.363  32.315  31.166  1.00  0.00    -0.203 F 
ATOM     94  F   UNL A   1      45.800  35.904  27.090  1.00  0.00    -0.200 F 
ATOM     95  C   UNL A   1      46.444  35.428  29.312  1.00  0.00     0.200 A 
ATOM     96  F   UNL A   1      47.068  34.905  31.529  1.00  0.00    -0.200 F 
ATOM     97  F   UNL A   1      46.820  36.701  29.491  1.00  0.00    -0.200 F 
ENDBRANCH  64  87
ENDBRANCH  38  39
ENDBRANCH  30  33
ENDBRANCH  28  29
ENDBRANCH  27  28
ENDBRANCH  26  27
ENDBRANCH  25  26
ENDBRANCH   1  25
TORSDOF 19
ENDMDL
