MODEL 1
REMARK VINA RESULT:     -11.1      0.000      0.000
REMARK SMILES Cc1nsc(NCC(C)C)c1C(=O)NCCCCCCNC(=O)c1ccc(-c2c3nc(c(-c4c(F)c(F)c(F)c(F)c4F)c4ccc([nH]4)c(-c4c(F)c(F)c(F)c(F)c4F)c4nc(c(-c5c(F)c(F)c(F)c(F)c5F)c5ccc2[nH]5)C=C4)C=C3)cc1
REMARK SMILES IDX 17 1 16 2 15 3 14 4 12 5 13 6 11 8 1 9 2 10 3 11 4 12 5 13
REMARK SMILES IDX 6 14 7 16 8 17 9 18 10 19 18 20 19 21 20 22 21 23 22 24
REMARK SMILES IDX 23 26 24 27 25 28 86 29 26 30 85 31 27 32 28 33 29 34 79 35
REMARK SMILES IDX 30 36 84 37 78 38 80 39 31 40 83 41 77 42 76 43 32 45 64 46
REMARK SMILES IDX 44 47 63 48 45 49 48 50 62 51 81 52 46 53 47 54 61 56 82 57
REMARK SMILES IDX 49 58 33 59 34 60 42 61 35 62 36 63 40 64 43 65 37 66 38 67
REMARK SMILES IDX 41 68 39 69 65 70 66 71 74 72 67 73 68 74 72 75 75 76 69 77
REMARK SMILES IDX 70 78 73 79 71 80 50 81 51 82 59 83 52 84 53 85 57 86 60 87
REMARK SMILES IDX 54 88 55 89 58 90 56 91
REMARK H PARENT 14 7 6 15 21 25 80 44 48 55
REMARK Flexibility Score: inf
ROOT
ATOM      1  C   UNL A   1      40.287  22.333  26.573  1.00  0.00     0.002 C 
ENDROOT
BRANCH   1   2
ATOM      2  C   UNL A   1      38.901  21.938  26.057  1.00  0.00     0.021 C 
BRANCH   2   3
ATOM      3  C   UNL A   1      37.869  23.044  25.863  1.00  0.00     0.116 C 
BRANCH   3   4
ATOM      4  N   UNL A   1      37.420  23.254  24.511  1.00  0.00    -0.352 N 
ATOM      5  C   UNL A   1      36.268  22.872  23.863  1.00  0.00     0.256 C 
ATOM      6  O   UNL A   1      36.206  23.223  22.678  1.00  0.00    -0.269 OA
ATOM      7  H   UNL A   1      38.051  23.762  23.950  1.00  0.00     0.163 HD
BRANCH   5   8
ATOM      8  C   UNL A   1      35.206  22.046  24.469  1.00  0.00     0.097 A 
ATOM      9  C   UNL A   1      36.258  19.622  24.883  1.00  0.00     0.069 C 
ATOM     10  C   UNL A   1      35.175  20.644  24.876  1.00  0.00     0.066 A 
ATOM     11  N   UNL A   1      34.014  20.193  25.354  1.00  0.00    -0.195 NA
ATOM     12  S   UNL A   1      32.954  21.432  25.475  1.00  0.00    -0.018 S 
ATOM     13  C   UNL A   1      33.992  22.649  24.854  1.00  0.00     0.122 A 
BRANCH  13  14
ATOM     14  N   UNL A   1      33.666  23.970  24.745  1.00  0.00    -0.375 N 
ATOM     15  H   UNL A   1      33.593  24.340  23.836  1.00  0.00     0.161 HD
BRANCH  14  16
ATOM     16  C   UNL A   1      33.418  24.881  25.851  1.00  0.00     0.116 C 
BRANCH  16  17
ATOM     17  C   UNL A   1      33.962  26.289  25.542  1.00  0.00     0.002 C 
ATOM     18  C   UNL A   1      33.811  26.647  24.060  1.00  0.00     0.009 C 
ATOM     19  C   UNL A   1      33.236  27.333  26.395  1.00  0.00     0.009 C 
ENDBRANCH  16  17
ENDBRANCH  14  16
ENDBRANCH  13  14
ENDBRANCH   5   8
ENDBRANCH   3   4
ENDBRANCH   2   3
ENDBRANCH   1   2
BRANCH   1  20
ATOM     20  C   UNL A   1      40.920  21.502  27.697  1.00  0.00     0.002 C 
BRANCH  20  21
ATOM     21  C   UNL A   1      41.944  20.422  27.330  1.00  0.00     0.021 C 
BRANCH  21  22
ATOM     22  C   UNL A   1      42.000  20.032  25.862  1.00  0.00     0.116 C 
BRANCH  22  23
ATOM     23  N   UNL A   1      43.344  19.722  25.378  1.00  0.00    -0.352 N 
ATOM     24  C   UNL A   1      44.334  20.609  24.978  1.00  0.00     0.251 C 
ATOM     25  H   UNL A   1      43.575  18.767  25.328  1.00  0.00     0.163 HD
ATOM     26  O   UNL A   1      45.256  20.252  24.267  1.00  0.00    -0.269 OA
BRANCH  24  27
ATOM     27  C   UNL A   1      44.249  22.008  25.441  1.00  0.00     0.039 A 
ATOM     28  C   UNL A   1      43.436  22.949  24.802  1.00  0.00     0.014 A 
ATOM     29  C   UNL A   1      44.981  22.353  26.569  1.00  0.00     0.014 A 
ATOM     30  C   UNL A   1      43.305  24.217  25.370  1.00  0.00     0.010 A 
ATOM     31  C   UNL A   1      44.701  23.520  27.226  1.00  0.00     0.010 A 
ATOM     32  C   UNL A   1      43.926  24.487  26.598  1.00  0.00    -0.014 A 
BRANCH  32  33
ATOM     33  C   UNL A   1      43.723  25.751  27.296  1.00  0.00     0.031 A 
ATOM     34  C   UNL A   1      44.671  26.840  26.930  1.00  0.00     0.074 A 
ATOM     35  C   UNL A   1      42.612  25.996  28.028  1.00  0.00     0.049 A 
ATOM     36  N   UNL A   1      45.515  27.450  27.696  1.00  0.00    -0.248 NA
ATOM     37  C   UNL A   1      44.765  27.231  25.514  1.00  0.00     0.031 C 
ATOM     38  C   UNL A   1      41.433  25.140  28.213  1.00  0.00     0.029 A 
ATOM     39  N   UNL A   1      42.252  27.134  28.679  1.00  0.00    -0.354 N 
ATOM     40  C   UNL A   1      46.122  28.425  26.906  1.00  0.00     0.074 A 
ATOM     41  C   UNL A   1      45.745  28.136  25.548  1.00  0.00     0.031 C 
ATOM     42  C   UNL A   1      40.411  25.870  28.710  1.00  0.00     0.029 A 
ATOM     43  C   UNL A   1      40.916  27.184  29.054  1.00  0.00     0.049 A 
ATOM     44  H   UNL A   1      42.886  27.863  28.869  1.00  0.00     0.167 HD
ATOM     45  C   UNL A   1      46.693  29.528  27.467  1.00  0.00     0.037 A 
ATOM     46  C   UNL A   1      40.262  28.241  29.594  1.00  0.00     0.037 A 
ATOM     47  C   UNL A   1      46.935  29.326  28.874  1.00  0.00     0.049 A 
ATOM     48  C   UNL A   1      41.291  29.159  30.139  1.00  0.00     0.074 A 
ATOM     49  C   UNL A   1      47.687  28.433  29.611  1.00  0.00     0.029 A 
ATOM     50  N   UNL A   1      46.055  29.889  29.765  1.00  0.00    -0.354 N 
ATOM     51  N   UNL A   1      42.050  28.872  31.160  1.00  0.00    -0.248 NA
ATOM     52  C   UNL A   1      41.789  30.208  29.265  1.00  0.00     0.031 C 
ATOM     53  C   UNL A   1      46.893  28.146  30.762  1.00  0.00     0.029 A 
ATOM     54  C   UNL A   1      45.740  28.928  30.691  1.00  0.00     0.049 A 
ATOM     55  H   UNL A   1      45.712  30.812  29.743  1.00  0.00     0.167 HD
ATOM     56  C   UNL A   1      43.296  29.378  30.825  1.00  0.00     0.074 A 
ATOM     57  C   UNL A   1      43.051  30.272  29.694  1.00  0.00     0.031 C 
ATOM     58  C   UNL A   1      44.439  28.806  31.306  1.00  0.00     0.037 A 
BRANCH  45  59
ATOM     59  C   UNL A   1      46.687  30.910  26.852  1.00  0.00     0.064 A 
ATOM     60  C   UNL A   1      47.882  31.661  26.848  1.00  0.00     0.173 A 
ATOM     61  C   UNL A   1      45.515  31.640  26.559  1.00  0.00     0.173 A 
ATOM     62  F   UNL A   1      49.058  31.078  27.119  1.00  0.00    -0.203 F 
ATOM     63  C   UNL A   1      47.885  33.048  26.666  1.00  0.00     0.198 A 
ATOM     64  C   UNL A   1      45.529  33.015  26.324  1.00  0.00     0.198 A 
ATOM     65  F   UNL A   1      44.298  31.086  26.600  1.00  0.00    -0.203 F 
ATOM     66  F   UNL A   1      49.026  33.735  26.811  1.00  0.00    -0.200 F 
ATOM     67  C   UNL A   1      46.707  33.724  26.414  1.00  0.00     0.200 A 
ATOM     68  F   UNL A   1      44.373  33.654  26.096  1.00  0.00    -0.200 F 
ATOM     69  F   UNL A   1      46.696  35.059  26.309  1.00  0.00    -0.200 F 
ENDBRANCH  45  59
BRANCH  46  70
ATOM     70  C   UNL A   1      38.847  28.638  29.424  1.00  0.00     0.064 A 
ATOM     71  C   UNL A   1      38.011  28.843  30.533  1.00  0.00     0.173 A 
ATOM     72  C   UNL A   1      38.364  29.094  28.181  1.00  0.00     0.173 A 
ATOM     73  F   UNL A   1      38.416  28.476  31.757  1.00  0.00    -0.203 F 
ATOM     74  C   UNL A   1      36.778  29.492  30.412  1.00  0.00     0.198 A 
ATOM     75  C   UNL A   1      37.132  29.737  28.060  1.00  0.00     0.198 A 
ATOM     76  F   UNL A   1      39.123  29.010  27.079  1.00  0.00    -0.203 F 
ATOM     77  F   UNL A   1      36.035  29.726  31.502  1.00  0.00    -0.200 F 
ATOM     78  C   UNL A   1      36.345  29.948  29.177  1.00  0.00     0.200 A 
ATOM     79  F   UNL A   1      36.742  30.207  26.867  1.00  0.00    -0.200 F 
ATOM     80  F   UNL A   1      35.194  30.627  29.070  1.00  0.00    -0.200 F 
ENDBRANCH  46  70
BRANCH  58  81
ATOM     81  C   UNL A   1      44.304  27.791  32.407  1.00  0.00     0.064 A 
ATOM     82  C   UNL A   1      44.208  26.403  32.194  1.00  0.00     0.173 A 
ATOM     83  C   UNL A   1      44.432  28.229  33.731  1.00  0.00     0.173 A 
ATOM     84  F   UNL A   1      44.183  25.894  30.958  1.00  0.00    -0.203 F 
ATOM     85  C   UNL A   1      44.196  25.506  33.260  1.00  0.00     0.198 A 
ATOM     86  C   UNL A   1      44.457  27.328  34.792  1.00  0.00     0.198 A 
ATOM     87  F   UNL A   1      44.582  29.537  33.993  1.00  0.00    -0.203 F 
ATOM     88  F   UNL A   1      44.093  24.188  33.029  1.00  0.00    -0.200 F 
ATOM     89  C   UNL A   1      44.330  25.969  34.558  1.00  0.00     0.200 A 
ATOM     90  F   UNL A   1      44.635  27.778  36.042  1.00  0.00    -0.200 F 
ATOM     91  F   UNL A   1      44.364  25.103  35.581  1.00  0.00    -0.200 F 
ENDBRANCH  58  81
ENDBRANCH  32  33
ENDBRANCH  24  27
ENDBRANCH  22  23
ENDBRANCH  21  22
ENDBRANCH  20  21
ENDBRANCH   1  20
TORSDOF 16
ENDMDL
MODEL 2
REMARK VINA RESULT:     -11.0      0.822      2.126
REMARK SMILES Cc1nsc(NCC(C)C)c1C(=O)NCCCCCCNC(=O)c1ccc(-c2c3nc(c(-c4c(F)c(F)c(F)c(F)c4F)c4ccc([nH]4)c(-c4c(F)c(F)c(F)c(F)c4F)c4nc(c(-c5c(F)c(F)c(F)c(F)c5F)c5ccc2[nH]5)C=C4)C=C3)cc1
REMARK SMILES IDX 17 1 16 2 15 3 14 4 12 5 13 6 11 8 1 9 2 10 3 11 4 12 5 13
REMARK SMILES IDX 6 14 7 16 8 17 9 18 10 19 18 20 19 21 20 22 21 23 22 24
REMARK SMILES IDX 23 26 24 27 25 28 86 29 26 30 85 31 27 32 28 33 29 34 79 35
REMARK SMILES IDX 30 36 84 37 78 38 80 39 31 40 83 41 77 42 76 43 32 45 64 46
REMARK SMILES IDX 44 47 63 48 45 49 48 50 62 51 81 52 46 53 47 54 61 56 82 57
REMARK SMILES IDX 49 58 33 59 34 60 42 61 35 62 36 63 40 64 43 65 37 66 38 67
REMARK SMILES IDX 41 68 39 69 65 70 66 71 74 72 67 73 68 74 72 75 75 76 69 77
REMARK SMILES IDX 70 78 73 79 71 80 50 81 51 82 59 83 52 84 53 85 57 86 60 87
REMARK SMILES IDX 54 88 55 89 58 90 56 91
REMARK H PARENT 14 7 6 15 21 25 80 44 48 55
REMARK Flexibility Score: inf
ROOT
ATOM      1  C   UNL A   1      40.353  22.040  26.583  1.00  0.00     0.002 C 
ENDROOT
BRANCH   1   2
ATOM      2  C   UNL A   1      39.128  21.452  25.877  1.00  0.00     0.021 C 
BRANCH   2   3
ATOM      3  C   UNL A   1      37.867  22.307  25.803  1.00  0.00     0.116 C 
BRANCH   3   4
ATOM      4  N   UNL A   1      37.331  22.523  24.484  1.00  0.00    -0.352 N 
ATOM      5  C   UNL A   1      36.054  22.798  24.052  1.00  0.00     0.256 C 
ATOM      6  O   UNL A   1      35.943  22.924  22.827  1.00  0.00    -0.269 OA
ATOM      7  H   UNL A   1      37.998  22.462  23.762  1.00  0.00     0.163 HD
BRANCH   5   8
ATOM      8  C   UNL A   1      34.874  22.869  24.935  1.00  0.00     0.097 A 
ATOM      9  C   UNL A   1      34.353  25.464  25.320  1.00  0.00     0.069 C 
ATOM     10  C   UNL A   1      34.157  24.000  25.516  1.00  0.00     0.066 A 
ATOM     11  N   UNL A   1      33.141  23.703  26.327  1.00  0.00    -0.195 NA
ATOM     12  S   UNL A   1      32.897  22.087  26.329  1.00  0.00    -0.018 S 
ATOM     13  C   UNL A   1      34.177  21.688  25.258  1.00  0.00     0.122 A 
BRANCH  13  14
ATOM     14  N   UNL A   1      34.462  20.426  24.822  1.00  0.00    -0.375 N 
ATOM     15  H   UNL A   1      35.390  20.114  24.930  1.00  0.00     0.161 HD
BRANCH  14  16
ATOM     16  C   UNL A   1      33.521  19.501  24.210  1.00  0.00     0.116 C 
BRANCH  16  17
ATOM     17  C   UNL A   1      33.854  18.043  24.582  1.00  0.00     0.002 C 
ATOM     18  C   UNL A   1      32.829  17.454  25.555  1.00  0.00     0.009 C 
ATOM     19  C   UNL A   1      33.913  17.179  23.320  1.00  0.00     0.009 C 
ENDBRANCH  16  17
ENDBRANCH  14  16
ENDBRANCH  13  14
ENDBRANCH   5   8
ENDBRANCH   3   4
ENDBRANCH   2   3
ENDBRANCH   1   2
BRANCH   1  20
ATOM     20  C   UNL A   1      41.056  21.202  27.659  1.00  0.00     0.002 C 
BRANCH  20  21
ATOM     21  C   UNL A   1      42.181  20.249  27.236  1.00  0.00     0.021 C 
BRANCH  21  22
ATOM     22  C   UNL A   1      42.176  19.825  25.776  1.00  0.00     0.116 C 
BRANCH  22  23
ATOM     23  N   UNL A   1      43.506  19.563  25.227  1.00  0.00    -0.352 N 
ATOM     24  C   UNL A   1      44.447  20.484  24.790  1.00  0.00     0.251 C 
ATOM     25  H   UNL A   1      43.765  18.615  25.159  1.00  0.00     0.163 HD
ATOM     26  O   UNL A   1      45.345  20.163  24.033  1.00  0.00    -0.269 OA
BRANCH  24  27
ATOM     27  C   UNL A   1      44.338  21.876  25.269  1.00  0.00     0.039 A 
ATOM     28  C   UNL A   1      43.417  22.776  24.723  1.00  0.00     0.014 A 
ATOM     29  C   UNL A   1      45.163  22.257  26.320  1.00  0.00     0.014 A 
ATOM     30  C   UNL A   1      43.280  24.034  25.309  1.00  0.00     0.010 A 
ATOM     31  C   UNL A   1      44.892  23.406  27.009  1.00  0.00     0.010 A 
ATOM     32  C   UNL A   1      44.009  24.334  26.470  1.00  0.00    -0.014 A 
BRANCH  32  33
ATOM     33  C   UNL A   1      43.814  25.584  27.194  1.00  0.00     0.031 A 
ATOM     34  C   UNL A   1      44.772  26.672  26.854  1.00  0.00     0.074 A 
ATOM     35  C   UNL A   1      42.703  25.823  27.927  1.00  0.00     0.049 A 
ATOM     36  N   UNL A   1      45.619  27.259  27.635  1.00  0.00    -0.248 NA
ATOM     37  C   UNL A   1      44.875  27.093  25.447  1.00  0.00     0.031 C 
ATOM     38  C   UNL A   1      41.515  24.973  28.090  1.00  0.00     0.029 A 
ATOM     39  N   UNL A   1      42.350  26.950  28.601  1.00  0.00    -0.354 N 
ATOM     40  C   UNL A   1      46.236  28.245  26.868  1.00  0.00     0.074 A 
ATOM     41  C   UNL A   1      45.862  27.989  25.503  1.00  0.00     0.031 C 
ATOM     42  C   UNL A   1      40.499  25.701  28.600  1.00  0.00     0.029 A 
ATOM     43  C   UNL A   1      41.013  27.004  28.973  1.00  0.00     0.049 A 
ATOM     44  H   UNL A   1      42.990  27.670  28.808  1.00  0.00     0.167 HD
ATOM     45  C   UNL A   1      46.816  29.332  27.454  1.00  0.00     0.037 A 
ATOM     46  C   UNL A   1      40.366  28.055  29.533  1.00  0.00     0.037 A 
ATOM     47  C   UNL A   1      47.050  29.097  28.857  1.00  0.00     0.049 A 
ATOM     48  C   UNL A   1      41.401  28.951  30.101  1.00  0.00     0.074 A 
ATOM     49  C   UNL A   1      47.792  28.183  29.578  1.00  0.00     0.029 A 
ATOM     50  N   UNL A   1      46.172  29.649  29.757  1.00  0.00    -0.354 N 
ATOM     51  N   UNL A   1      42.154  28.637  31.118  1.00  0.00    -0.248 NA
ATOM     52  C   UNL A   1      41.911  30.015  29.250  1.00  0.00     0.031 C 
ATOM     53  C   UNL A   1      46.992  27.878  30.720  1.00  0.00     0.029 A 
ATOM     54  C   UNL A   1      45.846  28.672  30.661  1.00  0.00     0.049 A 
ATOM     55  H   UNL A   1      45.838  30.575  29.753  1.00  0.00     0.167 HD
ATOM     56  C   UNL A   1      43.406  29.140  30.797  1.00  0.00     0.074 A 
ATOM     57  C   UNL A   1      43.172  30.059  29.684  1.00  0.00     0.031 C 
ATOM     58  C   UNL A   1      44.542  28.548  31.269  1.00  0.00     0.037 A 
BRANCH  45  59
ATOM     59  C   UNL A   1      46.823  30.726  26.869  1.00  0.00     0.064 A 
ATOM     60  C   UNL A   1      48.025  31.465  26.879  1.00  0.00     0.173 A 
ATOM     61  C   UNL A   1      45.658  31.474  26.592  1.00  0.00     0.173 A 
ATOM     62  F   UNL A   1      49.196  30.864  27.136  1.00  0.00    -0.203 F 
ATOM     63  C   UNL A   1      48.042  32.855  26.726  1.00  0.00     0.198 A 
ATOM     64  C   UNL A   1      45.686  32.853  26.387  1.00  0.00     0.198 A 
ATOM     65  F   UNL A   1      44.436  30.933  26.623  1.00  0.00    -0.203 F 
ATOM     66  F   UNL A   1      49.191  33.527  26.884  1.00  0.00    -0.200 F 
ATOM     67  C   UNL A   1      46.871  33.549  26.490  1.00  0.00     0.200 A 
ATOM     68  F   UNL A   1      44.537  33.509  26.173  1.00  0.00    -0.200 F 
ATOM     69  F   UNL A   1      46.874  34.885  26.413  1.00  0.00    -0.200 F 
ENDBRANCH  45  59
BRANCH  46  70
ATOM     70  C   UNL A   1      38.955  28.467  29.367  1.00  0.00     0.064 A 
ATOM     71  C   UNL A   1      38.117  28.654  30.477  1.00  0.00     0.173 A 
ATOM     72  C   UNL A   1      38.481  28.955  28.133  1.00  0.00     0.173 A 
ATOM     73  F   UNL A   1      38.514  28.256  31.694  1.00  0.00    -0.203 F 
ATOM     74  C   UNL A   1      36.890  29.315  30.366  1.00  0.00     0.198 A 
ATOM     75  C   UNL A   1      37.254  29.611  28.022  1.00  0.00     0.198 A 
ATOM     76  F   UNL A   1      39.243  28.890  27.031  1.00  0.00    -0.203 F 
ATOM     77  F   UNL A   1      36.145  29.531  31.459  1.00  0.00    -0.200 F 
ATOM     78  C   UNL A   1      36.465  29.803  29.141  1.00  0.00     0.200 A 
ATOM     79  F   UNL A   1      36.873  30.111  26.838  1.00  0.00    -0.200 F 
ATOM     80  F   UNL A   1      35.320  30.493  29.045  1.00  0.00    -0.200 F 
ENDBRANCH  46  70
BRANCH  58  81
ATOM     81  C   UNL A   1      44.395  27.511  32.349  1.00  0.00     0.064 A 
ATOM     82  C   UNL A   1      44.274  26.130  32.106  1.00  0.00     0.173 A 
ATOM     83  C   UNL A   1      44.537  27.917  33.681  1.00  0.00     0.173 A 
ATOM     84  F   UNL A   1      44.233  25.649  30.859  1.00  0.00    -0.203 F 
ATOM     85  C   UNL A   1      44.252  25.209  33.151  1.00  0.00     0.198 A 
ATOM     86  C   UNL A   1      44.551  26.992  34.722  1.00  0.00     0.198 A 
ATOM     87  F   UNL A   1      44.711  29.216  33.972  1.00  0.00    -0.203 F 
ATOM     88  F   UNL A   1      44.124  23.899  32.892  1.00  0.00    -0.200 F 
ATOM     89  C   UNL A   1      44.400  25.641  34.458  1.00  0.00     0.200 A 
ATOM     90  F   UNL A   1      44.744  27.411  35.981  1.00  0.00    -0.200 F 
ATOM     91  F   UNL A   1      44.424  24.752  35.462  1.00  0.00    -0.200 F 
ENDBRANCH  58  81
ENDBRANCH  32  33
ENDBRANCH  24  27
ENDBRANCH  22  23
ENDBRANCH  21  22
ENDBRANCH  20  21
ENDBRANCH   1  20
TORSDOF 16
ENDMDL
MODEL 3
REMARK VINA RESULT:     -10.5      3.756      6.842
REMARK SMILES Cc1nsc(NCC(C)C)c1C(=O)NCCCCCCNC(=O)c1ccc(-c2c3nc(c(-c4c(F)c(F)c(F)c(F)c4F)c4ccc([nH]4)c(-c4c(F)c(F)c(F)c(F)c4F)c4nc(c(-c5c(F)c(F)c(F)c(F)c5F)c5ccc2[nH]5)C=C4)C=C3)cc1
REMARK SMILES IDX 17 1 16 2 15 3 14 4 12 5 13 6 11 8 1 9 2 10 3 11 4 12 5 13
REMARK SMILES IDX 6 14 7 16 8 17 9 18 10 19 18 20 19 21 20 22 21 23 22 24
REMARK SMILES IDX 23 26 24 27 25 28 86 29 26 30 85 31 27 32 28 33 29 34 79 35
REMARK SMILES IDX 30 36 84 37 78 38 80 39 31 40 83 41 77 42 76 43 32 45 64 46
REMARK SMILES IDX 44 47 63 48 45 49 48 50 62 51 81 52 46 53 47 54 61 56 82 57
REMARK SMILES IDX 49 58 33 59 34 60 42 61 35 62 36 63 40 64 43 65 37 66 38 67
REMARK SMILES IDX 41 68 39 69 65 70 66 71 74 72 67 73 68 74 72 75 75 76 69 77
REMARK SMILES IDX 70 78 73 79 71 80 50 81 51 82 59 83 52 84 53 85 57 86 60 87
REMARK SMILES IDX 54 88 55 89 58 90 56 91
REMARK H PARENT 14 7 6 15 21 25 80 44 48 55
REMARK Flexibility Score: inf
ROOT
ATOM      1  C   UNL A   1      44.132  25.519  25.512  1.00  0.00     0.002 C 
ENDROOT
BRANCH   1   2
ATOM      2  C   UNL A   1      45.033  26.747  25.357  1.00  0.00     0.021 C 
BRANCH   2   3
ATOM      3  C   UNL A   1      46.476  26.522  24.917  1.00  0.00     0.116 C 
BRANCH   3   4
ATOM      4  N   UNL A   1      47.371  27.634  25.108  1.00  0.00    -0.352 N 
ATOM      5  C   UNL A   1      48.561  27.739  25.791  1.00  0.00     0.256 C 
ATOM      6  O   UNL A   1      49.076  28.863  25.753  1.00  0.00    -0.269 OA
ATOM      7  H   UNL A   1      47.080  28.467  24.672  1.00  0.00     0.163 HD
BRANCH   5   8
ATOM      8  C   UNL A   1      49.168  26.650  26.581  1.00  0.00     0.097 A 
ATOM      9  C   UNL A   1      51.431  25.962  25.334  1.00  0.00     0.069 C 
ATOM     10  C   UNL A   1      50.375  25.855  26.379  1.00  0.00     0.066 A 
ATOM     11  N   UNL A   1      50.609  24.897  27.277  1.00  0.00    -0.195 NA
ATOM     12  S   UNL A   1      49.498  24.984  28.473  1.00  0.00    -0.018 S 
ATOM     13  C   UNL A   1      48.609  26.303  27.827  1.00  0.00     0.122 A 
BRANCH  13  14
ATOM     14  N   UNL A   1      47.534  26.888  28.432  1.00  0.00    -0.375 N 
ATOM     15  H   UNL A   1      47.174  27.703  28.015  1.00  0.00     0.161 HD
BRANCH  14  16
ATOM     16  C   UNL A   1      46.873  26.417  29.639  1.00  0.00     0.116 C 
BRANCH  16  17
ATOM     17  C   UNL A   1      45.419  25.998  29.348  1.00  0.00     0.002 C 
ATOM     18  C   UNL A   1      45.338  24.583  28.769  1.00  0.00     0.009 C 
ATOM     19  C   UNL A   1      44.585  26.072  30.630  1.00  0.00     0.009 C 
ENDBRANCH  16  17
ENDBRANCH  14  16
ENDBRANCH  13  14
ENDBRANCH   5   8
ENDBRANCH   3   4
ENDBRANCH   2   3
ENDBRANCH   1   2
BRANCH   1  20
ATOM     20  C   UNL A   1      44.612  24.177  24.944  1.00  0.00     0.002 C 
BRANCH  20  21
ATOM     21  C   UNL A   1      43.575  23.085  24.651  1.00  0.00     0.021 C 
BRANCH  21  22
ATOM     22  C   UNL A   1      43.161  22.229  25.838  1.00  0.00     0.116 C 
BRANCH  22  23
ATOM     23  N   UNL A   1      41.737  21.900  25.867  1.00  0.00    -0.352 N 
ATOM     24  C   UNL A   1      40.723  22.555  26.552  1.00  0.00     0.251 C 
ATOM     25  H   UNL A   1      41.464  21.118  25.336  1.00  0.00     0.163 HD
ATOM     26  O   UNL A   1      39.666  22.003  26.801  1.00  0.00    -0.269 OA
BRANCH  24  27
ATOM     27  C   UNL A   1      40.952  23.950  26.977  1.00  0.00     0.039 A 
ATOM     28  C   UNL A   1      40.446  25.035  26.254  1.00  0.00     0.014 A 
ATOM     29  C   UNL A   1      41.661  24.151  28.154  1.00  0.00     0.014 A 
ATOM     30  C   UNL A   1      40.590  26.318  26.782  1.00  0.00     0.010 A 
ATOM     31  C   UNL A   1      41.631  25.376  28.760  1.00  0.00     0.010 A 
ATOM     32  C   UNL A   1      41.167  26.478  28.051  1.00  0.00    -0.014 A 
BRANCH  32  33
ATOM     33  C   UNL A   1      41.231  27.780  28.704  1.00  0.00     0.031 A 
ATOM     34  C   UNL A   1      42.381  28.637  28.302  1.00  0.00     0.074 A 
ATOM     35  C   UNL A   1      40.199  28.274  29.424  1.00  0.00     0.049 A 
ATOM     36  N   UNL A   1      43.336  29.087  29.047  1.00  0.00    -0.248 NA
ATOM     37  C   UNL A   1      42.546  28.951  26.873  1.00  0.00     0.031 C 
ATOM     38  C   UNL A   1      38.869  27.685  29.637  1.00  0.00     0.029 A 
ATOM     39  N   UNL A   1      40.083  29.483  30.033  1.00  0.00    -0.354 N 
ATOM     40  C   UNL A   1      44.126  29.888  28.225  1.00  0.00     0.074 A 
ATOM     41  C   UNL A   1      43.691  29.636  26.877  1.00  0.00     0.031 C 
ATOM     42  C   UNL A   1      38.022  28.626  30.106  1.00  0.00     0.029 A 
ATOM     43  C   UNL A   1      38.788  29.820  30.404  1.00  0.00     0.049 A 
ATOM     44  H   UNL A   1      40.854  30.073  30.199  1.00  0.00     0.167 HD
ATOM     45  C   UNL A   1      44.915  30.870  28.748  1.00  0.00     0.037 A 
ATOM     46  C   UNL A   1      38.367  31.007  30.904  1.00  0.00     0.037 A 
ATOM     47  C   UNL A   1      45.117  30.671  30.161  1.00  0.00     0.049 A 
ATOM     48  C   UNL A   1      39.566  31.712  31.419  1.00  0.00     0.074 A 
ATOM     49  C   UNL A   1      45.673  29.669  30.932  1.00  0.00     0.029 A 
ATOM     50  N   UNL A   1      44.376  31.434  31.030  1.00  0.00    -0.354 N 
ATOM     51  N   UNL A   1      40.255  31.311  32.451  1.00  0.00    -0.248 NA
ATOM     52  C   UNL A   1      40.264  32.605  30.509  1.00  0.00     0.031 C 
ATOM     53  C   UNL A   1      44.843  29.592  32.089  1.00  0.00     0.029 A 
ATOM     54  C   UNL A   1      43.875  30.592  31.988  1.00  0.00     0.049 A 
ATOM     55  H   UNL A   1      44.231  32.406  30.974  1.00  0.00     0.167 HD
ATOM     56  C   UNL A   1      41.577  31.539  32.101  1.00  0.00     0.074 A 
ATOM     57  C   UNL A   1      41.515  32.423  30.938  1.00  0.00     0.031 C 
ATOM     58  C   UNL A   1      42.581  30.761  32.604  1.00  0.00     0.037 A 
BRANCH  45  59
ATOM     59  C   UNL A   1      45.190  32.201  28.084  1.00  0.00     0.064 A 
ATOM     60  C   UNL A   1      44.115  33.088  27.862  1.00  0.00     0.173 A 
ATOM     61  C   UNL A   1      46.378  32.506  27.386  1.00  0.00     0.173 A 
ATOM     62  F   UNL A   1      42.933  32.896  28.466  1.00  0.00    -0.203 F 
ATOM     63  C   UNL A   1      44.196  34.134  26.937  1.00  0.00     0.198 A 
ATOM     64  C   UNL A   1      46.471  33.583  26.504  1.00  0.00     0.198 A 
ATOM     65  F   UNL A   1      47.458  31.719  27.431  1.00  0.00    -0.203 F 
ATOM     66  F   UNL A   1      43.105  34.860  26.658  1.00  0.00    -0.200 F 
ATOM     67  C   UNL A   1      45.371  34.373  26.252  1.00  0.00     0.200 A 
ATOM     68  F   UNL A   1      47.616  33.790  25.839  1.00  0.00    -0.200 F 
ATOM     69  F   UNL A   1      45.431  35.328  25.315  1.00  0.00    -0.200 F 
ENDBRANCH  45  59
BRANCH  46  70
ATOM     70  C   UNL A   1      37.063  31.680  30.718  1.00  0.00     0.064 A 
ATOM     71  C   UNL A   1      36.129  31.758  31.762  1.00  0.00     0.173 A 
ATOM     72  C   UNL A   1      36.823  32.502  29.598  1.00  0.00     0.173 A 
ATOM     73  F   UNL A   1      36.309  31.040  32.880  1.00  0.00    -0.203 F 
ATOM     74  C   UNL A   1      35.035  32.626  31.704  1.00  0.00     0.198 A 
ATOM     75  C   UNL A   1      35.729  33.365  29.539  1.00  0.00     0.198 A 
ATOM     76  F   UNL A   1      37.700  32.552  28.584  1.00  0.00    -0.203 F 
ATOM     77  F   UNL A   1      34.198  32.720  32.747  1.00  0.00    -0.200 F 
ATOM     78  C   UNL A   1      34.842  33.438  30.597  1.00  0.00     0.200 A 
ATOM     79  F   UNL A   1      35.575  34.171  28.479  1.00  0.00    -0.200 F 
ATOM     80  F   UNL A   1      33.831  34.317  30.568  1.00  0.00    -0.200 F 
ENDBRANCH  46  70
BRANCH  58  81
ATOM     81  C   UNL A   1      42.246  29.835  33.741  1.00  0.00     0.064 A 
ATOM     82  C   UNL A   1      41.827  28.502  33.575  1.00  0.00     0.173 A 
ATOM     83  C   UNL A   1      42.506  30.267  35.047  1.00  0.00     0.173 A 
ATOM     84  F   UNL A   1      41.652  27.979  32.357  1.00  0.00    -0.203 F 
ATOM     85  C   UNL A   1      41.638  27.660  34.670  1.00  0.00     0.198 A 
ATOM     86  C   UNL A   1      42.352  29.414  36.136  1.00  0.00     0.198 A 
ATOM     87  F   UNL A   1      42.961  31.512  35.263  1.00  0.00    -0.203 F 
ATOM     88  F   UNL A   1      41.228  26.396  34.484  1.00  0.00    -0.200 F 
ATOM     89  C   UNL A   1      41.909  28.115  35.948  1.00  0.00     0.200 A 
ATOM     90  F   UNL A   1      42.663  29.844  37.367  1.00  0.00    -0.200 F 
ATOM     91  F   UNL A   1      41.771  27.293  36.999  1.00  0.00    -0.200 F 
ENDBRANCH  58  81
ENDBRANCH  32  33
ENDBRANCH  24  27
ENDBRANCH  22  23
ENDBRANCH  21  22
ENDBRANCH  20  21
ENDBRANCH   1  20
TORSDOF 16
ENDMDL
