MODEL 1
REMARK VINA RESULT:     -13.0      0.000      0.000
REMARK SMILES C/C(=N\NC(N)=O)c1nnn(-c2ccc(C(=O)NCCCCCCNC(=O)c3ccc(-c4c5nc(c(-c6c(F)c(F)c(F)c(F)c6F)c6ccc([nH]6)c(-c6c(F)c(F)c(F)c(F)c6F)c6nc(c(-c7c(F)c(F)c(F)c(F)c7F)c7ccc4[nH]7)C=C6)C=C5)cc3)cc2)c1C
REMARK SMILES IDX 21 1 20 2 19 3 18 4 16 5 17 6 15 8 12 9 13 10 92 11 14 12
REMARK SMILES IDX 91 13 11 14 8 15 9 16 93 17 10 18 94 19 2 20 1 21 3 22 4 23
REMARK SMILES IDX 5 24 6 26 7 27 22 30 23 31 24 32 25 33 26 34 27 36 28 37
REMARK SMILES IDX 29 38 90 39 30 40 89 41 31 42 32 43 33 44 83 45 34 46 88 47
REMARK SMILES IDX 82 48 84 49 35 50 87 51 81 52 80 53 36 55 68 56 48 57 67 58
REMARK SMILES IDX 49 59 52 60 66 61 85 62 50 63 51 64 65 66 86 67 53 68 37 69
REMARK SMILES IDX 38 70 46 71 39 72 40 73 44 74 47 75 41 76 42 77 45 78 43 79
REMARK SMILES IDX 69 80 70 81 78 82 71 83 72 84 76 85 79 86 73 87 74 88 77 89
REMARK SMILES IDX 75 90 54 91 55 92 63 93 56 94 57 95 61 96 64 97 58 98 59 99
REMARK SMILES IDX 62 100 60 101
REMARK H PARENT 18 7 4 25 6 28 6 29 25 35 84 54 52 65
REMARK Flexibility Score: inf
ROOT
ATOM      1  C   UNL A   1      40.127  21.251  26.844  1.00  0.00     0.002 C 
ENDROOT
BRANCH   1   2
ATOM      2  C   UNL A   1      39.971  22.672  26.284  1.00  0.00     0.021 C 
BRANCH   2   3
ATOM      3  C   UNL A   1      38.512  23.115  26.147  1.00  0.00     0.116 C 
BRANCH   3   4
ATOM      4  N   UNL A   1      37.660  21.967  25.890  1.00  0.00    -0.352 N 
ATOM      5  C   UNL A   1      36.376  21.842  25.423  1.00  0.00     0.251 C 
ATOM      6  O   UNL A   1      35.925  20.704  25.297  1.00  0.00    -0.269 OA
ATOM      7  H   UNL A   1      38.092  21.105  26.090  1.00  0.00     0.163 HD
BRANCH   5   8
ATOM      8  C   UNL A   1      35.544  23.003  24.993  1.00  0.00     0.039 A 
ATOM      9  C   UNL A   1      33.711  25.013  24.366  1.00  0.00     0.067 A 
ATOM     10  C   UNL A   1      34.081  24.824  25.698  1.00  0.00     0.029 A 
ATOM     11  C   UNL A   1      34.332  24.298  23.342  1.00  0.00     0.029 A 
ATOM     12  C   UNL A   1      34.975  23.795  26.006  1.00  0.00     0.016 A 
ATOM     13  C   UNL A   1      35.291  23.335  23.660  1.00  0.00     0.016 A 
BRANCH   9  14
ATOM     14  N   UNL A   1      32.637  25.865  24.059  1.00  0.00    -0.217 N 
ATOM     15  C   UNL A   1      31.379  27.582  23.626  1.00  0.00     0.132 A 
ATOM     16  N   UNL A   1      30.694  26.440  23.300  1.00  0.00    -0.128 NA
ATOM     17  C   UNL A   1      32.633  27.248  24.098  1.00  0.00     0.071 A 
ATOM     18  N   UNL A   1      31.502  25.405  23.493  1.00  0.00    -0.061 NA
ATOM     19  C   UNL A   1      33.817  28.085  24.406  1.00  0.00     0.069 C 
BRANCH  15  20
ATOM     20  C   UNL A   1      30.887  28.905  23.280  1.00  0.00     0.087 C 
ATOM     21  C   UNL A   1      30.728  29.860  24.432  1.00  0.00     0.071 C 
ATOM     22  N   UNL A   1      30.684  29.114  22.012  1.00  0.00    -0.174 NA
BRANCH  22  23
ATOM     23  N   UNL A   1      30.212  30.302  21.525  1.00  0.00    -0.229 N 
ATOM     24  C   UNL A   1      28.911  30.623  21.208  1.00  0.00     0.332 C 
ATOM     25  H   UNL A   1      30.881  31.011  21.385  1.00  0.00     0.195 HD
ATOM     26  N   UNL A   1      28.783  31.911  20.782  1.00  0.00    -0.350 N 
ATOM     27  O   UNL A   1      27.925  29.901  21.282  1.00  0.00    -0.247 OA
ATOM     28  H   UNL A   1      29.577  32.492  20.722  1.00  0.00     0.161 HD
ATOM     29  H   UNL A   1      27.897  32.263  20.534  1.00  0.00     0.161 HD
ENDBRANCH  22  23
ENDBRANCH  15  20
ENDBRANCH   9  14
ENDBRANCH   5   8
ENDBRANCH   3   4
ENDBRANCH   2   3
ENDBRANCH   1   2
BRANCH   1  30
ATOM     30  C   UNL A   1      41.353  21.033  27.743  1.00  0.00     0.002 C 
BRANCH  30  31
ATOM     31  C   UNL A   1      42.366  19.995  27.241  1.00  0.00     0.021 C 
BRANCH  31  32
ATOM     32  C   UNL A   1      42.175  19.620  25.776  1.00  0.00     0.116 C 
BRANCH  32  33
ATOM     33  N   UNL A   1      43.452  19.378  25.120  1.00  0.00    -0.352 N 
ATOM     34  C   UNL A   1      44.395  20.285  24.697  1.00  0.00     0.251 C 
ATOM     35  H   UNL A   1      43.671  18.432  24.956  1.00  0.00     0.163 HD
ATOM     36  O   UNL A   1      45.228  19.966  23.862  1.00  0.00    -0.269 OA
BRANCH  34  37
ATOM     37  C   UNL A   1      44.388  21.655  25.244  1.00  0.00     0.039 A 
ATOM     38  C   UNL A   1      43.469  22.580  24.742  1.00  0.00     0.014 A 
ATOM     39  C   UNL A   1      45.309  22.028  26.225  1.00  0.00     0.014 A 
ATOM     40  C   UNL A   1      43.427  23.857  25.288  1.00  0.00     0.010 A 
ATOM     41  C   UNL A   1      45.222  23.275  26.817  1.00  0.00     0.010 A 
ATOM     42  C   UNL A   1      44.286  24.195  26.347  1.00  0.00    -0.014 A 
BRANCH  42  43
ATOM     43  C   UNL A   1      44.037  25.436  27.085  1.00  0.00     0.031 A 
ATOM     44  C   UNL A   1      45.016  26.517  26.772  1.00  0.00     0.074 A 
ATOM     45  C   UNL A   1      42.932  25.687  27.818  1.00  0.00     0.049 A 
ATOM     46  N   UNL A   1      45.838  27.100  27.580  1.00  0.00    -0.248 NA
ATOM     47  C   UNL A   1      45.191  26.912  25.364  1.00  0.00     0.031 C 
ATOM     48  C   UNL A   1      41.740  24.845  27.942  1.00  0.00     0.029 A 
ATOM     49  N   UNL A   1      42.590  26.809  28.524  1.00  0.00    -0.354 N 
ATOM     50  C   UNL A   1      46.509  28.062  26.825  1.00  0.00     0.074 A 
ATOM     51  C   UNL A   1      46.191  27.792  25.450  1.00  0.00     0.031 C 
ATOM     52  C   UNL A   1      40.733  25.568  28.477  1.00  0.00     0.029 A 
ATOM     53  C   UNL A   1      41.244  26.869  28.872  1.00  0.00     0.049 A 
ATOM     54  H   UNL A   1      43.237  27.510  28.763  1.00  0.00     0.167 HD
ATOM     55  C   UNL A   1      47.054  29.155  27.429  1.00  0.00     0.037 A 
ATOM     56  C   UNL A   1      40.583  27.918  29.421  1.00  0.00     0.037 A 
ATOM     57  C   UNL A   1      47.162  28.937  28.849  1.00  0.00     0.049 A 
ATOM     58  C   UNL A   1      41.590  28.807  30.042  1.00  0.00     0.074 A 
ATOM     59  C   UNL A   1      47.927  28.158  29.689  1.00  0.00     0.029 A 
ATOM     60  N   UNL A   1      46.077  29.362  29.563  1.00  0.00    -0.354 N 
ATOM     61  N   UNL A   1      42.267  28.502  31.111  1.00  0.00    -0.248 NA
ATOM     62  C   UNL A   1      42.084  29.957  29.295  1.00  0.00     0.031 C 
ATOM     63  C   UNL A   1      47.124  27.934  30.848  1.00  0.00     0.029 A 
ATOM     64  C   UNL A   1      45.918  28.617  30.695  1.00  0.00     0.049 A 
ATOM     65  H   UNL A   1      45.489  30.106  29.297  1.00  0.00     0.167 HD
ATOM     66  C   UNL A   1      43.492  29.109  30.919  1.00  0.00     0.074 A 
ATOM     67  C   UNL A   1      43.255  30.133  29.911  1.00  0.00     0.031 C 
ATOM     68  C   UNL A   1      44.633  28.500  31.348  1.00  0.00     0.037 A 
BRANCH  55  69
ATOM     69  C   UNL A   1      47.007  30.574  26.876  1.00  0.00     0.064 A 
ATOM     70  C   UNL A   1      48.180  31.363  26.951  1.00  0.00     0.173 A 
ATOM     71  C   UNL A   1      45.821  31.293  26.618  1.00  0.00     0.173 A 
ATOM     72  F   UNL A   1      49.373  30.797  27.184  1.00  0.00    -0.203 F 
ATOM     73  C   UNL A   1      48.143  32.760  26.896  1.00  0.00     0.198 A 
ATOM     74  C   UNL A   1      45.796  32.685  26.517  1.00  0.00     0.198 A 
ATOM     75  F   UNL A   1      44.622  30.706  26.558  1.00  0.00    -0.203 F 
ATOM     76  F   UNL A   1      49.261  33.466  27.119  1.00  0.00    -0.200 F 
ATOM     77  C   UNL A   1      46.948  33.421  26.695  1.00  0.00     0.200 A 
ATOM     78  F   UNL A   1      44.623  33.308  26.334  1.00  0.00    -0.200 F 
ATOM     79  F   UNL A   1      46.895  34.759  26.715  1.00  0.00    -0.200 F 
ENDBRANCH  55  69
BRANCH  56  80
ATOM     80  C   UNL A   1      39.159  28.316  29.319  1.00  0.00     0.064 A 
ATOM     81  C   UNL A   1      38.359  28.444  30.468  1.00  0.00     0.173 A 
ATOM     82  C   UNL A   1      38.635  28.856  28.130  1.00  0.00     0.173 A 
ATOM     83  F   UNL A   1      38.793  27.986  31.651  1.00  0.00    -0.203 F 
ATOM     84  C   UNL A   1      37.133  29.115  30.440  1.00  0.00     0.198 A 
ATOM     85  C   UNL A   1      37.406  29.518  28.100  1.00  0.00     0.198 A 
ATOM     86  F   UNL A   1      39.350  28.841  26.996  1.00  0.00    -0.203 F 
ATOM     87  F   UNL A   1      36.436  29.285  31.572  1.00  0.00    -0.200 F 
ATOM     88  C   UNL A   1      36.664  29.665  29.258  1.00  0.00     0.200 A 
ATOM     89  F   UNL A   1      36.978  30.074  26.958  1.00  0.00    -0.200 F 
ATOM     90  F   UNL A   1      35.525  30.370  29.244  1.00  0.00    -0.200 F 
ENDBRANCH  56  80
BRANCH  68  91
ATOM     91  C   UNL A   1      44.507  27.509  32.463  1.00  0.00     0.064 A 
ATOM     92  C   UNL A   1      44.300  26.130  32.293  1.00  0.00     0.173 A 
ATOM     93  C   UNL A   1      44.688  27.982  33.770  1.00  0.00     0.173 A 
ATOM     94  F   UNL A   1      44.204  25.588  31.071  1.00  0.00    -0.203 F 
ATOM     95  C   UNL A   1      44.230  25.277  33.393  1.00  0.00     0.198 A 
ATOM     96  C   UNL A   1      44.663  27.123  34.860  1.00  0.00     0.198 A 
ATOM     97  F   UNL A   1      44.930  29.287  33.984  1.00  0.00    -0.203 F 
ATOM     98  F   UNL A   1      44.002  23.967  33.214  1.00  0.00    -0.200 F 
ATOM     99  C   UNL A   1      44.419  25.772  34.674  1.00  0.00     0.200 A 
ATOM    100  F   UNL A   1      44.892  27.602  36.091  1.00  0.00    -0.200 F 
ATOM    101  F   UNL A   1      44.390  24.946  35.728  1.00  0.00    -0.200 F 
ENDBRANCH  68  91
ENDBRANCH  42  43
ENDBRANCH  34  37
ENDBRANCH  32  33
ENDBRANCH  31  32
ENDBRANCH  30  31
ENDBRANCH   1  30
TORSDOF 16
ENDMDL
MODEL 2
REMARK VINA RESULT:     -12.0      3.145      4.712
REMARK SMILES C/C(=N\NC(N)=O)c1nnn(-c2ccc(C(=O)NCCCCCCNC(=O)c3ccc(-c4c5nc(c(-c6c(F)c(F)c(F)c(F)c6F)c6ccc([nH]6)c(-c6c(F)c(F)c(F)c(F)c6F)c6nc(c(-c7c(F)c(F)c(F)c(F)c7F)c7ccc4[nH]7)C=C6)C=C5)cc3)cc2)c1C
REMARK SMILES IDX 21 1 20 2 19 3 18 4 16 5 17 6 15 8 12 9 13 10 92 11 14 12
REMARK SMILES IDX 91 13 11 14 8 15 9 16 93 17 10 18 94 19 2 20 1 21 3 22 4 23
REMARK SMILES IDX 5 24 6 26 7 27 22 30 23 31 24 32 25 33 26 34 27 36 28 37
REMARK SMILES IDX 29 38 90 39 30 40 89 41 31 42 32 43 33 44 83 45 34 46 88 47
REMARK SMILES IDX 82 48 84 49 35 50 87 51 81 52 80 53 36 55 68 56 48 57 67 58
REMARK SMILES IDX 49 59 52 60 66 61 85 62 50 63 51 64 65 66 86 67 53 68 37 69
REMARK SMILES IDX 38 70 46 71 39 72 40 73 44 74 47 75 41 76 42 77 45 78 43 79
REMARK SMILES IDX 69 80 70 81 78 82 71 83 72 84 76 85 79 86 73 87 74 88 77 89
REMARK SMILES IDX 75 90 54 91 55 92 63 93 56 94 57 95 61 96 64 97 58 98 59 99
REMARK SMILES IDX 62 100 60 101
REMARK H PARENT 18 7 4 25 6 28 6 29 25 35 84 54 52 65
REMARK Flexibility Score: inf
ROOT
ATOM      1  C   UNL A   1      35.238  22.930  26.141  1.00  0.00     0.002 C 
ENDROOT
BRANCH   1   2
ATOM      2  C   UNL A   1      35.123  21.454  26.544  1.00  0.00     0.021 C 
BRANCH   2   3
ATOM      3  C   UNL A   1      35.338  20.487  25.376  1.00  0.00     0.116 C 
BRANCH   3   4
ATOM      4  N   UNL A   1      34.142  19.695  25.154  1.00  0.00    -0.352 N 
ATOM      5  C   UNL A   1      32.881  20.009  24.712  1.00  0.00     0.251 C 
ATOM      6  O   UNL A   1      32.067  19.091  24.613  1.00  0.00    -0.269 OA
ATOM      7  H   UNL A   1      34.260  18.739  25.361  1.00  0.00     0.163 HD
BRANCH   5   8
ATOM      8  C   UNL A   1      32.484  21.379  24.277  1.00  0.00     0.039 A 
ATOM      9  C   UNL A   1      32.100  24.008  23.420  1.00  0.00     0.067 A 
ATOM     10  C   UNL A   1      32.627  23.074  22.528  1.00  0.00     0.029 A 
ATOM     11  C   UNL A   1      31.653  23.619  24.683  1.00  0.00     0.029 A 
ATOM     12  C   UNL A   1      32.845  21.768  22.974  1.00  0.00     0.016 A 
ATOM     13  C   UNL A   1      31.795  22.289  25.082  1.00  0.00     0.016 A 
BRANCH   9  14
ATOM     14  N   UNL A   1      32.103  25.371  23.080  1.00  0.00    -0.217 N 
ATOM     15  C   UNL A   1      31.612  27.473  22.834  1.00  0.00     0.132 A 
ATOM     16  N   UNL A   1      32.925  27.284  22.489  1.00  0.00    -0.128 NA
ATOM     17  C   UNL A   1      31.063  26.270  23.235  1.00  0.00     0.071 A 
ATOM     18  N   UNL A   1      33.233  26.014  22.721  1.00  0.00    -0.061 NA
ATOM     19  C   UNL A   1      29.762  25.953  23.871  1.00  0.00     0.069 C 
BRANCH  15  20
ATOM     20  C   UNL A   1      31.029  28.798  22.959  1.00  0.00     0.087 C 
ATOM     21  C   UNL A   1      31.033  29.381  24.347  1.00  0.00     0.071 C 
ATOM     22  N   UNL A   1      30.611  29.335  21.851  1.00  0.00    -0.174 NA
BRANCH  22  23
ATOM     23  N   UNL A   1      30.028  30.571  21.801  1.00  0.00    -0.229 N 
ATOM     24  C   UNL A   1      28.768  30.888  21.343  1.00  0.00     0.332 C 
ATOM     25  H   UNL A   1      30.572  31.322  22.131  1.00  0.00     0.195 HD
ATOM     26  N   UNL A   1      28.488  32.216  21.471  1.00  0.00    -0.350 N 
ATOM     27  O   UNL A   1      27.932  30.128  20.873  1.00  0.00    -0.247 OA
ATOM     28  H   UNL A   1      29.163  32.827  21.849  1.00  0.00     0.161 HD
ATOM     29  H   UNL A   1      27.613  32.565  21.186  1.00  0.00     0.161 HD
ENDBRANCH  22  23
ENDBRANCH  15  20
ENDBRANCH   9  14
ENDBRANCH   5   8
ENDBRANCH   3   4
ENDBRANCH   2   3
ENDBRANCH   1   2
BRANCH   1  30
ATOM     30  C   UNL A   1      35.961  23.191  24.811  1.00  0.00     0.002 C 
BRANCH  30  31
ATOM     31  C   UNL A   1      37.488  23.314  24.901  1.00  0.00     0.021 C 
BRANCH  31  32
ATOM     32  C   UNL A   1      37.986  23.687  26.292  1.00  0.00     0.116 C 
BRANCH  32  33
ATOM     33  N   UNL A   1      39.235  23.008  26.608  1.00  0.00    -0.352 N 
ATOM     34  C   UNL A   1      40.422  23.541  27.051  1.00  0.00     0.251 C 
ATOM     35  H   UNL A   1      39.228  22.031  26.486  1.00  0.00     0.163 HD
ATOM     36  O   UNL A   1      41.463  22.913  26.932  1.00  0.00    -0.269 OA
BRANCH  34  37
ATOM     37  C   UNL A   1      40.439  24.884  27.660  1.00  0.00     0.039 A 
ATOM     38  C   UNL A   1      41.570  25.290  28.372  1.00  0.00     0.014 A 
ATOM     39  C   UNL A   1      39.328  25.723  27.550  1.00  0.00     0.014 A 
ATOM     40  C   UNL A   1      41.609  26.573  28.907  1.00  0.00     0.010 A 
ATOM     41  C   UNL A   1      39.392  27.022  28.020  1.00  0.00     0.010 A 
ATOM     42  C   UNL A   1      40.530  27.450  28.704  1.00  0.00    -0.014 A 
BRANCH  42  43
ATOM     43  C   UNL A   1      40.706  28.867  29.028  1.00  0.00     0.031 A 
ATOM     44  C   UNL A   1      41.897  29.482  28.373  1.00  0.00     0.074 A 
ATOM     45  C   UNL A   1      39.798  29.627  29.675  1.00  0.00     0.049 A 
ATOM     46  N   UNL A   1      42.930  30.009  28.941  1.00  0.00    -0.248 NA
ATOM     47  C   UNL A   1      42.013  29.386  26.908  1.00  0.00     0.031 C 
ATOM     48  C   UNL A   1      38.446  29.238  30.083  1.00  0.00     0.029 A 
ATOM     49  N   UNL A   1      39.849  30.954  30.010  1.00  0.00    -0.354 N 
ATOM     50  C   UNL A   1      43.745  30.476  27.909  1.00  0.00     0.074 A 
ATOM     51  C   UNL A   1      43.214  29.924  26.694  1.00  0.00     0.031 C 
ATOM     52  C   UNL A   1      37.734  30.343  30.394  1.00  0.00     0.029 A 
ATOM     53  C   UNL A   1      38.616  31.497  30.356  1.00  0.00     0.049 A 
ATOM     54  H   UNL A   1      40.682  31.476  30.005  1.00  0.00     0.167 HD
ATOM     55  C   UNL A   1      44.626  31.490  28.134  1.00  0.00     0.037 A 
ATOM     56  C   UNL A   1      38.325  32.804  30.571  1.00  0.00     0.037 A 
ATOM     57  C   UNL A   1      44.830  31.670  29.549  1.00  0.00     0.049 A 
ATOM     58  C   UNL A   1      39.595  33.504  30.862  1.00  0.00     0.074 A 
ATOM     59  C   UNL A   1      45.448  30.980  30.568  1.00  0.00     0.029 A 
ATOM     60  N   UNL A   1      43.985  32.578  30.123  1.00  0.00    -0.354 N 
ATOM     61  N   UNL A   1      40.282  33.339  31.956  1.00  0.00    -0.248 NA
ATOM     62  C   UNL A   1      40.292  34.196  29.784  1.00  0.00     0.031 C 
ATOM     63  C   UNL A   1      44.750  31.342  31.760  1.00  0.00     0.029 A 
ATOM     64  C   UNL A   1      43.760  32.270  31.434  1.00  0.00     0.049 A 
ATOM     65  H   UNL A   1      43.591  33.349  29.655  1.00  0.00     0.167 HD
ATOM     66  C   UNL A   1      41.595  33.484  31.555  1.00  0.00     0.074 A 
ATOM     67  C   UNL A   1      41.530  34.196  30.287  1.00  0.00     0.031 C 
ATOM     68  C   UNL A   1      42.572  32.722  32.123  1.00  0.00     0.037 A 
BRANCH  55  69
ATOM     69  C   UNL A   1      44.899  32.640  27.171  1.00  0.00     0.064 A 
ATOM     70  C   UNL A   1      46.201  32.771  26.632  1.00  0.00     0.173 A 
ATOM     71  C   UNL A   1      44.082  33.783  27.038  1.00  0.00     0.173 A 
ATOM     72  F   UNL A   1      47.072  31.752  26.689  1.00  0.00    -0.203 F 
ATOM     73  C   UNL A   1      46.678  33.982  26.121  1.00  0.00     0.198 A 
ATOM     74  C   UNL A   1      44.548  34.976  26.483  1.00  0.00     0.198 A 
ATOM     75  F   UNL A   1      42.841  33.841  27.530  1.00  0.00    -0.203 F 
ATOM     76  F   UNL A   1      47.964  34.092  25.759  1.00  0.00    -0.200 F 
ATOM     77  C   UNL A   1      45.855  35.089  26.061  1.00  0.00     0.200 A 
ATOM     78  F   UNL A   1      43.737  36.043  26.447  1.00  0.00    -0.200 F 
ATOM     79  F   UNL A   1      46.327  36.269  25.642  1.00  0.00    -0.200 F 
ENDBRANCH  55  69
BRANCH  56  80
ATOM     80  C   UNL A   1      37.057  33.549  30.387  1.00  0.00     0.064 A 
ATOM     81  C   UNL A   1      36.507  33.739  29.107  1.00  0.00     0.173 A 
ATOM     82  C   UNL A   1      36.214  33.835  31.477  1.00  0.00     0.173 A 
ATOM     83  F   UNL A   1      37.229  33.461  28.011  1.00  0.00    -0.203 F 
ATOM     84  C   UNL A   1      35.181  34.143  28.928  1.00  0.00     0.198 A 
ATOM     85  C   UNL A   1      34.892  34.248  31.298  1.00  0.00     0.198 A 
ATOM     86  F   UNL A   1      36.624  33.623  32.736  1.00  0.00    -0.203 F 
ATOM     87  F   UNL A   1      34.671  34.237  27.692  1.00  0.00    -0.200 F 
ATOM     88  C   UNL A   1      34.370  34.383  30.024  1.00  0.00     0.200 A 
ATOM     89  F   UNL A   1      34.107  34.446  32.366  1.00  0.00    -0.200 F 
ATOM     90  F   UNL A   1      33.079  34.700  29.856  1.00  0.00    -0.200 F 
ENDBRANCH  56  80
BRANCH  68  91
ATOM     91  C   UNL A   1      42.312  32.175  33.492  1.00  0.00     0.064 A 
ATOM     92  C   UNL A   1      41.708  30.936  33.760  1.00  0.00     0.173 A 
ATOM     93  C   UNL A   1      42.776  32.922  34.583  1.00  0.00     0.173 A 
ATOM     94  F   UNL A   1      41.316  30.125  32.768  1.00  0.00    -0.203 F 
ATOM     95  C   UNL A   1      41.537  30.493  35.071  1.00  0.00     0.198 A 
ATOM     96  C   UNL A   1      42.645  32.458  35.885  1.00  0.00     0.198 A 
ATOM     97  F   UNL A   1      43.397  34.096  34.378  1.00  0.00    -0.203 F 
ATOM     98  F   UNL A   1      40.932  29.320  35.311  1.00  0.00    -0.200 F 
ATOM     99  C   UNL A   1      42.013  31.250  36.131  1.00  0.00     0.200 A 
ATOM    100  F   UNL A   1      43.148  33.173  36.901  1.00  0.00    -0.200 F 
ATOM    101  F   UNL A   1      41.882  30.806  37.388  1.00  0.00    -0.200 F 
ENDBRANCH  68  91
ENDBRANCH  42  43
ENDBRANCH  34  37
ENDBRANCH  32  33
ENDBRANCH  31  32
ENDBRANCH  30  31
ENDBRANCH   1  30
TORSDOF 16
ENDMDL
MODEL 3
REMARK VINA RESULT:     -12.0      3.135      9.268
REMARK SMILES C/C(=N\NC(N)=O)c1nnn(-c2ccc(C(=O)NCCCCCCNC(=O)c3ccc(-c4c5nc(c(-c6c(F)c(F)c(F)c(F)c6F)c6ccc([nH]6)c(-c6c(F)c(F)c(F)c(F)c6F)c6nc(c(-c7c(F)c(F)c(F)c(F)c7F)c7ccc4[nH]7)C=C6)C=C5)cc3)cc2)c1C
REMARK SMILES IDX 21 1 20 2 19 3 18 4 16 5 17 6 15 8 12 9 13 10 92 11 14 12
REMARK SMILES IDX 91 13 11 14 8 15 9 16 93 17 10 18 94 19 2 20 1 21 3 22 4 23
REMARK SMILES IDX 5 24 6 26 7 27 22 30 23 31 24 32 25 33 26 34 27 36 28 37
REMARK SMILES IDX 29 38 90 39 30 40 89 41 31 42 32 43 33 44 83 45 34 46 88 47
REMARK SMILES IDX 82 48 84 49 35 50 87 51 81 52 80 53 36 55 68 56 48 57 67 58
REMARK SMILES IDX 49 59 52 60 66 61 85 62 50 63 51 64 65 66 86 67 53 68 37 69
REMARK SMILES IDX 38 70 46 71 39 72 40 73 44 74 47 75 41 76 42 77 45 78 43 79
REMARK SMILES IDX 69 80 70 81 78 82 71 83 72 84 76 85 79 86 73 87 74 88 77 89
REMARK SMILES IDX 75 90 54 91 55 92 63 93 56 94 57 95 61 96 64 97 58 98 59 99
REMARK SMILES IDX 62 100 60 101
REMARK H PARENT 18 7 4 25 6 28 6 29 25 35 84 54 52 65
REMARK Flexibility Score: inf
ROOT
ATOM      1  C   UNL A   1      33.115  28.247  25.625  1.00  0.00     0.002 C 
ENDROOT
BRANCH   1   2
ATOM      2  C   UNL A   1      32.723  29.325  24.604  1.00  0.00     0.021 C 
BRANCH   2   3
ATOM      3  C   UNL A   1      31.301  29.859  24.800  1.00  0.00     0.116 C 
BRANCH   3   4
ATOM      4  N   UNL A   1      30.613  29.934  23.524  1.00  0.00    -0.352 N 
ATOM      5  C   UNL A   1      30.242  28.985  22.604  1.00  0.00     0.251 C 
ATOM      6  O   UNL A   1      29.643  29.369  21.600  1.00  0.00    -0.269 OA
ATOM      7  H   UNL A   1      30.361  30.851  23.267  1.00  0.00     0.163 HD
BRANCH   5   8
ATOM      8  C   UNL A   1      30.459  27.523  22.804  1.00  0.00     0.039 A 
ATOM      9  C   UNL A   1      30.901  24.865  23.535  1.00  0.00     0.067 A 
ATOM     10  C   UNL A   1      29.742  25.505  23.974  1.00  0.00     0.029 A 
ATOM     11  C   UNL A   1      31.771  25.492  22.643  1.00  0.00     0.029 A 
ATOM     12  C   UNL A   1      29.544  26.845  23.630  1.00  0.00     0.016 A 
ATOM     13  C   UNL A   1      31.512  26.801  22.236  1.00  0.00     0.016 A 
BRANCH   9  14
ATOM     14  N   UNL A   1      31.244  23.610  24.066  1.00  0.00    -0.217 N 
ATOM     15  C   UNL A   1      32.129  21.662  24.442  1.00  0.00     0.132 A 
ATOM     16  N   UNL A   1      31.433  22.054  25.557  1.00  0.00    -0.128 NA
ATOM     17  C   UNL A   1      32.042  22.646  23.477  1.00  0.00     0.071 A 
ATOM     18  N   UNL A   1      30.967  23.278  25.344  1.00  0.00    -0.061 NA
ATOM     19  C   UNL A   1      32.747  22.812  22.183  1.00  0.00     0.069 C 
BRANCH  15  20
ATOM     20  C   UNL A   1      32.991  20.493  24.439  1.00  0.00     0.087 C 
ATOM     21  C   UNL A   1      34.310  20.657  25.145  1.00  0.00     0.071 C 
ATOM     22  N   UNL A   1      32.500  19.435  23.863  1.00  0.00    -0.174 NA
BRANCH  22  23
ATOM     23  N   UNL A   1      33.190  18.258  23.767  1.00  0.00    -0.229 N 
ATOM     24  C   UNL A   1      33.127  17.175  24.616  1.00  0.00     0.332 C 
ATOM     25  H   UNL A   1      33.803  18.175  23.001  1.00  0.00     0.195 HD
ATOM     26  N   UNL A   1      33.921  16.146  24.204  1.00  0.00    -0.350 N 
ATOM     27  O   UNL A   1      32.456  17.062  25.633  1.00  0.00    -0.247 OA
ATOM     28  H   UNL A   1      34.460  16.238  23.385  1.00  0.00     0.161 HD
ATOM     29  H   UNL A   1      33.955  15.311  24.724  1.00  0.00     0.161 HD
ENDBRANCH  22  23
ENDBRANCH  15  20
ENDBRANCH   9  14
ENDBRANCH   5   8
ENDBRANCH   3   4
ENDBRANCH   2   3
ENDBRANCH   1   2
BRANCH   1  30
ATOM     30  C   UNL A   1      34.234  28.646  26.600  1.00  0.00     0.002 C 
BRANCH  30  31
ATOM     31  C   UNL A   1      33.853  29.695  27.652  1.00  0.00     0.021 C 
BRANCH  31  32
ATOM     32  C   UNL A   1      34.675  30.975  27.558  1.00  0.00     0.116 C 
BRANCH  32  33
ATOM     33  N   UNL A   1      34.369  31.884  28.654  1.00  0.00    -0.352 N 
ATOM     34  C   UNL A   1      34.943  31.961  29.901  1.00  0.00     0.251 C 
ATOM     35  H   UNL A   1      33.649  32.531  28.478  1.00  0.00     0.163 HD
ATOM     36  O   UNL A   1      34.356  32.517  30.817  1.00  0.00    -0.269 OA
BRANCH  34  37
ATOM     37  C   UNL A   1      36.268  31.356  30.135  1.00  0.00     0.039 A 
ATOM     38  C   UNL A   1      36.342  30.008  30.495  1.00  0.00     0.014 A 
ATOM     39  C   UNL A   1      37.426  32.128  30.028  1.00  0.00     0.014 A 
ATOM     40  C   UNL A   1      37.590  29.422  30.670  1.00  0.00     0.010 A 
ATOM     41  C   UNL A   1      38.669  31.530  30.133  1.00  0.00     0.010 A 
ATOM     42  C   UNL A   1      38.755  30.177  30.459  1.00  0.00    -0.014 A 
BRANCH  42  43
ATOM     43  C   UNL A   1      40.040  29.479  30.375  1.00  0.00     0.031 A 
ATOM     44  C   UNL A   1      40.706  29.301  31.698  1.00  0.00     0.074 A 
ATOM     45  C   UNL A   1      40.509  28.861  29.271  1.00  0.00     0.049 A 
ATOM     46  N   UNL A   1      41.850  29.765  32.078  1.00  0.00    -0.248 NA
ATOM     47  C   UNL A   1      39.952  28.633  32.773  1.00  0.00     0.031 C 
ATOM     48  C   UNL A   1      39.810  28.671  27.997  1.00  0.00     0.029 A 
ATOM     49  N   UNL A   1      41.674  28.166  29.088  1.00  0.00    -0.354 N 
ATOM     50  C   UNL A   1      42.046  29.297  33.378  1.00  0.00     0.074 A 
ATOM     51  C   UNL A   1      40.788  28.750  33.805  1.00  0.00     0.031 C 
ATOM     52  C   UNL A   1      40.454  27.735  27.267  1.00  0.00     0.029 A 
ATOM     53  C   UNL A   1      41.685  27.371  27.947  1.00  0.00     0.049 A 
ATOM     54  H   UNL A   1      42.435  28.225  29.708  1.00  0.00     0.167 HD
ATOM     55  C   UNL A   1      43.306  29.169  33.880  1.00  0.00     0.037 A 
ATOM     56  C   UNL A   1      42.621  26.455  27.592  1.00  0.00     0.037 A 
ATOM     57  C   UNL A   1      44.242  29.913  33.076  1.00  0.00     0.049 A 
ATOM     58  C   UNL A   1      43.861  26.770  28.335  1.00  0.00     0.074 A 
ATOM     59  C   UNL A   1      44.529  31.239  32.840  1.00  0.00     0.029 A 
ATOM     60  N   UNL A   1      44.811  29.186  32.067  1.00  0.00    -0.354 N 
ATOM     61  N   UNL A   1      44.602  27.816  28.102  1.00  0.00    -0.248 NA
ATOM     62  C   UNL A   1      44.145  26.066  29.579  1.00  0.00     0.031 C 
ATOM     63  C   UNL A   1      45.074  31.290  31.521  1.00  0.00     0.029 A 
ATOM     64  C   UNL A   1      45.141  29.991  31.016  1.00  0.00     0.049 A 
ATOM     65  H   UNL A   1      44.964  28.214  32.096  1.00  0.00     0.167 HD
ATOM     66  C   UNL A   1      45.106  28.154  29.341  1.00  0.00     0.074 A 
ATOM     67  C   UNL A   1      44.962  26.954  30.152  1.00  0.00     0.031 C 
ATOM     68  C   UNL A   1      45.277  29.465  29.676  1.00  0.00     0.037 A 
BRANCH  55  69
ATOM     69  C   UNL A   1      43.792  28.005  34.735  1.00  0.00     0.064 A 
ATOM     70  C   UNL A   1      43.640  26.691  34.229  1.00  0.00     0.173 A 
ATOM     71  C   UNL A   1      44.055  28.083  36.119  1.00  0.00     0.173 A 
ATOM     72  F   UNL A   1      43.395  26.482  32.927  1.00  0.00    -0.203 F 
ATOM     73  C   UNL A   1      43.628  25.568  35.063  1.00  0.00     0.198 A 
ATOM     74  C   UNL A   1      44.089  26.954  36.940  1.00  0.00     0.198 A 
ATOM     75  F   UNL A   1      44.182  29.247  36.762  1.00  0.00    -0.203 F 
ATOM     76  F   UNL A   1      43.335  24.363  34.554  1.00  0.00    -0.200 F 
ATOM     77  C   UNL A   1      43.838  25.702  36.421  1.00  0.00     0.200 A 
ATOM     78  F   UNL A   1      44.281  27.108  38.258  1.00  0.00    -0.200 F 
ATOM     79  F   UNL A   1      43.754  24.642  37.233  1.00  0.00    -0.200 F 
ENDBRANCH  55  69
BRANCH  56  80
ATOM     80  C   UNL A   1      42.497  25.219  26.784  1.00  0.00     0.064 A 
ATOM     81  C   UNL A   1      43.303  25.010  25.651  1.00  0.00     0.173 A 
ATOM     82  C   UNL A   1      41.798  24.098  27.268  1.00  0.00     0.173 A 
ATOM     83  F   UNL A   1      44.029  26.017  25.141  1.00  0.00    -0.203 F 
ATOM     84  C   UNL A   1      43.440  23.748  25.068  1.00  0.00     0.198 A 
ATOM     85  C   UNL A   1      41.928  22.838  26.679  1.00  0.00     0.198 A 
ATOM     86  F   UNL A   1      41.055  24.180  28.380  1.00  0.00    -0.203 F 
ATOM     87  F   UNL A   1      44.280  23.574  24.037  1.00  0.00    -0.200 F 
ATOM     88  C   UNL A   1      42.764  22.659  25.592  1.00  0.00     0.200 A 
ATOM     89  F   UNL A   1      41.294  21.786  27.214  1.00  0.00    -0.200 F 
ATOM     90  F   UNL A   1      42.950  21.435  25.080  1.00  0.00    -0.200 F 
ENDBRANCH  56  80
BRANCH  68  91
ATOM     91  C   UNL A   1      45.443  30.446  28.557  1.00  0.00     0.064 A 
ATOM     92  C   UNL A   1      44.389  31.096  27.895  1.00  0.00     0.173 A 
ATOM     93  C   UNL A   1      46.752  30.797  28.197  1.00  0.00     0.173 A 
ATOM     94  F   UNL A   1      43.113  30.879  28.240  1.00  0.00    -0.203 F 
ATOM     95  C   UNL A   1      44.643  32.022  26.885  1.00  0.00     0.198 A 
ATOM     96  C   UNL A   1      47.002  31.753  27.222  1.00  0.00     0.198 A 
ATOM     97  F   UNL A   1      47.796  30.233  28.828  1.00  0.00    -0.203 F 
ATOM     98  F   UNL A   1      43.624  32.613  26.243  1.00  0.00    -0.200 F 
ATOM     99  C   UNL A   1      45.948  32.356  26.555  1.00  0.00     0.200 A 
ATOM    100  F   UNL A   1      48.265  32.103  26.941  1.00  0.00    -0.200 F 
ATOM    101  F   UNL A   1      46.191  33.274  25.610  1.00  0.00    -0.200 F 
ENDBRANCH  68  91
ENDBRANCH  42  43
ENDBRANCH  34  37
ENDBRANCH  32  33
ENDBRANCH  31  32
ENDBRANCH  30  31
ENDBRANCH   1  30
TORSDOF 16
ENDMDL
