MODEL 1
REMARK VINA RESULT:     -14.0      0.000      0.000
REMARK SMILES Cc1cc(F)cc(-n2nc(C(=O)NCCCCCCNC(=O)c3ccc(-c4c5nc(c(-c6c(F)c(F)c(F)c(F)c6F)c6ccc([nH]6)c(-c6c(F)c(F)c(F)c(F)c6F)c6nc(c(-c7c(F)c(F)c(F)c(F)c7F)c7ccc4[nH]7)C=C6)C=C5)cc3)c3c2CC[C@H](C)C3)c1
REMARK SMILES IDX 17 1 16 2 15 3 14 4 13 5 11 6 12 7 10 9 8 10 9 11 87 12
REMARK SMILES IDX 86 13 88 14 92 15 89 16 90 17 91 18 7 19 1 20 2 21 3 22
REMARK SMILES IDX 93 23 4 24 5 25 6 26 18 27 19 28 20 29 21 30 22 32 23 33
REMARK SMILES IDX 24 34 85 35 25 36 84 37 26 38 27 39 28 40 78 41 29 42 83 43
REMARK SMILES IDX 77 44 79 45 30 46 82 47 76 48 75 49 31 51 63 52 43 53 62 54
REMARK SMILES IDX 44 55 47 56 61 57 80 58 45 59 46 60 60 62 81 63 48 64 32 65
REMARK SMILES IDX 33 66 41 67 34 68 35 69 39 70 42 71 36 72 37 73 40 74 38 75
REMARK SMILES IDX 64 76 65 77 73 78 66 79 67 80 71 81 74 82 68 83 69 84 72 85
REMARK SMILES IDX 70 86 49 87 50 88 58 89 51 90 52 91 56 92 59 93 53 94 54 95
REMARK SMILES IDX 57 96 55 97
REMARK H PARENT 13 8 20 31 79 50 47 61
REMARK Flexibility Score: inf
ROOT
ATOM      1  C   UNL A   1      32.043  27.905  26.024  1.00  0.00     0.002 C 
ENDROOT
BRANCH   1   2
ATOM      2  C   UNL A   1      31.280  28.458  24.809  1.00  0.00     0.002 C 
BRANCH   2   3
ATOM      3  C   UNL A   1      31.947  28.185  23.462  1.00  0.00     0.021 C 
BRANCH   3   4
ATOM      4  C   UNL A   1      31.118  27.287  22.538  1.00  0.00     0.116 C 
BRANCH   4   5
ATOM      5  N   UNL A   1      31.954  26.539  21.640  1.00  0.00    -0.351 N 
ATOM      6  C   UNL A   1      32.768  25.444  21.757  1.00  0.00     0.272 C 
ATOM      7  O   UNL A   1      33.207  25.049  20.668  1.00  0.00    -0.267 OA
ATOM      8  H   UNL A   1      31.939  26.898  20.724  1.00  0.00     0.163 HD
BRANCH   6   9
ATOM      9  C   UNL A   1      33.098  24.738  23.024  1.00  0.00     0.154 A 
ATOM     10  N   UNL A   1      34.483  23.686  24.322  1.00  0.00    -0.237 N 
ATOM     11  N   UNL A   1      34.393  24.384  23.180  1.00  0.00    -0.162 NA
ATOM     12  C   UNL A   1      33.285  23.663  24.992  1.00  0.00     0.048 A 
ATOM     13  C   UNL A   1      32.389  24.384  24.218  1.00  0.00     0.007 A 
ATOM     14  C   UNL A   1      33.046  23.182  26.385  1.00  0.00     0.057 C 
ATOM     15  C   UNL A   1      31.028  24.690  24.723  1.00  0.00     0.043 C 
ATOM     16  C   UNL A   1      31.541  23.171  26.696  1.00  0.00     0.010 C 
ATOM     17  C   UNL A   1      30.855  24.472  26.242  1.00  0.00    -0.009 C 
ATOM     18  C   UNL A   1      29.363  24.456  26.582  1.00  0.00     0.008 C 
BRANCH  10  19
ATOM     19  C   UNL A   1      35.734  23.162  24.719  1.00  0.00     0.068 A 
ATOM     20  C   UNL A   1      38.753  24.315  26.743  1.00  0.00     0.044 C 
ATOM     21  C   UNL A   1      37.840  23.480  25.896  1.00  0.00    -0.046 A 
ATOM     22  C   UNL A   1      38.192  22.164  25.573  1.00  0.00     0.042 A 
ATOM     23  C   UNL A   1      36.620  23.990  25.429  1.00  0.00     0.032 A 
ATOM     24  C   UNL A   1      37.325  21.374  24.823  1.00  0.00     0.125 A 
ATOM     25  F   UNL A   1      37.688  20.127  24.497  1.00  0.00    -0.207 F 
ATOM     26  C   UNL A   1      36.090  21.852  24.406  1.00  0.00     0.067 A 
ENDBRANCH  10  19
ENDBRANCH   6   9
ENDBRANCH   4   5
ENDBRANCH   3   4
ENDBRANCH   2   3
ENDBRANCH   1   2
BRANCH   1  27
ATOM     27  C   UNL A   1      33.510  27.516  25.779  1.00  0.00     0.021 C 
BRANCH  27  28
ATOM     28  C   UNL A   1      34.451  28.640  26.149  1.00  0.00     0.116 C 
BRANCH  28  29
ATOM     29  N   UNL A   1      33.721  29.876  26.425  1.00  0.00    -0.352 N 
ATOM     30  C   UNL A   1      33.937  30.825  27.402  1.00  0.00     0.251 C 
ATOM     31  H   UNL A   1      32.962  30.058  25.824  1.00  0.00     0.163 HD
ATOM     32  O   UNL A   1      33.058  31.604  27.721  1.00  0.00    -0.269 OA
BRANCH  30  33
ATOM     33  C   UNL A   1      35.271  30.910  28.020  1.00  0.00     0.039 A 
ATOM     34  C   UNL A   1      36.017  32.096  28.002  1.00  0.00     0.014 A 
ATOM     35  C   UNL A   1      35.825  29.738  28.517  1.00  0.00     0.014 A 
ATOM     36  C   UNL A   1      37.330  32.067  28.459  1.00  0.00     0.010 A 
ATOM     37  C   UNL A   1      37.001  29.761  29.184  1.00  0.00     0.010 A 
ATOM     38  C   UNL A   1      37.800  30.881  29.028  1.00  0.00    -0.014 A 
BRANCH  38  39
ATOM     39  C   UNL A   1      39.160  30.628  29.439  1.00  0.00     0.031 A 
ATOM     40  C   UNL A   1      39.856  29.511  28.822  1.00  0.00     0.074 A 
ATOM     41  C   UNL A   1      39.713  31.561  30.247  1.00  0.00     0.049 A 
ATOM     42  N   UNL A   1      40.723  28.781  29.417  1.00  0.00    -0.248 NA
ATOM     43  C   UNL A   1      39.565  29.080  27.460  1.00  0.00     0.031 C 
ATOM     44  C   UNL A   1      41.088  31.760  30.665  1.00  0.00     0.029 A 
ATOM     45  N   UNL A   1      38.998  32.528  30.980  1.00  0.00    -0.354 N 
ATOM     46  C   UNL A   1      41.367  28.065  28.433  1.00  0.00     0.074 A 
ATOM     47  C   UNL A   1      40.488  28.128  27.291  1.00  0.00     0.031 C 
ATOM     48  C   UNL A   1      41.084  32.495  31.795  1.00  0.00     0.029 A 
ATOM     49  C   UNL A   1      39.694  32.702  32.182  1.00  0.00     0.049 A 
ATOM     50  H   UNL A   1      38.174  32.990  30.702  1.00  0.00     0.167 HD
ATOM     51  C   UNL A   1      42.668  27.715  28.650  1.00  0.00     0.037 A 
ATOM     52  C   UNL A   1      39.100  32.255  33.327  1.00  0.00     0.037 A 
ATOM     53  C   UNL A   1      43.092  28.239  29.959  1.00  0.00     0.049 A 
ATOM     54  C   UNL A   1      39.827  31.054  33.869  1.00  0.00     0.074 A 
ATOM     55  C   UNL A   1      43.789  29.387  30.304  1.00  0.00     0.029 A 
ATOM     56  N   UNL A   1      42.450  27.808  31.118  1.00  0.00    -0.354 N 
ATOM     57  N   UNL A   1      40.514  30.218  33.135  1.00  0.00    -0.248 NA
ATOM     58  C   UNL A   1      39.936  30.785  35.294  1.00  0.00     0.031 C 
ATOM     59  C   UNL A   1      43.509  29.676  31.667  1.00  0.00     0.029 A 
ATOM     60  C   UNL A   1      42.652  28.702  32.154  1.00  0.00     0.049 A 
ATOM     61  H   UNL A   1      41.926  26.978  31.190  1.00  0.00     0.167 HD
ATOM     62  C   UNL A   1      41.216  29.372  33.954  1.00  0.00     0.074 A 
ATOM     63  C   UNL A   1      40.813  29.767  35.294  1.00  0.00     0.031 C 
ATOM     64  C   UNL A   1      42.109  28.446  33.483  1.00  0.00     0.037 A 
BRANCH  51  65
ATOM     65  C   UNL A   1      43.649  27.236  27.595  1.00  0.00     0.064 A 
ATOM     66  C   UNL A   1      43.900  25.854  27.434  1.00  0.00     0.173 A 
ATOM     67  C   UNL A   1      44.390  28.062  26.727  1.00  0.00     0.173 A 
ATOM     68  F   UNL A   1      43.207  24.933  28.117  1.00  0.00    -0.203 F 
ATOM     69  C   UNL A   1      44.866  25.355  26.553  1.00  0.00     0.198 A 
ATOM     70  C   UNL A   1      45.381  27.567  25.870  1.00  0.00     0.198 A 
ATOM     71  F   UNL A   1      44.149  29.371  26.617  1.00  0.00    -0.203 F 
ATOM     72  F   UNL A   1      45.056  24.033  26.456  1.00  0.00    -0.200 F 
ATOM     73  C   UNL A   1      45.625  26.215  25.788  1.00  0.00     0.200 A 
ATOM     74  F   UNL A   1      46.091  28.420  25.116  1.00  0.00    -0.200 F 
ATOM     75  F   UNL A   1      46.561  25.741  24.955  1.00  0.00    -0.200 F 
ENDBRANCH  51  65
BRANCH  52  76
ATOM     76  C   UNL A   1      37.624  32.520  33.322  1.00  0.00     0.064 A 
ATOM     77  C   UNL A   1      37.238  33.855  33.576  1.00  0.00     0.173 A 
ATOM     78  C   UNL A   1      36.712  31.718  32.620  1.00  0.00     0.173 A 
ATOM     79  F   UNL A   1      38.052  34.661  34.277  1.00  0.00    -0.203 F 
ATOM     80  C   UNL A   1      36.113  34.416  32.976  1.00  0.00     0.198 A 
ATOM     81  C   UNL A   1      35.555  32.276  32.060  1.00  0.00     0.198 A 
ATOM     82  F   UNL A   1      36.993  30.432  32.367  1.00  0.00    -0.203 F 
ATOM     83  F   UNL A   1      35.883  35.733  33.087  1.00  0.00    -0.200 F 
ATOM     84  C   UNL A   1      35.294  33.636  32.182  1.00  0.00     0.200 A 
ATOM     85  F   UNL A   1      34.729  31.512  31.332  1.00  0.00    -0.200 F 
ATOM     86  F   UNL A   1      34.286  34.204  31.505  1.00  0.00    -0.200 F 
ENDBRANCH  52  76
BRANCH  64  87
ATOM     87  C   UNL A   1      42.682  27.284  34.272  1.00  0.00     0.064 A 
ATOM     88  C   UNL A   1      44.032  27.170  34.639  1.00  0.00     0.173 A 
ATOM     89  C   UNL A   1      41.831  26.284  34.812  1.00  0.00     0.173 A 
ATOM     90  F   UNL A   1      44.923  28.128  34.362  1.00  0.00    -0.203 F 
ATOM     91  C   UNL A   1      44.511  26.086  35.379  1.00  0.00     0.198 A 
ATOM     92  C   UNL A   1      42.299  25.255  35.626  1.00  0.00     0.198 A 
ATOM     93  F   UNL A   1      40.508  26.279  34.602  1.00  0.00    -0.203 F 
ATOM     94  F   UNL A   1      45.824  25.988  35.627  1.00  0.00    -0.200 F 
ATOM     95  C   UNL A   1      43.646  25.136  35.881  1.00  0.00     0.200 A 
ATOM     96  F   UNL A   1      41.430  24.393  36.172  1.00  0.00    -0.200 F 
ATOM     97  F   UNL A   1      44.104  24.126  36.631  1.00  0.00    -0.200 F 
ENDBRANCH  64  87
ENDBRANCH  38  39
ENDBRANCH  30  33
ENDBRANCH  28  29
ENDBRANCH  27  28
ENDBRANCH   1  27
TORSDOF 14
ENDMDL
MODEL 2
REMARK VINA RESULT:     -13.9      3.158      5.010
REMARK SMILES Cc1cc(F)cc(-n2nc(C(=O)NCCCCCCNC(=O)c3ccc(-c4c5nc(c(-c6c(F)c(F)c(F)c(F)c6F)c6ccc([nH]6)c(-c6c(F)c(F)c(F)c(F)c6F)c6nc(c(-c7c(F)c(F)c(F)c(F)c7F)c7ccc4[nH]7)C=C6)C=C5)cc3)c3c2CC[C@H](C)C3)c1
REMARK SMILES IDX 17 1 16 2 15 3 14 4 13 5 11 6 12 7 10 9 8 10 9 11 87 12
REMARK SMILES IDX 86 13 88 14 92 15 89 16 90 17 91 18 7 19 1 20 2 21 3 22
REMARK SMILES IDX 93 23 4 24 5 25 6 26 18 27 19 28 20 29 21 30 22 32 23 33
REMARK SMILES IDX 24 34 85 35 25 36 84 37 26 38 27 39 28 40 78 41 29 42 83 43
REMARK SMILES IDX 77 44 79 45 30 46 82 47 76 48 75 49 31 51 63 52 43 53 62 54
REMARK SMILES IDX 44 55 47 56 61 57 80 58 45 59 46 60 60 62 81 63 48 64 32 65
REMARK SMILES IDX 33 66 41 67 34 68 35 69 39 70 42 71 36 72 37 73 40 74 38 75
REMARK SMILES IDX 64 76 65 77 73 78 66 79 67 80 71 81 74 82 68 83 69 84 72 85
REMARK SMILES IDX 70 86 49 87 50 88 58 89 51 90 52 91 56 92 59 93 53 94 54 95
REMARK SMILES IDX 57 96 55 97
REMARK H PARENT 13 8 20 31 79 50 47 61
REMARK Flexibility Score: inf
ROOT
ATOM      1  C   UNL A   1      32.356  28.509  27.262  1.00  0.00     0.002 C 
ENDROOT
BRANCH   1   2
ATOM      2  C   UNL A   1      31.590  27.270  26.769  1.00  0.00     0.002 C 
BRANCH   2   3
ATOM      3  C   UNL A   1      31.586  27.088  25.252  1.00  0.00     0.021 C 
BRANCH   3   4
ATOM      4  C   UNL A   1      31.430  25.629  24.811  1.00  0.00     0.116 C 
BRANCH   4   5
ATOM      5  N   UNL A   1      30.857  24.822  25.853  1.00  0.00    -0.351 N 
ATOM      6  C   UNL A   1      31.159  23.613  26.420  1.00  0.00     0.272 C 
ATOM      7  O   UNL A   1      30.456  23.352  27.406  1.00  0.00    -0.267 OA
ATOM      8  H   UNL A   1      30.058  25.235  26.254  1.00  0.00     0.163 HD
BRANCH   6   9
ATOM      9  C   UNL A   1      32.231  22.684  25.969  1.00  0.00     0.154 A 
ATOM     10  N   UNL A   1      32.897  20.796  25.133  1.00  0.00    -0.237 N 
ATOM     11  N   UNL A   1      31.810  21.540  25.387  1.00  0.00    -0.162 NA
ATOM     12  C   UNL A   1      34.051  21.475  25.436  1.00  0.00     0.048 A 
ATOM     13  C   UNL A   1      33.662  22.716  25.915  1.00  0.00     0.007 A 
ATOM     14  C   UNL A   1      35.446  21.071  25.090  1.00  0.00     0.057 C 
ATOM     15  C   UNL A   1      34.669  23.769  26.196  1.00  0.00     0.043 C 
ATOM     16  C   UNL A   1      36.458  22.018  25.756  1.00  0.00     0.010 C 
ATOM     17  C   UNL A   1      36.058  23.494  25.582  1.00  0.00    -0.009 C 
ATOM     18  C   UNL A   1      37.088  24.424  26.226  1.00  0.00     0.008 C 
BRANCH  10  19
ATOM     19  C   UNL A   1      32.745  19.521  24.545  1.00  0.00     0.068 A 
ATOM     20  C   UNL A   1      32.633  15.887  25.694  1.00  0.00     0.044 C 
ATOM     21  C   UNL A   1      32.632  17.106  24.820  1.00  0.00    -0.046 A 
ATOM     22  C   UNL A   1      32.400  16.983  23.445  1.00  0.00     0.042 A 
ATOM     23  C   UNL A   1      32.846  18.381  25.361  1.00  0.00     0.032 A 
ATOM     24  C   UNL A   1      32.356  18.119  22.641  1.00  0.00     0.125 A 
ATOM     25  F   UNL A   1      32.162  17.983  21.323  1.00  0.00    -0.207 F 
ATOM     26  C   UNL A   1      32.509  19.390  23.177  1.00  0.00     0.067 A 
ENDBRANCH  10  19
ENDBRANCH   6   9
ENDBRANCH   4   5
ENDBRANCH   3   4
ENDBRANCH   2   3
ENDBRANCH   1   2
BRANCH   1  27
ATOM     27  C   UNL A   1      33.410  29.077  26.298  1.00  0.00     0.021 C 
BRANCH  27  28
ATOM     28  C   UNL A   1      34.798  29.020  26.897  1.00  0.00     0.116 C 
BRANCH  28  29
ATOM     29  N   UNL A   1      35.227  30.335  27.371  1.00  0.00    -0.352 N 
ATOM     30  C   UNL A   1      36.265  30.669  28.215  1.00  0.00     0.251 C 
ATOM     31  H   UNL A   1      34.697  31.095  27.037  1.00  0.00     0.163 HD
ATOM     32  O   UNL A   1      36.286  31.745  28.784  1.00  0.00    -0.269 OA
BRANCH  30  33
ATOM     33  C   UNL A   1      37.375  29.716  28.380  1.00  0.00     0.039 A 
ATOM     34  C   UNL A   1      37.517  28.942  29.539  1.00  0.00     0.014 A 
ATOM     35  C   UNL A   1      38.355  29.695  27.397  1.00  0.00     0.014 A 
ATOM     36  C   UNL A   1      38.671  28.183  29.701  1.00  0.00     0.010 A 
ATOM     37  C   UNL A   1      39.349  28.778  27.434  1.00  0.00     0.010 A 
ATOM     38  C   UNL A   1      39.577  28.134  28.639  1.00  0.00    -0.014 A 
BRANCH  38  39
ATOM     39  C   UNL A   1      40.875  27.504  28.671  1.00  0.00     0.031 A 
ATOM     40  C   UNL A   1      40.946  26.088  28.350  1.00  0.00     0.074 A 
ATOM     41  C   UNL A   1      41.928  28.335  28.841  1.00  0.00     0.049 A 
ATOM     42  N   UNL A   1      41.774  25.267  28.880  1.00  0.00    -0.248 NA
ATOM     43  C   UNL A   1      40.011  25.460  27.425  1.00  0.00     0.031 C 
ATOM     44  C   UNL A   1      43.353  28.103  28.699  1.00  0.00     0.029 A 
ATOM     45  N   UNL A   1      41.851  29.655  29.325  1.00  0.00    -0.354 N 
ATOM     46  C   UNL A   1      41.744  24.132  28.102  1.00  0.00     0.074 A 
ATOM     47  C   UNL A   1      40.511  24.222  27.359  1.00  0.00     0.031 C 
ATOM     48  C   UNL A   1      44.007  29.052  29.397  1.00  0.00     0.029 A 
ATOM     49  C   UNL A   1      43.009  29.861  30.086  1.00  0.00     0.049 A 
ATOM     50  H   UNL A   1      41.129  30.304  29.162  1.00  0.00     0.167 HD
ATOM     51  C   UNL A   1      42.885  23.387  28.022  1.00  0.00     0.037 A 
ATOM     52  C   UNL A   1      42.863  29.986  31.437  1.00  0.00     0.037 A 
ATOM     53  C   UNL A   1      43.936  24.034  28.823  1.00  0.00     0.049 A 
ATOM     54  C   UNL A   1      43.431  28.786  32.145  1.00  0.00     0.074 A 
ATOM     55  C   UNL A   1      44.973  24.882  28.463  1.00  0.00     0.029 A 
ATOM     56  N   UNL A   1      43.759  24.195  30.196  1.00  0.00    -0.354 N 
ATOM     57  N   UNL A   1      43.514  27.593  31.617  1.00  0.00    -0.248 NA
ATOM     58  C   UNL A   1      44.061  28.877  33.454  1.00  0.00     0.031 C 
ATOM     59  C   UNL A   1      45.374  25.600  29.622  1.00  0.00     0.029 A 
ATOM     60  C   UNL A   1      44.593  25.184  30.688  1.00  0.00     0.049 A 
ATOM     61  H   UNL A   1      43.128  23.674  30.743  1.00  0.00     0.167 HD
ATOM     62  C   UNL A   1      44.264  26.790  32.438  1.00  0.00     0.074 A 
ATOM     63  C   UNL A   1      44.575  27.643  33.574  1.00  0.00     0.031 C 
ATOM     64  C   UNL A   1      44.617  25.508  32.110  1.00  0.00     0.037 A 
BRANCH  51  65
ATOM     65  C   UNL A   1      43.178  22.317  26.985  1.00  0.00     0.064 A 
ATOM     66  C   UNL A   1      42.519  21.067  27.050  1.00  0.00     0.173 A 
ATOM     67  C   UNL A   1      44.096  22.431  25.923  1.00  0.00     0.173 A 
ATOM     68  F   UNL A   1      41.550  20.832  27.944  1.00  0.00    -0.203 F 
ATOM     69  C   UNL A   1      42.820  20.005  26.190  1.00  0.00     0.198 A 
ATOM     70  C   UNL A   1      44.422  21.359  25.083  1.00  0.00     0.198 A 
ATOM     71  F   UNL A   1      44.670  23.594  25.605  1.00  0.00    -0.203 F 
ATOM     72  F   UNL A   1      42.162  18.845  26.313  1.00  0.00    -0.200 F 
ATOM     73  C   UNL A   1      43.791  20.144  25.220  1.00  0.00     0.200 A 
ATOM     74  F   UNL A   1      45.353  21.523  24.130  1.00  0.00    -0.200 F 
ATOM     75  F   UNL A   1      44.090  19.124  24.405  1.00  0.00    -0.200 F 
ENDBRANCH  51  65
BRANCH  52  76
ATOM     76  C   UNL A   1      41.638  30.777  31.789  1.00  0.00     0.064 A 
ATOM     77  C   UNL A   1      40.600  30.054  32.417  1.00  0.00     0.173 A 
ATOM     78  C   UNL A   1      41.665  32.162  31.999  1.00  0.00     0.173 A 
ATOM     79  F   UNL A   1      40.499  28.729  32.224  1.00  0.00    -0.203 F 
ATOM     80  C   UNL A   1      39.775  30.645  33.372  1.00  0.00     0.198 A 
ATOM     81  C   UNL A   1      40.799  32.762  32.924  1.00  0.00     0.198 A 
ATOM     82  F   UNL A   1      42.601  32.921  31.411  1.00  0.00    -0.203 F 
ATOM     83  F   UNL A   1      38.928  29.887  34.085  1.00  0.00    -0.200 F 
ATOM     84  C   UNL A   1      39.904  31.991  33.656  1.00  0.00     0.200 A 
ATOM     85  F   UNL A   1      40.884  34.077  33.165  1.00  0.00    -0.200 F 
ATOM     86  F   UNL A   1      39.199  32.530  34.662  1.00  0.00    -0.200 F 
ENDBRANCH  52  76
BRANCH  64  87
ATOM     87  C   UNL A   1      45.163  24.464  33.065  1.00  0.00     0.064 A 
ATOM     88  C   UNL A   1      44.467  23.307  33.451  1.00  0.00     0.173 A 
ATOM     89  C   UNL A   1      46.503  24.537  33.531  1.00  0.00     0.173 A 
ATOM     90  F   UNL A   1      43.265  23.006  32.949  1.00  0.00    -0.203 F 
ATOM     91  C   UNL A   1      45.018  22.366  34.325  1.00  0.00     0.198 A 
ATOM     92  C   UNL A   1      47.079  23.550  34.327  1.00  0.00     0.198 A 
ATOM     93  F   UNL A   1      47.320  25.548  33.208  1.00  0.00    -0.203 F 
ATOM     94  F   UNL A   1      44.275  21.326  34.724  1.00  0.00    -0.200 F 
ATOM     95  C   UNL A   1      46.324  22.481  34.753  1.00  0.00     0.200 A 
ATOM     96  F   UNL A   1      48.373  23.638  34.661  1.00  0.00    -0.200 F 
ATOM     97  F   UNL A   1      46.863  21.550  35.550  1.00  0.00    -0.200 F 
ENDBRANCH  64  87
ENDBRANCH  38  39
ENDBRANCH  30  33
ENDBRANCH  28  29
ENDBRANCH  27  28
ENDBRANCH   1  27
TORSDOF 14
ENDMDL
MODEL 3
REMARK VINA RESULT:     -13.8      2.557      4.298
REMARK SMILES Cc1cc(F)cc(-n2nc(C(=O)NCCCCCCNC(=O)c3ccc(-c4c5nc(c(-c6c(F)c(F)c(F)c(F)c6F)c6ccc([nH]6)c(-c6c(F)c(F)c(F)c(F)c6F)c6nc(c(-c7c(F)c(F)c(F)c(F)c7F)c7ccc4[nH]7)C=C6)C=C5)cc3)c3c2CC[C@H](C)C3)c1
REMARK SMILES IDX 17 1 16 2 15 3 14 4 13 5 11 6 12 7 10 9 8 10 9 11 87 12
REMARK SMILES IDX 86 13 88 14 92 15 89 16 90 17 91 18 7 19 1 20 2 21 3 22
REMARK SMILES IDX 93 23 4 24 5 25 6 26 18 27 19 28 20 29 21 30 22 32 23 33
REMARK SMILES IDX 24 34 85 35 25 36 84 37 26 38 27 39 28 40 78 41 29 42 83 43
REMARK SMILES IDX 77 44 79 45 30 46 82 47 76 48 75 49 31 51 63 52 43 53 62 54
REMARK SMILES IDX 44 55 47 56 61 57 80 58 45 59 46 60 60 62 81 63 48 64 32 65
REMARK SMILES IDX 33 66 41 67 34 68 35 69 39 70 42 71 36 72 37 73 40 74 38 75
REMARK SMILES IDX 64 76 65 77 73 78 66 79 67 80 71 81 74 82 68 83 69 84 72 85
REMARK SMILES IDX 70 86 49 87 50 88 58 89 51 90 52 91 56 92 59 93 53 94 54 95
REMARK SMILES IDX 57 96 55 97
REMARK H PARENT 13 8 20 31 79 50 47 61
REMARK Flexibility Score: inf
ROOT
ATOM      1  C   UNL A   1      32.533  28.408  26.067  1.00  0.00     0.002 C 
ENDROOT
BRANCH   1   2
ATOM      2  C   UNL A   1      32.904  29.068  24.728  1.00  0.00     0.002 C 
BRANCH   2   3
ATOM      3  C   UNL A   1      33.335  28.091  23.635  1.00  0.00     0.021 C 
BRANCH   3   4
ATOM      4  C   UNL A   1      32.288  27.904  22.533  1.00  0.00     0.116 C 
BRANCH   4   5
ATOM      5  N   UNL A   1      32.719  26.945  21.553  1.00  0.00    -0.351 N 
ATOM      6  C   UNL A   1      32.965  25.598  21.557  1.00  0.00     0.272 C 
ATOM      7  O   UNL A   1      33.197  25.145  20.428  1.00  0.00    -0.267 OA
ATOM      8  H   UNL A   1      32.874  27.352  20.671  1.00  0.00     0.163 HD
BRANCH   6   9
ATOM      9  C   UNL A   1      32.935  24.713  22.753  1.00  0.00     0.154 A 
ATOM     10  N   UNL A   1      33.739  23.093  23.953  1.00  0.00    -0.237 N 
ATOM     11  N   UNL A   1      33.980  23.867  22.883  1.00  0.00    -0.162 NA
ATOM     12  C   UNL A   1      32.597  23.484  24.607  1.00  0.00     0.048 A 
ATOM     13  C   UNL A   1      32.090  24.563  23.900  1.00  0.00     0.007 A 
ATOM     14  C   UNL A   1      32.126  23.017  25.944  1.00  0.00     0.057 C 
ATOM     15  C   UNL A   1      30.934  25.334  24.421  1.00  0.00     0.043 C 
ATOM     16  C   UNL A   1      30.723  23.571  26.240  1.00  0.00     0.010 C 
ATOM     17  C   UNL A   1      30.620  25.071  25.910  1.00  0.00    -0.009 C 
ATOM     18  C   UNL A   1      29.226  25.612  26.234  1.00  0.00     0.008 C 
BRANCH  10  19
ATOM     19  C   UNL A   1      34.667  22.089  24.308  1.00  0.00     0.068 A 
ATOM     20  C   UNL A   1      38.307  21.888  25.424  1.00  0.00     0.044 C 
ATOM     21  C   UNL A   1      36.918  21.497  25.015  1.00  0.00    -0.046 A 
ATOM     22  C   UNL A   1      36.525  20.154  25.065  1.00  0.00     0.042 A 
ATOM     23  C   UNL A   1      35.992  22.460  24.594  1.00  0.00     0.032 A 
ATOM     24  C   UNL A   1      35.223  19.796  24.726  1.00  0.00     0.125 A 
ATOM     25  F   UNL A   1      34.869  18.505  24.751  1.00  0.00    -0.207 F 
ATOM     26  C   UNL A   1      34.281  20.750  24.364  1.00  0.00     0.067 A 
ENDBRANCH  10  19
ENDBRANCH   6   9
ENDBRANCH   4   5
ENDBRANCH   3   4
ENDBRANCH   2   3
ENDBRANCH   1   2
BRANCH   1  27
ATOM     27  C   UNL A   1      33.325  28.885  27.295  1.00  0.00     0.021 C 
BRANCH  27  28
ATOM     28  C   UNL A   1      34.792  29.066  26.974  1.00  0.00     0.116 C 
BRANCH  28  29
ATOM     29  N   UNL A   1      35.273  30.377  27.403  1.00  0.00    -0.352 N 
ATOM     30  C   UNL A   1      36.346  30.700  28.206  1.00  0.00     0.251 C 
ATOM     31  H   UNL A   1      34.753  31.144  27.069  1.00  0.00     0.163 HD
ATOM     32  O   UNL A   1      36.416  31.788  28.748  1.00  0.00    -0.269 OA
BRANCH  30  33
ATOM     33  C   UNL A   1      37.435  29.720  28.356  1.00  0.00     0.039 A 
ATOM     34  C   UNL A   1      37.530  28.891  29.480  1.00  0.00     0.014 A 
ATOM     35  C   UNL A   1      38.443  29.727  27.400  1.00  0.00     0.014 A 
ATOM     36  C   UNL A   1      38.665  28.103  29.638  1.00  0.00     0.010 A 
ATOM     37  C   UNL A   1      39.419  28.791  27.422  1.00  0.00     0.010 A 
ATOM     38  C   UNL A   1      39.601  28.087  28.601  1.00  0.00    -0.014 A 
BRANCH  38  39
ATOM     39  C   UNL A   1      40.886  27.433  28.639  1.00  0.00     0.031 A 
ATOM     40  C   UNL A   1      40.929  26.010  28.342  1.00  0.00     0.074 A 
ATOM     41  C   UNL A   1      41.956  28.245  28.791  1.00  0.00     0.049 A 
ATOM     42  N   UNL A   1      41.742  25.182  28.883  1.00  0.00    -0.248 NA
ATOM     43  C   UNL A   1      39.978  25.385  27.430  1.00  0.00     0.031 C 
ATOM     44  C   UNL A   1      43.376  27.982  28.648  1.00  0.00     0.029 A 
ATOM     45  N   UNL A   1      41.907  29.575  29.253  1.00  0.00    -0.354 N 
ATOM     46  C   UNL A   1      41.687  24.034  28.124  1.00  0.00     0.074 A 
ATOM     47  C   UNL A   1      40.453  24.136  27.384  1.00  0.00     0.031 C 
ATOM     48  C   UNL A   1      44.051  28.930  29.328  1.00  0.00     0.029 A 
ATOM     49  C   UNL A   1      43.071  29.771  30.006  1.00  0.00     0.049 A 
ATOM     50  H   UNL A   1      41.197  30.235  29.081  1.00  0.00     0.167 HD
ATOM     51  C   UNL A   1      42.813  23.266  28.053  1.00  0.00     0.037 A 
ATOM     52  C   UNL A   1      42.933  29.921  31.356  1.00  0.00     0.037 A 
ATOM     53  C   UNL A   1      43.879  23.906  28.840  1.00  0.00     0.049 A 
ATOM     54  C   UNL A   1      43.480  28.722  32.082  1.00  0.00     0.074 A 
ATOM     55  C   UNL A   1      44.931  24.727  28.461  1.00  0.00     0.029 A 
ATOM     56  N   UNL A   1      43.711  24.093  30.210  1.00  0.00    -0.354 N 
ATOM     57  N   UNL A   1      43.538  27.519  31.574  1.00  0.00    -0.248 NA
ATOM     58  C   UNL A   1      44.116  28.823  33.387  1.00  0.00     0.031 C 
ATOM     59  C   UNL A   1      45.351  25.456  29.607  1.00  0.00     0.029 A 
ATOM     60  C   UNL A   1      44.565  25.074  30.682  1.00  0.00     0.049 A 
ATOM     61  H   UNL A   1      43.071  23.594  30.768  1.00  0.00     0.167 HD
ATOM     62  C   UNL A   1      44.275  26.715  32.406  1.00  0.00     0.074 A 
ATOM     63  C   UNL A   1      44.607  27.581  33.526  1.00  0.00     0.031 C 
ATOM     64  C   UNL A   1      44.601  25.421  32.098  1.00  0.00     0.037 A 
BRANCH  51  65
ATOM     65  C   UNL A   1      43.081  22.173  27.034  1.00  0.00     0.064 A 
ATOM     66  C   UNL A   1      42.340  20.969  27.073  1.00  0.00     0.173 A 
ATOM     67  C   UNL A   1      44.050  22.221  26.012  1.00  0.00     0.173 A 
ATOM     68  F   UNL A   1      41.318  20.803  27.923  1.00  0.00    -0.203 F 
ATOM     69  C   UNL A   1      42.608  19.885  26.230  1.00  0.00     0.198 A 
ATOM     70  C   UNL A   1      44.343  21.124  25.192  1.00  0.00     0.198 A 
ATOM     71  F   UNL A   1      44.712  23.342  25.717  1.00  0.00    -0.203 F 
ATOM     72  F   UNL A   1      41.871  18.771  26.327  1.00  0.00    -0.200 F 
ATOM     73  C   UNL A   1      43.628  19.954  25.304  1.00  0.00     0.200 A 
ATOM     74  F   UNL A   1      45.323  21.223  24.280  1.00  0.00    -0.200 F 
ATOM     75  F   UNL A   1      43.896  18.912  24.506  1.00  0.00    -0.200 F 
ENDBRANCH  51  65
BRANCH  52  76
ATOM     76  C   UNL A   1      41.725  30.742  31.698  1.00  0.00     0.064 A 
ATOM     77  C   UNL A   1      40.667  30.046  32.322  1.00  0.00     0.173 A 
ATOM     78  C   UNL A   1      41.784  32.127  31.904  1.00  0.00     0.173 A 
ATOM     79  F   UNL A   1      40.535  28.723  32.132  1.00  0.00    -0.203 F 
ATOM     80  C   UNL A   1      39.850  30.658  33.271  1.00  0.00     0.198 A 
ATOM     81  C   UNL A   1      40.927  32.749  32.823  1.00  0.00     0.198 A 
ATOM     82  F   UNL A   1      42.741  32.861  31.320  1.00  0.00    -0.203 F 
ATOM     83  F   UNL A   1      38.982  29.923  33.981  1.00  0.00    -0.200 F 
ATOM     84  C   UNL A   1      40.010  32.002  33.552  1.00  0.00     0.200 A 
ATOM     85  F   UNL A   1      41.042  34.062  33.061  1.00  0.00    -0.200 F 
ATOM     86  F   UNL A   1      39.312  32.560  34.552  1.00  0.00    -0.200 F 
ENDBRANCH  52  76
BRANCH  64  87
ATOM     87  C   UNL A   1      45.130  24.383  33.069  1.00  0.00     0.064 A 
ATOM     88  C   UNL A   1      44.437  23.217  33.432  1.00  0.00     0.173 A 
ATOM     89  C   UNL A   1      46.453  24.472  33.577  1.00  0.00     0.173 A 
ATOM     90  F   UNL A   1      43.255  22.902  32.893  1.00  0.00    -0.203 F 
ATOM     91  C   UNL A   1      44.972  22.282  34.322  1.00  0.00     0.198 A 
ATOM     92  C   UNL A   1      47.017  23.491  34.389  1.00  0.00     0.198 A 
ATOM     93  F   UNL A   1      47.268  25.494  33.280  1.00  0.00    -0.203 F 
ATOM     94  F   UNL A   1      44.230  21.232  34.697  1.00  0.00    -0.200 F 
ATOM     95  C   UNL A   1      46.263  22.413  34.791  1.00  0.00     0.200 A 
ATOM     96  F   UNL A   1      48.299  23.595  34.764  1.00  0.00    -0.200 F 
ATOM     97  F   UNL A   1      46.788  21.487  35.604  1.00  0.00    -0.200 F 
ENDBRANCH  64  87
ENDBRANCH  38  39
ENDBRANCH  30  33
ENDBRANCH  28  29
ENDBRANCH  27  28
ENDBRANCH   1  27
TORSDOF 14
ENDMDL
