MODEL 1
REMARK VINA RESULT:     -12.3      0.000      0.000
REMARK SMILES O=C(NCCCCCCNC(=O)[C@H]1CCCC[NH+]1Cc1ccc([N+](=O)[O-])o1)c1ccc(-c2c3nc(c(-c4c(F)c(F)c(F)c(F)c4F)c4ccc([nH]4)c(-c4c(F)c(F)c(F)c(F)c4F)c4nc(c(-c5c(F)c(F)c(F)c(F)c5F)c5ccc2[nH]5)C=C4)C=C3)cc1
REMARK SMILES IDX 7 1 6 2 5 3 4 4 3 5 1 6 2 7 28 9 29 10 90 11 30 12 89 13
REMARK SMILES IDX 31 14 32 15 33 16 83 17 34 18 88 19 82 20 84 21 35 22 87 23
REMARK SMILES IDX 81 24 80 25 36 27 68 28 48 29 67 30 49 31 52 32 66 33 85 34
REMARK SMILES IDX 50 35 51 36 65 38 86 39 53 40 37 41 38 42 46 43 39 44 40 45
REMARK SMILES IDX 44 46 47 47 41 48 42 49 45 50 43 51 69 52 70 53 78 54 71 55
REMARK SMILES IDX 72 56 76 57 79 58 73 59 74 60 77 61 75 62 54 63 55 64 63 65
REMARK SMILES IDX 56 66 57 67 61 68 64 69 58 70 59 71 62 72 60 73 8 74 9 75
REMARK SMILES IDX 10 76 11 77 12 79 13 80 14 81 18 82 15 83 17 84 16 86 19 87
REMARK SMILES IDX 20 88 21 89 27 90 22 91 23 92 24 93 25 94 26 95
REMARK H PARENT 3 8 84 26 52 37 10 78 18 85
REMARK Flexibility Score: inf
ROOT
ATOM      1  C   UNL A   1      33.084  30.030  27.191  1.00  0.00     0.002 C 
ENDROOT
BRANCH   1   2
ATOM      2  C   UNL A   1      31.657  30.521  26.902  1.00  0.00     0.002 C 
BRANCH   2   3
ATOM      3  C   UNL A   1      31.479  32.040  26.866  1.00  0.00     0.021 C 
BRANCH   3   4
ATOM      4  C   UNL A   1      32.747  32.816  27.174  1.00  0.00     0.116 C 
BRANCH   4   5
ATOM      5  N   UNL A   1      32.462  34.161  27.655  1.00  0.00    -0.352 N 
ATOM      6  O   UNL A   1      32.561  35.898  29.098  1.00  0.00    -0.269 OA
ATOM      7  C   UNL A   1      33.039  34.843  28.695  1.00  0.00     0.251 C 
ATOM      8  H   UNL A   1      31.759  34.647  27.165  1.00  0.00     0.163 HD
BRANCH   7   9
ATOM      9  C   UNL A   1      34.250  34.287  29.325  1.00  0.00     0.039 A 
ATOM     10  C   UNL A   1      34.125  33.365  30.365  1.00  0.00     0.014 A 
ATOM     11  C   UNL A   1      35.513  34.683  28.877  1.00  0.00     0.014 A 
ATOM     12  C   UNL A   1      35.251  32.952  31.053  1.00  0.00     0.010 A 
ATOM     13  C   UNL A   1      36.656  34.169  29.494  1.00  0.00     0.010 A 
ATOM     14  C   UNL A   1      36.531  33.306  30.594  1.00  0.00    -0.014 A 
BRANCH  14  15
ATOM     15  C   UNL A   1      37.697  32.646  31.224  1.00  0.00     0.031 A 
ATOM     16  C   UNL A   1      38.136  32.982  32.616  1.00  0.00     0.074 A 
ATOM     17  C   UNL A   1      38.310  31.673  30.521  1.00  0.00     0.049 A 
ATOM     18  N   UNL A   1      39.102  32.449  33.321  1.00  0.00    -0.248 NA
ATOM     19  C   UNL A   1      37.412  34.059  33.309  1.00  0.00     0.031 C 
ATOM     20  C   UNL A   1      37.966  31.289  29.147  1.00  0.00     0.029 A 
ATOM     21  N   UNL A   1      39.307  30.801  30.865  1.00  0.00    -0.354 N 
ATOM     22  C   UNL A   1      39.114  33.131  34.529  1.00  0.00     0.074 A 
ATOM     23  C   UNL A   1      38.073  34.134  34.458  1.00  0.00     0.031 C 
ATOM     24  C   UNL A   1      38.679  30.213  28.796  1.00  0.00     0.029 A 
ATOM     25  C   UNL A   1      39.591  29.884  29.882  1.00  0.00     0.049 A 
ATOM     26  H   UNL A   1      39.775  30.827  31.730  1.00  0.00     0.167 HD
ATOM     27  C   UNL A   1      39.922  32.925  35.597  1.00  0.00     0.037 A 
ATOM     28  C   UNL A   1      40.505  28.897  29.848  1.00  0.00     0.037 A 
ATOM     29  C   UNL A   1      40.948  31.913  35.651  1.00  0.00     0.049 A 
ATOM     30  C   UNL A   1      41.381  28.700  31.049  1.00  0.00     0.074 A 
ATOM     31  C   UNL A   1      41.822  31.622  36.684  1.00  0.00     0.029 A 
ATOM     32  N   UNL A   1      41.233  31.022  34.624  1.00  0.00    -0.354 N 
ATOM     33  N   UNL A   1      41.379  29.350  32.187  1.00  0.00    -0.248 NA
ATOM     34  C   UNL A   1      42.390  27.640  30.959  1.00  0.00     0.031 C 
ATOM     35  C   UNL A   1      42.661  30.581  36.268  1.00  0.00     0.029 A 
ATOM     36  C   UNL A   1      42.277  30.189  34.996  1.00  0.00     0.049 A 
ATOM     37  H   UNL A   1      40.764  30.987  33.760  1.00  0.00     0.167 HD
ATOM     38  C   UNL A   1      42.387  28.782  32.949  1.00  0.00     0.074 A 
ATOM     39  C   UNL A   1      42.948  27.704  32.159  1.00  0.00     0.031 C 
ATOM     40  C   UNL A   1      42.823  29.132  34.184  1.00  0.00     0.037 A 
BRANCH  27  41
ATOM     41  C   UNL A   1      39.743  33.816  36.793  1.00  0.00     0.064 A 
ATOM     42  C   UNL A   1      40.340  35.082  36.863  1.00  0.00     0.173 A 
ATOM     43  C   UNL A   1      38.910  33.425  37.853  1.00  0.00     0.173 A 
ATOM     44  F   UNL A   1      41.156  35.500  35.883  1.00  0.00    -0.203 F 
ATOM     45  C   UNL A   1      40.120  35.921  37.954  1.00  0.00     0.198 A 
ATOM     46  C   UNL A   1      38.671  34.275  38.930  1.00  0.00     0.198 A 
ATOM     47  F   UNL A   1      38.310  32.226  37.835  1.00  0.00    -0.203 F 
ATOM     48  F   UNL A   1      40.724  37.115  38.013  1.00  0.00    -0.200 F 
ATOM     49  C   UNL A   1      39.279  35.520  38.982  1.00  0.00     0.200 A 
ATOM     50  F   UNL A   1      37.847  33.892  39.916  1.00  0.00    -0.200 F 
ATOM     51  F   UNL A   1      39.055  36.335  40.022  1.00  0.00    -0.200 F 
ENDBRANCH  27  41
BRANCH  28  52
ATOM     52  C   UNL A   1      40.647  28.058  28.630  1.00  0.00     0.064 A 
ATOM     53  C   UNL A   1      41.450  28.463  27.556  1.00  0.00     0.173 A 
ATOM     54  C   UNL A   1      39.988  26.823  28.522  1.00  0.00     0.173 A 
ATOM     55  F   UNL A   1      42.089  29.641  27.603  1.00  0.00    -0.203 F 
ATOM     56  C   UNL A   1      41.569  27.677  26.411  1.00  0.00     0.198 A 
ATOM     57  C   UNL A   1      40.139  26.021  27.395  1.00  0.00     0.198 A 
ATOM     58  F   UNL A   1      39.215  26.384  29.526  1.00  0.00    -0.203 F 
ATOM     59  F   UNL A   1      42.302  28.110  25.378  1.00  0.00    -0.200 F 
ATOM     60  C   UNL A   1      40.920  26.453  26.335  1.00  0.00     0.200 A 
ATOM     61  F   UNL A   1      39.528  24.830  27.338  1.00  0.00    -0.200 F 
ATOM     62  F   UNL A   1      41.043  25.694  25.238  1.00  0.00    -0.200 F 
ENDBRANCH  28  52
BRANCH  40  63
ATOM     63  C   UNL A   1      43.957  28.324  34.742  1.00  0.00     0.064 A 
ATOM     64  C   UNL A   1      43.726  27.151  35.477  1.00  0.00     0.173 A 
ATOM     65  C   UNL A   1      45.284  28.732  34.548  1.00  0.00     0.173 A 
ATOM     66  F   UNL A   1      42.472  26.733  35.705  1.00  0.00    -0.203 F 
ATOM     67  C   UNL A   1      44.784  26.438  36.033  1.00  0.00     0.198 A 
ATOM     68  C   UNL A   1      46.341  27.999  35.078  1.00  0.00     0.198 A 
ATOM     69  F   UNL A   1      45.556  29.844  33.849  1.00  0.00    -0.203 F 
ATOM     70  F   UNL A   1      44.538  25.359  36.789  1.00  0.00    -0.200 F 
ATOM     71  C   UNL A   1      46.090  26.860  35.830  1.00  0.00     0.200 A 
ATOM     72  F   UNL A   1      47.602  28.401  34.873  1.00  0.00    -0.200 F 
ATOM     73  F   UNL A   1      47.107  26.176  36.371  1.00  0.00    -0.200 F 
ENDBRANCH  40  63
ENDBRANCH  14  15
ENDBRANCH   7   9
ENDBRANCH   4   5
ENDBRANCH   3   4
ENDBRANCH   2   3
ENDBRANCH   1   2
BRANCH   1  74
ATOM     74  C   UNL A   1      33.746  29.225  26.070  1.00  0.00     0.021 C 
BRANCH  74  75
ATOM     75  C   UNL A   1      33.129  29.482  24.702  1.00  0.00     0.116 C 
BRANCH  75  76
ATOM     76  N   UNL A   1      33.934  28.998  23.606  1.00  0.00    -0.351 N 
ATOM     77  C   UNL A   1      33.668  28.122  22.603  1.00  0.00     0.278 C 
ATOM     78  H   UNL A   1      34.846  29.372  23.582  1.00  0.00     0.163 HD
ATOM     79  O   UNL A   1      34.399  28.238  21.606  1.00  0.00    -0.268 OA
BRANCH  77  80
ATOM     80  C   UNL A   1      32.626  26.971  22.625  1.00  0.00     0.274 C 
ATOM     81  C   UNL A   1      33.266  25.758  23.318  1.00  0.00     0.076 C 
ATOM     82  N   UNL A   1      31.305  27.285  23.152  1.00  0.00    -0.318 N 
ATOM     83  C   UNL A   1      33.264  25.931  24.824  1.00  0.00     0.012 C 
ATOM     84  C   UNL A   1      30.986  27.057  24.556  1.00  0.00     0.263 C 
ATOM     85  H   UNL A   1      32.314  27.365  23.024  1.00  0.00     0.349 HD
ATOM     86  C   UNL A   1      31.826  26.014  25.303  1.00  0.00     0.062 C 
BRANCH  82  87
ATOM     87  C   UNL A   1      30.263  27.827  22.274  1.00  0.00     0.339 C 
BRANCH  87  88
ATOM     88  C   UNL A   1      29.805  29.225  22.596  1.00  0.00     0.165 A 
ATOM     89  C   UNL A   1      29.784  29.987  23.754  1.00  0.00     0.059 A 
ATOM     90  O   UNL A   1      29.252  29.950  21.567  1.00  0.00    -0.400 OA
ATOM     91  C   UNL A   1      29.076  31.179  23.461  1.00  0.00     0.134 A 
ATOM     92  C   UNL A   1      28.806  31.115  22.118  1.00  0.00     0.433 A 
BRANCH  92  93
ATOM     93  N   UNL A   1      28.084  31.995  21.257  1.00  0.00     0.102 N 
ATOM     94  O   UNL A   1      27.622  31.526  20.211  1.00  0.00    -0.256 OA
ATOM     95  O   UNL A   1      27.971  33.168  21.641  1.00  0.00    -0.256 OA
ENDBRANCH  92  93
ENDBRANCH  87  88
ENDBRANCH  82  87
ENDBRANCH  77  80
ENDBRANCH  75  76
ENDBRANCH  74  75
ENDBRANCH   1  74
TORSDOF 16
ENDMDL
MODEL 2
REMARK VINA RESULT:     -12.2      3.941      5.928
REMARK SMILES O=C(NCCCCCCNC(=O)[C@H]1CCCC[NH+]1Cc1ccc([N+](=O)[O-])o1)c1ccc(-c2c3nc(c(-c4c(F)c(F)c(F)c(F)c4F)c4ccc([nH]4)c(-c4c(F)c(F)c(F)c(F)c4F)c4nc(c(-c5c(F)c(F)c(F)c(F)c5F)c5ccc2[nH]5)C=C4)C=C3)cc1
REMARK SMILES IDX 7 1 6 2 5 3 4 4 3 5 1 6 2 7 28 9 29 10 90 11 30 12 89 13
REMARK SMILES IDX 31 14 32 15 33 16 83 17 34 18 88 19 82 20 84 21 35 22 87 23
REMARK SMILES IDX 81 24 80 25 36 27 68 28 48 29 67 30 49 31 52 32 66 33 85 34
REMARK SMILES IDX 50 35 51 36 65 38 86 39 53 40 37 41 38 42 46 43 39 44 40 45
REMARK SMILES IDX 44 46 47 47 41 48 42 49 45 50 43 51 69 52 70 53 78 54 71 55
REMARK SMILES IDX 72 56 76 57 79 58 73 59 74 60 77 61 75 62 54 63 55 64 63 65
REMARK SMILES IDX 56 66 57 67 61 68 64 69 58 70 59 71 62 72 60 73 8 74 9 75
REMARK SMILES IDX 10 76 11 77 12 79 13 80 14 81 18 82 15 83 17 84 16 86 19 87
REMARK SMILES IDX 20 88 21 89 27 90 22 91 23 92 24 93 25 94 26 95
REMARK H PARENT 3 8 84 26 52 37 10 78 18 85
REMARK Flexibility Score: inf
ROOT
ATOM      1  C   UNL A   1      31.561  26.600  24.279  1.00  0.00     0.002 C 
ENDROOT
BRANCH   1   2
ATOM      2  C   UNL A   1      33.022  26.878  23.893  1.00  0.00     0.002 C 
BRANCH   2   3
ATOM      3  C   UNL A   1      33.443  28.348  23.928  1.00  0.00     0.021 C 
BRANCH   3   4
ATOM      4  C   UNL A   1      33.854  28.838  25.305  1.00  0.00     0.116 C 
BRANCH   4   5
ATOM      5  N   UNL A   1      33.112  30.024  25.709  1.00  0.00    -0.352 N 
ATOM      6  O   UNL A   1      32.491  31.691  27.104  1.00  0.00    -0.269 OA
ATOM      7  C   UNL A   1      33.317  30.840  26.791  1.00  0.00     0.251 C 
ATOM      8  H   UNL A   1      32.358  30.272  25.125  1.00  0.00     0.163 HD
BRANCH   7   9
ATOM      9  C   UNL A   1      34.554  30.681  27.577  1.00  0.00     0.039 A 
ATOM     10  C   UNL A   1      34.784  29.489  28.265  1.00  0.00     0.014 A 
ATOM     11  C   UNL A   1      35.487  31.720  27.626  1.00  0.00     0.014 A 
ATOM     12  C   UNL A   1      35.869  29.389  29.117  1.00  0.00     0.010 A 
ATOM     13  C   UNL A   1      36.646  31.570  28.392  1.00  0.00     0.010 A 
ATOM     14  C   UNL A   1      36.839  30.405  29.151  1.00  0.00    -0.014 A 
BRANCH  14  15
ATOM     15  C   UNL A   1      38.090  30.141  29.898  1.00  0.00     0.031 A 
ATOM     16  C   UNL A   1      38.292  30.634  31.298  1.00  0.00     0.074 A 
ATOM     17  C   UNL A   1      39.019  29.372  29.294  1.00  0.00     0.049 A 
ATOM     18  N   UNL A   1      39.309  30.433  32.097  1.00  0.00    -0.248 NA
ATOM     19  C   UNL A   1      37.228  31.468  31.877  1.00  0.00     0.031 C 
ATOM     20  C   UNL A   1      38.920  28.862  27.921  1.00  0.00     0.029 A 
ATOM     21  N   UNL A   1      40.195  28.846  29.755  1.00  0.00    -0.354 N 
ATOM     22  C   UNL A   1      39.018  31.124  33.264  1.00  0.00     0.074 A 
ATOM     23  C   UNL A   1      37.738  31.771  33.065  1.00  0.00     0.031 C 
ATOM     24  C   UNL A   1      39.944  28.035  27.681  1.00  0.00     0.029 A 
ATOM     25  C   UNL A   1      40.817  28.025  28.846  1.00  0.00     0.049 A 
ATOM     26  H   UNL A   1      40.559  29.036  30.649  1.00  0.00     0.167 HD
ATOM     27  C   UNL A   1      39.758  31.200  34.398  1.00  0.00     0.037 A 
ATOM     28  C   UNL A   1      41.979  27.353  28.931  1.00  0.00     0.037 A 
ATOM     29  C   UNL A   1      41.027  30.540  34.579  1.00  0.00     0.049 A 
ATOM     30  C   UNL A   1      42.770  27.462  30.200  1.00  0.00     0.074 A 
ATOM     31  C   UNL A   1      41.858  30.553  35.686  1.00  0.00     0.029 A 
ATOM     32  N   UNL A   1      41.647  29.743  33.625  1.00  0.00    -0.354 N 
ATOM     33  N   UNL A   1      42.481  28.116  31.299  1.00  0.00    -0.248 NA
ATOM     34  C   UNL A   1      44.050  26.746  30.240  1.00  0.00     0.031 C 
ATOM     35  C   UNL A   1      42.997  29.796  35.388  1.00  0.00     0.029 A 
ATOM     36  C   UNL A   1      42.854  29.269  34.115  1.00  0.00     0.049 A 
ATOM     37  H   UNL A   1      41.283  29.544  32.733  1.00  0.00     0.167 HD
ATOM     38  C   UNL A   1      43.544  27.896  32.160  1.00  0.00     0.074 A 
ATOM     39  C   UNL A   1      44.461  27.009  31.472  1.00  0.00     0.031 C 
ATOM     40  C   UNL A   1      43.752  28.397  33.403  1.00  0.00     0.037 A 
BRANCH  27  41
ATOM     41  C   UNL A   1      39.226  32.034  35.527  1.00  0.00     0.064 A 
ATOM     42  C   UNL A   1      38.404  31.486  36.522  1.00  0.00     0.173 A 
ATOM     43  C   UNL A   1      39.596  33.382  35.653  1.00  0.00     0.173 A 
ATOM     44  F   UNL A   1      38.010  30.206  36.445  1.00  0.00    -0.203 F 
ATOM     45  C   UNL A   1      37.964  32.259  37.596  1.00  0.00     0.198 A 
ATOM     46  C   UNL A   1      39.176  34.145  36.739  1.00  0.00     0.198 A 
ATOM     47  F   UNL A   1      40.385  33.955  34.731  1.00  0.00    -0.203 F 
ATOM     48  F   UNL A   1      37.156  31.722  38.519  1.00  0.00    -0.200 F 
ATOM     49  C   UNL A   1      38.357  33.585  37.708  1.00  0.00     0.200 A 
ATOM     50  F   UNL A   1      39.568  35.422  36.853  1.00  0.00    -0.200 F 
ATOM     51  F   UNL A   1      37.946  34.321  38.749  1.00  0.00    -0.200 F 
ENDBRANCH  27  41
BRANCH  28  52
ATOM     52  C   UNL A   1      42.464  26.557  27.774  1.00  0.00     0.064 A 
ATOM     53  C   UNL A   1      43.370  27.093  26.850  1.00  0.00     0.173 A 
ATOM     54  C   UNL A   1      42.036  25.235  27.576  1.00  0.00     0.173 A 
ATOM     55  F   UNL A   1      43.799  28.356  26.985  1.00  0.00    -0.203 F 
ATOM     56  C   UNL A   1      43.812  26.345  25.759  1.00  0.00     0.198 A 
ATOM     57  C   UNL A   1      42.507  24.476  26.508  1.00  0.00     0.198 A 
ATOM     58  F   UNL A   1      41.175  24.671  28.437  1.00  0.00    -0.203 F 
ATOM     59  F   UNL A   1      44.639  26.897  24.863  1.00  0.00    -0.200 F 
ATOM     60  C   UNL A   1      43.386  25.035  25.594  1.00  0.00     0.200 A 
ATOM     61  F   UNL A   1      42.109  23.204  26.367  1.00  0.00    -0.200 F 
ATOM     62  F   UNL A   1      43.817  24.314  24.551  1.00  0.00    -0.200 F 
ENDBRANCH  28  52
BRANCH  40  63
ATOM     63  C   UNL A   1      45.022  27.979  34.083  1.00  0.00     0.064 A 
ATOM     64  C   UNL A   1      46.228  28.662  33.864  1.00  0.00     0.173 A 
ATOM     65  C   UNL A   1      45.034  26.880  34.954  1.00  0.00     0.173 A 
ATOM     66  F   UNL A   1      46.268  29.707  33.024  1.00  0.00    -0.203 F 
ATOM     67  C   UNL A   1      47.409  28.234  34.461  1.00  0.00     0.198 A 
ATOM     68  C   UNL A   1      46.211  26.474  35.575  1.00  0.00     0.198 A 
ATOM     69  F   UNL A   1      43.906  26.198  35.199  1.00  0.00    -0.203 F 
ATOM     70  F   UNL A   1      48.562  28.860  34.186  1.00  0.00    -0.200 F 
ATOM     71  C   UNL A   1      47.399  27.143  35.319  1.00  0.00     0.200 A 
ATOM     72  F   UNL A   1      46.199  25.428  36.411  1.00  0.00    -0.200 F 
ATOM     73  F   UNL A   1      48.539  26.729  35.888  1.00  0.00    -0.200 F 
ENDBRANCH  40  63
ENDBRANCH  14  15
ENDBRANCH   7   9
ENDBRANCH   4   5
ENDBRANCH   3   4
ENDBRANCH   2   3
ENDBRANCH   1   2
BRANCH   1  74
ATOM     74  C   UNL A   1      30.699  25.965  23.184  1.00  0.00     0.021 C 
BRANCH  74  75
ATOM     75  C   UNL A   1      30.296  24.530  23.492  1.00  0.00     0.116 C 
BRANCH  75  76
ATOM     76  N   UNL A   1      30.817  24.042  24.746  1.00  0.00    -0.351 N 
ATOM     77  C   UNL A   1      31.895  23.270  25.042  1.00  0.00     0.278 C 
ATOM     78  H   UNL A   1      30.292  24.318  25.533  1.00  0.00     0.163 HD
ATOM     79  O   UNL A   1      32.305  23.378  26.209  1.00  0.00    -0.268 OA
BRANCH  77  80
ATOM     80  C   UNL A   1      32.583  22.236  24.110  1.00  0.00     0.274 C 
ATOM     81  C   UNL A   1      33.486  23.000  23.131  1.00  0.00     0.076 C 
ATOM     82  N   UNL A   1      33.267  21.120  24.749  1.00  0.00    -0.318 N 
ATOM     83  C   UNL A   1      34.782  23.416  23.800  1.00  0.00     0.012 C 
ATOM     84  C   UNL A   1      34.690  21.189  25.051  1.00  0.00     0.263 C 
ATOM     85  H   UNL A   1      32.876  22.058  24.651  1.00  0.00     0.349 HD
ATOM     86  C   UNL A   1      35.534  22.167  24.222  1.00  0.00     0.062 C 
BRANCH  82  87
ATOM     87  C   UNL A   1      32.534  19.897  25.092  1.00  0.00     0.339 C 
BRANCH  87  88
ATOM     88  C   UNL A   1      33.035  18.636  24.438  1.00  0.00     0.165 A 
ATOM     89  C   UNL A   1      33.061  18.176  23.131  1.00  0.00     0.059 A 
ATOM     90  O   UNL A   1      33.571  17.678  25.266  1.00  0.00    -0.400 OA
ATOM     91  C   UNL A   1      33.513  16.833  23.166  1.00  0.00     0.134 A 
ATOM     92  C   UNL A   1      33.834  16.597  24.478  1.00  0.00     0.433 A 
BRANCH  92  93
ATOM     93  N   UNL A   1      34.298  15.420  25.139  1.00  0.00     0.102 N 
ATOM     94  O   UNL A   1      33.466  14.546  25.409  1.00  0.00    -0.256 OA
ATOM     95  O   UNL A   1      35.512  15.368  25.382  1.00  0.00    -0.256 OA
ENDBRANCH  92  93
ENDBRANCH  87  88
ENDBRANCH  82  87
ENDBRANCH  77  80
ENDBRANCH  75  76
ENDBRANCH  74  75
ENDBRANCH   1  74
TORSDOF 16
ENDMDL
MODEL 3
REMARK VINA RESULT:     -12.0      3.185      4.723
REMARK SMILES O=C(NCCCCCCNC(=O)[C@H]1CCCC[NH+]1Cc1ccc([N+](=O)[O-])o1)c1ccc(-c2c3nc(c(-c4c(F)c(F)c(F)c(F)c4F)c4ccc([nH]4)c(-c4c(F)c(F)c(F)c(F)c4F)c4nc(c(-c5c(F)c(F)c(F)c(F)c5F)c5ccc2[nH]5)C=C4)C=C3)cc1
REMARK SMILES IDX 7 1 6 2 5 3 4 4 3 5 1 6 2 7 28 9 29 10 90 11 30 12 89 13
REMARK SMILES IDX 31 14 32 15 33 16 83 17 34 18 88 19 82 20 84 21 35 22 87 23
REMARK SMILES IDX 81 24 80 25 36 27 68 28 48 29 67 30 49 31 52 32 66 33 85 34
REMARK SMILES IDX 50 35 51 36 65 38 86 39 53 40 37 41 38 42 46 43 39 44 40 45
REMARK SMILES IDX 44 46 47 47 41 48 42 49 45 50 43 51 69 52 70 53 78 54 71 55
REMARK SMILES IDX 72 56 76 57 79 58 73 59 74 60 77 61 75 62 54 63 55 64 63 65
REMARK SMILES IDX 56 66 57 67 61 68 64 69 58 70 59 71 62 72 60 73 8 74 9 75
REMARK SMILES IDX 10 76 11 77 12 79 13 80 14 81 18 82 15 83 17 84 16 86 19 87
REMARK SMILES IDX 20 88 21 89 27 90 22 91 23 92 24 93 25 94 26 95
REMARK H PARENT 3 8 84 26 52 37 10 78 18 85
REMARK Flexibility Score: inf
ROOT
ATOM      1  C   UNL A   1      33.109  29.326  26.429  1.00  0.00     0.002 C 
ENDROOT
BRANCH   1   2
ATOM      2  C   UNL A   1      31.715  29.874  26.771  1.00  0.00     0.002 C 
BRANCH   2   3
ATOM      3  C   UNL A   1      31.538  31.382  26.585  1.00  0.00     0.021 C 
BRANCH   3   4
ATOM      4  C   UNL A   1      32.790  32.190  26.874  1.00  0.00     0.116 C 
BRANCH   4   5
ATOM      5  N   UNL A   1      32.481  33.547  27.302  1.00  0.00    -0.352 N 
ATOM      6  O   UNL A   1      32.534  35.335  28.683  1.00  0.00    -0.269 OA
ATOM      7  C   UNL A   1      33.032  34.273  28.325  1.00  0.00     0.251 C 
ATOM      8  H   UNL A   1      31.779  34.005  26.784  1.00  0.00     0.163 HD
BRANCH   7   9
ATOM      9  C   UNL A   1      34.240  33.757  28.993  1.00  0.00     0.039 A 
ATOM     10  C   UNL A   1      34.129  32.705  29.903  1.00  0.00     0.014 A 
ATOM     11  C   UNL A   1      35.488  34.320  28.710  1.00  0.00     0.014 A 
ATOM     12  C   UNL A   1      35.233  32.314  30.637  1.00  0.00     0.010 A 
ATOM     13  C   UNL A   1      36.625  33.840  29.365  1.00  0.00     0.010 A 
ATOM     14  C   UNL A   1      36.502  32.840  30.340  1.00  0.00    -0.014 A 
BRANCH  14  15
ATOM     15  C   UNL A   1      37.677  32.217  30.993  1.00  0.00     0.031 A 
ATOM     16  C   UNL A   1      38.071  32.555  32.397  1.00  0.00     0.074 A 
ATOM     17  C   UNL A   1      38.341  31.272  30.296  1.00  0.00     0.049 A 
ATOM     18  N   UNL A   1      39.039  32.050  33.120  1.00  0.00    -0.248 NA
ATOM     19  C   UNL A   1      37.293  33.599  33.082  1.00  0.00     0.031 C 
ATOM     20  C   UNL A   1      38.043  30.889  28.911  1.00  0.00     0.029 A 
ATOM     21  N   UNL A   1      39.361  30.433  30.656  1.00  0.00    -0.354 N 
ATOM     22  C   UNL A   1      38.998  32.722  34.333  1.00  0.00     0.074 A 
ATOM     23  C   UNL A   1      37.924  33.688  34.246  1.00  0.00     0.031 C 
ATOM     24  C   UNL A   1      38.802  29.842  28.568  1.00  0.00     0.029 A 
ATOM     25  C   UNL A   1      39.700  29.536  29.673  1.00  0.00     0.049 A 
ATOM     26  H   UNL A   1      39.807  30.469  31.533  1.00  0.00     0.167 HD
ATOM     27  C   UNL A   1      39.788  32.536  35.419  1.00  0.00     0.037 A 
ATOM     28  C   UNL A   1      40.649  28.583  29.652  1.00  0.00     0.037 A 
ATOM     29  C   UNL A   1      40.849  31.561  35.488  1.00  0.00     0.049 A 
ATOM     30  C   UNL A   1      41.504  28.407  30.872  1.00  0.00     0.074 A 
ATOM     31  C   UNL A   1      41.709  31.292  36.539  1.00  0.00     0.029 A 
ATOM     32  N   UNL A   1      41.190  30.690  34.462  1.00  0.00    -0.354 N 
ATOM     33  N   UNL A   1      41.452  29.046  32.015  1.00  0.00    -0.248 NA
ATOM     34  C   UNL A   1      42.552  27.384  30.797  1.00  0.00     0.031 C 
ATOM     35  C   UNL A   1      42.594  30.286  36.135  1.00  0.00     0.029 A 
ATOM     36  C   UNL A   1      42.255  29.891  34.851  1.00  0.00     0.049 A 
ATOM     37  H   UNL A   1      40.742  30.646  33.586  1.00  0.00     0.167 HD
ATOM     38  C   UNL A   1      42.462  28.508  32.795  1.00  0.00     0.074 A 
ATOM     39  C   UNL A   1      43.079  27.458  32.010  1.00  0.00     0.031 C 
ATOM     40  C   UNL A   1      42.857  28.862  34.043  1.00  0.00     0.037 A 
BRANCH  27  41
ATOM     41  C   UNL A   1      39.550  33.409  36.617  1.00  0.00     0.064 A 
ATOM     42  C   UNL A   1      40.148  34.671  36.739  1.00  0.00     0.173 A 
ATOM     43  C   UNL A   1      38.660  33.006  37.625  1.00  0.00     0.173 A 
ATOM     44  F   UNL A   1      41.017  35.100  35.810  1.00  0.00    -0.203 F 
ATOM     45  C   UNL A   1      39.874  35.493  37.829  1.00  0.00     0.198 A 
ATOM     46  C   UNL A   1      38.367  33.841  38.701  1.00  0.00     0.198 A 
ATOM     47  F   UNL A   1      38.056  31.810  37.556  1.00  0.00    -0.203 F 
ATOM     48  F   UNL A   1      40.479  36.683  37.940  1.00  0.00    -0.200 F 
ATOM     49  C   UNL A   1      38.977  35.082  38.805  1.00  0.00     0.200 A 
ATOM     50  F   UNL A   1      37.491  33.447  39.635  1.00  0.00    -0.200 F 
ATOM     51  F   UNL A   1      38.702  35.881  39.844  1.00  0.00    -0.200 F 
ENDBRANCH  27  41
BRANCH  28  52
ATOM     52  C   UNL A   1      40.850  27.760  28.432  1.00  0.00     0.064 A 
ATOM     53  C   UNL A   1      40.204  26.528  28.270  1.00  0.00     0.173 A 
ATOM     54  C   UNL A   1      41.689  28.197  27.395  1.00  0.00     0.173 A 
ATOM     55  F   UNL A   1      39.404  26.058  29.238  1.00  0.00    -0.203 F 
ATOM     56  C   UNL A   1      40.406  25.754  27.128  1.00  0.00     0.198 A 
ATOM     57  C   UNL A   1      41.860  27.442  26.238  1.00  0.00     0.198 A 
ATOM     58  F   UNL A   1      42.324  29.374  27.495  1.00  0.00    -0.203 F 
ATOM     59  F   UNL A   1      39.816  24.557  27.020  1.00  0.00    -0.200 F 
ATOM     60  C   UNL A   1      41.227  26.216  26.110  1.00  0.00     0.200 A 
ATOM     61  F   UNL A   1      42.637  27.904  25.248  1.00  0.00    -0.200 F 
ATOM     62  F   UNL A   1      41.414  25.476  25.009  1.00  0.00    -0.200 F 
ENDBRANCH  28  52
BRANCH  40  63
ATOM     63  C   UNL A   1      44.005  28.090  34.621  1.00  0.00     0.064 A 
ATOM     64  C   UNL A   1      43.801  26.898  35.333  1.00  0.00     0.173 A 
ATOM     65  C   UNL A   1      45.320  28.552  34.470  1.00  0.00     0.173 A 
ATOM     66  F   UNL A   1      42.559  26.428  35.520  1.00  0.00    -0.203 F 
ATOM     67  C   UNL A   1      44.871  26.218  35.908  1.00  0.00     0.198 A 
ATOM     68  C   UNL A   1      46.391  27.853  35.019  1.00  0.00     0.198 A 
ATOM     69  F   UNL A   1      45.567  29.685  33.795  1.00  0.00    -0.203 F 
ATOM     70  F   UNL A   1      44.647  25.119  36.641  1.00  0.00    -0.200 F 
ATOM     71  C   UNL A   1      46.164  26.694  35.748  1.00  0.00     0.200 A 
ATOM     72  F   UNL A   1      47.640  28.307  34.855  1.00  0.00    -0.200 F 
ATOM     73  F   UNL A   1      47.192  26.042  36.307  1.00  0.00    -0.200 F 
ENDBRANCH  40  63
ENDBRANCH  14  15
ENDBRANCH   7   9
ENDBRANCH   4   5
ENDBRANCH   3   4
ENDBRANCH   2   3
ENDBRANCH   1   2
BRANCH   1  74
ATOM     74  C   UNL A   1      33.255  27.803  26.500  1.00  0.00     0.021 C 
BRANCH  74  75
ATOM     75  C   UNL A   1      32.138  27.058  25.784  1.00  0.00     0.116 C 
BRANCH  75  76
ATOM     76  N   UNL A   1      31.615  25.943  26.535  1.00  0.00    -0.351 N 
ATOM     77  C   UNL A   1      31.895  24.613  26.499  1.00  0.00     0.278 C 
ATOM     78  H   UNL A   1      30.926  26.190  27.195  1.00  0.00     0.163 HD
ATOM     79  O   UNL A   1      31.597  23.993  27.532  1.00  0.00    -0.268 OA
BRANCH  77  80
ATOM     80  C   UNL A   1      32.456  23.814  25.291  1.00  0.00     0.274 C 
ATOM     81  C   UNL A   1      33.619  24.612  24.686  1.00  0.00     0.076 C 
ATOM     82  N   UNL A   1      32.795  22.416  25.523  1.00  0.00    -0.318 N 
ATOM     83  C   UNL A   1      34.879  24.447  25.514  1.00  0.00     0.012 C 
ATOM     84  C   UNL A   1      34.150  22.027  25.891  1.00  0.00     0.263 C 
ATOM     85  H   UNL A   1      32.632  23.398  25.747  1.00  0.00     0.349 HD
ATOM     86  C   UNL A   1      35.283  22.984  25.499  1.00  0.00     0.062 C 
BRANCH  82  87
ATOM     87  C   UNL A   1      31.778  21.370  25.379  1.00  0.00     0.339 C 
BRANCH  87  88
ATOM     88  C   UNL A   1      32.191  20.170  24.567  1.00  0.00     0.165 A 
ATOM     89  C   UNL A   1      32.327  19.929  23.209  1.00  0.00     0.059 A 
ATOM     90  O   UNL A   1      32.485  19.021  25.263  1.00  0.00    -0.400 OA
ATOM     91  C   UNL A   1      32.591  18.546  23.051  1.00  0.00     0.134 A 
ATOM     92  C   UNL A   1      32.706  18.055  24.327  1.00  0.00     0.433 A 
BRANCH  92  93
ATOM     93  N   UNL A   1      32.922  16.730  24.813  1.00  0.00     0.102 N 
ATOM     94  O   UNL A   1      33.341  15.886  24.013  1.00  0.00    -0.256 OA
ATOM     95  O   UNL A   1      32.678  16.538  26.013  1.00  0.00    -0.256 OA
ENDBRANCH  92  93
ENDBRANCH  87  88
ENDBRANCH  82  87
ENDBRANCH  77  80
ENDBRANCH  75  76
ENDBRANCH  74  75
ENDBRANCH   1  74
TORSDOF 16
ENDMDL
