MODEL 1
REMARK VINA RESULT:     -12.6      0.000      0.000
REMARK SMILES O=C(CNC(=O)Nc1cccc2c1CCCC2)NCCCCCCNC(=O)c1ccc(-c2c3nc(c(-c4c(F)c(F)c(F)c(F)c4F)c4ccc([nH]4)c(-c4c(F)c(F)c(F)c(F)c4F)c4nc(c(-c5c(F)c(F)c(F)c(F)c5F)c5ccc2[nH]5)C=C4)C=C3)cc1
REMARK SMILES IDX 21 1 20 2 19 3 18 4 1 5 2 6 3 8 4 9 5 10 6 12 7 13 8 15 9 16
REMARK SMILES IDX 13 17 10 18 12 19 14 20 11 21 17 22 15 23 16 24 22 25 23 26
REMARK SMILES IDX 24 27 25 28 26 29 27 31 28 32 29 33 90 34 30 35 89 36 31 37
REMARK SMILES IDX 32 38 33 39 83 40 34 41 88 42 82 43 84 44 35 45 87 46 81 47
REMARK SMILES IDX 80 48 36 50 68 51 48 52 67 53 49 54 52 55 66 56 85 57 50 58
REMARK SMILES IDX 51 59 65 61 86 62 53 63 37 64 38 65 46 66 39 67 40 68 44 69
REMARK SMILES IDX 47 70 41 71 42 72 45 73 43 74 69 75 70 76 78 77 71 78 72 79
REMARK SMILES IDX 76 80 79 81 73 82 74 83 77 84 75 85 54 86 55 87 63 88 56 89
REMARK SMILES IDX 57 90 61 91 64 92 58 93 59 94 62 95 60 96
REMARK H PARENT 18 7 4 11 7 14 25 30 84 49 52 60
REMARK Flexibility Score: inf
ROOT
ATOM      1  C   UNL A   1      32.975  30.031  26.770  1.00  0.00     0.002 C 
ENDROOT
BRANCH   1   2
ATOM      2  C   UNL A   1      33.637  29.038  25.805  1.00  0.00     0.021 C 
BRANCH   2   3
ATOM      3  C   UNL A   1      33.686  27.593  26.309  1.00  0.00     0.116 C 
BRANCH   3   4
ATOM      4  N   UNL A   1      32.713  26.775  25.626  1.00  0.00    -0.355 N 
ATOM      5  O   UNL A   1      31.028  27.093  27.152  1.00  0.00    -0.273 OA
ATOM      6  C   UNL A   1      31.462  26.538  26.147  1.00  0.00     0.239 C 
ATOM      7  H   UNL A   1      32.952  26.373  24.761  1.00  0.00     0.163 HD
BRANCH   6   8
ATOM      8  C   UNL A   1      30.785  25.317  25.546  1.00  0.00     0.217 C 
BRANCH   8   9
ATOM      9  N   UNL A   1      30.142  24.410  26.492  1.00  0.00    -0.329 N 
ATOM     10  C   UNL A   1      30.273  23.108  26.794  1.00  0.00     0.319 C 
ATOM     11  H   UNL A   1      29.453  24.856  27.035  1.00  0.00     0.165 HD
ATOM     12  O   UNL A   1      29.543  22.669  27.690  1.00  0.00    -0.248 OA
ATOM     13  N   UNL A   1      31.058  22.229  26.137  1.00  0.00    -0.308 N 
ATOM     14  H   UNL A   1      30.986  21.303  26.466  1.00  0.00     0.171 HD
BRANCH  13  15
ATOM     15  C   UNL A   1      31.957  22.386  25.077  1.00  0.00     0.046 A 
ATOM     16  C   UNL A   1      31.418  22.250  23.792  1.00  0.00     0.026 A 
ATOM     17  C   UNL A   1      33.315  22.714  25.249  1.00  0.00    -0.021 A 
ATOM     18  C   UNL A   1      32.170  22.602  22.677  1.00  0.00     0.002 A 
ATOM     19  C   UNL A   1      34.034  23.171  24.126  1.00  0.00    -0.043 A 
ATOM     20  C   UNL A   1      33.987  22.586  26.602  1.00  0.00     0.038 C 
ATOM     21  C   UNL A   1      33.459  23.099  22.846  1.00  0.00     0.004 A 
ATOM     22  C   UNL A   1      35.405  23.784  24.271  1.00  0.00     0.036 C 
ATOM     23  C   UNL A   1      35.441  23.061  26.648  1.00  0.00     0.005 C 
ATOM     24  C   UNL A   1      35.679  24.230  25.705  1.00  0.00     0.005 C 
ENDBRANCH  13  15
ENDBRANCH   8   9
ENDBRANCH   6   8
ENDBRANCH   3   4
ENDBRANCH   2   3
ENDBRANCH   1   2
BRANCH   1  25
ATOM     25  C   UNL A   1      31.671  30.661  26.272  1.00  0.00     0.002 C 
BRANCH  25  26
ATOM     26  C   UNL A   1      31.462  32.126  26.660  1.00  0.00     0.021 C 
BRANCH  26  27
ATOM     27  C   UNL A   1      32.670  32.797  27.300  1.00  0.00     0.116 C 
BRANCH  27  28
ATOM     28  N   UNL A   1      32.412  34.185  27.647  1.00  0.00    -0.352 N 
ATOM     29  C   UNL A   1      32.998  34.964  28.614  1.00  0.00     0.251 C 
ATOM     30  H   UNL A   1      31.717  34.631  27.111  1.00  0.00     0.163 HD
ATOM     31  O   UNL A   1      32.539  36.068  28.882  1.00  0.00    -0.269 OA
BRANCH  29  32
ATOM     32  C   UNL A   1      34.173  34.458  29.358  1.00  0.00     0.039 A 
ATOM     33  C   UNL A   1      33.972  33.849  30.599  1.00  0.00     0.014 A 
ATOM     34  C   UNL A   1      35.465  34.579  28.837  1.00  0.00     0.014 A 
ATOM     35  C   UNL A   1      35.057  33.301  31.286  1.00  0.00     0.010 A 
ATOM     36  C   UNL A   1      36.535  33.970  29.487  1.00  0.00     0.010 A 
ATOM     37  C   UNL A   1      36.341  33.324  30.717  1.00  0.00    -0.014 A 
BRANCH  37  38
ATOM     38  C   UNL A   1      37.487  32.656  31.385  1.00  0.00     0.031 A 
ATOM     39  C   UNL A   1      38.163  31.480  30.741  1.00  0.00     0.074 A 
ATOM     40  C   UNL A   1      37.868  33.064  32.610  1.00  0.00     0.049 A 
ATOM     41  N   UNL A   1      39.134  30.729  31.200  1.00  0.00    -0.248 NA
ATOM     42  C   UNL A   1      37.665  31.076  29.419  1.00  0.00     0.031 C 
ATOM     43  C   UNL A   1      37.252  34.156  33.365  1.00  0.00     0.029 A 
ATOM     44  N   UNL A   1      38.855  32.598  33.443  1.00  0.00    -0.354 N 
ATOM     45  C   UNL A   1      39.353  29.762  30.229  1.00  0.00     0.074 A 
ATOM     46  C   UNL A   1      38.378  29.986  29.182  1.00  0.00     0.031 C 
ATOM     47  C   UNL A   1      37.881  34.284  34.544  1.00  0.00     0.029 A 
ATOM     48  C   UNL A   1      38.922  33.264  34.642  1.00  0.00     0.049 A 
ATOM     49  H   UNL A   1      39.457  31.857  33.203  1.00  0.00     0.167 HD
ATOM     50  C   UNL A   1      40.299  28.792  30.201  1.00  0.00     0.037 A 
ATOM     51  C   UNL A   1      39.723  33.069  35.706  1.00  0.00     0.037 A 
ATOM     52  C   UNL A   1      41.275  28.581  31.237  1.00  0.00     0.049 A 
ATOM     53  C   UNL A   1      40.762  31.983  35.655  1.00  0.00     0.074 A 
ATOM     54  C   UNL A   1      42.315  27.669  31.272  1.00  0.00     0.029 A 
ATOM     55  N   UNL A   1      41.324  29.287  32.431  1.00  0.00    -0.354 N 
ATOM     56  N   UNL A   1      41.014  31.125  34.698  1.00  0.00    -0.248 NA
ATOM     57  C   UNL A   1      41.632  31.845  36.831  1.00  0.00     0.031 C 
ATOM     58  C   UNL A   1      42.964  27.791  32.505  1.00  0.00     0.029 A 
ATOM     59  C   UNL A   1      42.360  28.813  33.221  1.00  0.00     0.049 A 
ATOM     60  H   UNL A   1      40.713  30.018  32.680  1.00  0.00     0.167 HD
ATOM     61  C   UNL A   1      42.078  30.354  35.146  1.00  0.00     0.074 A 
ATOM     62  C   UNL A   1      42.437  30.861  36.454  1.00  0.00     0.031 C 
ATOM     63  C   UNL A   1      42.698  29.318  34.528  1.00  0.00     0.037 A 
BRANCH  50  64
ATOM     64  C   UNL A   1      40.316  27.883  29.004  1.00  0.00     0.064 A 
ATOM     65  C   UNL A   1      41.064  28.191  27.857  1.00  0.00     0.173 A 
ATOM     66  C   UNL A   1      39.584  26.686  29.007  1.00  0.00     0.173 A 
ATOM     67  F   UNL A   1      41.773  29.328  27.799  1.00  0.00    -0.203 F 
ATOM     68  C   UNL A   1      41.047  27.355  26.744  1.00  0.00     0.198 A 
ATOM     69  C   UNL A   1      39.595  25.837  27.903  1.00  0.00     0.198 A 
ATOM     70  F   UNL A   1      38.856  26.340  30.079  1.00  0.00    -0.203 F 
ATOM     71  F   UNL A   1      41.722  27.701  25.639  1.00  0.00    -0.200 F 
ATOM     72  C   UNL A   1      40.317  26.176  26.769  1.00  0.00     0.200 A 
ATOM     73  F   UNL A   1      38.899  24.692  27.933  1.00  0.00    -0.200 F 
ATOM     74  F   UNL A   1      40.301  25.374  25.697  1.00  0.00    -0.200 F 
ENDBRANCH  50  64
BRANCH  51  75
ATOM     75  C   UNL A   1      39.578  33.940  36.900  1.00  0.00     0.064 A 
ATOM     76  C   UNL A   1      40.181  35.204  36.945  1.00  0.00     0.173 A 
ATOM     77  C   UNL A   1      38.810  33.541  38.002  1.00  0.00     0.173 A 
ATOM     78  F   UNL A   1      40.942  35.621  35.922  1.00  0.00    -0.203 F 
ATOM     79  C   UNL A   1      40.028  36.034  38.054  1.00  0.00     0.198 A 
ATOM     80  C   UNL A   1      38.636  34.382  39.099  1.00  0.00     0.198 A 
ATOM     81  F   UNL A   1      38.208  32.343  38.003  1.00  0.00    -0.203 F 
ATOM     82  F   UNL A   1      40.640  37.225  38.086  1.00  0.00    -0.200 F 
ATOM     83  C   UNL A   1      39.248  35.625  39.126  1.00  0.00     0.200 A 
ATOM     84  F   UNL A   1      37.869  33.989  40.126  1.00  0.00    -0.200 F 
ATOM     85  F   UNL A   1      39.090  36.429  40.186  1.00  0.00    -0.200 F 
ENDBRANCH  51  75
BRANCH  63  86
ATOM     86  C   UNL A   1      43.837  28.667  35.259  1.00  0.00     0.064 A 
ATOM     87  C   UNL A   1      43.623  27.611  36.156  1.00  0.00     0.173 A 
ATOM     88  C   UNL A   1      45.159  29.081  35.032  1.00  0.00     0.173 A 
ATOM     89  F   UNL A   1      42.377  27.191  36.420  1.00  0.00    -0.203 F 
ATOM     90  C   UNL A   1      44.690  27.006  36.817  1.00  0.00     0.198 A 
ATOM     91  C   UNL A   1      46.225  28.455  35.673  1.00  0.00     0.198 A 
ATOM     92  F   UNL A   1      45.417  30.084  34.180  1.00  0.00    -0.203 F 
ATOM     93  F   UNL A   1      44.459  26.029  37.703  1.00  0.00    -0.200 F 
ATOM     94  C   UNL A   1      45.989  27.423  36.569  1.00  0.00     0.200 A 
ATOM     95  F   UNL A   1      47.480  28.852  35.423  1.00  0.00    -0.200 F 
ATOM     96  F   UNL A   1      47.015  26.836  37.201  1.00  0.00    -0.200 F 
ENDBRANCH  63  86
ENDBRANCH  37  38
ENDBRANCH  29  32
ENDBRANCH  27  28
ENDBRANCH  26  27
ENDBRANCH  25  26
ENDBRANCH   1  25
TORSDOF 15
ENDMDL
MODEL 2
REMARK VINA RESULT:     -12.5      5.661     11.057
REMARK SMILES O=C(CNC(=O)Nc1cccc2c1CCCC2)NCCCCCCNC(=O)c1ccc(-c2c3nc(c(-c4c(F)c(F)c(F)c(F)c4F)c4ccc([nH]4)c(-c4c(F)c(F)c(F)c(F)c4F)c4nc(c(-c5c(F)c(F)c(F)c(F)c5F)c5ccc2[nH]5)C=C4)C=C3)cc1
REMARK SMILES IDX 21 1 20 2 19 3 18 4 1 5 2 6 3 8 4 9 5 10 6 12 7 13 8 15 9 16
REMARK SMILES IDX 13 17 10 18 12 19 14 20 11 21 17 22 15 23 16 24 22 25 23 26
REMARK SMILES IDX 24 27 25 28 26 29 27 31 28 32 29 33 90 34 30 35 89 36 31 37
REMARK SMILES IDX 32 38 33 39 83 40 34 41 88 42 82 43 84 44 35 45 87 46 81 47
REMARK SMILES IDX 80 48 36 50 68 51 48 52 67 53 49 54 52 55 66 56 85 57 50 58
REMARK SMILES IDX 51 59 65 61 86 62 53 63 37 64 38 65 46 66 39 67 40 68 44 69
REMARK SMILES IDX 47 70 41 71 42 72 45 73 43 74 69 75 70 76 78 77 71 78 72 79
REMARK SMILES IDX 76 80 79 81 73 82 74 83 77 84 75 85 54 86 55 87 63 88 56 89
REMARK SMILES IDX 57 90 61 91 64 92 58 93 59 94 62 95 60 96
REMARK H PARENT 18 7 4 11 7 14 25 30 84 49 52 60
REMARK Flexibility Score: inf
ROOT
ATOM      1  C   UNL A   1      37.421  22.249  25.259  1.00  0.00     0.002 C 
ENDROOT
BRANCH   1   2
ATOM      2  C   UNL A   1      36.928  23.334  24.292  1.00  0.00     0.021 C 
BRANCH   2   3
ATOM      3  C   UNL A   1      35.666  22.966  23.508  1.00  0.00     0.116 C 
BRANCH   3   4
ATOM      4  N   UNL A   1      34.520  23.690  24.004  1.00  0.00    -0.355 N 
ATOM      5  O   UNL A   1      33.825  22.059  25.461  1.00  0.00    -0.273 OA
ATOM      6  C   UNL A   1      33.644  23.141  24.909  1.00  0.00     0.239 C 
ATOM      7  H   UNL A   1      34.362  24.607  23.683  1.00  0.00     0.163 HD
BRANCH   6   8
ATOM      8  C   UNL A   1      32.296  23.844  24.940  1.00  0.00     0.217 C 
BRANCH   8   9
ATOM      9  N   UNL A   1      31.377  23.422  25.992  1.00  0.00    -0.329 N 
ATOM     10  C   UNL A   1      30.280  23.951  26.560  1.00  0.00     0.319 C 
ATOM     11  H   UNL A   1      31.615  22.547  26.374  1.00  0.00     0.165 HD
ATOM     12  O   UNL A   1      29.735  23.282  27.444  1.00  0.00    -0.248 OA
ATOM     13  N   UNL A   1      29.791  25.184  26.313  1.00  0.00    -0.308 N 
ATOM     14  H   UNL A   1      29.009  25.422  26.863  1.00  0.00     0.171 HD
BRANCH  13  15
ATOM     15  C   UNL A   1      30.186  26.188  25.423  1.00  0.00     0.046 A 
ATOM     16  C   UNL A   1      29.606  26.141  24.150  1.00  0.00     0.026 A 
ATOM     17  C   UNL A   1      31.069  27.229  25.766  1.00  0.00    -0.021 A 
ATOM     18  C   UNL A   1      29.759  27.208  23.272  1.00  0.00     0.002 A 
ATOM     19  C   UNL A   1      31.132  28.352  24.916  1.00  0.00    -0.043 A 
ATOM     20  C   UNL A   1      31.925  27.152  27.015  1.00  0.00     0.038 C 
ATOM     21  C   UNL A   1      30.486  28.326  23.669  1.00  0.00     0.004 A 
ATOM     22  C   UNL A   1      31.848  29.613  25.335  1.00  0.00     0.036 C 
ATOM     23  C   UNL A   1      32.770  28.397  27.297  1.00  0.00     0.005 C 
ATOM     24  C   UNL A   1      32.065  29.666  26.846  1.00  0.00     0.005 C 
ENDBRANCH  13  15
ENDBRANCH   8   9
ENDBRANCH   6   8
ENDBRANCH   3   4
ENDBRANCH   2   3
ENDBRANCH   1   2
BRANCH   1  25
ATOM     25  C   UNL A   1      37.018  20.816  24.901  1.00  0.00     0.002 C 
BRANCH  25  26
ATOM     26  C   UNL A   1      38.147  19.785  24.956  1.00  0.00     0.021 C 
BRANCH  26  27
ATOM     27  C   UNL A   1      39.306  20.154  25.872  1.00  0.00     0.116 C 
BRANCH  27  28
ATOM     28  N   UNL A   1      40.317  19.111  25.932  1.00  0.00    -0.352 N 
ATOM     29  C   UNL A   1      41.675  19.223  26.100  1.00  0.00     0.251 C 
ATOM     30  H   UNL A   1      39.978  18.191  25.839  1.00  0.00     0.163 HD
ATOM     31  O   UNL A   1      42.399  18.245  25.957  1.00  0.00    -0.269 OA
BRANCH  29  32
ATOM     32  C   UNL A   1      42.272  20.537  26.426  1.00  0.00     0.039 A 
ATOM     33  C   UNL A   1      42.811  21.306  25.392  1.00  0.00     0.014 A 
ATOM     34  C   UNL A   1      42.300  21.011  27.741  1.00  0.00     0.014 A 
ATOM     35  C   UNL A   1      43.316  22.580  25.665  1.00  0.00     0.010 A 
ATOM     36  C   UNL A   1      42.737  22.307  28.002  1.00  0.00     0.010 A 
ATOM     37  C   UNL A   1      43.247  23.104  26.966  1.00  0.00    -0.014 A 
BRANCH  37  38
ATOM     38  C   UNL A   1      43.685  24.493  27.256  1.00  0.00     0.031 A 
ATOM     39  C   UNL A   1      42.698  25.517  27.738  1.00  0.00     0.074 A 
ATOM     40  C   UNL A   1      44.959  24.852  27.010  1.00  0.00     0.049 A 
ATOM     41  N   UNL A   1      42.878  26.792  27.981  1.00  0.00    -0.248 NA
ATOM     42  C   UNL A   1      41.319  25.054  27.950  1.00  0.00     0.031 C 
ATOM     43  C   UNL A   1      45.998  23.964  26.484  1.00  0.00     0.029 A 
ATOM     44  N   UNL A   1      45.595  26.060  27.153  1.00  0.00    -0.354 N 
ATOM     45  C   UNL A   1      41.637  27.282  28.363  1.00  0.00     0.074 A 
ATOM     46  C   UNL A   1      40.700  26.182  28.266  1.00  0.00     0.031 C 
ATOM     47  C   UNL A   1      47.142  24.654  26.360  1.00  0.00     0.029 A 
ATOM     48  C   UNL A   1      46.911  26.038  26.766  1.00  0.00     0.049 A 
ATOM     49  H   UNL A   1      45.147  26.865  27.501  1.00  0.00     0.167 HD
ATOM     50  C   UNL A   1      41.312  28.529  28.782  1.00  0.00     0.037 A 
ATOM     51  C   UNL A   1      47.828  27.023  26.730  1.00  0.00     0.037 A 
ATOM     52  C   UNL A   1      42.249  29.617  28.889  1.00  0.00     0.049 A 
ATOM     53  C   UNL A   1      47.445  28.401  27.195  1.00  0.00     0.074 A 
ATOM     54  C   UNL A   1      42.034  30.898  29.366  1.00  0.00     0.029 A 
ATOM     55  N   UNL A   1      43.581  29.553  28.505  1.00  0.00    -0.354 N 
ATOM     56  N   UNL A   1      46.288  28.834  27.630  1.00  0.00    -0.248 NA
ATOM     57  C   UNL A   1      48.500  29.424  27.168  1.00  0.00     0.031 C 
ATOM     58  C   UNL A   1      43.222  31.623  29.225  1.00  0.00     0.029 A 
ATOM     59  C   UNL A   1      44.193  30.780  28.706  1.00  0.00     0.049 A 
ATOM     60  H   UNL A   1      44.026  28.753  28.142  1.00  0.00     0.167 HD
ATOM     61  C   UNL A   1      46.475  30.174  27.943  1.00  0.00     0.074 A 
ATOM     62  C   UNL A   1      47.864  30.476  27.667  1.00  0.00     0.031 C 
ATOM     63  C   UNL A   1      45.574  31.072  28.415  1.00  0.00     0.037 A 
BRANCH  50  64
ATOM     64  C   UNL A   1      39.878  28.779  29.151  1.00  0.00     0.064 A 
ATOM     65  C   UNL A   1      39.406  28.562  30.455  1.00  0.00     0.173 A 
ATOM     66  C   UNL A   1      38.965  29.250  28.195  1.00  0.00     0.173 A 
ATOM     67  F   UNL A   1      40.234  28.104  31.405  1.00  0.00    -0.203 F 
ATOM     68  C   UNL A   1      38.067  28.769  30.778  1.00  0.00     0.198 A 
ATOM     69  C   UNL A   1      37.634  29.485  28.529  1.00  0.00     0.198 A 
ATOM     70  F   UNL A   1      39.364  29.479  26.935  1.00  0.00    -0.203 F 
ATOM     71  F   UNL A   1      37.628  28.498  32.014  1.00  0.00    -0.200 F 
ATOM     72  C   UNL A   1      37.183  29.235  29.816  1.00  0.00     0.200 A 
ATOM     73  F   UNL A   1      36.784  29.948  27.602  1.00  0.00    -0.200 F 
ATOM     74  F   UNL A   1      35.896  29.433  30.127  1.00  0.00    -0.200 F 
ENDBRANCH  50  64
BRANCH  51  75
ATOM     75  C   UNL A   1      49.202  26.726  26.251  1.00  0.00     0.064 A 
ATOM     76  C   UNL A   1      50.166  26.193  27.117  1.00  0.00     0.173 A 
ATOM     77  C   UNL A   1      49.568  26.939  24.915  1.00  0.00     0.173 A 
ATOM     78  F   UNL A   1      49.867  25.991  28.409  1.00  0.00    -0.203 F 
ATOM     79  C   UNL A   1      51.449  25.891  26.665  1.00  0.00     0.198 A 
ATOM     80  C   UNL A   1      50.843  26.612  24.458  1.00  0.00     0.198 A 
ATOM     81  F   UNL A   1      48.679  27.442  24.046  1.00  0.00    -0.203 F 
ATOM     82  F   UNL A   1      52.362  25.411  27.521  1.00  0.00    -0.200 F 
ATOM     83  C   UNL A   1      51.784  26.094  25.334  1.00  0.00     0.200 A 
ATOM     84  F   UNL A   1      51.157  26.795  23.168  1.00  0.00    -0.200 F 
ATOM     85  F   UNL A   1      53.013  25.790  24.897  1.00  0.00    -0.200 F 
ENDBRANCH  51  75
BRANCH  63  86
ATOM     86  C   UNL A   1      46.067  32.466  28.669  1.00  0.00     0.064 A 
ATOM     87  C   UNL A   1      46.623  32.833  29.904  1.00  0.00     0.173 A 
ATOM     88  C   UNL A   1      46.016  33.436  27.657  1.00  0.00     0.173 A 
ATOM     89  F   UNL A   1      46.679  31.947  30.909  1.00  0.00    -0.203 F 
ATOM     90  C   UNL A   1      47.090  34.127  30.122  1.00  0.00     0.198 A 
ATOM     91  C   UNL A   1      46.510  34.721  27.869  1.00  0.00     0.198 A 
ATOM     92  F   UNL A   1      45.498  33.135  26.456  1.00  0.00    -0.203 F 
ATOM     93  F   UNL A   1      47.576  34.468  31.323  1.00  0.00    -0.200 F 
ATOM     94  C   UNL A   1      47.040  35.067  29.103  1.00  0.00     0.200 A 
ATOM     95  F   UNL A   1      46.472  35.624  26.880  1.00  0.00    -0.200 F 
ATOM     96  F   UNL A   1      47.496  36.309  29.313  1.00  0.00    -0.200 F 
ENDBRANCH  63  86
ENDBRANCH  37  38
ENDBRANCH  29  32
ENDBRANCH  27  28
ENDBRANCH  26  27
ENDBRANCH  25  26
ENDBRANCH   1  25
TORSDOF 15
ENDMDL
MODEL 3
REMARK VINA RESULT:     -12.5      5.680     11.066
REMARK SMILES O=C(CNC(=O)Nc1cccc2c1CCCC2)NCCCCCCNC(=O)c1ccc(-c2c3nc(c(-c4c(F)c(F)c(F)c(F)c4F)c4ccc([nH]4)c(-c4c(F)c(F)c(F)c(F)c4F)c4nc(c(-c5c(F)c(F)c(F)c(F)c5F)c5ccc2[nH]5)C=C4)C=C3)cc1
REMARK SMILES IDX 21 1 20 2 19 3 18 4 1 5 2 6 3 8 4 9 5 10 6 12 7 13 8 15 9 16
REMARK SMILES IDX 13 17 10 18 12 19 14 20 11 21 17 22 15 23 16 24 22 25 23 26
REMARK SMILES IDX 24 27 25 28 26 29 27 31 28 32 29 33 90 34 30 35 89 36 31 37
REMARK SMILES IDX 32 38 33 39 83 40 34 41 88 42 82 43 84 44 35 45 87 46 81 47
REMARK SMILES IDX 80 48 36 50 68 51 48 52 67 53 49 54 52 55 66 56 85 57 50 58
REMARK SMILES IDX 51 59 65 61 86 62 53 63 37 64 38 65 46 66 39 67 40 68 44 69
REMARK SMILES IDX 47 70 41 71 42 72 45 73 43 74 69 75 70 76 78 77 71 78 72 79
REMARK SMILES IDX 76 80 79 81 73 82 74 83 77 84 75 85 54 86 55 87 63 88 56 89
REMARK SMILES IDX 57 90 61 91 64 92 58 93 59 94 62 95 60 96
REMARK H PARENT 18 7 4 11 7 14 25 30 84 49 52 60
REMARK Flexibility Score: inf
ROOT
ATOM      1  C   UNL A   1      37.644  22.243  25.334  1.00  0.00     0.002 C 
ENDROOT
BRANCH   1   2
ATOM      2  C   UNL A   1      36.823  23.423  24.797  1.00  0.00     0.021 C 
BRANCH   2   3
ATOM      3  C   UNL A   1      35.650  23.844  25.686  1.00  0.00     0.116 C 
BRANCH   3   4
ATOM      4  N   UNL A   1      34.389  23.507  25.071  1.00  0.00    -0.355 N 
ATOM      5  O   UNL A   1      33.976  25.600  24.223  1.00  0.00    -0.273 OA
ATOM      6  C   UNL A   1      33.612  24.445  24.433  1.00  0.00     0.239 C 
ATOM      7  H   UNL A   1      34.074  22.576  25.110  1.00  0.00     0.163 HD
BRANCH   6   8
ATOM      8  C   UNL A   1      32.162  24.018  24.280  1.00  0.00     0.217 C 
BRANCH   8   9
ATOM      9  N   UNL A   1      31.502  23.544  25.491  1.00  0.00    -0.329 N 
ATOM     10  C   UNL A   1      30.633  24.075  26.367  1.00  0.00     0.319 C 
ATOM     11  H   UNL A   1      31.750  22.620  25.721  1.00  0.00     0.165 HD
ATOM     12  O   UNL A   1      30.270  23.351  27.299  1.00  0.00    -0.248 OA
ATOM     13  N   UNL A   1      30.206  25.356  26.364  1.00  0.00    -0.308 N 
ATOM     14  H   UNL A   1      29.611  25.582  27.115  1.00  0.00     0.171 HD
BRANCH  13  15
ATOM     15  C   UNL A   1      30.452  26.423  25.494  1.00  0.00     0.046 A 
ATOM     16  C   UNL A   1      29.702  26.435  24.312  1.00  0.00     0.026 A 
ATOM     17  C   UNL A   1      31.351  27.468  25.778  1.00  0.00    -0.021 A 
ATOM     18  C   UNL A   1      29.708  27.557  23.491  1.00  0.00     0.002 A 
ATOM     19  C   UNL A   1      31.272  28.642  25.000  1.00  0.00    -0.043 A 
ATOM     20  C   UNL A   1      32.374  27.342  26.890  1.00  0.00     0.038 C 
ATOM     21  C   UNL A   1      30.459  28.671  23.855  1.00  0.00     0.004 A 
ATOM     22  C   UNL A   1      32.011  29.896  25.398  1.00  0.00     0.036 C 
ATOM     23  C   UNL A   1      33.222  28.593  27.132  1.00  0.00     0.005 C 
ATOM     24  C   UNL A   1      32.434  29.864  26.864  1.00  0.00     0.005 C 
ENDBRANCH  13  15
ENDBRANCH   8   9
ENDBRANCH   6   8
ENDBRANCH   3   4
ENDBRANCH   2   3
ENDBRANCH   1   2
BRANCH   1  25
ATOM     25  C   UNL A   1      37.216  20.861  24.831  1.00  0.00     0.002 C 
BRANCH  25  26
ATOM     26  C   UNL A   1      38.276  19.764  24.952  1.00  0.00     0.021 C 
BRANCH  26  27
ATOM     27  C   UNL A   1      39.379  20.049  25.962  1.00  0.00     0.116 C 
BRANCH  27  28
ATOM     28  N   UNL A   1      40.409  19.023  25.959  1.00  0.00    -0.352 N 
ATOM     29  C   UNL A   1      41.771  19.156  26.064  1.00  0.00     0.251 C 
ATOM     30  H   UNL A   1      40.082  18.099  25.869  1.00  0.00     0.163 HD
ATOM     31  O   UNL A   1      42.504  18.193  25.873  1.00  0.00    -0.269 OA
BRANCH  29  32
ATOM     32  C   UNL A   1      42.361  20.476  26.381  1.00  0.00     0.039 A 
ATOM     33  C   UNL A   1      42.797  21.288  25.331  1.00  0.00     0.014 A 
ATOM     34  C   UNL A   1      42.484  20.913  27.703  1.00  0.00     0.014 A 
ATOM     35  C   UNL A   1      43.291  22.566  25.601  1.00  0.00     0.010 A 
ATOM     36  C   UNL A   1      42.909  22.212  27.967  1.00  0.00     0.010 A 
ATOM     37  C   UNL A   1      43.315  23.052  26.919  1.00  0.00    -0.014 A 
BRANCH  37  38
ATOM     38  C   UNL A   1      43.741  24.443  27.214  1.00  0.00     0.031 A 
ATOM     39  C   UNL A   1      42.743  25.460  27.691  1.00  0.00     0.074 A 
ATOM     40  C   UNL A   1      45.015  24.810  26.979  1.00  0.00     0.049 A 
ATOM     41  N   UNL A   1      42.913  26.735  27.937  1.00  0.00    -0.248 NA
ATOM     42  C   UNL A   1      41.366  24.987  27.890  1.00  0.00     0.031 C 
ATOM     43  C   UNL A   1      46.063  23.931  26.460  1.00  0.00     0.029 A 
ATOM     44  N   UNL A   1      45.641  26.023  27.129  1.00  0.00    -0.354 N 
ATOM     45  C   UNL A   1      41.666  27.216  28.309  1.00  0.00     0.074 A 
ATOM     46  C   UNL A   1      40.737  26.110  28.203  1.00  0.00     0.031 C 
ATOM     47  C   UNL A   1      47.204  24.628  26.347  1.00  0.00     0.029 A 
ATOM     48  C   UNL A   1      46.961  26.010  26.753  1.00  0.00     0.049 A 
ATOM     49  H   UNL A   1      45.186  26.824  27.475  1.00  0.00     0.167 HD
ATOM     50  C   UNL A   1      41.329  28.461  28.727  1.00  0.00     0.037 A 
ATOM     51  C   UNL A   1      47.871  27.001  26.726  1.00  0.00     0.037 A 
ATOM     52  C   UNL A   1      42.258  29.554  28.844  1.00  0.00     0.049 A 
ATOM     53  C   UNL A   1      47.476  28.375  27.190  1.00  0.00     0.074 A 
ATOM     54  C   UNL A   1      42.030  30.834  29.321  1.00  0.00     0.029 A 
ATOM     55  N   UNL A   1      43.593  29.500  28.471  1.00  0.00    -0.354 N 
ATOM     56  N   UNL A   1      46.312  28.801  27.616  1.00  0.00    -0.248 NA
ATOM     57  C   UNL A   1      48.524  29.406  27.174  1.00  0.00     0.031 C 
ATOM     58  C   UNL A   1      43.215  31.567  29.191  1.00  0.00     0.029 A 
ATOM     59  C   UNL A   1      44.195  30.731  28.679  1.00  0.00     0.049 A 
ATOM     60  H   UNL A   1      44.047  28.704  28.110  1.00  0.00     0.167 HD
ATOM     61  C   UNL A   1      46.487  30.141  27.933  1.00  0.00     0.074 A 
ATOM     62  C   UNL A   1      47.877  30.452  27.669  1.00  0.00     0.031 C 
ATOM     63  C   UNL A   1      45.577  31.032  28.399  1.00  0.00     0.037 A 
BRANCH  50  64
ATOM     64  C   UNL A   1      39.890  28.700  29.086  1.00  0.00     0.064 A 
ATOM     65  C   UNL A   1      38.964  29.164  28.139  1.00  0.00     0.173 A 
ATOM     66  C   UNL A   1      39.428  28.454  30.388  1.00  0.00     0.173 A 
ATOM     67  F   UNL A   1      39.355  29.425  26.883  1.00  0.00    -0.203 F 
ATOM     68  C   UNL A   1      37.639  29.411  28.492  1.00  0.00     0.198 A 
ATOM     69  C   UNL A   1      38.096  28.671  30.729  1.00  0.00     0.198 A 
ATOM     70  F   UNL A   1      40.270  28.004  31.331  1.00  0.00    -0.203 F 
ATOM     71  F   UNL A   1      36.789  29.911  27.585  1.00  0.00    -0.200 F 
ATOM     72  C   UNL A   1      37.205  29.159  29.785  1.00  0.00     0.200 A 
ATOM     73  F   UNL A   1      37.674  28.416  31.975  1.00  0.00    -0.200 F 
ATOM     74  F   UNL A   1      35.931  29.397  30.123  1.00  0.00    -0.200 F 
ENDBRANCH  50  64
BRANCH  51  75
ATOM     75  C   UNL A   1      49.251  26.714  26.258  1.00  0.00     0.064 A 
ATOM     76  C   UNL A   1      50.213  26.190  27.132  1.00  0.00     0.173 A 
ATOM     77  C   UNL A   1      49.625  26.928  24.924  1.00  0.00     0.173 A 
ATOM     78  F   UNL A   1      49.906  25.987  28.422  1.00  0.00    -0.203 F 
ATOM     79  C   UNL A   1      51.502  25.897  26.690  1.00  0.00     0.198 A 
ATOM     80  C   UNL A   1      50.906  26.610  24.477  1.00  0.00     0.198 A 
ATOM     81  F   UNL A   1      48.738  27.422  24.048  1.00  0.00    -0.203 F 
ATOM     82  F   UNL A   1      52.411  25.426  27.553  1.00  0.00    -0.200 F 
ATOM     83  C   UNL A   1      51.844  26.100  25.361  1.00  0.00     0.200 A 
ATOM     84  F   UNL A   1      51.228  26.793  23.189  1.00  0.00    -0.200 F 
ATOM     85  F   UNL A   1      53.079  25.806  24.934  1.00  0.00    -0.200 F 
ENDBRANCH  51  75
BRANCH  63  86
ATOM     86  C   UNL A   1      46.058  32.429  28.660  1.00  0.00     0.064 A 
ATOM     87  C   UNL A   1      45.979  33.427  27.678  1.00  0.00     0.173 A 
ATOM     88  C   UNL A   1      46.571  32.784  29.918  1.00  0.00     0.173 A 
ATOM     89  F   UNL A   1      45.513  33.134  26.455  1.00  0.00    -0.203 F 
ATOM     90  C   UNL A   1      46.416  34.723  27.938  1.00  0.00     0.198 A 
ATOM     91  C   UNL A   1      46.980  34.088  30.183  1.00  0.00     0.198 A 
ATOM     92  F   UNL A   1      46.663  31.867  30.893  1.00  0.00    -0.203 F 
ATOM     93  F   UNL A   1      46.372  35.650  26.971  1.00  0.00    -0.200 F 
ATOM     94  C   UNL A   1      46.908  35.055  29.191  1.00  0.00     0.200 A 
ATOM     95  F   UNL A   1      47.444  34.409  31.398  1.00  0.00    -0.200 F 
ATOM     96  F   UNL A   1      47.322  36.305  29.442  1.00  0.00    -0.200 F 
ENDBRANCH  63  86
ENDBRANCH  37  38
ENDBRANCH  29  32
ENDBRANCH  27  28
ENDBRANCH  26  27
ENDBRANCH  25  26
ENDBRANCH   1  25
TORSDOF 15
ENDMDL
