MODEL 1
REMARK VINA RESULT:     -12.8      0.000      0.000
REMARK SMILES O=C(C[C@@H](C(=O)NCCCCCCNC(=O)c1ccc(-c2c3nc(c(-c4c(F)c(F)c(F)c(F)c4F)c4ccc([nH]4)c(-c4c(F)c(F)c(F)c(F)c4F)c4nc(c(-c5c(F)c(F)c(F)c(F)c5F)c5ccc2[nH]5)C=C4)C=C3)cc1)c1ccccc1)Nc1cc(C(F)(F)F)ccc1-n1cncn1
REMARK SMILES IDX 9 1 8 2 7 3 5 4 6 5 4 7 3 8 2 9 1 10 86 11 87 13 88 14 96 15
REMARK SMILES IDX 89 16 95 17 94 18 97 19 98 20 101 21 99 22 100 23 90 24
REMARK SMILES IDX 91 25 92 26 93 27 80 28 81 29 85 30 82 31 84 32 83 33 10 34
REMARK SMILES IDX 11 35 12 36 13 37 14 38 15 39 16 41 17 42 18 43 79 44 19 45
REMARK SMILES IDX 78 46 20 47 21 48 22 49 72 50 23 51 77 52 71 53 73 54 24 55
REMARK SMILES IDX 76 56 70 57 69 58 25 60 57 61 37 62 56 63 38 64 41 65 55 66
REMARK SMILES IDX 74 67 39 68 40 69 54 71 75 72 42 73 26 74 27 75 35 76 28 77
REMARK SMILES IDX 29 78 33 79 36 80 30 81 31 82 34 83 32 84 58 85 59 86 67 87
REMARK SMILES IDX 60 88 61 89 65 90 68 91 62 92 63 93 66 94 64 95 43 96 44 97
REMARK SMILES IDX 52 98 45 99 46 100 50 101 53 102 47 103 48 104 51 105 49 106
REMARK H PARENT 7 6 86 12 14 40 73 59 41 70
REMARK Flexibility Score: inf
ROOT
ATOM      1  C   UNL A   1      33.330  28.598  27.076  1.00  0.00     0.021 C 
ENDROOT
BRANCH   1   2
ATOM      2  C   UNL A   1      34.410  28.991  26.072  1.00  0.00     0.116 C 
BRANCH   2   3
ATOM      3  N   UNL A   1      33.747  29.330  24.804  1.00  0.00    -0.356 N 
ATOM      4  C   UNL A   1      33.748  28.471  23.731  1.00  0.00     0.228 C 
ATOM      5  O   UNL A   1      34.520  28.678  22.792  1.00  0.00    -0.274 OA
ATOM      6  H   UNL A   1      33.287  30.196  24.722  1.00  0.00     0.163 HD
BRANCH   4   7
ATOM      7  C   UNL A   1      32.719  27.334  23.721  1.00  0.00     0.118 C 
BRANCH   7   8
ATOM      8  C   UNL A   1      33.126  26.278  22.676  1.00  0.00     0.118 C 
BRANCH   8   9
ATOM      9  C   UNL A   1      33.471  24.912  23.277  1.00  0.00     0.225 C 
ATOM     10  O   UNL A   1      33.419  23.876  22.635  1.00  0.00    -0.275 OA
ATOM     11  N   UNL A   1      33.812  24.998  24.619  1.00  0.00    -0.324 N 
ATOM     12  H   UNL A   1      33.666  25.870  25.054  1.00  0.00     0.170 HD
BRANCH  11  13
ATOM     13  C   UNL A   1      34.347  23.970  25.430  1.00  0.00     0.067 A 
ATOM     14  C   UNL A   1      35.611  23.515  25.086  1.00  0.00     0.041 A 
ATOM     15  C   UNL A   1      33.587  23.158  26.273  1.00  0.00     0.090 A 
ATOM     16  C   UNL A   1      36.082  22.236  25.389  1.00  0.00     0.058 A 
ATOM     17  C   UNL A   1      34.086  21.915  26.720  1.00  0.00     0.031 A 
ATOM     18  C   UNL A   1      35.311  21.439  26.233  1.00  0.00     0.015 A 
BRANCH  15  19
ATOM     19  N   UNL A   1      32.220  23.410  26.428  1.00  0.00    -0.219 N 
ATOM     20  C   UNL A   1      31.197  22.535  26.171  1.00  0.00     0.226 A 
ATOM     21  N   UNL A   1      31.729  24.611  26.783  1.00  0.00    -0.155 NA
ATOM     22  N   UNL A   1      30.050  23.168  26.198  1.00  0.00    -0.223 NA
ATOM     23  C   UNL A   1      30.427  24.440  26.532  1.00  0.00     0.246 A 
ENDBRANCH  15  19
BRANCH  16  24
ATOM     24  C   UNL A   1      37.300  21.742  24.640  1.00  0.00     0.416 C 
ATOM     25  F   UNL A   1      38.444  22.199  25.224  1.00  0.00    -0.166 F 
ATOM     26  F   UNL A   1      37.432  20.389  24.642  1.00  0.00    -0.166 F 
ATOM     27  F   UNL A   1      37.345  22.133  23.344  1.00  0.00    -0.166 F 
ENDBRANCH  16  24
ENDBRANCH  11  13
ENDBRANCH   8   9
ENDBRANCH   7   8
BRANCH   7  28
ATOM     28  C   UNL A   1      31.350  27.986  23.429  1.00  0.00    -0.035 A 
ATOM     29  C   UNL A   1      30.136  27.397  23.829  1.00  0.00     0.004 A 
ATOM     30  C   UNL A   1      31.284  29.112  22.590  1.00  0.00     0.004 A 
ATOM     31  C   UNL A   1      28.906  27.902  23.392  1.00  0.00     0.000 A 
ATOM     32  C   UNL A   1      30.052  29.615  22.152  1.00  0.00     0.000 A 
ATOM     33  C   UNL A   1      28.864  29.005  22.545  1.00  0.00     0.000 A 
ENDBRANCH   7  28
ENDBRANCH   4   7
ENDBRANCH   2   3
ENDBRANCH   1   2
BRANCH   1  34
ATOM     34  C   UNL A   1      32.014  29.391  27.247  1.00  0.00     0.002 C 
BRANCH  34  35
ATOM     35  C   UNL A   1      31.452  30.471  26.302  1.00  0.00     0.002 C 
BRANCH  35  36
ATOM     36  C   UNL A   1      31.501  32.007  26.473  1.00  0.00     0.021 C 
BRANCH  36  37
ATOM     37  C   UNL A   1      32.515  32.851  27.302  1.00  0.00     0.116 C 
BRANCH  37  38
ATOM     38  N   UNL A   1      32.179  34.191  27.746  1.00  0.00    -0.352 N 
ATOM     39  C   UNL A   1      32.917  35.025  28.568  1.00  0.00     0.251 C 
ATOM     40  H   UNL A   1      31.323  34.551  27.422  1.00  0.00     0.163 HD
ATOM     41  O   UNL A   1      32.586  36.205  28.724  1.00  0.00    -0.269 OA
BRANCH  39  42
ATOM     42  C   UNL A   1      34.104  34.529  29.307  1.00  0.00     0.039 A 
ATOM     43  C   UNL A   1      33.926  34.033  30.603  1.00  0.00     0.014 A 
ATOM     44  C   UNL A   1      35.390  34.593  28.768  1.00  0.00     0.014 A 
ATOM     45  C   UNL A   1      35.016  33.508  31.309  1.00  0.00     0.010 A 
ATOM     46  C   UNL A   1      36.476  34.038  29.459  1.00  0.00     0.010 A 
ATOM     47  C   UNL A   1      36.294  33.457  30.723  1.00  0.00    -0.014 A 
BRANCH  47  48
ATOM     48  C   UNL A   1      37.398  32.708  31.389  1.00  0.00     0.031 A 
ATOM     49  C   UNL A   1      38.074  31.540  30.727  1.00  0.00     0.074 A 
ATOM     50  C   UNL A   1      37.763  33.075  32.636  1.00  0.00     0.049 A 
ATOM     51  N   UNL A   1      39.058  30.794  31.166  1.00  0.00    -0.248 NA
ATOM     52  C   UNL A   1      37.565  31.144  29.407  1.00  0.00     0.031 C 
ATOM     53  C   UNL A   1      37.140  34.152  33.407  1.00  0.00     0.029 A 
ATOM     54  N   UNL A   1      38.738  32.592  33.474  1.00  0.00    -0.354 N 
ATOM     55  C   UNL A   1      39.287  29.842  30.179  1.00  0.00     0.074 A 
ATOM     56  C   UNL A   1      38.302  30.073  29.143  1.00  0.00     0.031 C 
ATOM     57  C   UNL A   1      37.769  34.274  34.586  1.00  0.00     0.029 A 
ATOM     58  C   UNL A   1      38.815  33.260  34.674  1.00  0.00     0.049 A 
ATOM     59  H   UNL A   1      39.327  31.839  33.239  1.00  0.00     0.167 HD
ATOM     60  C   UNL A   1      40.242  28.879  30.135  1.00  0.00     0.037 A 
ATOM     61  C   UNL A   1      39.634  33.078  35.728  1.00  0.00     0.037 A 
ATOM     62  C   UNL A   1      41.220  28.663  31.173  1.00  0.00     0.049 A 
ATOM     63  C   UNL A   1      40.683  32.002  35.654  1.00  0.00     0.074 A 
ATOM     64  C   UNL A   1      42.260  27.749  31.206  1.00  0.00     0.029 A 
ATOM     65  N   UNL A   1      41.269  29.363  32.371  1.00  0.00    -0.354 N 
ATOM     66  N   UNL A   1      40.941  31.164  34.679  1.00  0.00    -0.248 NA
ATOM     67  C   UNL A   1      41.562  31.852  36.822  1.00  0.00     0.031 C 
ATOM     68  C   UNL A   1      42.904  27.861  32.443  1.00  0.00     0.029 A 
ATOM     69  C   UNL A   1      42.306  28.886  33.158  1.00  0.00     0.049 A 
ATOM     70  H   UNL A   1      40.658  30.092  32.624  1.00  0.00     0.167 HD
ATOM     71  C   UNL A   1      42.024  30.407  35.101  1.00  0.00     0.074 A 
ATOM     72  C   UNL A   1      42.389  30.900  36.414  1.00  0.00     0.031 C 
ATOM     73  C   UNL A   1      42.658  29.393  34.462  1.00  0.00     0.037 A 
BRANCH  60  74
ATOM     74  C   UNL A   1      40.278  27.984  28.926  1.00  0.00     0.064 A 
ATOM     75  C   UNL A   1      41.012  28.326  27.778  1.00  0.00     0.173 A 
ATOM     76  C   UNL A   1      39.604  26.753  28.923  1.00  0.00     0.173 A 
ATOM     77  F   UNL A   1      41.675  29.490  27.722  1.00  0.00    -0.203 F 
ATOM     78  C   UNL A   1      41.035  27.491  26.663  1.00  0.00     0.198 A 
ATOM     79  C   UNL A   1      39.656  25.905  27.818  1.00  0.00     0.198 A 
ATOM     80  F   UNL A   1      38.897  26.366  29.996  1.00  0.00    -0.203 F 
ATOM     81  F   UNL A   1      41.695  27.867  25.558  1.00  0.00    -0.200 F 
ATOM     82  C   UNL A   1      40.361  26.279  26.686  1.00  0.00     0.200 A 
ATOM     83  F   UNL A   1      39.018  24.726  27.849  1.00  0.00    -0.200 F 
ATOM     84  F   UNL A   1      40.386  25.475  25.613  1.00  0.00    -0.200 F 
ENDBRANCH  60  74
BRANCH  61  85
ATOM     85  C   UNL A   1      39.513  33.952  36.927  1.00  0.00     0.064 A 
ATOM     86  C   UNL A   1      38.763  33.550  38.043  1.00  0.00     0.173 A 
ATOM     87  C   UNL A   1      40.143  35.203  36.988  1.00  0.00     0.173 A 
ATOM     88  F   UNL A   1      38.125  32.371  38.030  1.00  0.00    -0.203 F 
ATOM     89  C   UNL A   1      38.631  34.374  39.160  1.00  0.00     0.198 A 
ATOM     90  C   UNL A   1      40.038  36.012  38.119  1.00  0.00     0.198 A 
ATOM     91  F   UNL A   1      40.879  35.636  35.952  1.00  0.00    -0.203 F 
ATOM     92  F   UNL A   1      37.868  33.985  40.191  1.00  0.00    -0.200 F 
ATOM     93  C   UNL A   1      39.274  35.601  39.199  1.00  0.00     0.200 A 
ATOM     94  F   UNL A   1      40.677  37.190  38.159  1.00  0.00    -0.200 F 
ATOM     95  F   UNL A   1      39.153  36.390  40.276  1.00  0.00    -0.200 F 
ENDBRANCH  61  85
BRANCH  73  96
ATOM     96  C   UNL A   1      43.835  28.772  35.159  1.00  0.00     0.064 A 
ATOM     97  C   UNL A   1      45.136  29.271  34.999  1.00  0.00     0.173 A 
ATOM     98  C   UNL A   1      43.652  27.685  36.028  1.00  0.00     0.173 A 
ATOM     99  F   UNL A   1      45.369  30.298  34.168  1.00  0.00    -0.203 F 
ATOM    100  C   UNL A   1      46.214  28.686  35.660  1.00  0.00     0.198 A 
ATOM    101  C   UNL A   1      44.725  27.125  36.714  1.00  0.00     0.198 A 
ATOM    102  F   UNL A   1      42.427  27.173  36.222  1.00  0.00    -0.203 F 
ATOM    103  F   UNL A   1      47.455  29.144  35.451  1.00  0.00    -0.200 F 
ATOM    104  C   UNL A   1      46.006  27.620  36.524  1.00  0.00     0.200 A 
ATOM    105  F   UNL A   1      44.521  26.106  37.560  1.00  0.00    -0.200 F 
ATOM    106  F   UNL A   1      47.042  27.065  37.166  1.00  0.00    -0.200 F 
ENDBRANCH  73  96
ENDBRANCH  47  48
ENDBRANCH  39  42
ENDBRANCH  37  38
ENDBRANCH  36  37
ENDBRANCH  35  36
ENDBRANCH  34  35
ENDBRANCH   1  34
TORSDOF 19
ENDMDL
MODEL 2
REMARK VINA RESULT:     -12.3      6.130     10.776
REMARK SMILES O=C(C[C@@H](C(=O)NCCCCCCNC(=O)c1ccc(-c2c3nc(c(-c4c(F)c(F)c(F)c(F)c4F)c4ccc([nH]4)c(-c4c(F)c(F)c(F)c(F)c4F)c4nc(c(-c5c(F)c(F)c(F)c(F)c5F)c5ccc2[nH]5)C=C4)C=C3)cc1)c1ccccc1)Nc1cc(C(F)(F)F)ccc1-n1cncn1
REMARK SMILES IDX 9 1 8 2 7 3 5 4 6 5 4 7 3 8 2 9 1 10 86 11 87 13 88 14 96 15
REMARK SMILES IDX 89 16 95 17 94 18 97 19 98 20 101 21 99 22 100 23 90 24
REMARK SMILES IDX 91 25 92 26 93 27 80 28 81 29 85 30 82 31 84 32 83 33 10 34
REMARK SMILES IDX 11 35 12 36 13 37 14 38 15 39 16 41 17 42 18 43 79 44 19 45
REMARK SMILES IDX 78 46 20 47 21 48 22 49 72 50 23 51 77 52 71 53 73 54 24 55
REMARK SMILES IDX 76 56 70 57 69 58 25 60 57 61 37 62 56 63 38 64 41 65 55 66
REMARK SMILES IDX 74 67 39 68 40 69 54 71 75 72 42 73 26 74 27 75 35 76 28 77
REMARK SMILES IDX 29 78 33 79 36 80 30 81 31 82 34 83 32 84 58 85 59 86 67 87
REMARK SMILES IDX 60 88 61 89 65 90 68 91 62 92 63 93 66 94 64 95 43 96 44 97
REMARK SMILES IDX 52 98 45 99 46 100 50 101 53 102 47 103 48 104 51 105 49 106
REMARK H PARENT 7 6 86 12 14 40 73 59 41 70
REMARK Flexibility Score: inf
ROOT
ATOM      1  C   UNL A   1      38.579  21.993  25.751  1.00  0.00     0.021 C 
ENDROOT
BRANCH   1   2
ATOM      2  C   UNL A   1      37.265  22.764  25.846  1.00  0.00     0.116 C 
BRANCH   2   3
ATOM      3  N   UNL A   1      37.117  23.556  24.616  1.00  0.00    -0.356 N 
ATOM      4  C   UNL A   1      36.220  23.213  23.633  1.00  0.00     0.228 C 
ATOM      5  O   UNL A   1      36.624  22.651  22.614  1.00  0.00    -0.274 OA
ATOM      6  H   UNL A   1      37.678  24.356  24.493  1.00  0.00     0.163 HD
BRANCH   4   7
ATOM      7  C   UNL A   1      34.756  23.629  23.823  1.00  0.00     0.118 C 
BRANCH   7   8
ATOM      8  C   UNL A   1      34.635  24.546  25.054  1.00  0.00     0.118 C 
BRANCH   8   9
ATOM      9  C   UNL A   1      34.155  25.963  24.728  1.00  0.00     0.225 C 
ATOM     10  O   UNL A   1      33.929  26.338  23.589  1.00  0.00    -0.275 OA
ATOM     11  N   UNL A   1      34.045  26.756  25.862  1.00  0.00    -0.324 N 
ATOM     12  H   UNL A   1      34.404  26.378  26.699  1.00  0.00     0.170 HD
BRANCH  11  13
ATOM     13  C   UNL A   1      33.471  28.046  25.947  1.00  0.00     0.067 A 
ATOM     14  C   UNL A   1      34.269  29.035  26.504  1.00  0.00     0.041 A 
ATOM     15  C   UNL A   1      32.103  28.305  25.864  1.00  0.00     0.090 A 
ATOM     16  C   UNL A   1      33.763  30.174  27.132  1.00  0.00     0.058 A 
ATOM     17  C   UNL A   1      31.566  29.513  26.362  1.00  0.00     0.031 A 
ATOM     18  C   UNL A   1      32.395  30.418  27.040  1.00  0.00     0.015 A 
BRANCH  15  19
ATOM     19  N   UNL A   1      31.217  27.260  25.584  1.00  0.00    -0.219 N 
ATOM     20  C   UNL A   1      30.464  27.114  24.448  1.00  0.00     0.226 A 
ATOM     21  N   UNL A   1      30.928  26.284  26.464  1.00  0.00    -0.155 NA
ATOM     22  N   UNL A   1      29.581  26.161  24.617  1.00  0.00    -0.223 NA
ATOM     23  C   UNL A   1      29.872  25.713  25.876  1.00  0.00     0.246 A 
ENDBRANCH  15  19
BRANCH  16  24
ATOM     24  C   UNL A   1      34.704  30.962  28.017  1.00  0.00     0.416 C 
ATOM     25  F   UNL A   1      35.499  30.125  28.743  1.00  0.00    -0.166 F 
ATOM     26  F   UNL A   1      35.574  31.747  27.328  1.00  0.00    -0.166 F 
ATOM     27  F   UNL A   1      34.077  31.767  28.907  1.00  0.00    -0.166 F 
ENDBRANCH  16  24
ENDBRANCH  11  13
ENDBRANCH   8   9
ENDBRANCH   7   8
BRANCH   7  28
ATOM     28  C   UNL A   1      33.943  22.322  23.951  1.00  0.00    -0.035 A 
ATOM     29  C   UNL A   1      34.371  21.246  24.753  1.00  0.00     0.004 A 
ATOM     30  C   UNL A   1      32.830  22.113  23.118  1.00  0.00     0.004 A 
ATOM     31  C   UNL A   1      33.724  20.006  24.707  1.00  0.00     0.000 A 
ATOM     32  C   UNL A   1      32.185  20.871  23.073  1.00  0.00     0.000 A 
ATOM     33  C   UNL A   1      32.636  19.815  23.859  1.00  0.00     0.000 A 
ENDBRANCH   7  28
ENDBRANCH   4   7
ENDBRANCH   2   3
ENDBRANCH   1   2
BRANCH   1  34
ATOM     34  C   UNL A   1      39.861  22.423  26.500  1.00  0.00     0.002 C 
BRANCH  34  35
ATOM     35  C   UNL A   1      41.189  21.646  26.585  1.00  0.00     0.002 C 
BRANCH  35  36
ATOM     36  C   UNL A   1      41.409  20.119  26.488  1.00  0.00     0.021 C 
BRANCH  36  37
ATOM     37  C   UNL A   1      42.752  19.350  26.302  1.00  0.00     0.116 C 
BRANCH  37  38
ATOM     38  N   UNL A   1      43.274  19.075  24.977  1.00  0.00    -0.352 N 
ATOM     39  C   UNL A   1      44.221  19.796  24.269  1.00  0.00     0.251 C 
ATOM     40  H   UNL A   1      42.912  18.279  24.526  1.00  0.00     0.163 HD
ATOM     41  O   UNL A   1      44.692  19.348  23.219  1.00  0.00    -0.269 OA
BRANCH  39  42
ATOM     42  C   UNL A   1      44.675  21.132  24.726  1.00  0.00     0.039 A 
ATOM     43  C   UNL A   1      44.487  22.229  23.880  1.00  0.00     0.014 A 
ATOM     44  C   UNL A   1      45.330  21.312  25.947  1.00  0.00     0.014 A 
ATOM     45  C   UNL A   1      44.856  23.513  24.302  1.00  0.00     0.010 A 
ATOM     46  C   UNL A   1      45.669  22.599  26.384  1.00  0.00     0.010 A 
ATOM     47  C   UNL A   1      45.403  23.719  25.581  1.00  0.00    -0.014 A 
BRANCH  47  48
ATOM     48  C   UNL A   1      45.594  25.101  26.105  1.00  0.00     0.031 A 
ATOM     49  C   UNL A   1      46.930  25.788  26.056  1.00  0.00     0.074 A 
ATOM     50  C   UNL A   1      44.540  25.726  26.670  1.00  0.00     0.049 A 
ATOM     51  N   UNL A   1      47.259  26.993  26.456  1.00  0.00    -0.248 NA
ATOM     52  C   UNL A   1      48.052  25.014  25.506  1.00  0.00     0.031 C 
ATOM     53  C   UNL A   1      43.208  25.140  26.832  1.00  0.00     0.029 A 
ATOM     54  N   UNL A   1      44.414  26.983  27.212  1.00  0.00    -0.354 N 
ATOM     55  C   UNL A   1      48.620  27.122  26.207  1.00  0.00     0.074 A 
ATOM     56  C   UNL A   1      49.067  25.853  25.671  1.00  0.00     0.031 C 
ATOM     57  C   UNL A   1      42.392  26.044  27.394  1.00  0.00     0.029 A 
ATOM     58  C   UNL A   1      43.148  27.261  27.672  1.00  0.00     0.049 A 
ATOM     59  H   UNL A   1      45.159  27.624  27.265  1.00  0.00     0.167 HD
ATOM     60  C   UNL A   1      49.417  28.204  26.390  1.00  0.00     0.037 A 
ATOM     61  C   UNL A   1      42.650  28.370  28.251  1.00  0.00     0.037 A 
ATOM     62  C   UNL A   1      48.958  29.465  26.921  1.00  0.00     0.049 A 
ATOM     63  C   UNL A   1      43.555  29.556  28.445  1.00  0.00     0.074 A 
ATOM     64  C   UNL A   1      49.669  30.640  27.101  1.00  0.00     0.029 A 
ATOM     65  N   UNL A   1      47.667  29.710  27.370  1.00  0.00    -0.354 N 
ATOM     66  N   UNL A   1      44.820  29.692  28.127  1.00  0.00    -0.248 NA
ATOM     67  C   UNL A   1      42.963  30.748  29.068  1.00  0.00     0.031 C 
ATOM     68  C   UNL A   1      48.825  31.576  27.707  1.00  0.00     0.029 A 
ATOM     69  C   UNL A   1      47.569  31.008  27.849  1.00  0.00     0.049 A 
ATOM     70  H   UNL A   1      46.930  29.058  27.352  1.00  0.00     0.167 HD
ATOM     71  C   UNL A   1      45.168  30.986  28.486  1.00  0.00     0.074 A 
ATOM     72  C   UNL A   1      43.974  31.603  29.026  1.00  0.00     0.031 C 
ATOM     73  C   UNL A   1      46.369  31.607  28.379  1.00  0.00     0.037 A 
BRANCH  60  74
ATOM     74  C   UNL A   1      50.868  28.077  26.014  1.00  0.00     0.064 A 
ATOM     75  C   UNL A   1      51.857  27.805  26.974  1.00  0.00     0.173 A 
ATOM     76  C   UNL A   1      51.276  28.193  24.676  1.00  0.00     0.173 A 
ATOM     77  F   UNL A   1      51.526  27.685  28.268  1.00  0.00    -0.203 F 
ATOM     78  C   UNL A   1      53.198  27.693  26.615  1.00  0.00     0.198 A 
ATOM     79  C   UNL A   1      52.615  28.049  24.316  1.00  0.00     0.198 A 
ATOM     80  F   UNL A   1      50.376  28.440  23.712  1.00  0.00    -0.203 F 
ATOM     81  F   UNL A   1      54.129  27.491  27.558  1.00  0.00    -0.200 F 
ATOM     82  C   UNL A   1      53.575  27.810  25.286  1.00  0.00     0.200 A 
ATOM     83  F   UNL A   1      52.975  28.145  23.028  1.00  0.00    -0.200 F 
ATOM     84  F   UNL A   1      54.867  27.701  24.941  1.00  0.00    -0.200 F 
ENDBRANCH  60  74
BRANCH  61  85
ATOM     85  C   UNL A   1      41.220  28.420  28.663  1.00  0.00     0.064 A 
ATOM     86  C   UNL A   1      40.813  27.965  29.927  1.00  0.00     0.173 A 
ATOM     87  C   UNL A   1      40.229  28.924  27.807  1.00  0.00     0.173 A 
ATOM     88  F   UNL A   1      41.717  27.456  30.776  1.00  0.00    -0.203 F 
ATOM     89  C   UNL A   1      39.472  27.991  30.307  1.00  0.00     0.198 A 
ATOM     90  C   UNL A   1      38.893  28.980  28.202  1.00  0.00     0.198 A 
ATOM     91  F   UNL A   1      40.561  29.379  26.589  1.00  0.00    -0.203 F 
ATOM     92  F   UNL A   1      39.108  27.504  31.501  1.00  0.00    -0.200 F 
ATOM     93  C   UNL A   1      38.515  28.506  29.447  1.00  0.00     0.200 A 
ATOM     94  F   UNL A   1      37.974  29.496  27.374  1.00  0.00    -0.200 F 
ATOM     95  F   UNL A   1      37.227  28.537  29.817  1.00  0.00    -0.200 F 
ENDBRANCH  61  85
BRANCH  73  96
ATOM     96  C   UNL A   1      46.442  33.040  28.825  1.00  0.00     0.064 A 
ATOM     97  C   UNL A   1      46.165  34.101  27.950  1.00  0.00     0.173 A 
ATOM     98  C   UNL A   1      46.756  33.353  30.157  1.00  0.00     0.173 A 
ATOM     99  F   UNL A   1      45.875  33.858  26.664  1.00  0.00    -0.203 F 
ATOM    100  C   UNL A   1      46.230  35.423  28.385  1.00  0.00     0.198 A 
ATOM    101  C   UNL A   1      46.786  34.673  30.596  1.00  0.00     0.198 A 
ATOM    102  F   UNL A   1      47.022  32.376  31.037  1.00  0.00    -0.203 F 
ATOM    103  F   UNL A   1      46.015  36.422  27.519  1.00  0.00    -0.200 F 
ATOM    104  C   UNL A   1      46.532  35.707  29.709  1.00  0.00     0.200 A 
ATOM    105  F   UNL A   1      47.061  34.945  31.879  1.00  0.00    -0.200 F 
ATOM    106  F   UNL A   1      46.584  36.979  30.127  1.00  0.00    -0.200 F 
ENDBRANCH  73  96
ENDBRANCH  47  48
ENDBRANCH  39  42
ENDBRANCH  37  38
ENDBRANCH  36  37
ENDBRANCH  35  36
ENDBRANCH  34  35
ENDBRANCH   1  34
TORSDOF 19
ENDMDL
MODEL 3
REMARK VINA RESULT:     -12.2      1.959      7.419
REMARK SMILES O=C(C[C@@H](C(=O)NCCCCCCNC(=O)c1ccc(-c2c3nc(c(-c4c(F)c(F)c(F)c(F)c4F)c4ccc([nH]4)c(-c4c(F)c(F)c(F)c(F)c4F)c4nc(c(-c5c(F)c(F)c(F)c(F)c5F)c5ccc2[nH]5)C=C4)C=C3)cc1)c1ccccc1)Nc1cc(C(F)(F)F)ccc1-n1cncn1
REMARK SMILES IDX 9 1 8 2 7 3 5 4 6 5 4 7 3 8 2 9 1 10 86 11 87 13 88 14 96 15
REMARK SMILES IDX 89 16 95 17 94 18 97 19 98 20 101 21 99 22 100 23 90 24
REMARK SMILES IDX 91 25 92 26 93 27 80 28 81 29 85 30 82 31 84 32 83 33 10 34
REMARK SMILES IDX 11 35 12 36 13 37 14 38 15 39 16 41 17 42 18 43 79 44 19 45
REMARK SMILES IDX 78 46 20 47 21 48 22 49 72 50 23 51 77 52 71 53 73 54 24 55
REMARK SMILES IDX 76 56 70 57 69 58 25 60 57 61 37 62 56 63 38 64 41 65 55 66
REMARK SMILES IDX 74 67 39 68 40 69 54 71 75 72 42 73 26 74 27 75 35 76 28 77
REMARK SMILES IDX 29 78 33 79 36 80 30 81 31 82 34 83 32 84 58 85 59 86 67 87
REMARK SMILES IDX 60 88 61 89 65 90 68 91 62 92 63 93 66 94 64 95 43 96 44 97
REMARK SMILES IDX 52 98 45 99 46 100 50 101 53 102 47 103 48 104 51 105 49 106
REMARK H PARENT 7 6 86 12 14 40 73 59 41 70
REMARK Flexibility Score: inf
ROOT
ATOM      1  C   UNL A   1      35.084  30.095  27.452  1.00  0.00     0.021 C 
ENDROOT
BRANCH   1   2
ATOM      2  C   UNL A   1      33.761  29.669  26.821  1.00  0.00     0.116 C 
BRANCH   2   3
ATOM      3  N   UNL A   1      33.234  28.538  27.600  1.00  0.00    -0.356 N 
ATOM      4  C   UNL A   1      32.049  27.921  27.275  1.00  0.00     0.228 C 
ATOM      5  O   UNL A   1      31.035  28.179  27.925  1.00  0.00    -0.274 OA
ATOM      6  H   UNL A   1      33.745  28.213  28.376  1.00  0.00     0.163 HD
BRANCH   4   7
ATOM      7  C   UNL A   1      32.072  26.868  26.161  1.00  0.00     0.118 C 
BRANCH   7   8
ATOM      8  C   UNL A   1      33.529  26.556  25.773  1.00  0.00     0.118 C 
BRANCH   8   9
ATOM      9  C   UNL A   1      33.945  25.106  26.035  1.00  0.00     0.225 C 
ATOM     10  O   UNL A   1      33.210  24.296  26.575  1.00  0.00    -0.275 OA
ATOM     11  N   UNL A   1      35.244  24.847  25.619  1.00  0.00    -0.324 N 
ATOM     12  H   UNL A   1      35.779  25.626  25.340  1.00  0.00     0.170 HD
BRANCH  11  13
ATOM     13  C   UNL A   1      35.880  23.585  25.551  1.00  0.00     0.067 A 
ATOM     14  C   UNL A   1      37.109  23.485  26.187  1.00  0.00     0.041 A 
ATOM     15  C   UNL A   1      35.563  22.594  24.622  1.00  0.00     0.090 A 
ATOM     16  C   UNL A   1      38.094  22.564  25.826  1.00  0.00     0.058 A 
ATOM     17  C   UNL A   1      36.478  21.559  24.330  1.00  0.00     0.031 A 
ATOM     18  C   UNL A   1      37.760  21.580  24.898  1.00  0.00     0.015 A 
BRANCH  15  19
ATOM     19  N   UNL A   1      34.487  22.783  23.748  1.00  0.00    -0.219 N 
ATOM     20  C   UNL A   1      33.316  22.072  23.733  1.00  0.00     0.226 A 
ATOM     21  N   UNL A   1      34.511  23.664  22.732  1.00  0.00    -0.155 NA
ATOM     22  N   UNL A   1      32.637  22.352  22.648  1.00  0.00    -0.223 NA
ATOM     23  C   UNL A   1      33.424  23.295  22.046  1.00  0.00     0.246 A 
ENDBRANCH  15  19
BRANCH  16  24
ATOM     24  C   UNL A   1      39.500  22.809  26.329  1.00  0.00     0.416 C 
ATOM     25  F   UNL A   1      39.575  22.593  27.673  1.00  0.00    -0.166 F 
ATOM     26  F   UNL A   1      40.425  21.969  25.795  1.00  0.00    -0.166 F 
ATOM     27  F   UNL A   1      39.949  24.068  26.115  1.00  0.00    -0.166 F 
ENDBRANCH  16  24
ENDBRANCH  11  13
ENDBRANCH   8   9
ENDBRANCH   7   8
BRANCH   7  28
ATOM     28  C   UNL A   1      31.239  27.447  24.996  1.00  0.00    -0.035 A 
ATOM     29  C   UNL A   1      31.404  28.768  24.538  1.00  0.00     0.004 A 
ATOM     30  C   UNL A   1      30.163  26.706  24.478  1.00  0.00     0.004 A 
ATOM     31  C   UNL A   1      30.515  29.331  23.615  1.00  0.00     0.000 A 
ATOM     32  C   UNL A   1      29.273  27.272  23.556  1.00  0.00     0.000 A 
ATOM     33  C   UNL A   1      29.444  28.587  23.131  1.00  0.00     0.000 A 
ENDBRANCH   7  28
ENDBRANCH   4   7
ENDBRANCH   2   3
ENDBRANCH   1   2
BRANCH   1  34
ATOM     34  C   UNL A   1      35.189  31.221  28.505  1.00  0.00     0.002 C 
BRANCH  34  35
ATOM     35  C   UNL A   1      34.951  32.727  28.278  1.00  0.00     0.002 C 
BRANCH  35  36
ATOM     36  C   UNL A   1      33.672  33.546  28.570  1.00  0.00     0.021 C 
BRANCH  36  37
ATOM     37  C   UNL A   1      33.563  34.985  29.157  1.00  0.00     0.116 C 
BRANCH  37  38
ATOM     38  N   UNL A   1      32.625  35.284  30.222  1.00  0.00    -0.352 N 
ATOM     39  C   UNL A   1      32.856  35.274  31.588  1.00  0.00     0.251 C 
ATOM     40  H   UNL A   1      31.714  35.525  29.941  1.00  0.00     0.163 HD
ATOM     41  O   UNL A   1      32.008  35.715  32.370  1.00  0.00    -0.269 OA
BRANCH  39  42
ATOM     42  C   UNL A   1      34.105  34.710  32.155  1.00  0.00     0.039 A 
ATOM     43  C   UNL A   1      34.058  33.448  32.754  1.00  0.00     0.014 A 
ATOM     44  C   UNL A   1      35.305  35.426  32.156  1.00  0.00     0.014 A 
ATOM     45  C   UNL A   1      35.230  32.863  33.253  1.00  0.00     0.010 A 
ATOM     46  C   UNL A   1      36.484  34.830  32.625  1.00  0.00     0.010 A 
ATOM     47  C   UNL A   1      36.466  33.527  33.146  1.00  0.00    -0.014 A 
BRANCH  47  48
ATOM     48  C   UNL A   1      37.733  32.817  33.481  1.00  0.00     0.031 A 
ATOM     49  C   UNL A   1      38.470  33.077  34.765  1.00  0.00     0.074 A 
ATOM     50  C   UNL A   1      38.241  31.949  32.580  1.00  0.00     0.049 A 
ATOM     51  N   UNL A   1      39.575  32.532  35.212  1.00  0.00    -0.248 NA
ATOM     52  C   UNL A   1      37.903  34.098  35.657  1.00  0.00     0.031 C 
ATOM     53  C   UNL A   1      37.651  31.659  31.273  1.00  0.00     0.029 A 
ATOM     54  N   UNL A   1      39.360  31.153  32.620  1.00  0.00    -0.354 N 
ATOM     55  C   UNL A   1      39.837  33.142  36.433  1.00  0.00     0.074 A 
ATOM     56  C   UNL A   1      38.803  34.136  36.631  1.00  0.00     0.031 C 
ATOM     57  C   UNL A   1      38.388  30.725  30.651  1.00  0.00     0.029 A 
ATOM     58  C   UNL A   1      39.526  30.377  31.496  1.00  0.00     0.049 A 
ATOM     59  H   UNL A   1      39.985  31.138  33.381  1.00  0.00     0.167 HD
ATOM     60  C   UNL A   1      40.835  32.881  37.314  1.00  0.00     0.037 A 
ATOM     61  C   UNL A   1      40.484  29.485  31.180  1.00  0.00     0.037 A 
ATOM     62  C   UNL A   1      41.857  31.884  37.106  1.00  0.00     0.049 A 
ATOM     63  C   UNL A   1      41.581  29.217  32.174  1.00  0.00     0.074 A 
ATOM     64  C   UNL A   1      42.884  31.506  37.955  1.00  0.00     0.029 A 
ATOM     65  N   UNL A   1      41.988  31.115  35.958  1.00  0.00    -0.354 N 
ATOM     66  N   UNL A   1      41.768  29.740  33.361  1.00  0.00    -0.248 NA
ATOM     67  C   UNL A   1      42.595  28.225  31.790  1.00  0.00     0.031 C 
ATOM     68  C   UNL A   1      43.665  30.549  37.300  1.00  0.00     0.029 A 
ATOM     69  C   UNL A   1      43.091  30.282  36.067  1.00  0.00     0.049 A 
ATOM     70  H   UNL A   1      41.386  31.154  35.180  1.00  0.00     0.167 HD
ATOM     71  C   UNL A   1      42.901  29.128  33.876  1.00  0.00     0.074 A 
ATOM     72  C   UNL A   1      43.348  28.175  32.880  1.00  0.00     0.031 C 
ATOM     73  C   UNL A   1      43.518  29.336  35.066  1.00  0.00     0.037 A 
BRANCH  60  74
ATOM     74  C   UNL A   1      40.874  33.685  38.586  1.00  0.00     0.064 A 
ATOM     75  C   UNL A   1      40.104  33.330  39.706  1.00  0.00     0.173 A 
ATOM     76  C   UNL A   1      41.716  34.802  38.703  1.00  0.00     0.173 A 
ATOM     77  F   UNL A   1      39.280  32.274  39.652  1.00  0.00    -0.203 F 
ATOM     78  C   UNL A   1      40.146  34.085  40.876  1.00  0.00     0.198 A 
ATOM     79  C   UNL A   1      41.780  35.535  39.887  1.00  0.00     0.198 A 
ATOM     80  F   UNL A   1      42.486  35.182  37.672  1.00  0.00    -0.203 F 
ATOM     81  F   UNL A   1      39.358  33.759  41.910  1.00  0.00    -0.200 F 
ATOM     82  C   UNL A   1      40.987  35.183  40.968  1.00  0.00     0.200 A 
ATOM     83  F   UNL A   1      42.607  36.586  39.979  1.00  0.00    -0.200 F 
ATOM     84  F   UNL A   1      41.029  35.907  42.096  1.00  0.00    -0.200 F 
ENDBRANCH  60  74
BRANCH  61  85
ATOM     85  C   UNL A   1      40.432  28.763  29.879  1.00  0.00     0.064 A 
ATOM     86  C   UNL A   1      41.067  29.279  28.739  1.00  0.00     0.173 A 
ATOM     87  C   UNL A   1      39.752  27.544  29.745  1.00  0.00     0.173 A 
ATOM     88  F   UNL A   1      41.716  30.450  28.807  1.00  0.00    -0.203 F 
ATOM     89  C   UNL A   1      41.004  28.615  27.514  1.00  0.00     0.198 A 
ATOM     90  C   UNL A   1      39.717  26.865  28.528  1.00  0.00     0.198 A 
ATOM     91  F   UNL A   1      39.132  27.001  30.804  1.00  0.00    -0.203 F 
ATOM     92  F   UNL A   1      41.578  29.157  26.431  1.00  0.00    -0.200 F 
ATOM     93  C   UNL A   1      40.335  27.406  27.412  1.00  0.00     0.200 A 
ATOM     94  F   UNL A   1      39.085  25.686  28.439  1.00  0.00    -0.200 F 
ATOM     95  F   UNL A   1      40.280  26.765  26.236  1.00  0.00    -0.200 F 
ENDBRANCH  61  85
BRANCH  73  96
ATOM     96  C   UNL A   1      44.724  28.492  35.370  1.00  0.00     0.064 A 
ATOM     97  C   UNL A   1      44.614  27.251  36.014  1.00  0.00     0.173 A 
ATOM     98  C   UNL A   1      46.003  28.917  34.978  1.00  0.00     0.173 A 
ATOM     99  F   UNL A   1      43.417  26.806  36.423  1.00  0.00    -0.203 F 
ATOM    100  C   UNL A   1      45.743  26.479  36.280  1.00  0.00     0.198 A 
ATOM    101  C   UNL A   1      47.124  28.128  35.214  1.00  0.00     0.198 A 
ATOM    102  F   UNL A   1      46.163  30.093  34.353  1.00  0.00    -0.203 F 
ATOM    103  F   UNL A   1      45.620  25.322  36.944  1.00  0.00    -0.200 F 
ATOM    104  C   UNL A   1      46.995  26.915  35.872  1.00  0.00     0.200 A 
ATOM    105  F   UNL A   1      48.332  28.541  34.805  1.00  0.00    -0.200 F 
ATOM    106  F   UNL A   1      48.079  26.166  36.120  1.00  0.00    -0.200 F 
ENDBRANCH  73  96
ENDBRANCH  47  48
ENDBRANCH  39  42
ENDBRANCH  37  38
ENDBRANCH  36  37
ENDBRANCH  35  36
ENDBRANCH  34  35
ENDBRANCH   1  34
TORSDOF 19
ENDMDL
