MODEL 1
REMARK VINA RESULT:     -12.2      0.000      0.000
REMARK SMILES COc1ccc(OC)c(/C=N/[NH+]=C2/NC(=O)[C@@H](CC(=O)NCCCCCCNC(=O)c3ccc(-c4c5nc(c(-c6c(F)c(F)c(F)c(F)c6F)c6ccc([nH]6)c(-c6c(F)c(F)c(F)c(F)c6F)c6nc(c(-c7c(F)c(F)c(F)c(F)c7F)c7ccc4[nH]7)C=C6)C=C5)cc3)S2)c1
REMARK SMILES IDX 23 1 22 2 21 3 19 4 20 5 18 7 17 8 12 9 13 10 14 12 94 13
REMARK SMILES IDX 15 14 16 16 11 17 10 18 9 19 3 20 4 21 95 22 5 23 6 24 2 25
REMARK SMILES IDX 1 26 7 27 8 28 24 29 25 30 26 31 27 32 28 33 29 34 30 36
REMARK SMILES IDX 31 37 32 38 93 39 33 40 92 41 34 42 35 43 36 44 86 45 37 46
REMARK SMILES IDX 91 47 85 48 87 49 38 50 90 51 84 52 83 53 39 55 71 56 51 57
REMARK SMILES IDX 70 58 52 59 55 60 69 61 88 62 53 63 54 64 68 66 89 67 56 68
REMARK SMILES IDX 40 69 41 70 49 71 42 72 43 73 47 74 50 75 44 76 45 77 48 78
REMARK SMILES IDX 46 79 72 80 73 81 81 82 74 83 75 84 79 85 82 86 76 87 77 88
REMARK SMILES IDX 80 89 78 90 57 91 58 92 66 93 59 94 60 95 64 96 67 97 61 98
REMARK SMILES IDX 62 99 65 100 63 101
REMARK H PARENT 21 6 12 11 14 15 28 35 87 54 55 65
REMARK Flexibility Score: inf
ROOT
ATOM      1  C   UNL A   1      31.800  28.576  27.461  1.00  0.00     0.021 C 
ENDROOT
BRANCH   1   2
ATOM      2  C   UNL A   1      31.594  27.581  26.319  1.00  0.00     0.116 C 
BRANCH   2   3
ATOM      3  N   UNL A   1      32.716  27.621  25.401  1.00  0.00    -0.356 N 
ATOM      4  C   UNL A   1      32.785  27.902  24.073  1.00  0.00     0.221 C 
ATOM      5  O   UNL A   1      33.891  27.831  23.534  1.00  0.00    -0.275 OA
ATOM      6  H   UNL A   1      33.584  27.408  25.814  1.00  0.00     0.163 HD
BRANCH   4   7
ATOM      7  C   UNL A   1      31.555  28.304  23.284  1.00  0.00     0.127 C 
BRANCH   7   8
ATOM      8  C   UNL A   1      30.763  27.179  22.618  1.00  0.00     0.183 C 
ATOM      9  N   UNL A   1      30.671  23.861  24.497  1.00  0.00    -0.142 N 
ATOM     10  C   UNL A   1      30.526  24.893  23.741  1.00  0.00     0.337 C 
ATOM     11  H   UNL A   1      30.017  23.639  25.199  1.00  0.00     0.343 HD
ATOM     12  N   UNL A   1      29.438  25.680  23.904  1.00  0.00    -0.202 N 
ATOM     13  S   UNL A   1      31.583  25.550  22.537  1.00  0.00    -0.020 SA
ATOM     14  C   UNL A   1      29.464  26.921  23.352  1.00  0.00     0.322 C 
ATOM     15  H   UNL A   1      28.652  25.363  24.406  1.00  0.00     0.316 HD
ATOM     16  O   UNL A   1      28.576  27.748  23.525  1.00  0.00    -0.246 OA
BRANCH   9  17
ATOM     17  N   UNL A   1      31.793  23.074  24.272  1.00  0.00    -0.093 NA
ATOM     18  C   UNL A   1      31.859  22.038  25.046  1.00  0.00     0.170 C 
BRANCH  18  19
ATOM     19  C   UNL A   1      32.829  20.973  24.765  1.00  0.00     0.042 A 
ATOM     20  C   UNL A   1      33.172  18.665  24.111  1.00  0.00     0.119 A 
ATOM     21  C   UNL A   1      34.507  18.773  24.495  1.00  0.00     0.050 A 
ATOM     22  C   UNL A   1      32.323  19.767  24.243  1.00  0.00     0.060 A 
ATOM     23  C   UNL A   1      35.011  19.986  24.962  1.00  0.00     0.051 A 
ATOM     24  C   UNL A   1      34.188  21.109  25.086  1.00  0.00     0.128 A 
BRANCH  20  25
ATOM     25  O   UNL A   1      32.782  17.411  23.730  1.00  0.00    -0.497 OA
ATOM     26  C   UNL A   1      33.795  16.415  23.771  1.00  0.00     0.278 C 
ENDBRANCH  20  25
BRANCH  24  27
ATOM     27  O   UNL A   1      34.868  22.200  25.552  1.00  0.00    -0.496 OA
ATOM     28  C   UNL A   1      36.069  22.606  24.909  1.00  0.00     0.278 C 
ENDBRANCH  24  27
ENDBRANCH  18  19
ENDBRANCH   9  17
ENDBRANCH   7   8
ENDBRANCH   4   7
ENDBRANCH   2   3
ENDBRANCH   1   2
BRANCH   1  29
ATOM     29  C   UNL A   1      32.388  29.925  27.040  1.00  0.00     0.002 C 
BRANCH  29  30
ATOM     30  C   UNL A   1      31.476  30.771  26.151  1.00  0.00     0.002 C 
BRANCH  30  31
ATOM     31  C   UNL A   1      31.328  32.232  26.582  1.00  0.00     0.021 C 
BRANCH  31  32
ATOM     32  C   UNL A   1      32.538  32.809  27.311  1.00  0.00     0.116 C 
BRANCH  32  33
ATOM     33  N   UNL A   1      32.369  34.222  27.609  1.00  0.00    -0.352 N 
ATOM     34  C   UNL A   1      32.980  34.974  28.580  1.00  0.00     0.251 C 
ATOM     35  H   UNL A   1      31.729  34.705  27.037  1.00  0.00     0.163 HD
ATOM     36  O   UNL A   1      32.557  36.093  28.861  1.00  0.00    -0.269 OA
BRANCH  34  37
ATOM     37  C   UNL A   1      34.146  34.425  29.300  1.00  0.00     0.039 A 
ATOM     38  C   UNL A   1      33.955  33.818  30.543  1.00  0.00     0.014 A 
ATOM     39  C   UNL A   1      35.426  34.510  28.744  1.00  0.00     0.014 A 
ATOM     40  C   UNL A   1      35.044  33.243  31.202  1.00  0.00     0.010 A 
ATOM     41  C   UNL A   1      36.495  33.870  29.366  1.00  0.00     0.010 A 
ATOM     42  C   UNL A   1      36.316  33.236  30.606  1.00  0.00    -0.014 A 
BRANCH  42  43
ATOM     43  C   UNL A   1      37.474  32.581  31.268  1.00  0.00     0.031 A 
ATOM     44  C   UNL A   1      38.189  31.446  30.587  1.00  0.00     0.074 A 
ATOM     45  C   UNL A   1      37.853  32.978  32.498  1.00  0.00     0.049 A 
ATOM     46  N   UNL A   1      39.176  30.706  31.024  1.00  0.00    -0.248 NA
ATOM     47  C   UNL A   1      37.718  31.080  29.241  1.00  0.00     0.031 C 
ATOM     48  C   UNL A   1      37.221  34.044  33.277  1.00  0.00     0.029 A 
ATOM     49  N   UNL A   1      38.862  32.527  33.314  1.00  0.00    -0.354 N 
ATOM     50  C   UNL A   1      39.444  29.795  30.011  1.00  0.00     0.074 A 
ATOM     51  C   UNL A   1      38.472  30.026  28.966  1.00  0.00     0.031 C 
ATOM     52  C   UNL A   1      37.870  34.181  34.445  1.00  0.00     0.029 A 
ATOM     53  C   UNL A   1      38.935  33.185  34.518  1.00  0.00     0.049 A 
ATOM     54  H   UNL A   1      39.475  31.799  33.061  1.00  0.00     0.167 HD
ATOM     55  C   UNL A   1      40.432  28.871  29.942  1.00  0.00     0.037 A 
ATOM     56  C   UNL A   1      39.761  32.998  35.565  1.00  0.00     0.037 A 
ATOM     57  C   UNL A   1      41.404  28.646  30.980  1.00  0.00     0.049 A 
ATOM     58  C   UNL A   1      40.815  31.924  35.482  1.00  0.00     0.074 A 
ATOM     59  C   UNL A   1      42.452  27.745  31.001  1.00  0.00     0.029 A 
ATOM     60  N   UNL A   1      41.444  29.334  32.185  1.00  0.00    -0.354 N 
ATOM     61  N   UNL A   1      41.092  31.107  34.495  1.00  0.00    -0.248 NA
ATOM     62  C   UNL A   1      41.678  31.752  36.660  1.00  0.00     0.031 C 
ATOM     63  C   UNL A   1      43.101  27.855  32.235  1.00  0.00     0.029 A 
ATOM     64  C   UNL A   1      42.492  28.865  32.960  1.00  0.00     0.049 A 
ATOM     65  H   UNL A   1      40.821  30.050  32.448  1.00  0.00     0.167 HD
ATOM     66  C   UNL A   1      42.182  30.356  34.916  1.00  0.00     0.074 A 
ATOM     67  C   UNL A   1      42.528  30.827  36.240  1.00  0.00     0.031 C 
ATOM     68  C   UNL A   1      42.839  29.363  34.266  1.00  0.00     0.037 A 
BRANCH  55  69
ATOM     69  C   UNL A   1      40.527  28.045  28.692  1.00  0.00     0.064 A 
ATOM     70  C   UNL A   1      41.308  28.458  27.601  1.00  0.00     0.173 A 
ATOM     71  C   UNL A   1      39.877  26.805  28.599  1.00  0.00     0.173 A 
ATOM     72  F   UNL A   1      41.941  29.641  27.634  1.00  0.00    -0.203 F 
ATOM     73  C   UNL A   1      41.416  27.674  26.456  1.00  0.00     0.198 A 
ATOM     74  C   UNL A   1      40.013  26.008  27.465  1.00  0.00     0.198 A 
ATOM     75  F   UNL A   1      39.122  26.358  29.614  1.00  0.00    -0.203 F 
ATOM     76  F   UNL A   1      42.131  28.112  25.411  1.00  0.00    -0.200 F 
ATOM     77  C   UNL A   1      40.777  26.444  26.393  1.00  0.00     0.200 A 
ATOM     78  F   UNL A   1      39.407  24.813  27.411  1.00  0.00    -0.200 F 
ATOM     79  F   UNL A   1      40.892  25.684  25.296  1.00  0.00    -0.200 F 
ENDBRANCH  55  69
BRANCH  56  80
ATOM     80  C   UNL A   1      39.642  33.842  36.785  1.00  0.00     0.064 A 
ATOM     81  C   UNL A   1      38.846  33.436  37.867  1.00  0.00     0.173 A 
ATOM     82  C   UNL A   1      40.271  35.092  36.876  1.00  0.00     0.173 A 
ATOM     83  F   UNL A   1      38.207  32.257  37.823  1.00  0.00    -0.203 F 
ATOM     84  C   UNL A   1      38.650  34.265  38.970  1.00  0.00     0.198 A 
ATOM     85  C   UNL A   1      40.103  35.905  37.995  1.00  0.00     0.198 A 
ATOM     86  F   UNL A   1      41.047  35.529  35.873  1.00  0.00    -0.203 F 
ATOM     87  F   UNL A   1      37.825  33.882  39.954  1.00  0.00    -0.200 F 
ATOM     88  C   UNL A   1      39.280  35.498  39.034  1.00  0.00     0.200 A 
ATOM     89  F   UNL A   1      40.727  37.089  38.060  1.00  0.00    -0.200 F 
ATOM     90  F   UNL A   1      39.083  36.299  40.090  1.00  0.00    -0.200 F 
ENDBRANCH  56  80
BRANCH  68  91
ATOM     91  C   UNL A   1      44.032  28.761  34.952  1.00  0.00     0.064 A 
ATOM     92  C   UNL A   1      45.323  29.281  34.785  1.00  0.00     0.173 A 
ATOM     93  C   UNL A   1      43.871  27.667  35.817  1.00  0.00     0.173 A 
ATOM     94  F   UNL A   1      45.533  30.317  33.959  1.00  0.00    -0.203 F 
ATOM     95  C   UNL A   1      46.415  28.708  35.432  1.00  0.00     0.198 A 
ATOM     96  C   UNL A   1      44.959  27.119  36.490  1.00  0.00     0.198 A 
ATOM     97  F   UNL A   1      42.656  27.136  36.019  1.00  0.00    -0.203 F 
ATOM     98  F   UNL A   1      47.648  29.186  35.213  1.00  0.00    -0.200 F 
ATOM     99  C   UNL A   1      46.231  27.633  36.290  1.00  0.00     0.200 A 
ATOM    100  F   UNL A   1      44.777  26.092  37.331  1.00  0.00    -0.200 F 
ATOM    101  F   UNL A   1      47.282  27.088  36.918  1.00  0.00    -0.200 F 
ENDBRANCH  68  91
ENDBRANCH  42  43
ENDBRANCH  34  37
ENDBRANCH  32  33
ENDBRANCH  31  32
ENDBRANCH  30  31
ENDBRANCH  29  30
ENDBRANCH   1  29
TORSDOF 18
ENDMDL
MODEL 2
REMARK VINA RESULT:     -12.2      0.662      7.202
REMARK SMILES COc1ccc(OC)c(/C=N/[NH+]=C2/NC(=O)[C@@H](CC(=O)NCCCCCCNC(=O)c3ccc(-c4c5nc(c(-c6c(F)c(F)c(F)c(F)c6F)c6ccc([nH]6)c(-c6c(F)c(F)c(F)c(F)c6F)c6nc(c(-c7c(F)c(F)c(F)c(F)c7F)c7ccc4[nH]7)C=C6)C=C5)cc3)S2)c1
REMARK SMILES IDX 23 1 22 2 21 3 19 4 20 5 18 7 17 8 12 9 13 10 14 12 94 13
REMARK SMILES IDX 15 14 16 16 11 17 10 18 9 19 3 20 4 21 95 22 5 23 6 24 2 25
REMARK SMILES IDX 1 26 7 27 8 28 24 29 25 30 26 31 27 32 28 33 29 34 30 36
REMARK SMILES IDX 31 37 32 38 93 39 33 40 92 41 34 42 35 43 36 44 86 45 37 46
REMARK SMILES IDX 91 47 85 48 87 49 38 50 90 51 84 52 83 53 39 55 71 56 51 57
REMARK SMILES IDX 70 58 52 59 55 60 69 61 88 62 53 63 54 64 68 66 89 67 56 68
REMARK SMILES IDX 40 69 41 70 49 71 42 72 43 73 47 74 50 75 44 76 45 77 48 78
REMARK SMILES IDX 46 79 72 80 73 81 81 82 74 83 75 84 79 85 82 86 76 87 77 88
REMARK SMILES IDX 80 89 78 90 57 91 58 92 66 93 59 94 60 95 64 96 67 97 61 98
REMARK SMILES IDX 62 99 65 100 63 101
REMARK H PARENT 21 6 12 11 14 15 28 35 87 54 55 65
REMARK Flexibility Score: inf
ROOT
ATOM      1  C   UNL A   1      32.142  28.787  27.253  1.00  0.00     0.021 C 
ENDROOT
BRANCH   1   2
ATOM      2  C   UNL A   1      31.826  27.857  26.083  1.00  0.00     0.116 C 
BRANCH   2   3
ATOM      3  N   UNL A   1      32.966  27.755  25.191  1.00  0.00    -0.356 N 
ATOM      4  C   UNL A   1      33.153  28.184  23.915  1.00  0.00     0.221 C 
ATOM      5  O   UNL A   1      34.235  27.929  23.384  1.00  0.00    -0.275 OA
ATOM      6  H   UNL A   1      33.744  27.294  25.580  1.00  0.00     0.163 HD
BRANCH   4   7
ATOM      7  C   UNL A   1      32.081  28.960  23.176  1.00  0.00     0.127 C 
BRANCH   7   8
ATOM      8  C   UNL A   1      31.026  28.143  22.430  1.00  0.00     0.183 C 
ATOM      9  N   UNL A   1      30.010  24.846  24.057  1.00  0.00    -0.142 N 
ATOM     10  C   UNL A   1      30.162  25.931  23.381  1.00  0.00     0.337 C 
ATOM     11  H   UNL A   1      29.310  24.759  24.744  1.00  0.00     0.343 HD
ATOM     12  N   UNL A   1      29.325  26.969  23.607  1.00  0.00    -0.202 N 
ATOM     13  S   UNL A   1      31.377  26.364  22.225  1.00  0.00    -0.020 SA
ATOM     14  C   UNL A   1      29.694  28.193  23.149  1.00  0.00     0.322 C 
ATOM     15  H   UNL A   1      28.474  26.840  24.087  1.00  0.00     0.316 HD
ATOM     16  O   UNL A   1      29.060  29.215  23.386  1.00  0.00    -0.246 OA
BRANCH   9  17
ATOM     17  N   UNL A   1      30.882  23.804  23.770  1.00  0.00    -0.093 NA
ATOM     18  C   UNL A   1      31.753  23.588  24.703  1.00  0.00     0.170 C 
BRANCH  18  19
ATOM     19  C   UNL A   1      32.569  22.368  24.679  1.00  0.00     0.042 A 
ATOM     20  C   UNL A   1      32.620  19.960  24.942  1.00  0.00     0.119 A 
ATOM     21  C   UNL A   1      34.012  20.011  24.972  1.00  0.00     0.050 A 
ATOM     22  C   UNL A   1      31.888  21.140  24.794  1.00  0.00     0.060 A 
ATOM     23  C   UNL A   1      34.678  21.225  24.806  1.00  0.00     0.051 A 
ATOM     24  C   UNL A   1      33.970  22.418  24.638  1.00  0.00     0.128 A 
BRANCH  20  25
ATOM     25  O   UNL A   1      32.085  18.724  25.178  1.00  0.00    -0.497 OA
ATOM     26  C   UNL A   1      33.022  17.687  25.435  1.00  0.00     0.278 C 
ENDBRANCH  20  25
BRANCH  24  27
ATOM     27  O   UNL A   1      34.799  23.495  24.483  1.00  0.00    -0.496 OA
ATOM     28  C   UNL A   1      35.635  23.898  25.559  1.00  0.00     0.278 C 
ENDBRANCH  24  27
ENDBRANCH  18  19
ENDBRANCH   9  17
ENDBRANCH   7   8
ENDBRANCH   4   7
ENDBRANCH   2   3
ENDBRANCH   1   2
BRANCH   1  29
ATOM     29  C   UNL A   1      32.504  30.221  26.855  1.00  0.00     0.002 C 
BRANCH  29  30
ATOM     30  C   UNL A   1      31.373  31.003  26.185  1.00  0.00     0.002 C 
BRANCH  30  31
ATOM     31  C   UNL A   1      31.352  32.501  26.497  1.00  0.00     0.021 C 
BRANCH  31  32
ATOM     32  C   UNL A   1      32.576  33.014  27.251  1.00  0.00     0.116 C 
BRANCH  32  33
ATOM     33  N   UNL A   1      32.410  34.394  27.679  1.00  0.00    -0.352 N 
ATOM     34  C   UNL A   1      33.013  35.047  28.723  1.00  0.00     0.251 C 
ATOM     35  H   UNL A   1      31.779  34.932  27.149  1.00  0.00     0.163 HD
ATOM     36  O   UNL A   1      32.592  36.137  29.105  1.00  0.00    -0.269 OA
BRANCH  34  37
ATOM     37  C   UNL A   1      34.169  34.426  29.401  1.00  0.00     0.039 A 
ATOM     38  C   UNL A   1      33.956  33.665  30.552  1.00  0.00     0.014 A 
ATOM     39  C   UNL A   1      35.462  34.596  28.894  1.00  0.00     0.014 A 
ATOM     40  C   UNL A   1      35.036  33.025  31.163  1.00  0.00     0.010 A 
ATOM     41  C   UNL A   1      36.524  33.896  29.461  1.00  0.00     0.010 A 
ATOM     42  C   UNL A   1      36.323  33.108  30.605  1.00  0.00    -0.014 A 
BRANCH  42  43
ATOM     43  C   UNL A   1      37.473  32.389  31.212  1.00  0.00     0.031 A 
ATOM     44  C   UNL A   1      37.977  32.787  32.572  1.00  0.00     0.074 A 
ATOM     45  C   UNL A   1      38.090  31.410  30.522  1.00  0.00     0.049 A 
ATOM     46  N   UNL A   1      39.003  32.328  33.243  1.00  0.00    -0.248 NA
ATOM     47  C   UNL A   1      37.242  33.860  33.263  1.00  0.00     0.031 C 
ATOM     48  C   UNL A   1      37.717  30.954  29.182  1.00  0.00     0.029 A 
ATOM     49  N   UNL A   1      39.166  30.623  30.851  1.00  0.00    -0.354 N 
ATOM     50  C   UNL A   1      39.033  33.050  34.430  1.00  0.00     0.074 A 
ATOM     51  C   UNL A   1      37.968  34.025  34.359  1.00  0.00     0.031 C 
ATOM     52  C   UNL A   1      38.533  29.953  28.813  1.00  0.00     0.029 A 
ATOM     53  C   UNL A   1      39.515  29.726  29.870  1.00  0.00     0.049 A 
ATOM     54  H   UNL A   1      39.644  30.696  31.709  1.00  0.00     0.167 HD
ATOM     55  C   UNL A   1      39.852  32.891  35.497  1.00  0.00     0.037 A 
ATOM     56  C   UNL A   1      40.519  28.830  29.826  1.00  0.00     0.037 A 
ATOM     57  C   UNL A   1      40.908  31.915  35.569  1.00  0.00     0.049 A 
ATOM     58  C   UNL A   1      41.449  28.716  31.006  1.00  0.00     0.074 A 
ATOM     59  C   UNL A   1      41.784  31.666  36.610  1.00  0.00     0.029 A 
ATOM     60  N   UNL A   1      41.229  31.024  34.555  1.00  0.00    -0.354 N 
ATOM     61  N   UNL A   1      41.432  29.367  32.144  1.00  0.00    -0.248 NA
ATOM     62  C   UNL A   1      42.539  27.734  30.897  1.00  0.00     0.031 C 
ATOM     63  C   UNL A   1      42.663  30.655  36.211  1.00  0.00     0.029 A 
ATOM     64  C   UNL A   1      42.300  30.235  34.943  1.00  0.00     0.049 A 
ATOM     65  H   UNL A   1      40.765  30.962  33.689  1.00  0.00     0.167 HD
ATOM     66  C   UNL A   1      42.476  28.846  32.898  1.00  0.00     0.074 A 
ATOM     67  C   UNL A   1      43.096  27.813  32.096  1.00  0.00     0.031 C 
ATOM     68  C   UNL A   1      42.888  29.192  34.142  1.00  0.00     0.037 A 
BRANCH  55  69
ATOM     69  C   UNL A   1      39.627  33.782  36.685  1.00  0.00     0.064 A 
ATOM     70  C   UNL A   1      38.815  33.378  37.756  1.00  0.00     0.173 A 
ATOM     71  C   UNL A   1      40.269  35.025  36.783  1.00  0.00     0.173 A 
ATOM     72  F   UNL A   1      38.169  32.203  37.708  1.00  0.00    -0.203 F 
ATOM     73  C   UNL A   1      38.634  34.195  38.869  1.00  0.00     0.198 A 
ATOM     74  C   UNL A   1      40.111  35.826  37.912  1.00  0.00     0.198 A 
ATOM     75  F   UNL A   1      41.061  35.458  35.791  1.00  0.00    -0.203 F 
ATOM     76  F   UNL A   1      37.817  33.806  39.858  1.00  0.00    -0.200 F 
ATOM     77  C   UNL A   1      39.291  35.414  38.950  1.00  0.00     0.200 A 
ATOM     78  F   UNL A   1      40.759  36.997  37.996  1.00  0.00    -0.200 F 
ATOM     79  F   UNL A   1      39.127  36.193  40.028  1.00  0.00    -0.200 F 
ENDBRANCH  55  69
BRANCH  56  80
ATOM     80  C   UNL A   1      40.706  27.959  28.633  1.00  0.00     0.064 A 
ATOM     81  C   UNL A   1      41.513  28.369  27.561  1.00  0.00     0.173 A 
ATOM     82  C   UNL A   1      40.043  26.729  28.513  1.00  0.00     0.173 A 
ATOM     83  F   UNL A   1      42.154  29.546  27.618  1.00  0.00    -0.203 F 
ATOM     84  C   UNL A   1      41.613  27.605  26.400  1.00  0.00     0.198 A 
ATOM     85  C   UNL A   1      40.173  25.949  27.366  1.00  0.00     0.198 A 
ATOM     86  F   UNL A   1      39.263  26.285  29.509  1.00  0.00    -0.203 F 
ATOM     87  F   UNL A   1      42.331  28.058  25.363  1.00  0.00    -0.200 F 
ATOM     88  C   UNL A   1      40.945  26.394  26.304  1.00  0.00     0.200 A 
ATOM     89  F   UNL A   1      39.538  24.772  27.284  1.00  0.00    -0.200 F 
ATOM     90  F   UNL A   1      41.033  25.665  25.184  1.00  0.00    -0.200 F 
ENDBRANCH  56  80
BRANCH  68  91
ATOM     91  C   UNL A   1      44.023  28.409  34.737  1.00  0.00     0.064 A 
ATOM     92  C   UNL A   1      45.356  28.827  34.616  1.00  0.00     0.173 A 
ATOM     93  C   UNL A   1      43.766  27.239  35.470  1.00  0.00     0.173 A 
ATOM     94  F   UNL A   1      45.656  29.930  33.913  1.00  0.00    -0.203 F 
ATOM     95  C   UNL A   1      46.393  28.087  35.177  1.00  0.00     0.198 A 
ATOM     96  C   UNL A   1      44.802  26.521  36.060  1.00  0.00     0.198 A 
ATOM     97  F   UNL A   1      42.509  26.798  35.623  1.00  0.00    -0.203 F 
ATOM     98  F   UNL A   1      47.663  28.476  34.999  1.00  0.00    -0.200 F 
ATOM     99  C   UNL A   1      46.115  26.940  35.905  1.00  0.00     0.200 A 
ATOM    100  F   UNL A   1      44.530  25.422  36.777  1.00  0.00    -0.200 F 
ATOM    101  F   UNL A   1      47.114  26.233  36.451  1.00  0.00    -0.200 F 
ENDBRANCH  68  91
ENDBRANCH  42  43
ENDBRANCH  34  37
ENDBRANCH  32  33
ENDBRANCH  31  32
ENDBRANCH  30  31
ENDBRANCH  29  30
ENDBRANCH   1  29
TORSDOF 18
ENDMDL
MODEL 3
REMARK VINA RESULT:     -12.0      0.661      2.117
REMARK SMILES COc1ccc(OC)c(/C=N/[NH+]=C2/NC(=O)[C@@H](CC(=O)NCCCCCCNC(=O)c3ccc(-c4c5nc(c(-c6c(F)c(F)c(F)c(F)c6F)c6ccc([nH]6)c(-c6c(F)c(F)c(F)c(F)c6F)c6nc(c(-c7c(F)c(F)c(F)c(F)c7F)c7ccc4[nH]7)C=C6)C=C5)cc3)S2)c1
REMARK SMILES IDX 23 1 22 2 21 3 19 4 20 5 18 7 17 8 12 9 13 10 14 12 94 13
REMARK SMILES IDX 15 14 16 16 11 17 10 18 9 19 3 20 4 21 95 22 5 23 6 24 2 25
REMARK SMILES IDX 1 26 7 27 8 28 24 29 25 30 26 31 27 32 28 33 29 34 30 36
REMARK SMILES IDX 31 37 32 38 93 39 33 40 92 41 34 42 35 43 36 44 86 45 37 46
REMARK SMILES IDX 91 47 85 48 87 49 38 50 90 51 84 52 83 53 39 55 71 56 51 57
REMARK SMILES IDX 70 58 52 59 55 60 69 61 88 62 53 63 54 64 68 66 89 67 56 68
REMARK SMILES IDX 40 69 41 70 49 71 42 72 43 73 47 74 50 75 44 76 45 77 48 78
REMARK SMILES IDX 46 79 72 80 73 81 81 82 74 83 75 84 79 85 82 86 76 87 77 88
REMARK SMILES IDX 80 89 78 90 57 91 58 92 66 93 59 94 60 95 64 96 67 97 61 98
REMARK SMILES IDX 62 99 65 100 63 101
REMARK H PARENT 21 6 12 11 14 15 28 35 87 54 55 65
REMARK Flexibility Score: inf
ROOT
ATOM      1  C   UNL A   1      31.846  28.587  27.517  1.00  0.00     0.021 C 
ENDROOT
BRANCH   1   2
ATOM      2  C   UNL A   1      31.587  27.637  26.348  1.00  0.00     0.116 C 
BRANCH   2   3
ATOM      3  N   UNL A   1      32.775  27.505  25.528  1.00  0.00    -0.356 N 
ATOM      4  C   UNL A   1      32.932  27.346  24.187  1.00  0.00     0.221 C 
ATOM      5  O   UNL A   1      34.082  27.230  23.760  1.00  0.00    -0.275 OA
ATOM      6  H   UNL A   1      33.620  27.537  26.032  1.00  0.00     0.163 HD
BRANCH   4   7
ATOM      7  C   UNL A   1      31.742  27.327  23.248  1.00  0.00     0.127 C 
BRANCH   7   8
ATOM      8  C   UNL A   1      31.053  25.980  23.031  1.00  0.00     0.183 C 
ATOM      9  N   UNL A   1      31.208  23.535  25.954  1.00  0.00    -0.142 N 
ATOM     10  C   UNL A   1      30.989  24.221  24.887  1.00  0.00     0.337 C 
ATOM     11  H   UNL A   1      30.566  23.521  26.700  1.00  0.00     0.343 HD
ATOM     12  N   UNL A   1      29.839  24.925  24.783  1.00  0.00    -0.202 N 
ATOM     13  S   UNL A   1      32.005  24.498  23.512  1.00  0.00    -0.020 SA
ATOM     14  C   UNL A   1      29.770  25.891  23.831  1.00  0.00     0.322 C 
ATOM     15  H   UNL A   1      29.075  24.741  25.377  1.00  0.00     0.316 HD
ATOM     16  O   UNL A   1      28.816  26.652  23.717  1.00  0.00    -0.246 OA
BRANCH   9  17
ATOM     17  N   UNL A   1      32.393  22.813  26.001  1.00  0.00    -0.093 NA
ATOM     18  C   UNL A   1      32.251  21.567  25.677  1.00  0.00     0.170 C 
BRANCH  18  19
ATOM     19  C   UNL A   1      33.433  20.735  25.420  1.00  0.00     0.042 A 
ATOM     20  C   UNL A   1      35.824  20.676  25.034  1.00  0.00     0.119 A 
ATOM     21  C   UNL A   1      35.709  19.347  24.633  1.00  0.00     0.050 A 
ATOM     22  C   UNL A   1      34.685  21.380  25.432  1.00  0.00     0.060 A 
ATOM     23  C   UNL A   1      34.473  18.702  24.674  1.00  0.00     0.051 A 
ATOM     24  C   UNL A   1      33.321  19.378  25.086  1.00  0.00     0.128 A 
BRANCH  20  25
ATOM     25  O   UNL A   1      37.073  21.214  24.889  1.00  0.00    -0.497 OA
ATOM     26  C   UNL A   1      37.337  22.372  25.670  1.00  0.00     0.278 C 
ENDBRANCH  20  25
BRANCH  24  27
ATOM     27  O   UNL A   1      32.214  18.574  25.065  1.00  0.00    -0.496 OA
ATOM     28  C   UNL A   1      32.359  17.175  25.268  1.00  0.00     0.278 C 
ENDBRANCH  24  27
ENDBRANCH  18  19
ENDBRANCH   9  17
ENDBRANCH   7   8
ENDBRANCH   4   7
ENDBRANCH   2   3
ENDBRANCH   1   2
BRANCH   1  29
ATOM     29  C   UNL A   1      32.423  29.949  27.123  1.00  0.00     0.002 C 
BRANCH  29  30
ATOM     30  C   UNL A   1      31.543  30.768  26.178  1.00  0.00     0.002 C 
BRANCH  30  31
ATOM     31  C   UNL A   1      31.414  32.250  26.536  1.00  0.00     0.021 C 
BRANCH  31  32
ATOM     32  C   UNL A   1      32.582  32.817  27.338  1.00  0.00     0.116 C 
BRANCH  32  33
ATOM     33  N   UNL A   1      32.398  34.227  27.641  1.00  0.00    -0.352 N 
ATOM     34  C   UNL A   1      32.990  34.979  28.623  1.00  0.00     0.251 C 
ATOM     35  H   UNL A   1      31.763  34.708  27.062  1.00  0.00     0.163 HD
ATOM     36  O   UNL A   1      32.555  36.094  28.904  1.00  0.00    -0.269 OA
BRANCH  34  37
ATOM     37  C   UNL A   1      34.150  34.435  29.358  1.00  0.00     0.039 A 
ATOM     38  C   UNL A   1      33.952  33.861  30.614  1.00  0.00     0.014 A 
ATOM     39  C   UNL A   1      35.431  34.492  28.799  1.00  0.00     0.014 A 
ATOM     40  C   UNL A   1      35.034  33.290  31.288  1.00  0.00     0.010 A 
ATOM     41  C   UNL A   1      36.493  33.856  29.438  1.00  0.00     0.010 A 
ATOM     42  C   UNL A   1      36.307  33.254  30.693  1.00  0.00    -0.014 A 
BRANCH  42  43
ATOM     43  C   UNL A   1      37.457  32.603  31.371  1.00  0.00     0.031 A 
ATOM     44  C   UNL A   1      38.176  31.462  30.706  1.00  0.00     0.074 A 
ATOM     45  C   UNL A   1      37.826  33.011  32.602  1.00  0.00     0.049 A 
ATOM     46  N   UNL A   1      39.158  30.724  31.159  1.00  0.00    -0.248 NA
ATOM     47  C   UNL A   1      37.717  31.085  29.359  1.00  0.00     0.031 C 
ATOM     48  C   UNL A   1      37.188  34.084  33.365  1.00  0.00     0.029 A 
ATOM     49  N   UNL A   1      38.826  32.564  33.431  1.00  0.00    -0.354 N 
ATOM     50  C   UNL A   1      39.434  29.803  30.156  1.00  0.00     0.074 A 
ATOM     51  C   UNL A   1      38.472  30.028  29.100  1.00  0.00     0.031 C 
ATOM     52  C   UNL A   1      37.826  34.230  34.538  1.00  0.00     0.029 A 
ATOM     53  C   UNL A   1      38.889  33.233  34.630  1.00  0.00     0.049 A 
ATOM     54  H   UNL A   1      39.440  31.833  33.189  1.00  0.00     0.167 HD
ATOM     55  C   UNL A   1      40.421  28.878  30.105  1.00  0.00     0.037 A 
ATOM     56  C   UNL A   1      39.704  33.054  35.686  1.00  0.00     0.037 A 
ATOM     57  C   UNL A   1      41.382  28.660  31.154  1.00  0.00     0.049 A 
ATOM     58  C   UNL A   1      40.757  31.977  35.621  1.00  0.00     0.074 A 
ATOM     59  C   UNL A   1      42.429  27.757  31.192  1.00  0.00     0.029 A 
ATOM     60  N   UNL A   1      41.413  29.358  32.353  1.00  0.00    -0.354 N 
ATOM     61  N   UNL A   1      41.042  31.151  34.644  1.00  0.00    -0.248 NA
ATOM     62  C   UNL A   1      41.608  31.813  36.809  1.00  0.00     0.031 C 
ATOM     63  C   UNL A   1      43.067  27.876  32.431  1.00  0.00     0.029 A 
ATOM     64  C   UNL A   1      42.452  28.894  33.142  1.00  0.00     0.049 A 
ATOM     65  H   UNL A   1      40.788  30.077  32.605  1.00  0.00     0.167 HD
ATOM     66  C   UNL A   1      42.127  30.402  35.082  1.00  0.00     0.074 A 
ATOM     67  C   UNL A   1      42.461  30.883  36.406  1.00  0.00     0.031 C 
ATOM     68  C   UNL A   1      42.788  29.403  34.447  1.00  0.00     0.037 A 
BRANCH  55  69
ATOM     69  C   UNL A   1      40.526  28.041  28.862  1.00  0.00     0.064 A 
ATOM     70  C   UNL A   1      39.832  26.826  28.740  1.00  0.00     0.173 A 
ATOM     71  C   UNL A   1      41.280  28.477  27.763  1.00  0.00     0.173 A 
ATOM     72  F   UNL A   1      39.106  26.357  29.766  1.00  0.00    -0.203 F 
ATOM     73  C   UNL A   1      39.910  26.068  27.575  1.00  0.00     0.198 A 
ATOM     74  C   UNL A   1      41.329  27.733  26.587  1.00  0.00     0.198 A 
ATOM     75  F   UNL A   1      41.957  29.633  27.823  1.00  0.00    -0.203 F 
ATOM     76  F   UNL A   1      39.275  24.891  27.500  1.00  0.00    -0.200 F 
ATOM     77  C   UNL A   1      40.649  26.528  26.495  1.00  0.00     0.200 A 
ATOM     78  F   UNL A   1      42.032  28.186  25.539  1.00  0.00    -0.200 F 
ATOM     79  F   UNL A   1      40.712  25.805  25.369  1.00  0.00    -0.200 F 
ENDBRANCH  55  69
BRANCH  56  80
ATOM     80  C   UNL A   1      39.575  33.908  36.898  1.00  0.00     0.064 A 
ATOM     81  C   UNL A   1      38.838  33.474  38.010  1.00  0.00     0.173 A 
ATOM     82  C   UNL A   1      40.134  35.193  36.951  1.00  0.00     0.173 A 
ATOM     83  F   UNL A   1      38.266  32.261  38.002  1.00  0.00    -0.203 F 
ATOM     84  C   UNL A   1      38.629  34.307  39.107  1.00  0.00     0.198 A 
ATOM     85  C   UNL A   1      39.955  36.012  38.064  1.00  0.00     0.198 A 
ATOM     86  F   UNL A   1      40.853  35.657  35.918  1.00  0.00    -0.203 F 
ATOM     87  F   UNL A   1      37.858  33.894  40.122  1.00  0.00    -0.200 F 
ATOM     88  C   UNL A   1      39.190  35.575  39.134  1.00  0.00     0.200 A 
ATOM     89  F   UNL A   1      40.513  37.230  38.093  1.00  0.00    -0.200 F 
ATOM     90  F   UNL A   1      38.981  36.380  40.185  1.00  0.00    -0.200 F 
ENDBRANCH  56  80
BRANCH  68  91
ATOM     91  C   UNL A   1      43.974  28.804  35.149  1.00  0.00     0.064 A 
ATOM     92  C   UNL A   1      43.862  27.655  35.944  1.00  0.00     0.173 A 
ATOM     93  C   UNL A   1      45.248  29.373  34.991  1.00  0.00     0.173 A 
ATOM     94  F   UNL A   1      42.665  27.082  36.138  1.00  0.00    -0.203 F 
ATOM     95  C   UNL A   1      44.975  27.116  36.583  1.00  0.00     0.198 A 
ATOM     96  C   UNL A   1      46.364  28.810  35.603  1.00  0.00     0.198 A 
ATOM     97  F   UNL A   1      45.412  30.468  34.235  1.00  0.00    -0.203 F 
ATOM     98  F   UNL A   1      44.835  26.050  37.385  1.00  0.00    -0.200 F 
ATOM     99  C   UNL A   1      46.226  27.688  36.406  1.00  0.00     0.200 A 
ATOM    100  F   UNL A   1      47.574  29.355  35.416  1.00  0.00    -0.200 F 
ATOM    101  F   UNL A   1      47.297  27.163  37.016  1.00  0.00    -0.200 F 
ENDBRANCH  68  91
ENDBRANCH  42  43
ENDBRANCH  34  37
ENDBRANCH  32  33
ENDBRANCH  31  32
ENDBRANCH  30  31
ENDBRANCH  29  30
ENDBRANCH   1  29
TORSDOF 18
ENDMDL
