MODEL 1
REMARK VINA RESULT:     -12.3      0.000      0.000
REMARK SMILES CCOC(=O)c1c(NC(=O)[C@@H]2[C@@H]3CC[C@@H](C3)[C@@H]2C(=O)NCCCCCCNC(=O)c2ccc(-c3c4nc(c(-c5c(F)c(F)c(F)c(F)c5F)c5ccc([nH]5)c(-c5c(F)c(F)c(F)c(F)c5F)c5nc(c(-c6c(F)c(F)c(F)c(F)c6F)c6ccc3[nH]6)C=C5)C=C4)cc2)sc2c1CCCC2
REMARK SMILES IDX 22 1 21 2 20 3 18 4 19 5 17 7 11 8 12 9 13 10 16 11 15 12
REMARK SMILES IDX 14 13 9 14 8 15 10 17 7 18 6 19 95 20 93 21 94 22 96 23
REMARK SMILES IDX 99 24 97 25 98 26 4 27 5 28 3 29 2 30 1 31 23 32 24 33 25 34
REMARK SMILES IDX 26 35 27 36 28 37 29 39 30 40 31 41 92 42 32 43 91 44 33 45
REMARK SMILES IDX 34 46 35 47 85 48 36 49 90 50 84 51 86 52 37 53 89 54 83 55
REMARK SMILES IDX 82 56 38 58 70 59 50 60 69 61 51 62 54 63 68 64 87 65 52 66
REMARK SMILES IDX 53 67 67 69 88 70 55 71 39 72 40 73 48 74 41 75 42 76 46 77
REMARK SMILES IDX 49 78 43 79 44 80 47 81 45 82 71 83 72 84 80 85 73 86 74 87
REMARK SMILES IDX 78 88 81 89 75 90 76 91 79 92 77 93 56 94 57 95 65 96 58 97
REMARK SMILES IDX 59 98 63 99 66 100 60 101 61 102 64 103 62 104
REMARK H PARENT 20 6 8 16 27 38 86 57 54 68
REMARK Flexibility Score: inf
ROOT
ATOM      1  C   UNL A   1      32.191  29.208  27.251  1.00  0.00     0.021 C 
ENDROOT
BRANCH   1   2
ATOM      2  C   UNL A   1      33.241  28.099  27.160  1.00  0.00     0.116 C 
BRANCH   2   3
ATOM      3  N   UNL A   1      33.793  28.034  25.831  1.00  0.00    -0.356 N 
ATOM      4  C   UNL A   1      33.423  27.376  24.710  1.00  0.00     0.224 C 
ATOM      5  O   UNL A   1      34.027  27.750  23.697  1.00  0.00    -0.275 OA
ATOM      6  H   UNL A   1      34.605  28.580  25.717  1.00  0.00     0.163 HD
BRANCH   4   7
ATOM      7  C   UNL A   1      32.239  26.397  24.613  1.00  0.00     0.094 C 
ATOM      8  C   UNL A   1      31.981  25.402  23.460  1.00  0.00     0.094 C 
ATOM      9  C   UNL A   1      30.689  25.928  22.785  1.00  0.00     0.002 C 
ATOM     10  C   UNL A   1      30.841  27.354  22.232  1.00  0.00     0.005 C 
ATOM     11  C   UNL A   1      29.856  26.165  24.044  1.00  0.00     0.009 C 
ATOM     12  C   UNL A   1      30.861  27.175  24.621  1.00  0.00     0.002 C 
ATOM     13  C   UNL A   1      30.793  28.221  23.492  1.00  0.00     0.005 C 
BRANCH   8  14
ATOM     14  C   UNL A   1      33.013  24.904  22.489  1.00  0.00     0.229 C 
ATOM     15  N   UNL A   1      33.275  23.565  22.349  1.00  0.00    -0.317 N 
ATOM     16  H   UNL A   1      33.733  23.339  21.508  1.00  0.00     0.170 HD
ATOM     17  O   UNL A   1      33.641  25.681  21.767  1.00  0.00    -0.274 OA
BRANCH  15  18
ATOM     18  C   UNL A   1      33.021  22.468  23.156  1.00  0.00     0.110 A 
ATOM     19  C   UNL A   1      33.359  21.936  24.395  1.00  0.00     0.098 A 
ATOM     20  C   UNL A   1      33.146  20.494  24.390  1.00  0.00    -0.017 A 
ATOM     21  S   UNL A   1      32.028  21.374  22.271  1.00  0.00    -0.122 S 
ATOM     22  C   UNL A   1      32.510  20.073  23.239  1.00  0.00     0.011 A 
ATOM     23  C   UNL A   1      33.478  19.518  25.488  1.00  0.00     0.038 C 
ATOM     24  C   UNL A   1      32.225  18.650  22.872  1.00  0.00     0.047 C 
ATOM     25  C   UNL A   1      33.468  18.061  24.999  1.00  0.00     0.005 C 
ATOM     26  C   UNL A   1      32.250  17.759  24.118  1.00  0.00     0.006 C 
BRANCH  19  27
ATOM     27  C   UNL A   1      33.825  22.664  25.575  1.00  0.00     0.341 C 
ATOM     28  O   UNL A   1      33.069  23.237  26.347  1.00  0.00    -0.246 OA
BRANCH  27  29
ATOM     29  O   UNL A   1      35.179  22.595  25.717  1.00  0.00    -0.462 OA
BRANCH  29  30
ATOM     30  C   UNL A   1      35.973  23.601  25.066  1.00  0.00     0.230 C 
ATOM     31  C   UNL A   1      36.659  23.011  23.847  1.00  0.00     0.049 C 
ENDBRANCH  29  30
ENDBRANCH  27  29
ENDBRANCH  19  27
ENDBRANCH  15  18
ENDBRANCH   8  14
ENDBRANCH   4   7
ENDBRANCH   2   3
ENDBRANCH   1   2
BRANCH   1  32
ATOM     32  C   UNL A   1      32.313  30.283  26.164  1.00  0.00     0.002 C 
BRANCH  32  33
ATOM     33  C   UNL A   1      31.096  31.206  26.009  1.00  0.00     0.002 C 
BRANCH  33  34
ATOM     34  C   UNL A   1      31.272  32.649  26.495  1.00  0.00     0.021 C 
BRANCH  34  35
ATOM     35  C   UNL A   1      32.479  32.920  27.389  1.00  0.00     0.116 C 
BRANCH  35  36
ATOM     36  N   UNL A   1      32.579  34.314  27.779  1.00  0.00    -0.352 N 
ATOM     37  C   UNL A   1      33.425  34.930  28.668  1.00  0.00     0.251 C 
ATOM     38  H   UNL A   1      31.936  34.914  27.337  1.00  0.00     0.163 HD
ATOM     39  O   UNL A   1      33.232  36.102  28.977  1.00  0.00    -0.269 OA
BRANCH  37  40
ATOM     40  C   UNL A   1      34.560  34.197  29.276  1.00  0.00     0.039 A 
ATOM     41  C   UNL A   1      34.278  33.182  30.197  1.00  0.00     0.014 A 
ATOM     42  C   UNL A   1      35.888  34.537  29.002  1.00  0.00     0.014 A 
ATOM     43  C   UNL A   1      35.321  32.478  30.805  1.00  0.00     0.010 A 
ATOM     44  C   UNL A   1      36.929  33.797  29.566  1.00  0.00     0.010 A 
ATOM     45  C   UNL A   1      36.656  32.764  30.478  1.00  0.00    -0.014 A 
BRANCH  45  46
ATOM     46  C   UNL A   1      37.772  32.005  31.097  1.00  0.00     0.031 A 
ATOM     47  C   UNL A   1      38.218  32.320  32.498  1.00  0.00     0.074 A 
ATOM     48  C   UNL A   1      38.415  31.061  30.384  1.00  0.00     0.049 A 
ATOM     49  N   UNL A   1      39.207  31.807  33.188  1.00  0.00    -0.248 NA
ATOM     50  C   UNL A   1      37.467  33.363  33.211  1.00  0.00     0.031 C 
ATOM     51  C   UNL A   1      38.103  30.683  29.006  1.00  0.00     0.029 A 
ATOM     52  N   UNL A   1      39.474  30.252  30.719  1.00  0.00    -0.354 N 
ATOM     53  C   UNL A   1      39.206  32.474  34.405  1.00  0.00     0.074 A 
ATOM     54  C   UNL A   1      38.144  33.457  34.346  1.00  0.00     0.031 C 
ATOM     55  C   UNL A   1      38.937  29.705  28.618  1.00  0.00     0.029 A 
ATOM     56  C   UNL A   1      39.863  29.407  29.708  1.00  0.00     0.049 A 
ATOM     57  H   UNL A   1      39.911  30.273  31.601  1.00  0.00     0.167 HD
ATOM     58  C   UNL A   1      40.004  32.274  35.481  1.00  0.00     0.037 A 
ATOM     59  C   UNL A   1      40.855  28.499  29.664  1.00  0.00     0.037 A 
ATOM     60  C   UNL A   1      41.039  31.277  35.554  1.00  0.00     0.049 A 
ATOM     61  C   UNL A   1      41.723  28.292  30.875  1.00  0.00     0.074 A 
ATOM     62  C   UNL A   1      41.862  30.961  36.621  1.00  0.00     0.029 A 
ATOM     63  N   UNL A   1      41.391  30.429  34.514  1.00  0.00    -0.354 N 
ATOM     64  N   UNL A   1      41.677  28.893  32.037  1.00  0.00    -0.248 NA
ATOM     65  C   UNL A   1      42.778  27.273  30.766  1.00  0.00     0.031 C 
ATOM     66  C   UNL A   1      42.734  29.943  36.218  1.00  0.00     0.029 A 
ATOM     67  C   UNL A   1      42.429  29.601  34.911  1.00  0.00     0.049 A 
ATOM     68  H   UNL A   1      40.967  30.417  33.626  1.00  0.00     0.167 HD
ATOM     69  C   UNL A   1      42.676  28.313  32.807  1.00  0.00     0.074 A 
ATOM     70  C   UNL A   1      43.307  27.303  31.983  1.00  0.00     0.031 C 
ATOM     71  C   UNL A   1      43.040  28.594  34.082  1.00  0.00     0.037 A 
BRANCH  58  72
ATOM     72  C   UNL A   1      39.785  33.153  36.677  1.00  0.00     0.064 A 
ATOM     73  C   UNL A   1      40.502  34.346  36.851  1.00  0.00     0.173 A 
ATOM     74  C   UNL A   1      38.821  32.818  37.639  1.00  0.00     0.173 A 
ATOM     75  F   UNL A   1      41.441  34.704  35.964  1.00  0.00    -0.203 F 
ATOM     76  C   UNL A   1      40.280  35.159  37.960  1.00  0.00     0.198 A 
ATOM     77  C   UNL A   1      38.584  33.647  38.734  1.00  0.00     0.198 A 
ATOM     78  F   UNL A   1      38.104  31.692  37.515  1.00  0.00    -0.203 F 
ATOM     79  F   UNL A   1      41.006  36.272  38.128  1.00  0.00    -0.200 F 
ATOM     80  C   UNL A   1      39.317  34.811  38.897  1.00  0.00     0.200 A 
ATOM     81  F   UNL A   1      37.646  33.315  39.632  1.00  0.00    -0.200 F 
ATOM     82  F   UNL A   1      39.102  35.598  39.960  1.00  0.00    -0.200 F 
ENDBRANCH  58  72
BRANCH  59  83
ATOM     83  C   UNL A   1      41.063  27.693  28.435  1.00  0.00     0.064 A 
ATOM     84  C   UNL A   1      41.946  28.125  27.436  1.00  0.00     0.173 A 
ATOM     85  C   UNL A   1      40.389  26.481  28.234  1.00  0.00     0.173 A 
ATOM     86  F   UNL A   1      42.597  29.288  27.575  1.00  0.00    -0.203 F 
ATOM     87  C   UNL A   1      42.137  27.379  26.274  1.00  0.00     0.198 A 
ATOM     88  C   UNL A   1      40.597  25.725  27.082  1.00  0.00     0.198 A 
ATOM     89  F   UNL A   1      39.536  26.024  29.162  1.00  0.00    -0.203 F 
ATOM     90  F   UNL A   1      42.960  27.832  25.318  1.00  0.00    -0.200 F 
ATOM     91  C   UNL A   1      41.467  26.178  26.101  1.00  0.00     0.200 A 
ATOM     92  F   UNL A   1      39.958  24.558  26.923  1.00  0.00    -0.200 F 
ATOM     93  F   UNL A   1      41.655  25.459  24.986  1.00  0.00    -0.200 F 
ENDBRANCH  59  83
BRANCH  71  94
ATOM     94  C   UNL A   1      44.150  27.780  34.674  1.00  0.00     0.064 A 
ATOM     95  C   UNL A   1      45.484  28.210  34.618  1.00  0.00     0.173 A 
ATOM     96  C   UNL A   1      43.872  26.576  35.337  1.00  0.00     0.173 A 
ATOM     97  F   UNL A   1      45.800  29.347  33.980  1.00  0.00    -0.203 F 
ATOM     98  C   UNL A   1      46.502  27.453  35.191  1.00  0.00     0.198 A 
ATOM     99  C   UNL A   1      44.890  25.833  35.929  1.00  0.00     0.198 A 
ATOM    100  F   UNL A   1      42.611  26.125  35.420  1.00  0.00    -0.203 F 
ATOM    101  F   UNL A   1      47.775  27.863  35.094  1.00  0.00    -0.200 F 
ATOM    102  C   UNL A   1      46.204  26.270  35.851  1.00  0.00     0.200 A 
ATOM    103  F   UNL A   1      44.600  24.695  36.573  1.00  0.00    -0.200 F 
ATOM    104  F   UNL A   1      47.186  25.546  36.405  1.00  0.00    -0.200 F 
ENDBRANCH  71  94
ENDBRANCH  45  46
ENDBRANCH  37  40
ENDBRANCH  35  36
ENDBRANCH  34  35
ENDBRANCH  33  34
ENDBRANCH  32  33
ENDBRANCH   1  32
TORSDOF 18
ENDMDL
MODEL 2
REMARK VINA RESULT:     -12.0      0.905      7.092
REMARK SMILES CCOC(=O)c1c(NC(=O)[C@@H]2[C@@H]3CC[C@@H](C3)[C@@H]2C(=O)NCCCCCCNC(=O)c2ccc(-c3c4nc(c(-c5c(F)c(F)c(F)c(F)c5F)c5ccc([nH]5)c(-c5c(F)c(F)c(F)c(F)c5F)c5nc(c(-c6c(F)c(F)c(F)c(F)c6F)c6ccc3[nH]6)C=C5)C=C4)cc2)sc2c1CCCC2
REMARK SMILES IDX 22 1 21 2 20 3 18 4 19 5 17 7 11 8 12 9 13 10 16 11 15 12
REMARK SMILES IDX 14 13 9 14 8 15 10 17 7 18 6 19 95 20 93 21 94 22 96 23
REMARK SMILES IDX 99 24 97 25 98 26 4 27 5 28 3 29 2 30 1 31 23 32 24 33 25 34
REMARK SMILES IDX 26 35 27 36 28 37 29 39 30 40 31 41 92 42 32 43 91 44 33 45
REMARK SMILES IDX 34 46 35 47 85 48 36 49 90 50 84 51 86 52 37 53 89 54 83 55
REMARK SMILES IDX 82 56 38 58 70 59 50 60 69 61 51 62 54 63 68 64 87 65 52 66
REMARK SMILES IDX 53 67 67 69 88 70 55 71 39 72 40 73 48 74 41 75 42 76 46 77
REMARK SMILES IDX 49 78 43 79 44 80 47 81 45 82 71 83 72 84 80 85 73 86 74 87
REMARK SMILES IDX 78 88 81 89 75 90 76 91 79 92 77 93 56 94 57 95 65 96 58 97
REMARK SMILES IDX 59 98 63 99 66 100 60 101 61 102 64 103 62 104
REMARK H PARENT 20 6 8 16 27 38 86 57 54 68
REMARK Flexibility Score: inf
ROOT
ATOM      1  C   UNL A   1      32.456  29.110  27.334  1.00  0.00     0.021 C 
ENDROOT
BRANCH   1   2
ATOM      2  C   UNL A   1      33.652  28.198  27.053  1.00  0.00     0.116 C 
BRANCH   2   3
ATOM      3  N   UNL A   1      34.003  28.242  25.656  1.00  0.00    -0.356 N 
ATOM      4  C   UNL A   1      33.494  27.640  24.559  1.00  0.00     0.224 C 
ATOM      5  O   UNL A   1      33.927  28.103  23.496  1.00  0.00    -0.275 OA
ATOM      6  H   UNL A   1      34.769  28.830  25.462  1.00  0.00     0.163 HD
BRANCH   4   7
ATOM      7  C   UNL A   1      32.343  26.617  24.568  1.00  0.00     0.094 C 
ATOM      8  C   UNL A   1      31.996  25.636  23.426  1.00  0.00     0.094 C 
ATOM      9  C   UNL A   1      30.619  26.124  22.910  1.00  0.00     0.002 C 
ATOM     10  C   UNL A   1      30.656  27.565  22.378  1.00  0.00     0.005 C 
ATOM     11  C   UNL A   1      29.922  26.302  24.258  1.00  0.00     0.009 C 
ATOM     12  C   UNL A   1      30.947  27.340  24.746  1.00  0.00     0.002 C 
ATOM     13  C   UNL A   1      30.715  28.404  23.657  1.00  0.00     0.005 C 
BRANCH   8  14
ATOM     14  C   UNL A   1      32.933  25.198  22.337  1.00  0.00     0.229 C 
ATOM     15  N   UNL A   1      33.270  23.879  22.171  1.00  0.00    -0.317 N 
ATOM     16  H   UNL A   1      33.635  23.675  21.279  1.00  0.00     0.170 HD
ATOM     17  O   UNL A   1      33.409  26.008  21.539  1.00  0.00    -0.274 OA
BRANCH  15  18
ATOM     18  C   UNL A   1      33.197  22.778  23.008  1.00  0.00     0.110 A 
ATOM     19  C   UNL A   1      33.834  22.210  24.105  1.00  0.00     0.098 A 
ATOM     20  C   UNL A   1      33.566  20.777  24.146  1.00  0.00    -0.017 A 
ATOM     21  S   UNL A   1      31.956  21.740  22.416  1.00  0.00    -0.122 S 
ATOM     22  C   UNL A   1      32.625  20.403  23.207  1.00  0.00     0.011 A 
ATOM     23  C   UNL A   1      34.140  19.768  25.106  1.00  0.00     0.038 C 
ATOM     24  C   UNL A   1      32.191  19.000  22.920  1.00  0.00     0.047 C 
ATOM     25  C   UNL A   1      33.937  18.323  24.627  1.00  0.00     0.005 C 
ATOM     26  C   UNL A   1      32.514  18.085  24.105  1.00  0.00     0.006 C 
BRANCH  19  27
ATOM     27  C   UNL A   1      34.632  22.897  25.120  1.00  0.00     0.341 C 
ATOM     28  O   UNL A   1      35.834  22.720  25.256  1.00  0.00    -0.246 OA
BRANCH  27  29
ATOM     29  O   UNL A   1      33.883  23.765  25.859  1.00  0.00    -0.462 OA
BRANCH  29  30
ATOM     30  C   UNL A   1      33.044  23.216  26.889  1.00  0.00     0.230 C 
ATOM     31  C   UNL A   1      31.586  23.507  26.581  1.00  0.00     0.049 C 
ENDBRANCH  29  30
ENDBRANCH  27  29
ENDBRANCH  19  27
ENDBRANCH  15  18
ENDBRANCH   8  14
ENDBRANCH   4   7
ENDBRANCH   2   3
ENDBRANCH   1   2
BRANCH   1  32
ATOM     32  C   UNL A   1      32.658  30.568  26.902  1.00  0.00     0.002 C 
BRANCH  32  33
ATOM     33  C   UNL A   1      33.922  31.249  27.446  1.00  0.00     0.002 C 
BRANCH  33  34
ATOM     34  C   UNL A   1      33.850  32.769  27.628  1.00  0.00     0.021 C 
BRANCH  34  35
ATOM     35  C   UNL A   1      32.461  33.396  27.544  1.00  0.00     0.116 C 
BRANCH  35  36
ATOM     36  N   UNL A   1      32.445  34.772  28.003  1.00  0.00    -0.352 N 
ATOM     37  C   UNL A   1      33.188  35.393  28.975  1.00  0.00     0.251 C 
ATOM     38  H   UNL A   1      31.796  35.354  27.544  1.00  0.00     0.163 HD
ATOM     39  O   UNL A   1      32.901  36.535  29.323  1.00  0.00    -0.269 OA
BRANCH  37  40
ATOM     40  C   UNL A   1      34.325  34.702  29.627  1.00  0.00     0.039 A 
ATOM     41  C   UNL A   1      34.081  33.993  30.809  1.00  0.00     0.014 A 
ATOM     42  C   UNL A   1      35.628  34.795  29.130  1.00  0.00     0.014 A 
ATOM     43  C   UNL A   1      35.129  33.340  31.463  1.00  0.00     0.010 A 
ATOM     44  C   UNL A   1      36.664  34.096  29.752  1.00  0.00     0.010 A 
ATOM     45  C   UNL A   1      36.427  33.367  30.928  1.00  0.00    -0.014 A 
BRANCH  45  46
ATOM     46  C   UNL A   1      37.544  32.655  31.600  1.00  0.00     0.031 A 
ATOM     47  C   UNL A   1      38.218  31.494  30.924  1.00  0.00     0.074 A 
ATOM     48  C   UNL A   1      37.924  33.025  32.838  1.00  0.00     0.049 A 
ATOM     49  N   UNL A   1      39.171  30.713  31.372  1.00  0.00    -0.248 NA
ATOM     50  C   UNL A   1      37.747  31.151  29.575  1.00  0.00     0.031 C 
ATOM     51  C   UNL A   1      37.329  34.112  33.615  1.00  0.00     0.029 A 
ATOM     52  N   UNL A   1      38.897  32.518  33.664  1.00  0.00    -0.354 N 
ATOM     53  C   UNL A   1      39.399  29.781  30.370  1.00  0.00     0.074 A 
ATOM     54  C   UNL A   1      38.460  30.067  29.306  1.00  0.00     0.031 C 
ATOM     55  C   UNL A   1      37.961  34.203  34.797  1.00  0.00     0.029 A 
ATOM     56  C   UNL A   1      38.984  33.163  34.873  1.00  0.00     0.049 A 
ATOM     57  H   UNL A   1      39.479  31.765  33.413  1.00  0.00     0.167 HD
ATOM     58  C   UNL A   1      40.320  28.788  30.331  1.00  0.00     0.037 A 
ATOM     59  C   UNL A   1      39.792  32.939  35.926  1.00  0.00     0.037 A 
ATOM     60  C   UNL A   1      41.276  28.522  31.373  1.00  0.00     0.049 A 
ATOM     61  C   UNL A   1      40.811  31.835  35.854  1.00  0.00     0.074 A 
ATOM     62  C   UNL A   1      42.285  27.575  31.399  1.00  0.00     0.029 A 
ATOM     63  N   UNL A   1      41.343  29.209  32.576  1.00  0.00    -0.354 N 
ATOM     64  N   UNL A   1      41.052  30.994  34.879  1.00  0.00    -0.248 NA
ATOM     65  C   UNL A   1      41.675  31.653  37.031  1.00  0.00     0.031 C 
ATOM     66  C   UNL A   1      42.942  27.667  32.631  1.00  0.00     0.029 A 
ATOM     67  C   UNL A   1      42.366  28.696  33.357  1.00  0.00     0.049 A 
ATOM     68  H   UNL A   1      40.750  29.951  32.836  1.00  0.00     0.167 HD
ATOM     69  C   UNL A   1      42.106  30.201  35.310  1.00  0.00     0.074 A 
ATOM     70  C   UNL A   1      42.468  30.667  36.632  1.00  0.00     0.031 C 
ATOM     71  C   UNL A   1      42.719  29.177  34.668  1.00  0.00     0.037 A 
BRANCH  58  72
ATOM     72  C   UNL A   1      40.343  27.914  29.111  1.00  0.00     0.064 A 
ATOM     73  C   UNL A   1      41.097  28.256  27.979  1.00  0.00     0.173 A 
ATOM     74  C   UNL A   1      39.635  26.704  29.089  1.00  0.00     0.173 A 
ATOM     75  F   UNL A   1      41.784  29.407  27.948  1.00  0.00    -0.203 F 
ATOM     76  C   UNL A   1      41.120  27.430  26.859  1.00  0.00     0.198 A 
ATOM     77  C   UNL A   1      39.680  25.868  27.976  1.00  0.00     0.198 A 
ATOM     78  F   UNL A   1      38.903  26.328  30.149  1.00  0.00    -0.203 F 
ATOM     79  F   UNL A   1      41.814  27.796  25.773  1.00  0.00    -0.200 F 
ATOM     80  C   UNL A   1      40.416  26.234  26.861  1.00  0.00     0.200 A 
ATOM     81  F   UNL A   1      39.008  24.708  27.983  1.00  0.00    -0.200 F 
ATOM     82  F   UNL A   1      40.445  25.437  25.783  1.00  0.00    -0.200 F 
ENDBRANCH  58  72
BRANCH  59  83
ATOM     83  C   UNL A   1      39.691  33.800  37.131  1.00  0.00     0.064 A 
ATOM     84  C   UNL A   1      38.893  33.420  38.218  1.00  0.00     0.173 A 
ATOM     85  C   UNL A   1      40.386  35.014  37.221  1.00  0.00     0.173 A 
ATOM     86  F   UNL A   1      38.194  32.277  38.167  1.00  0.00    -0.203 F 
ATOM     87  C   UNL A   1      38.784  34.229  39.347  1.00  0.00     0.198 A 
ATOM     88  C   UNL A   1      40.294  35.811  38.360  1.00  0.00     0.198 A 
ATOM     89  F   UNL A   1      41.165  35.420  36.208  1.00  0.00    -0.203 F 
ATOM     90  F   UNL A   1      37.986  33.859  40.359  1.00  0.00    -0.200 F 
ATOM     91  C   UNL A   1      39.488  35.421  39.419  1.00  0.00     0.200 A 
ATOM     92  F   UNL A   1      40.986  36.957  38.432  1.00  0.00    -0.200 F 
ATOM     93  F   UNL A   1      39.387  36.197  40.508  1.00  0.00    -0.200 F 
ENDBRANCH  59  83
BRANCH  71  94
ATOM     94  C   UNL A   1      43.861  28.510  35.372  1.00  0.00     0.064 A 
ATOM     95  C   UNL A   1      43.649  27.474  36.293  1.00  0.00     0.173 A 
ATOM     96  C   UNL A   1      45.183  28.886  35.095  1.00  0.00     0.173 A 
ATOM     97  F   UNL A   1      42.401  27.091  36.603  1.00  0.00    -0.203 F 
ATOM     98  C   UNL A   1      44.721  26.849  36.925  1.00  0.00     0.198 A 
ATOM     99  C   UNL A   1      46.254  28.244  35.711  1.00  0.00     0.198 A 
ATOM    100  F   UNL A   1      45.437  29.870  34.219  1.00  0.00    -0.203 F 
ATOM    101  F   UNL A   1      44.495  25.887  37.830  1.00  0.00    -0.200 F 
ATOM    102  C   UNL A   1      46.022  27.230  36.628  1.00  0.00     0.200 A 
ATOM    103  F   UNL A   1      47.510  28.607  35.419  1.00  0.00    -0.200 F 
ATOM    104  F   UNL A   1      47.052  26.625  37.235  1.00  0.00    -0.200 F 
ENDBRANCH  71  94
ENDBRANCH  45  46
ENDBRANCH  37  40
ENDBRANCH  35  36
ENDBRANCH  34  35
ENDBRANCH  33  34
ENDBRANCH  32  33
ENDBRANCH   1  32
TORSDOF 18
ENDMDL
MODEL 3
REMARK VINA RESULT:     -11.9      4.983     10.701
REMARK SMILES CCOC(=O)c1c(NC(=O)[C@@H]2[C@@H]3CC[C@@H](C3)[C@@H]2C(=O)NCCCCCCNC(=O)c2ccc(-c3c4nc(c(-c5c(F)c(F)c(F)c(F)c5F)c5ccc([nH]5)c(-c5c(F)c(F)c(F)c(F)c5F)c5nc(c(-c6c(F)c(F)c(F)c(F)c6F)c6ccc3[nH]6)C=C5)C=C4)cc2)sc2c1CCCC2
REMARK SMILES IDX 22 1 21 2 20 3 18 4 19 5 17 7 11 8 12 9 13 10 16 11 15 12
REMARK SMILES IDX 14 13 9 14 8 15 10 17 7 18 6 19 95 20 93 21 94 22 96 23
REMARK SMILES IDX 99 24 97 25 98 26 4 27 5 28 3 29 2 30 1 31 23 32 24 33 25 34
REMARK SMILES IDX 26 35 27 36 28 37 29 39 30 40 31 41 92 42 32 43 91 44 33 45
REMARK SMILES IDX 34 46 35 47 85 48 36 49 90 50 84 51 86 52 37 53 89 54 83 55
REMARK SMILES IDX 82 56 38 58 70 59 50 60 69 61 51 62 54 63 68 64 87 65 52 66
REMARK SMILES IDX 53 67 67 69 88 70 55 71 39 72 40 73 48 74 41 75 42 76 46 77
REMARK SMILES IDX 49 78 43 79 44 80 47 81 45 82 71 83 72 84 80 85 73 86 74 87
REMARK SMILES IDX 78 88 81 89 75 90 76 91 79 92 77 93 56 94 57 95 65 96 58 97
REMARK SMILES IDX 59 98 63 99 66 100 60 101 61 102 64 103 62 104
REMARK H PARENT 20 6 8 16 27 38 86 57 54 68
REMARK Flexibility Score: inf
ROOT
ATOM      1  C   UNL A   1      38.153  24.088  26.385  1.00  0.00     0.021 C 
ENDROOT
BRANCH   1   2
ATOM      2  C   UNL A   1      36.929  23.524  25.661  1.00  0.00     0.116 C 
BRANCH   2   3
ATOM      3  N   UNL A   1      35.846  23.317  26.587  1.00  0.00    -0.356 N 
ATOM      4  C   UNL A   1      34.502  23.295  26.443  1.00  0.00     0.224 C 
ATOM      5  O   UNL A   1      33.907  22.862  27.438  1.00  0.00    -0.275 OA
ATOM      6  H   UNL A   1      36.145  23.161  27.512  1.00  0.00     0.163 HD
BRANCH   4   7
ATOM      7  C   UNL A   1      33.750  23.576  25.129  1.00  0.00     0.094 C 
ATOM      8  C   UNL A   1      32.258  23.953  25.004  1.00  0.00     0.094 C 
ATOM      9  C   UNL A   1      31.617  22.737  24.287  1.00  0.00     0.002 C 
ATOM     10  C   UNL A   1      31.771  21.427  25.077  1.00  0.00     0.005 C 
ATOM     11  C   UNL A   1      32.652  22.558  23.176  1.00  0.00     0.009 C 
ATOM     12  C   UNL A   1      33.801  22.319  24.170  1.00  0.00     0.002 C 
ATOM     13  C   UNL A   1      33.239  21.058  24.854  1.00  0.00     0.005 C 
BRANCH   8  14
ATOM     14  C   UNL A   1      31.407  24.527  26.101  1.00  0.00     0.229 C 
ATOM     15  N   UNL A   1      30.523  25.547  25.859  1.00  0.00    -0.317 N 
ATOM     16  H   UNL A   1      29.830  25.640  26.552  1.00  0.00     0.170 HD
ATOM     17  O   UNL A   1      31.457  24.082  27.250  1.00  0.00    -0.274 OA
BRANCH  15  18
ATOM     18  C   UNL A   1      30.412  26.472  24.834  1.00  0.00     0.110 A 
ATOM     19  C   UNL A   1      31.112  27.516  24.239  1.00  0.00     0.098 A 
ATOM     20  C   UNL A   1      30.184  28.403  23.549  1.00  0.00    -0.017 A 
ATOM     21  S   UNL A   1      28.843  26.315  24.142  1.00  0.00    -0.122 S 
ATOM     22  C   UNL A   1      28.904  27.886  23.519  1.00  0.00     0.011 A 
ATOM     23  C   UNL A   1      30.506  29.704  22.861  1.00  0.00     0.038 C 
ATOM     24  C   UNL A   1      27.696  28.581  22.972  1.00  0.00     0.047 C 
ATOM     25  C   UNL A   1      29.250  30.543  22.577  1.00  0.00     0.005 C 
ATOM     26  C   UNL A   1      28.109  29.693  22.003  1.00  0.00     0.006 C 
BRANCH  19  27
ATOM     27  C   UNL A   1      32.559  27.725  24.237  1.00  0.00     0.341 C 
ATOM     28  O   UNL A   1      33.107  28.603  24.888  1.00  0.00    -0.246 OA
BRANCH  27  29
ATOM     29  O   UNL A   1      33.207  26.813  23.457  1.00  0.00    -0.462 OA
BRANCH  29  30
ATOM     30  C   UNL A   1      33.117  26.968  22.031  1.00  0.00     0.230 C 
ATOM     31  C   UNL A   1      32.678  25.662  21.393  1.00  0.00     0.049 C 
ENDBRANCH  29  30
ENDBRANCH  27  29
ENDBRANCH  19  27
ENDBRANCH  15  18
ENDBRANCH   8  14
ENDBRANCH   4   7
ENDBRANCH   2   3
ENDBRANCH   1   2
BRANCH   1  32
ATOM     32  C   UNL A   1      39.458  23.335  26.097  1.00  0.00     0.002 C 
BRANCH  32  33
ATOM     33  C   UNL A   1      39.652  22.027  26.877  1.00  0.00     0.002 C 
BRANCH  33  34
ATOM     34  C   UNL A   1      39.868  20.762  26.039  1.00  0.00     0.021 C 
BRANCH  34  35
ATOM     35  C   UNL A   1      40.429  19.549  26.778  1.00  0.00     0.116 C 
BRANCH  35  36
ATOM     36  N   UNL A   1      41.618  19.013  26.140  1.00  0.00    -0.352 N 
ATOM     37  C   UNL A   1      42.758  19.645  25.711  1.00  0.00     0.251 C 
ATOM     38  H   UNL A   1      41.604  18.040  25.990  1.00  0.00     0.163 HD
ATOM     39  O   UNL A   1      43.581  19.027  25.043  1.00  0.00    -0.269 OA
BRANCH  37  40
ATOM     40  C   UNL A   1      43.006  21.072  26.027  1.00  0.00     0.039 A 
ATOM     41  C   UNL A   1      43.201  21.432  27.365  1.00  0.00     0.014 A 
ATOM     42  C   UNL A   1      42.984  22.060  25.038  1.00  0.00     0.014 A 
ATOM     43  C   UNL A   1      43.422  22.769  27.706  1.00  0.00     0.010 A 
ATOM     44  C   UNL A   1      43.261  23.387  25.371  1.00  0.00     0.010 A 
ATOM     45  C   UNL A   1      43.476  23.756  26.709  1.00  0.00    -0.014 A 
BRANCH  45  46
ATOM     46  C   UNL A   1      43.736  25.176  27.056  1.00  0.00     0.031 A 
ATOM     47  C   UNL A   1      45.104  25.768  26.854  1.00  0.00     0.074 A 
ATOM     48  C   UNL A   1      42.754  25.925  27.594  1.00  0.00     0.049 A 
ATOM     49  N   UNL A   1      45.539  26.969  27.148  1.00  0.00    -0.248 NA
ATOM     50  C   UNL A   1      46.122  24.889  26.262  1.00  0.00     0.031 C 
ATOM     51  C   UNL A   1      41.395  25.461  27.872  1.00  0.00     0.029 A 
ATOM     52  N   UNL A   1      42.752  27.233  28.013  1.00  0.00    -0.354 N 
ATOM     53  C   UNL A   1      46.880  26.982  26.793  1.00  0.00     0.074 A 
ATOM     54  C   UNL A   1      47.200  25.659  26.298  1.00  0.00     0.031 C 
ATOM     55  C   UNL A   1      40.685  26.472  28.398  1.00  0.00     0.029 A 
ATOM     56  C   UNL A   1      41.546  27.646  28.523  1.00  0.00     0.049 A 
ATOM     57  H   UNL A   1      43.541  27.819  27.952  1.00  0.00     0.167 HD
ATOM     58  C   UNL A   1      47.763  28.008  26.855  1.00  0.00     0.037 A 
ATOM     59  C   UNL A   1      41.177  28.834  29.036  1.00  0.00     0.037 A 
ATOM     60  C   UNL A   1      47.440  29.333  27.316  1.00  0.00     0.049 A 
ATOM     61  C   UNL A   1      42.174  29.959  29.088  1.00  0.00     0.074 A 
ATOM     62  C   UNL A   1      48.252  30.453  27.363  1.00  0.00     0.029 A 
ATOM     63  N   UNL A   1      46.202  29.717  27.809  1.00  0.00    -0.354 N 
ATOM     64  N   UNL A   1      43.425  29.974  28.701  1.00  0.00    -0.248 NA
ATOM     65  C   UNL A   1      41.702  31.237  29.645  1.00  0.00     0.031 C 
ATOM     66  C   UNL A   1      47.514  31.508  27.913  1.00  0.00     0.029 A 
ATOM     67  C   UNL A   1      46.232  31.052  28.175  1.00  0.00     0.049 A 
ATOM     68  H   UNL A   1      45.418  29.127  27.887  1.00  0.00     0.167 HD
ATOM     69  C   UNL A   1      43.884  31.261  28.942  1.00  0.00     0.074 A 
ATOM     70  C   UNL A   1      42.774  32.005  29.501  1.00  0.00     0.031 C 
ATOM     71  C   UNL A   1      45.117  31.780  28.722  1.00  0.00     0.037 A 
BRANCH  58  72
ATOM     72  C   UNL A   1      49.169  27.740  26.406  1.00  0.00     0.064 A 
ATOM     73  C   UNL A   1      50.207  27.537  27.327  1.00  0.00     0.173 A 
ATOM     74  C   UNL A   1      49.474  27.646  25.040  1.00  0.00     0.173 A 
ATOM     75  F   UNL A   1      49.967  27.625  28.644  1.00  0.00    -0.203 F 
ATOM     76  C   UNL A   1      51.505  27.276  26.898  1.00  0.00     0.198 A 
ATOM     77  C   UNL A   1      50.769  27.360  24.614  1.00  0.00     0.198 A 
ATOM     78  F   UNL A   1      48.516  27.826  24.119  1.00  0.00    -0.203 F 
ATOM     79  F   UNL A   1      52.489  27.126  27.795  1.00  0.00    -0.200 F 
ATOM     80  C   UNL A   1      51.784  27.182  25.541  1.00  0.00     0.200 A 
ATOM     81  F   UNL A   1      51.035  27.260  23.304  1.00  0.00    -0.200 F 
ATOM     82  F   UNL A   1      53.033  26.926  25.130  1.00  0.00    -0.200 F 
ENDBRANCH  58  72
BRANCH  59  83
ATOM     83  C   UNL A   1      39.786  29.030  29.517  1.00  0.00     0.064 A 
ATOM     84  C   UNL A   1      39.453  28.802  30.859  1.00  0.00     0.173 A 
ATOM     85  C   UNL A   1      38.767  29.449  28.651  1.00  0.00     0.173 A 
ATOM     86  F   UNL A   1      40.392  28.380  31.719  1.00  0.00    -0.203 F 
ATOM     87  C   UNL A   1      38.148  28.972  31.315  1.00  0.00     0.198 A 
ATOM     88  C   UNL A   1      37.466  29.640  29.113  1.00  0.00     0.198 A 
ATOM     89  F   UNL A   1      39.036  29.683  27.359  1.00  0.00    -0.203 F 
ATOM     90  F   UNL A   1      37.848  28.712  32.595  1.00  0.00    -0.200 F 
ATOM     91  C   UNL A   1      37.157  29.396  30.443  1.00  0.00     0.200 A 
ATOM     92  F   UNL A   1      36.513  30.063  28.270  1.00  0.00    -0.200 F 
ATOM     93  F   UNL A   1      35.902  29.565  30.883  1.00  0.00    -0.200 F 
ENDBRANCH  59  83
BRANCH  71  94
ATOM     94  C   UNL A   1      45.322  33.226  29.058  1.00  0.00     0.064 A 
ATOM     95  C   UNL A   1      45.046  34.241  28.130  1.00  0.00     0.173 A 
ATOM     96  C   UNL A   1      45.765  33.602  30.335  1.00  0.00     0.173 A 
ATOM     97  F   UNL A   1      44.637  33.929  26.891  1.00  0.00    -0.203 F 
ATOM     98  C   UNL A   1      45.223  35.581  28.464  1.00  0.00     0.198 A 
ATOM     99  C   UNL A   1      45.919  34.944  30.672  1.00  0.00     0.198 A 
ATOM    100  F   UNL A   1      46.039  32.668  31.258  1.00  0.00    -0.203 F 
ATOM    101  F   UNL A   1      44.990  36.533  27.550  1.00  0.00    -0.200 F 
ATOM    102  C   UNL A   1      45.652  35.931  29.736  1.00  0.00     0.200 A 
ATOM    103  F   UNL A   1      46.326  35.282  31.904  1.00  0.00    -0.200 F 
ATOM    104  F   UNL A   1      45.818  37.222  30.055  1.00  0.00    -0.200 F 
ENDBRANCH  71  94
ENDBRANCH  45  46
ENDBRANCH  37  40
ENDBRANCH  35  36
ENDBRANCH  34  35
ENDBRANCH  33  34
ENDBRANCH  32  33
ENDBRANCH   1  32
TORSDOF 18
ENDMDL
