MODEL 1
REMARK VINA RESULT:     -12.5      0.000      0.000
REMARK SMILES O=C(NCCCCCCNC(=O)[C@@H]1C[C@@H]1C(=O)N1CCN(c2ncc(C(F)(F)F)cc2Cl)CC1)c1ccc(-c2c3nc(c(-c4c(F)c(F)c(F)c(F)c4F)c4ccc([nH]4)c(-c4c(F)c(F)c(F)c(F)c4F)c4nc(c(-c5c(F)c(F)c(F)c(F)c5F)c5ccc2[nH]5)C=C4)C=C3)cc1
REMARK SMILES IDX 7 1 6 2 5 3 4 4 3 5 1 6 2 7 35 9 36 10 97 11 37 12 96 13
REMARK SMILES IDX 38 14 39 15 40 16 90 17 41 18 95 19 89 20 91 21 42 22 94 23
REMARK SMILES IDX 88 24 87 25 43 27 75 28 55 29 74 30 56 31 59 32 73 33 92 34
REMARK SMILES IDX 57 35 58 36 72 38 93 39 60 40 44 41 45 42 53 43 46 44 47 45
REMARK SMILES IDX 51 46 54 47 48 48 49 49 52 50 50 51 76 52 77 53 85 54 78 55
REMARK SMILES IDX 79 56 83 57 86 58 80 59 81 60 84 61 82 62 61 63 62 64 70 65
REMARK SMILES IDX 63 66 64 67 68 68 71 69 65 70 66 71 69 72 67 73 8 74 9 75
REMARK SMILES IDX 10 76 11 77 12 79 13 80 14 81 15 82 16 83 17 84 18 85 19 86
REMARK SMILES IDX 34 87 20 88 33 89 21 90 22 91 23 92 31 93 24 94 30 95 32 96
REMARK SMILES IDX 25 97 26 98 27 99 28 100 29 101
REMARK H PARENT 3 8 91 26 59 37 10 78
REMARK Flexibility Score: inf
ROOT
ATOM      1  C   UNL A   1      35.589  33.504  28.711  1.00  0.00     0.002 C 
ENDROOT
BRANCH   1   2
ATOM      2  C   UNL A   1      34.226  33.760  29.361  1.00  0.00     0.002 C 
BRANCH   2   3
ATOM      3  C   UNL A   1      33.471  34.969  28.811  1.00  0.00     0.021 C 
BRANCH   3   4
ATOM      4  C   UNL A   1      33.582  36.225  29.666  1.00  0.00     0.116 C 
BRANCH   4   5
ATOM      5  N   UNL A   1      32.513  36.334  30.646  1.00  0.00    -0.352 N 
ATOM      6  O   UNL A   1      31.403  35.848  32.555  1.00  0.00    -0.269 OA
ATOM      7  C   UNL A   1      32.442  35.788  31.905  1.00  0.00     0.251 C 
ATOM      8  H   UNL A   1      31.736  36.873  30.371  1.00  0.00     0.163 HD
BRANCH   7   9
ATOM      9  C   UNL A   1      33.623  35.093  32.459  1.00  0.00     0.039 A 
ATOM     10  C   UNL A   1      34.861  35.738  32.518  1.00  0.00     0.014 A 
ATOM     11  C   UNL A   1      33.496  33.772  32.895  1.00  0.00     0.014 A 
ATOM     12  C   UNL A   1      35.996  35.015  32.855  1.00  0.00     0.010 A 
ATOM     13  C   UNL A   1      34.628  33.073  33.325  1.00  0.00     0.010 A 
ATOM     14  C   UNL A   1      35.894  33.677  33.271  1.00  0.00    -0.014 A 
BRANCH  14  15
ATOM     15  C   UNL A   1      37.124  32.953  33.681  1.00  0.00     0.031 A 
ATOM     16  C   UNL A   1      37.788  31.960  32.768  1.00  0.00     0.074 A 
ATOM     17  C   UNL A   1      37.668  33.236  34.881  1.00  0.00     0.049 A 
ATOM     18  N   UNL A   1      38.894  31.281  32.952  1.00  0.00    -0.248 NA
ATOM     19  C   UNL A   1      37.124  31.682  31.486  1.00  0.00     0.031 C 
ATOM     20  C   UNL A   1      37.106  34.171  35.857  1.00  0.00     0.029 A 
ATOM     21  N   UNL A   1      38.821  32.790  35.473  1.00  0.00    -0.354 N 
ATOM     22  C   UNL A   1      39.043  30.481  31.826  1.00  0.00     0.074 A 
ATOM     23  C   UNL A   1      37.903  30.740  30.972  1.00  0.00     0.031 C 
ATOM     24  C   UNL A   1      37.944  34.277  36.898  1.00  0.00     0.029 A 
ATOM     25  C   UNL A   1      39.069  33.371  36.693  1.00  0.00     0.049 A 
ATOM     26  H   UNL A   1      39.414  32.118  35.065  1.00  0.00     0.167 HD
ATOM     27  C   UNL A   1      40.044  29.614  31.532  1.00  0.00     0.037 A 
ATOM     28  C   UNL A   1      40.083  33.190  37.556  1.00  0.00     0.037 A 
ATOM     29  C   UNL A   1      41.189  29.379  32.376  1.00  0.00     0.049 A 
ATOM     30  C   UNL A   1      41.171  32.215  37.207  1.00  0.00     0.074 A 
ATOM     31  C   UNL A   1      42.281  28.562  32.142  1.00  0.00     0.029 A 
ATOM     32  N   UNL A   1      41.387  29.960  33.621  1.00  0.00    -0.354 N 
ATOM     33  N   UNL A   1      41.324  31.500  36.119  1.00  0.00    -0.248 NA
ATOM     34  C   UNL A   1      42.227  32.022  38.208  1.00  0.00     0.031 C 
ATOM     35  C   UNL A   1      43.115  28.609  33.265  1.00  0.00     0.029 A 
ATOM     36  C   UNL A   1      42.570  29.497  34.178  1.00  0.00     0.049 A 
ATOM     37  H   UNL A   1      40.776  30.605  34.046  1.00  0.00     0.167 HD
ATOM     38  C   UNL A   1      42.502  30.788  36.294  1.00  0.00     0.074 A 
ATOM     39  C   UNL A   1      43.034  31.175  37.586  1.00  0.00     0.031 C 
ATOM     40  C   UNL A   1      43.088  29.894  35.462  1.00  0.00     0.037 A 
BRANCH  27  41
ATOM     41  C   UNL A   1      39.938  28.833  30.253  1.00  0.00     0.064 A 
ATOM     42  C   UNL A   1      40.466  29.312  29.045  1.00  0.00     0.173 A 
ATOM     43  C   UNL A   1      39.339  27.563  30.248  1.00  0.00     0.173 A 
ATOM     44  F   UNL A   1      41.041  30.523  28.993  1.00  0.00    -0.203 F 
ATOM     45  C   UNL A   1      40.373  28.562  27.874  1.00  0.00     0.198 A 
ATOM     46  C   UNL A   1      39.273  26.804  29.081  1.00  0.00     0.198 A 
ATOM     47  F   UNL A   1      38.825  27.053  31.376  1.00  0.00    -0.203 F 
ATOM     48  F   UNL A   1      40.844  29.060  26.723  1.00  0.00    -0.200 F 
ATOM     49  C   UNL A   1      39.784  27.307  27.894  1.00  0.00     0.200 A 
ATOM     50  F   UNL A   1      38.715  25.586  29.106  1.00  0.00    -0.200 F 
ATOM     51  F   UNL A   1      39.702  26.584  26.769  1.00  0.00    -0.200 F 
ENDBRANCH  27  41
BRANCH  28  52
ATOM     52  C   UNL A   1      40.120  33.960  38.824  1.00  0.00     0.064 A 
ATOM     53  C   UNL A   1      40.787  35.191  38.899  1.00  0.00     0.173 A 
ATOM     54  C   UNL A   1      39.479  33.493  39.981  1.00  0.00     0.173 A 
ATOM     55  F   UNL A   1      41.429  35.670  37.824  1.00  0.00    -0.203 F 
ATOM     56  C   UNL A   1      40.824  35.917  40.087  1.00  0.00     0.198 A 
ATOM     57  C   UNL A   1      39.490  34.235  41.160  1.00  0.00     0.198 A 
ATOM     58  F   UNL A   1      38.822  32.324  39.959  1.00  0.00    -0.203 F 
ATOM     59  F   UNL A   1      41.502  37.072  40.142  1.00  0.00    -0.200 F 
ATOM     60  C   UNL A   1      40.169  35.443  41.214  1.00  0.00     0.200 A 
ATOM     61  F   UNL A   1      38.841  33.781  42.240  1.00  0.00    -0.200 F 
ATOM     62  F   UNL A   1      40.196  36.147  42.353  1.00  0.00    -0.200 F 
ENDBRANCH  28  52
BRANCH  40  63
ATOM     63  C   UNL A   1      44.392  29.302  35.911  1.00  0.00     0.064 A 
ATOM     64  C   UNL A   1      44.448  28.090  36.616  1.00  0.00     0.173 A 
ATOM     65  C   UNL A   1      45.601  29.950  35.620  1.00  0.00     0.173 A 
ATOM     66  F   UNL A   1      43.318  27.441  36.933  1.00  0.00    -0.203 F 
ATOM     67  C   UNL A   1      45.666  27.566  37.041  1.00  0.00     0.198 A 
ATOM     68  C   UNL A   1      46.819  29.407  36.019  1.00  0.00     0.198 A 
ATOM     69  F   UNL A   1      45.603  31.109  34.943  1.00  0.00    -0.203 F 
ATOM     70  F   UNL A   1      45.691  26.438  37.763  1.00  0.00    -0.200 F 
ATOM     71  C   UNL A   1      46.850  28.222  36.738  1.00  0.00     0.200 A 
ATOM     72  F   UNL A   1      47.964  30.036  35.716  1.00  0.00    -0.200 F 
ATOM     73  F   UNL A   1      48.021  27.716  37.148  1.00  0.00    -0.200 F 
ENDBRANCH  40  63
ENDBRANCH  14  15
ENDBRANCH   7   9
ENDBRANCH   4   5
ENDBRANCH   3   4
ENDBRANCH   2   3
ENDBRANCH   1   2
BRANCH   1  74
ATOM     74  C   UNL A   1      35.701  32.186  27.928  1.00  0.00     0.021 C 
BRANCH  74  75
ATOM     75  C   UNL A   1      34.354  31.525  27.628  1.00  0.00     0.116 C 
BRANCH  75  76
ATOM     76  N   UNL A   1      34.582  30.306  26.878  1.00  0.00    -0.356 N 
ATOM     77  C   UNL A   1      33.871  29.142  26.932  1.00  0.00     0.223 C 
ATOM     78  H   UNL A   1      35.344  30.318  26.254  1.00  0.00     0.163 HD
ATOM     79  O   UNL A   1      34.444  28.074  26.718  1.00  0.00    -0.275 OA
BRANCH  77  80
ATOM     80  C   UNL A   1      32.406  29.206  27.112  1.00  0.00     0.091 C 
ATOM     81  C   UNL A   1      31.617  27.935  27.279  1.00  0.00     0.028 C 
ATOM     82  C   UNL A   1      31.444  28.769  26.028  1.00  0.00     0.092 C 
BRANCH  82  83
ATOM     83  C   UNL A   1      31.781  28.177  24.701  1.00  0.00     0.226 C 
ATOM     84  O   UNL A   1      32.194  28.902  23.804  1.00  0.00    -0.275 OA
ATOM     85  N   UNL A   1      31.950  26.805  24.716  1.00  0.00    -0.339 N 
ATOM     86  C   UNL A   1      33.207  26.246  24.201  1.00  0.00     0.141 C 
ATOM     87  C   UNL A   1      30.802  25.926  24.500  1.00  0.00     0.141 C 
ATOM     88  C   UNL A   1      33.472  24.824  24.760  1.00  0.00     0.139 C 
ATOM     89  C   UNL A   1      31.041  24.556  25.135  1.00  0.00     0.139 C 
ATOM     90  N   UNL A   1      32.270  24.006  24.564  1.00  0.00    -0.352 N 
BRANCH  90  91
ATOM     91  C   UNL A   1      32.364  22.650  24.358  1.00  0.00     0.147 A 
ATOM     92  N   UNL A   1      32.055  22.179  23.125  1.00  0.00    -0.237 NA
ATOM     93  C   UNL A   1      32.741  21.769  25.390  1.00  0.00     0.084 A 
ATOM     94  C   UNL A   1      32.150  20.844  22.903  1.00  0.00     0.126 A 
ATOM     95  C   UNL A   1      32.822  20.402  25.136  1.00  0.00     0.039 A 
ATOM     96  Cl  UNL A   1      33.025  22.285  27.019  1.00  0.00    -0.080 Cl
ATOM     97  C   UNL A   1      32.524  19.919  23.864  1.00  0.00     0.075 A 
BRANCH  97  98
ATOM     98  C   UNL A   1      32.588  18.463  23.530  1.00  0.00     0.417 C 
ATOM     99  F   UNL A   1      33.844  17.954  23.650  1.00  0.00    -0.166 F 
ATOM    100  F   UNL A   1      31.798  17.709  24.341  1.00  0.00    -0.166 F 
ATOM    101  F   UNL A   1      32.191  18.185  22.258  1.00  0.00    -0.166 F 
ENDBRANCH  97  98
ENDBRANCH  90  91
ENDBRANCH  82  83
ENDBRANCH  77  80
ENDBRANCH  75  76
ENDBRANCH  74  75
ENDBRANCH   1  74
TORSDOF 16
ENDMDL
MODEL 2
REMARK VINA RESULT:     -12.0      7.013     12.155
REMARK SMILES O=C(NCCCCCCNC(=O)[C@@H]1C[C@@H]1C(=O)N1CCN(c2ncc(C(F)(F)F)cc2Cl)CC1)c1ccc(-c2c3nc(c(-c4c(F)c(F)c(F)c(F)c4F)c4ccc([nH]4)c(-c4c(F)c(F)c(F)c(F)c4F)c4nc(c(-c5c(F)c(F)c(F)c(F)c5F)c5ccc2[nH]5)C=C4)C=C3)cc1
REMARK SMILES IDX 7 1 6 2 5 3 4 4 3 5 1 6 2 7 35 9 36 10 97 11 37 12 96 13
REMARK SMILES IDX 38 14 39 15 40 16 90 17 41 18 95 19 89 20 91 21 42 22 94 23
REMARK SMILES IDX 88 24 87 25 43 27 75 28 55 29 74 30 56 31 59 32 73 33 92 34
REMARK SMILES IDX 57 35 58 36 72 38 93 39 60 40 44 41 45 42 53 43 46 44 47 45
REMARK SMILES IDX 51 46 54 47 48 48 49 49 52 50 50 51 76 52 77 53 85 54 78 55
REMARK SMILES IDX 79 56 83 57 86 58 80 59 81 60 84 61 82 62 61 63 62 64 70 65
REMARK SMILES IDX 63 66 64 67 68 68 71 69 65 70 66 71 69 72 67 73 8 74 9 75
REMARK SMILES IDX 10 76 11 77 12 79 13 80 14 81 15 82 16 83 17 84 18 85 19 86
REMARK SMILES IDX 34 87 20 88 33 89 21 90 22 91 23 92 31 93 24 94 30 95 32 96
REMARK SMILES IDX 25 97 26 98 27 99 28 100 29 101
REMARK H PARENT 3 8 91 26 59 37 10 78
REMARK Flexibility Score: inf
ROOT
ATOM      1  C   UNL A   1      40.045  22.590  26.580  1.00  0.00     0.002 C 
ENDROOT
BRANCH   1   2
ATOM      2  C   UNL A   1      40.821  21.927  27.721  1.00  0.00     0.002 C 
BRANCH   2   3
ATOM      3  C   UNL A   1      41.181  20.462  27.485  1.00  0.00     0.021 C 
BRANCH   3   4
ATOM      4  C   UNL A   1      41.016  19.995  26.044  1.00  0.00     0.116 C 
BRANCH   4   5
ATOM      5  N   UNL A   1      42.145  19.210  25.574  1.00  0.00    -0.352 N 
ATOM      6  O   UNL A   1      44.211  18.866  24.721  1.00  0.00    -0.269 OA
ATOM      7  C   UNL A   1      43.412  19.633  25.248  1.00  0.00     0.251 C 
ATOM      8  H   UNL A   1      41.981  18.243  25.477  1.00  0.00     0.163 HD
BRANCH   7   9
ATOM      9  C   UNL A   1      43.792  21.038  25.507  1.00  0.00     0.039 A 
ATOM     10  C   UNL A   1      44.467  21.383  26.680  1.00  0.00     0.014 A 
ATOM     11  C   UNL A   1      43.444  22.022  24.579  1.00  0.00     0.014 A 
ATOM     12  C   UNL A   1      44.644  22.722  27.001  1.00  0.00     0.010 A 
ATOM     13  C   UNL A   1      43.710  23.365  24.862  1.00  0.00     0.010 A 
ATOM     14  C   UNL A   1      44.276  23.730  26.093  1.00  0.00    -0.014 A 
BRANCH  14  15
ATOM     15  C   UNL A   1      44.536  25.148  26.446  1.00  0.00     0.031 A 
ATOM     16  C   UNL A   1      43.463  26.013  27.048  1.00  0.00     0.074 A 
ATOM     17  C   UNL A   1      45.775  25.643  26.257  1.00  0.00     0.049 A 
ATOM     18  N   UNL A   1      43.539  27.255  27.461  1.00  0.00    -0.248 NA
ATOM     19  C   UNL A   1      42.129  25.415  27.201  1.00  0.00     0.031 C 
ATOM     20  C   UNL A   1      46.892  24.902  25.668  1.00  0.00     0.029 A 
ATOM     21  N   UNL A   1      46.311  26.867  26.561  1.00  0.00    -0.354 N 
ATOM     22  C   UNL A   1      42.263  27.592  27.895  1.00  0.00     0.074 A 
ATOM     23  C   UNL A   1      41.425  26.433  27.676  1.00  0.00     0.031 C 
ATOM     24  C   UNL A   1      47.995  25.663  25.709  1.00  0.00     0.029 A 
ATOM     25  C   UNL A   1      47.649  26.966  26.268  1.00  0.00     0.049 A 
ATOM     26  H   UNL A   1      45.788  27.605  26.951  1.00  0.00     0.167 HD
ATOM     27  C   UNL A   1      41.836  28.762  28.432  1.00  0.00     0.037 A 
ATOM     28  C   UNL A   1      48.502  27.993  26.424  1.00  0.00     0.037 A 
ATOM     29  C   UNL A   1      42.682  29.904  28.670  1.00  0.00     0.049 A 
ATOM     30  C   UNL A   1      47.997  29.279  27.011  1.00  0.00     0.074 A 
ATOM     31  C   UNL A   1      42.356  31.114  29.258  1.00  0.00     0.029 A 
ATOM     32  N   UNL A   1      44.025  29.979  28.327  1.00  0.00    -0.354 N 
ATOM     33  N   UNL A   1      46.800  29.569  27.460  1.00  0.00    -0.248 NA
ATOM     34  C   UNL A   1      48.962  30.380  27.112  1.00  0.00     0.031 C 
ATOM     35  C   UNL A   1      43.486  31.938  29.225  1.00  0.00     0.029 A 
ATOM     36  C   UNL A   1      44.533  31.224  28.666  1.00  0.00     0.049 A 
ATOM     37  H   UNL A   1      44.541  29.254  27.904  1.00  0.00     0.167 HD
ATOM     38  C   UNL A   1      46.872  30.877  27.916  1.00  0.00     0.074 A 
ATOM     39  C   UNL A   1      48.237  31.316  27.707  1.00  0.00     0.031 C 
ATOM     40  C   UNL A   1      45.895  31.645  28.456  1.00  0.00     0.037 A 
BRANCH  27  41
ATOM     41  C   UNL A   1      40.379  28.879  28.780  1.00  0.00     0.064 A 
ATOM     42  C   UNL A   1      39.910  28.677  30.086  1.00  0.00     0.173 A 
ATOM     43  C   UNL A   1      39.444  29.245  27.798  1.00  0.00     0.173 A 
ATOM     44  F   UNL A   1      40.758  28.316  31.060  1.00  0.00    -0.203 F 
ATOM     45  C   UNL A   1      38.556  28.809  30.391  1.00  0.00     0.198 A 
ATOM     46  C   UNL A   1      38.096  29.405  28.112  1.00  0.00     0.198 A 
ATOM     47  F   UNL A   1      39.840  29.458  26.535  1.00  0.00    -0.203 F 
ATOM     48  F   UNL A   1      38.125  28.566  31.635  1.00  0.00    -0.200 F 
ATOM     49  C   UNL A   1      37.652  29.179  29.406  1.00  0.00     0.200 A 
ATOM     50  F   UNL A   1      37.227  29.775  27.161  1.00  0.00    -0.200 F 
ATOM     51  F   UNL A   1      36.353  29.312  29.702  1.00  0.00    -0.200 F 
ENDBRANCH  27  41
BRANCH  28  52
ATOM     52  C   UNL A   1      49.925  27.836  26.028  1.00  0.00     0.064 A 
ATOM     53  C   UNL A   1      50.924  27.647  26.993  1.00  0.00     0.173 A 
ATOM     54  C   UNL A   1      50.315  27.857  24.680  1.00  0.00     0.173 A 
ATOM     55  F   UNL A   1      50.602  27.638  28.295  1.00  0.00    -0.203 F 
ATOM     56  C   UNL A   1      52.259  27.499  26.627  1.00  0.00     0.198 A 
ATOM     57  C   UNL A   1      51.646  27.678  24.314  1.00  0.00     0.198 A 
ATOM     58  F   UNL A   1      49.396  28.028  23.719  1.00  0.00    -0.203 F 
ATOM     59  F   UNL A   1      53.198  27.360  27.572  1.00  0.00    -0.200 F 
ATOM     60  C   UNL A   1      52.618  27.507  25.288  1.00  0.00     0.200 A 
ATOM     61  F   UNL A   1      51.985  27.668  23.018  1.00  0.00    -0.200 F 
ATOM     62  F   UNL A   1      53.902  27.355  24.935  1.00  0.00    -0.200 F 
ENDBRANCH  28  52
BRANCH  40  63
ATOM     63  C   UNL A   1      46.281  33.028  28.892  1.00  0.00     0.064 A 
ATOM     64  C   UNL A   1      46.173  34.131  28.030  1.00  0.00     0.173 A 
ATOM     65  C   UNL A   1      46.754  33.254  30.193  1.00  0.00     0.173 A 
ATOM     66  F   UNL A   1      45.743  33.963  26.771  1.00  0.00    -0.203 F 
ATOM     67  C   UNL A   1      46.555  35.403  28.446  1.00  0.00     0.198 A 
ATOM     68  C   UNL A   1      47.105  34.534  30.615  1.00  0.00     0.198 A 
ATOM     69  F   UNL A   1      46.871  32.235  31.058  1.00  0.00    -0.203 F 
ATOM     70  F   UNL A   1      46.497  36.431  27.588  1.00  0.00    -0.200 F 
ATOM     71  C   UNL A   1      47.016  35.604  29.739  1.00  0.00     0.200 A 
ATOM     72  F   UNL A   1      47.540  34.729  31.868  1.00  0.00    -0.200 F 
ATOM     73  F   UNL A   1      47.382  36.830  30.137  1.00  0.00    -0.200 F 
ENDBRANCH  40  63
ENDBRANCH  14  15
ENDBRANCH   7   9
ENDBRANCH   4   5
ENDBRANCH   3   4
ENDBRANCH   2   3
ENDBRANCH   1   2
BRANCH   1  74
ATOM     74  C   UNL A   1      39.034  23.664  27.015  1.00  0.00     0.021 C 
BRANCH  74  75
ATOM     75  C   UNL A   1      37.786  23.738  26.131  1.00  0.00     0.116 C 
BRANCH  75  76
ATOM     76  N   UNL A   1      37.858  22.698  25.124  1.00  0.00    -0.356 N 
ATOM     77  C   UNL A   1      37.180  21.514  25.090  1.00  0.00     0.223 C 
ATOM     78  H   UNL A   1      38.471  22.866  24.372  1.00  0.00     0.163 HD
ATOM     79  O   UNL A   1      37.700  20.535  24.555  1.00  0.00    -0.275 OA
BRANCH  77  80
ATOM     80  C   UNL A   1      35.785  21.474  25.575  1.00  0.00     0.091 C 
ATOM     81  C   UNL A   1      34.714  20.855  24.718  1.00  0.00     0.028 C 
ATOM     82  C   UNL A   1      34.702  22.346  24.977  1.00  0.00     0.092 C 
BRANCH  82  83
ATOM     83  C   UNL A   1      34.827  23.289  23.830  1.00  0.00     0.226 C 
ATOM     84  O   UNL A   1      35.567  23.006  22.895  1.00  0.00    -0.275 OA
ATOM     85  N   UNL A   1      33.814  24.226  23.748  1.00  0.00    -0.339 N 
ATOM     86  C   UNL A   1      33.052  24.328  22.497  1.00  0.00     0.141 C 
ATOM     87  C   UNL A   1      33.944  25.503  24.446  1.00  0.00     0.141 C 
ATOM     88  C   UNL A   1      31.667  24.991  22.725  1.00  0.00     0.139 C 
ATOM     89  C   UNL A   1      32.569  26.101  24.744  1.00  0.00     0.139 C 
ATOM     90  N   UNL A   1      31.856  26.238  23.474  1.00  0.00    -0.352 N 
BRANCH  90  91
ATOM     91  C   UNL A   1      31.008  27.305  23.294  1.00  0.00     0.147 A 
ATOM     92  N   UNL A   1      29.676  27.069  23.365  1.00  0.00    -0.237 NA
ATOM     93  C   UNL A   1      31.495  28.598  23.018  1.00  0.00     0.084 A 
ATOM     94  C   UNL A   1      28.826  28.112  23.197  1.00  0.00     0.126 A 
ATOM     95  C   UNL A   1      30.600  29.650  22.842  1.00  0.00     0.039 A 
ATOM     96  Cl  UNL A   1      33.175  28.947  22.786  1.00  0.00    -0.080 Cl
ATOM     97  C   UNL A   1      29.230  29.412  22.934  1.00  0.00     0.075 A 
BRANCH  97  98
ATOM     98  C   UNL A   1      28.219  30.498  22.751  1.00  0.00     0.417 C 
ATOM     99  F   UNL A   1      27.237  30.462  23.692  1.00  0.00    -0.166 F 
ATOM    100  F   UNL A   1      28.771  31.739  22.830  1.00  0.00    -0.166 F 
ATOM    101  F   UNL A   1      27.586  30.446  21.547  1.00  0.00    -0.166 F 
ENDBRANCH  97  98
ENDBRANCH  90  91
ENDBRANCH  82  83
ENDBRANCH  77  80
ENDBRANCH  75  76
ENDBRANCH  74  75
ENDBRANCH   1  74
TORSDOF 16
ENDMDL
MODEL 3
REMARK VINA RESULT:     -12.0      7.060     11.770
REMARK SMILES O=C(NCCCCCCNC(=O)[C@@H]1C[C@@H]1C(=O)N1CCN(c2ncc(C(F)(F)F)cc2Cl)CC1)c1ccc(-c2c3nc(c(-c4c(F)c(F)c(F)c(F)c4F)c4ccc([nH]4)c(-c4c(F)c(F)c(F)c(F)c4F)c4nc(c(-c5c(F)c(F)c(F)c(F)c5F)c5ccc2[nH]5)C=C4)C=C3)cc1
REMARK SMILES IDX 7 1 6 2 5 3 4 4 3 5 1 6 2 7 35 9 36 10 97 11 37 12 96 13
REMARK SMILES IDX 38 14 39 15 40 16 90 17 41 18 95 19 89 20 91 21 42 22 94 23
REMARK SMILES IDX 88 24 87 25 43 27 75 28 55 29 74 30 56 31 59 32 73 33 92 34
REMARK SMILES IDX 57 35 58 36 72 38 93 39 60 40 44 41 45 42 53 43 46 44 47 45
REMARK SMILES IDX 51 46 54 47 48 48 49 49 52 50 50 51 76 52 77 53 85 54 78 55
REMARK SMILES IDX 79 56 83 57 86 58 80 59 81 60 84 61 82 62 61 63 62 64 70 65
REMARK SMILES IDX 63 66 64 67 68 68 71 69 65 70 66 71 69 72 67 73 8 74 9 75
REMARK SMILES IDX 10 76 11 77 12 79 13 80 14 81 15 82 16 83 17 84 18 85 19 86
REMARK SMILES IDX 34 87 20 88 33 89 21 90 22 91 23 92 31 93 24 94 30 95 32 96
REMARK SMILES IDX 25 97 26 98 27 99 28 100 29 101
REMARK H PARENT 3 8 91 26 59 37 10 78
REMARK Flexibility Score: inf
ROOT
ATOM      1  C   UNL A   1      40.251  22.493  26.551  1.00  0.00     0.002 C 
ENDROOT
BRANCH   1   2
ATOM      2  C   UNL A   1      41.007  21.774  27.673  1.00  0.00     0.002 C 
BRANCH   2   3
ATOM      3  C   UNL A   1      41.425  20.341  27.348  1.00  0.00     0.021 C 
BRANCH   3   4
ATOM      4  C   UNL A   1      41.261  19.953  25.884  1.00  0.00     0.116 C 
BRANCH   4   5
ATOM      5  N   UNL A   1      42.388  19.187  25.376  1.00  0.00    -0.352 N 
ATOM      6  O   UNL A   1      44.451  18.878  24.503  1.00  0.00    -0.269 OA
ATOM      7  C   UNL A   1      43.654  19.622  25.065  1.00  0.00     0.251 C 
ATOM      8  H   UNL A   1      42.222  18.226  25.238  1.00  0.00     0.163 HD
BRANCH   7   9
ATOM      9  C   UNL A   1      44.038  21.014  25.383  1.00  0.00     0.039 A 
ATOM     10  C   UNL A   1      44.829  21.291  26.500  1.00  0.00     0.014 A 
ATOM     11  C   UNL A   1      43.576  22.053  24.572  1.00  0.00     0.014 A 
ATOM     12  C   UNL A   1      45.019  22.607  26.897  1.00  0.00     0.010 A 
ATOM     13  C   UNL A   1      43.849  23.378  24.922  1.00  0.00     0.010 A 
ATOM     14  C   UNL A   1      44.539  23.668  26.110  1.00  0.00    -0.014 A 
BRANCH  14  15
ATOM     15  C   UNL A   1      44.812  25.064  26.535  1.00  0.00     0.031 A 
ATOM     16  C   UNL A   1      46.166  25.688  26.347  1.00  0.00     0.074 A 
ATOM     17  C   UNL A   1      43.802  25.786  27.059  1.00  0.00     0.049 A 
ATOM     18  N   UNL A   1      46.556  26.910  26.616  1.00  0.00    -0.248 NA
ATOM     19  C   UNL A   1      47.226  24.832  25.794  1.00  0.00     0.031 C 
ATOM     20  C   UNL A   1      42.449  25.283  27.302  1.00  0.00     0.029 A 
ATOM     21  N   UNL A   1      43.745  27.097  27.455  1.00  0.00    -0.354 N 
ATOM     22  C   UNL A   1      47.906  26.961  26.291  1.00  0.00     0.074 A 
ATOM     23  C   UNL A   1      48.276  25.641  25.826  1.00  0.00     0.031 C 
ATOM     24  C   UNL A   1      41.679  26.287  27.747  1.00  0.00     0.029 A 
ATOM     25  C   UNL A   1      42.499  27.486  27.881  1.00  0.00     0.049 A 
ATOM     26  H   UNL A   1      44.522  27.702  27.438  1.00  0.00     0.167 HD
ATOM     27  C   UNL A   1      48.755  28.016  26.370  1.00  0.00     0.037 A 
ATOM     28  C   UNL A   1      42.063  28.673  28.336  1.00  0.00     0.037 A 
ATOM     29  C   UNL A   1      48.373  29.334  26.811  1.00  0.00     0.049 A 
ATOM     30  C   UNL A   1      43.029  29.820  28.423  1.00  0.00     0.074 A 
ATOM     31  C   UNL A   1      49.146  30.481  26.876  1.00  0.00     0.029 A 
ATOM     32  N   UNL A   1      47.109  29.681  27.269  1.00  0.00    -0.354 N 
ATOM     33  N   UNL A   1      44.291  29.867  28.069  1.00  0.00    -0.248 NA
ATOM     34  C   UNL A   1      42.510  31.078  28.973  1.00  0.00     0.031 C 
ATOM     35  C   UNL A   1      48.365  31.507  27.419  1.00  0.00     0.029 A 
ATOM     36  C   UNL A   1      47.089  31.016  27.643  1.00  0.00     0.049 A 
ATOM     37  H   UNL A   1      46.340  29.068  27.320  1.00  0.00     0.167 HD
ATOM     38  C   UNL A   1      44.711  31.162  28.333  1.00  0.00     0.074 A 
ATOM     39  C   UNL A   1      43.563  31.874  28.858  1.00  0.00     0.031 C 
ATOM     40  C   UNL A   1      45.938  31.711  28.160  1.00  0.00     0.037 A 
BRANCH  27  41
ATOM     41  C   UNL A   1      50.190  27.787  25.994  1.00  0.00     0.064 A 
ATOM     42  C   UNL A   1      51.186  27.574  26.959  1.00  0.00     0.173 A 
ATOM     43  C   UNL A   1      50.567  27.734  24.642  1.00  0.00     0.173 A 
ATOM     44  F   UNL A   1      50.883  27.624  28.264  1.00  0.00    -0.203 F 
ATOM     45  C   UNL A   1      52.509  27.345  26.586  1.00  0.00     0.198 A 
ATOM     46  C   UNL A   1      51.886  27.476  24.272  1.00  0.00     0.198 A 
ATOM     47  F   UNL A   1      49.655  27.923  23.678  1.00  0.00    -0.203 F 
ATOM     48  F   UNL A   1      53.451  27.190  27.526  1.00  0.00    -0.200 F 
ATOM     49  C   UNL A   1      52.857  27.289  25.244  1.00  0.00     0.200 A 
ATOM     50  F   UNL A   1      52.216  27.410  22.975  1.00  0.00    -0.200 F 
ATOM     51  F   UNL A   1      54.128  27.061  24.888  1.00  0.00    -0.200 F 
ENDBRANCH  27  41
BRANCH  28  52
ATOM     52  C   UNL A   1      40.641  28.836  28.732  1.00  0.00     0.064 A 
ATOM     53  C   UNL A   1      40.243  28.681  30.067  1.00  0.00     0.173 A 
ATOM     54  C   UNL A   1      39.655  29.163  27.790  1.00  0.00     0.173 A 
ATOM     55  F   UNL A   1      41.148  28.351  31.000  1.00  0.00    -0.203 F 
ATOM     56  C   UNL A   1      38.911  28.833  30.442  1.00  0.00     0.198 A 
ATOM     57  C   UNL A   1      38.328  29.345  28.171  1.00  0.00     0.198 A 
ATOM     58  F   UNL A   1      39.986  29.328  26.501  1.00  0.00    -0.203 F 
ATOM     59  F   UNL A   1      38.552  28.641  31.719  1.00  0.00    -0.200 F 
ATOM     60  C   UNL A   1      37.956  29.172  29.496  1.00  0.00     0.200 A 
ATOM     61  F   UNL A   1      37.413  29.691  27.256  1.00  0.00    -0.200 F 
ATOM     62  F   UNL A   1      36.676  29.328  29.859  1.00  0.00    -0.200 F 
ENDBRANCH  28  52
BRANCH  40  63
ATOM     63  C   UNL A   1      46.088  33.163  28.507  1.00  0.00     0.064 A 
ATOM     64  C   UNL A   1      45.842  34.176  27.567  1.00  0.00     0.173 A 
ATOM     65  C   UNL A   1      46.469  33.546  29.802  1.00  0.00     0.173 A 
ATOM     66  F   UNL A   1      45.492  33.860  26.311  1.00  0.00    -0.203 F 
ATOM     67  C   UNL A   1      46.005  35.518  27.902  1.00  0.00     0.198 A 
ATOM     68  C   UNL A   1      46.601  34.890  30.141  1.00  0.00     0.198 A 
ATOM     69  F   UNL A   1      46.711  32.618  30.739  1.00  0.00    -0.203 F 
ATOM     70  F   UNL A   1      45.821  36.464  26.973  1.00  0.00    -0.200 F 
ATOM     71  C   UNL A   1      46.379  35.873  29.190  1.00  0.00     0.200 A 
ATOM     72  F   UNL A   1      46.951  35.233  31.389  1.00  0.00    -0.200 F 
ATOM     73  F   UNL A   1      46.535  37.165  29.510  1.00  0.00    -0.200 F 
ENDBRANCH  40  63
ENDBRANCH  14  15
ENDBRANCH   7   9
ENDBRANCH   4   5
ENDBRANCH   3   4
ENDBRANCH   2   3
ENDBRANCH   1   2
BRANCH   1  74
ATOM     74  C   UNL A   1      39.270  23.581  27.018  1.00  0.00     0.021 C 
BRANCH  74  75
ATOM     75  C   UNL A   1      37.998  23.675  26.172  1.00  0.00     0.116 C 
BRANCH  75  76
ATOM     76  N   UNL A   1      38.015  22.626  25.173  1.00  0.00    -0.356 N 
ATOM     77  C   UNL A   1      37.300  21.464  25.164  1.00  0.00     0.223 C 
ATOM     78  H   UNL A   1      38.618  22.769  24.407  1.00  0.00     0.163 HD
ATOM     79  O   UNL A   1      37.778  20.465  24.626  1.00  0.00    -0.275 OA
BRANCH  77  80
ATOM     80  C   UNL A   1      35.915  21.472  25.678  1.00  0.00     0.091 C 
ATOM     81  C   UNL A   1      34.812  20.850  24.864  1.00  0.00     0.028 C 
ATOM     82  C   UNL A   1      34.839  22.349  25.074  1.00  0.00     0.092 C 
BRANCH  82  83
ATOM     83  C   UNL A   1      34.962  23.251  23.893  1.00  0.00     0.226 C 
ATOM     84  O   UNL A   1      35.712  22.943  22.974  1.00  0.00    -0.275 OA
ATOM     85  N   UNL A   1      33.938  24.171  23.770  1.00  0.00    -0.339 N 
ATOM     86  C   UNL A   1      33.183  24.218  22.511  1.00  0.00     0.141 C 
ATOM     87  C   UNL A   1      34.046  25.475  24.421  1.00  0.00     0.141 C 
ATOM     88  C   UNL A   1      31.789  24.871  22.704  1.00  0.00     0.139 C 
ATOM     89  C   UNL A   1      32.662  26.066  24.687  1.00  0.00     0.139 C 
ATOM     90  N   UNL A   1      31.957  26.147  23.408  1.00  0.00    -0.352 N 
BRANCH  90  91
ATOM     91  C   UNL A   1      31.098  27.197  23.183  1.00  0.00     0.147 A 
ATOM     92  N   UNL A   1      29.773  26.975  23.366  1.00  0.00    -0.237 NA
ATOM     93  C   UNL A   1      31.564  28.454  22.752  1.00  0.00     0.084 A 
ATOM     94  C   UNL A   1      28.913  28.002  23.155  1.00  0.00     0.126 A 
ATOM     95  C   UNL A   1      30.656  29.489  22.535  1.00  0.00     0.039 A 
ATOM     96  Cl  UNL A   1      33.224  28.771  22.375  1.00  0.00    -0.080 Cl
ATOM     97  C   UNL A   1      29.297  29.268  22.741  1.00  0.00     0.075 A 
BRANCH  97  98
ATOM     98  C   UNL A   1      28.274  30.336  22.522  1.00  0.00     0.417 C 
ATOM     99  F   UNL A   1      27.278  30.304  23.448  1.00  0.00    -0.166 F 
ATOM    100  F   UNL A   1      28.808  31.586  22.587  1.00  0.00    -0.166 F 
ATOM    101  F   UNL A   1      27.661  30.254  21.310  1.00  0.00    -0.166 F 
ENDBRANCH  97  98
ENDBRANCH  90  91
ENDBRANCH  82  83
ENDBRANCH  77  80
ENDBRANCH  75  76
ENDBRANCH  74  75
ENDBRANCH   1  74
TORSDOF 16
ENDMDL
