MODEL 1
REMARK VINA RESULT:     -11.3      0.000      0.000
REMARK SMILES Cc1n[nH]c(CCC(=O)NCCCCCCNC(=O)c2ccc(-c3c4nc(c(-c5c(F)c(F)c(F)c(F)c5F)c5ccc([nH]5)c(-c5c(F)c(F)c(F)c(F)c5F)c5nc(c(-c6c(F)c(F)c(F)c(F)c6F)c6ccc3[nH]6)C=C5)C=C4)cc2)c1C
REMARK SMILES IDX 13 1 12 2 11 3 10 4 8 5 9 6 7 8 6 9 5 10 1 11 2 12 3 13
REMARK SMILES IDX 83 14 4 15 84 16 14 18 15 19 16 20 17 21 18 22 19 24 20 25
REMARK SMILES IDX 21 26 82 27 22 28 81 29 23 30 24 31 25 32 75 33 26 34 80 35
REMARK SMILES IDX 74 36 76 37 27 38 79 39 73 40 72 41 28 43 60 44 40 45 59 46
REMARK SMILES IDX 41 47 44 48 58 49 77 50 42 51 43 52 57 54 78 55 45 56 29 57
REMARK SMILES IDX 30 58 38 59 31 60 32 61 36 62 39 63 33 64 34 65 37 66 35 67
REMARK SMILES IDX 61 68 62 69 70 70 63 71 64 72 68 73 71 74 65 75 66 76 69 77
REMARK SMILES IDX 67 78 46 79 47 80 55 81 48 82 49 83 53 84 56 85 50 86 51 87
REMARK SMILES IDX 54 88 52 89
REMARK H PARENT 10 7 4 17 17 23 76 42 44 53
REMARK Flexibility Score: inf
ROOT
ATOM      1  C   UNL A   1      39.366  21.014  25.772  1.00  0.00     0.002 C 
ENDROOT
BRANCH   1   2
ATOM      2  C   UNL A   1      38.771  22.367  26.162  1.00  0.00     0.021 C 
BRANCH   2   3
ATOM      3  C   UNL A   1      37.442  22.746  25.515  1.00  0.00     0.116 C 
BRANCH   3   4
ATOM      4  N   UNL A   1      36.322  22.353  26.357  1.00  0.00    -0.356 N 
ATOM      5  C   UNL A   1      35.353  21.415  26.157  1.00  0.00     0.220 C 
ATOM      6  O   UNL A   1      34.398  21.389  26.937  1.00  0.00    -0.275 OA
ATOM      7  H   UNL A   1      36.254  22.843  27.209  1.00  0.00     0.163 HD
BRANCH   5   8
ATOM      8  C   UNL A   1      35.455  20.405  25.030  1.00  0.00     0.106 C 
BRANCH   8   9
ATOM      9  C   UNL A   1      34.120  20.125  24.338  1.00  0.00     0.066 C 
BRANCH   9  10
ATOM     10  C   UNL A   1      33.477  18.865  24.811  1.00  0.00     0.039 A 
ATOM     11  C   UNL A   1      32.745  15.325  25.402  1.00  0.00     0.069 C 
ATOM     12  C   UNL A   1      32.845  16.801  25.301  1.00  0.00     0.062 A 
ATOM     13  N   UNL A   1      32.415  17.555  26.320  1.00  0.00    -0.181 NA
ATOM     14  C   UNL A   1      33.463  17.586  24.285  1.00  0.00    -0.007 A 
ATOM     15  N   UNL A   1      32.752  18.802  25.967  1.00  0.00    -0.282 N 
ATOM     16  C   UNL A   1      34.083  17.126  23.014  1.00  0.00     0.048 C 
ATOM     17  H   UNL A   1      32.502  19.597  26.492  1.00  0.00     0.190 HD
ENDBRANCH   9  10
ENDBRANCH   8   9
ENDBRANCH   5   8
ENDBRANCH   3   4
ENDBRANCH   2   3
ENDBRANCH   1   2
BRANCH   1  18
ATOM     18  C   UNL A   1      40.635  20.594  26.521  1.00  0.00     0.002 C 
BRANCH  18  19
ATOM     19  C   UNL A   1      40.967  21.360  27.809  1.00  0.00     0.021 C 
BRANCH  19  20
ATOM     20  C   UNL A   1      42.410  21.823  27.891  1.00  0.00     0.116 C 
BRANCH  20  21
ATOM     21  N   UNL A   1      42.992  22.202  26.602  1.00  0.00    -0.352 N 
ATOM     22  C   UNL A   1      42.878  23.400  25.911  1.00  0.00     0.251 C 
ATOM     23  H   UNL A   1      43.539  21.510  26.164  1.00  0.00     0.163 HD
ATOM     24  O   UNL A   1      43.189  23.477  24.734  1.00  0.00    -0.269 OA
BRANCH  22  25
ATOM     25  C   UNL A   1      42.397  24.601  26.630  1.00  0.00     0.039 A 
ATOM     26  C   UNL A   1      41.148  25.186  26.388  1.00  0.00     0.014 A 
ATOM     27  C   UNL A   1      43.257  25.178  27.553  1.00  0.00     0.014 A 
ATOM     28  C   UNL A   1      40.830  26.373  27.050  1.00  0.00     0.010 A 
ATOM     29  C   UNL A   1      42.807  26.112  28.426  1.00  0.00     0.010 A 
ATOM     30  C   UNL A   1      41.705  26.838  28.036  1.00  0.00    -0.014 A 
BRANCH  30  31
ATOM     31  C   UNL A   1      41.584  28.113  28.707  1.00  0.00     0.031 A 
ATOM     32  C   UNL A   1      42.595  29.108  28.304  1.00  0.00     0.074 A 
ATOM     33  C   UNL A   1      40.461  28.432  29.391  1.00  0.00     0.049 A 
ATOM     34  N   UNL A   1      43.523  29.610  29.043  1.00  0.00    -0.248 NA
ATOM     35  C   UNL A   1      42.696  29.471  26.882  1.00  0.00     0.031 C 
ATOM     36  C   UNL A   1      39.228  27.653  29.584  1.00  0.00     0.029 A 
ATOM     37  N   UNL A   1      40.157  29.611  29.993  1.00  0.00    -0.354 N 
ATOM     38  C   UNL A   1      44.236  30.479  28.226  1.00  0.00     0.074 A 
ATOM     39  C   UNL A   1      43.808  30.207  26.880  1.00  0.00     0.031 C 
ATOM     40  C   UNL A   1      38.253  28.454  30.073  1.00  0.00     0.029 A 
ATOM     41  C   UNL A   1      38.822  29.758  30.355  1.00  0.00     0.049 A 
ATOM     42  H   UNL A   1      40.831  30.309  30.161  1.00  0.00     0.167 HD
ATOM     43  C   UNL A   1      44.971  31.493  28.759  1.00  0.00     0.037 A 
ATOM     44  C   UNL A   1      38.250  30.909  30.792  1.00  0.00     0.037 A 
ATOM     45  C   UNL A   1      45.121  31.318  30.184  1.00  0.00     0.049 A 
ATOM     46  C   UNL A   1      39.362  31.771  31.292  1.00  0.00     0.074 A 
ATOM     47  C   UNL A   1      45.730  30.360  30.972  1.00  0.00     0.029 A 
ATOM     48  N   UNL A   1      44.237  31.974  31.010  1.00  0.00    -0.354 N 
ATOM     49  N   UNL A   1      40.086  31.467  32.339  1.00  0.00    -0.248 NA
ATOM     50  C   UNL A   1      40.001  32.666  30.335  1.00  0.00     0.031 C 
ATOM     51  C   UNL A   1      44.836  30.161  32.065  1.00  0.00     0.029 A 
ATOM     52  C   UNL A   1      43.780  31.065  31.933  1.00  0.00     0.049 A 
ATOM     53  H   UNL A   1      43.978  32.922  30.949  1.00  0.00     0.167 HD
ATOM     54  C   UNL A   1      41.391  31.773  31.974  1.00  0.00     0.074 A 
ATOM     55  C   UNL A   1      41.268  32.563  30.749  1.00  0.00     0.031 C 
ATOM     56  C   UNL A   1      42.455  31.104  32.512  1.00  0.00     0.037 A 
BRANCH  43  57
ATOM     57  C   UNL A   1      45.279  32.799  28.078  1.00  0.00     0.064 A 
ATOM     58  C   UNL A   1      46.611  33.074  27.709  1.00  0.00     0.173 A 
ATOM     59  C   UNL A   1      44.394  33.896  28.019  1.00  0.00     0.173 A 
ATOM     60  F   UNL A   1      47.539  32.105  27.723  1.00  0.00    -0.203 F 
ATOM     61  C   UNL A   1      47.041  34.365  27.398  1.00  0.00     0.198 A 
ATOM     62  C   UNL A   1      44.815  35.174  27.655  1.00  0.00     0.198 A 
ATOM     63  F   UNL A   1      43.119  33.811  28.415  1.00  0.00    -0.203 F 
ATOM     64  F   UNL A   1      48.341  34.599  27.179  1.00  0.00    -0.200 F 
ATOM     65  C   UNL A   1      46.143  35.416  27.381  1.00  0.00     0.200 A 
ATOM     66  F   UNL A   1      43.930  36.181  27.653  1.00  0.00    -0.200 F 
ATOM     67  F   UNL A   1      46.562  36.667  27.146  1.00  0.00    -0.200 F 
ENDBRANCH  43  57
BRANCH  44  68
ATOM     68  C   UNL A   1      36.896  31.425  30.461  1.00  0.00     0.064 A 
ATOM     69  C   UNL A   1      36.034  31.925  31.452  1.00  0.00     0.173 A 
ATOM     70  C   UNL A   1      36.516  31.681  29.126  1.00  0.00     0.173 A 
ATOM     71  F   UNL A   1      36.336  31.768  32.750  1.00  0.00    -0.203 F 
ATOM     72  C   UNL A   1      34.878  32.650  31.128  1.00  0.00     0.198 A 
ATOM     73  C   UNL A   1      35.362  32.398  28.805  1.00  0.00     0.198 A 
ATOM     74  F   UNL A   1      37.301  31.317  28.104  1.00  0.00    -0.203 F 
ATOM     75  F   UNL A   1      34.108  33.155  32.103  1.00  0.00    -0.200 F 
ATOM     76  C   UNL A   1      34.548  32.893  29.805  1.00  0.00     0.200 A 
ATOM     77  F   UNL A   1      35.075  32.652  27.520  1.00  0.00    -0.200 F 
ATOM     78  F   UNL A   1      33.476  33.635  29.495  1.00  0.00    -0.200 F 
ENDBRANCH  44  68
BRANCH  56  79
ATOM     79  C   UNL A   1      42.191  30.148  33.648  1.00  0.00     0.064 A 
ATOM     80  C   UNL A   1      41.906  28.781  33.472  1.00  0.00     0.173 A 
ATOM     81  C   UNL A   1      42.407  30.587  34.959  1.00  0.00     0.173 A 
ATOM     82  F   UNL A   1      41.796  28.253  32.250  1.00  0.00    -0.203 F 
ATOM     83  C   UNL A   1      41.797  27.910  34.555  1.00  0.00     0.198 A 
ATOM     84  C   UNL A   1      42.336  29.708  36.039  1.00  0.00     0.198 A 
ATOM     85  F   UNL A   1      42.749  31.864  35.191  1.00  0.00    -0.203 F 
ATOM     86  F   UNL A   1      41.520  26.614  34.350  1.00  0.00    -0.200 F 
ATOM     87  C   UNL A   1      42.020  28.374  35.838  1.00  0.00     0.200 A 
ATOM     88  F   UNL A   1      42.608  30.150  37.274  1.00  0.00    -0.200 F 
ATOM     89  F   UNL A   1      41.962  27.530  36.878  1.00  0.00    -0.200 F 
ENDBRANCH  56  79
ENDBRANCH  30  31
ENDBRANCH  22  25
ENDBRANCH  20  21
ENDBRANCH  19  20
ENDBRANCH  18  19
ENDBRANCH   1  18
TORSDOF 15
ENDMDL
MODEL 2
REMARK VINA RESULT:     -11.0      3.993      9.253
REMARK SMILES Cc1n[nH]c(CCC(=O)NCCCCCCNC(=O)c2ccc(-c3c4nc(c(-c5c(F)c(F)c(F)c(F)c5F)c5ccc([nH]5)c(-c5c(F)c(F)c(F)c(F)c5F)c5nc(c(-c6c(F)c(F)c(F)c(F)c6F)c6ccc3[nH]6)C=C5)C=C4)cc2)c1C
REMARK SMILES IDX 13 1 12 2 11 3 10 4 8 5 9 6 7 8 6 9 5 10 1 11 2 12 3 13
REMARK SMILES IDX 83 14 4 15 84 16 14 18 15 19 16 20 17 21 18 22 19 24 20 25
REMARK SMILES IDX 21 26 82 27 22 28 81 29 23 30 24 31 25 32 75 33 26 34 80 35
REMARK SMILES IDX 74 36 76 37 27 38 79 39 73 40 72 41 28 43 60 44 40 45 59 46
REMARK SMILES IDX 41 47 44 48 58 49 77 50 42 51 43 52 57 54 78 55 45 56 29 57
REMARK SMILES IDX 30 58 38 59 31 60 32 61 36 62 39 63 33 64 34 65 37 66 35 67
REMARK SMILES IDX 61 68 62 69 70 70 63 71 64 72 68 73 71 74 65 75 66 76 69 77
REMARK SMILES IDX 67 78 46 79 47 80 55 81 48 82 49 83 53 84 56 85 50 86 51 87
REMARK SMILES IDX 54 88 52 89
REMARK H PARENT 10 7 4 17 17 23 76 42 44 53
REMARK Flexibility Score: inf
ROOT
ATOM      1  C   UNL A   1      32.403  27.115  26.295  1.00  0.00     0.002 C 
ENDROOT
BRANCH   1   2
ATOM      2  C   UNL A   1      33.627  26.340  25.809  1.00  0.00     0.021 C 
BRANCH   2   3
ATOM      3  C   UNL A   1      33.552  24.818  25.884  1.00  0.00     0.116 C 
BRANCH   3   4
ATOM      4  N   UNL A   1      32.272  24.386  26.424  1.00  0.00    -0.356 N 
ATOM      5  C   UNL A   1      31.209  23.792  25.810  1.00  0.00     0.220 C 
ATOM      6  O   UNL A   1      30.156  23.685  26.444  1.00  0.00    -0.275 OA
ATOM      7  H   UNL A   1      32.154  24.550  27.388  1.00  0.00     0.163 HD
BRANCH   5   8
ATOM      8  C   UNL A   1      31.320  23.241  24.401  1.00  0.00     0.106 C 
BRANCH   8   9
ATOM      9  C   UNL A   1      30.738  24.171  23.335  1.00  0.00     0.066 C 
BRANCH   9  10
ATOM     10  C   UNL A   1      31.753  25.106  22.769  1.00  0.00     0.039 A 
ATOM     11  C   UNL A   1      33.724  28.111  22.058  1.00  0.00     0.069 C 
ATOM     12  C   UNL A   1      33.075  26.783  22.188  1.00  0.00     0.062 A 
ATOM     13  N   UNL A   1      33.813  25.679  22.024  1.00  0.00    -0.181 NA
ATOM     14  C   UNL A   1      31.743  26.477  22.590  1.00  0.00    -0.007 A 
ATOM     15  N   UNL A   1      32.971  24.679  22.320  1.00  0.00    -0.282 N 
ATOM     16  C   UNL A   1      30.631  27.418  22.892  1.00  0.00     0.048 C 
ATOM     17  H   UNL A   1      33.209  23.728  22.223  1.00  0.00     0.190 HD
ENDBRANCH   9  10
ENDBRANCH   8   9
ENDBRANCH   5   8
ENDBRANCH   3   4
ENDBRANCH   2   3
ENDBRANCH   1   2
BRANCH   1  18
ATOM     18  C   UNL A   1      32.314  28.581  25.855  1.00  0.00     0.002 C 
BRANCH  18  19
ATOM     19  C   UNL A   1      33.553  29.454  26.094  1.00  0.00     0.021 C 
BRANCH  19  20
ATOM     20  C   UNL A   1      33.947  29.572  27.555  1.00  0.00     0.116 C 
BRANCH  20  21
ATOM     21  N   UNL A   1      34.063  30.950  28.035  1.00  0.00    -0.352 N 
ATOM     22  C   UNL A   1      35.142  31.572  28.648  1.00  0.00     0.251 C 
ATOM     23  H   UNL A   1      33.265  31.513  27.908  1.00  0.00     0.163 HD
ATOM     24  O   UNL A   1      35.004  32.632  29.235  1.00  0.00    -0.269 OA
BRANCH  22  25
ATOM     25  C   UNL A   1      36.480  30.945  28.559  1.00  0.00     0.039 A 
ATOM     26  C   UNL A   1      36.786  29.926  27.649  1.00  0.00     0.014 A 
ATOM     27  C   UNL A   1      37.447  31.377  29.454  1.00  0.00     0.014 A 
ATOM     28  C   UNL A   1      38.049  29.335  27.711  1.00  0.00     0.010 A 
ATOM     29  C   UNL A   1      38.749  31.045  29.278  1.00  0.00     0.010 A 
ATOM     30  C   UNL A   1      38.999  29.891  28.573  1.00  0.00    -0.014 A 
BRANCH  30  31
ATOM     31  C   UNL A   1      40.296  29.313  28.849  1.00  0.00     0.031 A 
ATOM     32  C   UNL A   1      40.512  28.956  30.264  1.00  0.00     0.074 A 
ATOM     33  C   UNL A   1      41.083  28.866  27.843  1.00  0.00     0.049 A 
ATOM     34  N   UNL A   1      41.364  29.484  31.071  1.00  0.00    -0.248 NA
ATOM     35  C   UNL A   1      39.571  28.025  30.905  1.00  0.00     0.031 C 
ATOM     36  C   UNL A   1      40.834  28.851  26.393  1.00  0.00     0.029 A 
ATOM     37  N   UNL A   1      42.275  28.222  27.939  1.00  0.00    -0.354 N 
ATOM     38  C   UNL A   1      41.185  28.844  32.291  1.00  0.00     0.074 A 
ATOM     39  C   UNL A   1      39.954  28.106  32.180  1.00  0.00     0.031 C 
ATOM     40  C   UNL A   1      41.740  28.055  25.782  1.00  0.00     0.029 A 
ATOM     41  C   UNL A   1      42.710  27.614  26.766  1.00  0.00     0.049 A 
ATOM     42  H   UNL A   1      42.792  28.188  28.776  1.00  0.00     0.167 HD
ATOM     43  C   UNL A   1      42.180  28.817  33.219  1.00  0.00     0.037 A 
ATOM     44  C   UNL A   1      43.764  26.764  26.668  1.00  0.00     0.037 A 
ATOM     45  C   UNL A   1      43.223  29.754  32.874  1.00  0.00     0.049 A 
ATOM     46  C   UNL A   1      44.627  27.019  27.859  1.00  0.00     0.074 A 
ATOM     47  C   UNL A   1      43.270  31.129  32.749  1.00  0.00     0.029 A 
ATOM     48  N   UNL A   1      44.312  29.277  32.182  1.00  0.00    -0.354 N 
ATOM     49  N   UNL A   1      45.264  28.146  28.050  1.00  0.00    -0.248 NA
ATOM     50  C   UNL A   1      44.352  26.249  29.066  1.00  0.00     0.031 C 
ATOM     51  C   UNL A   1      44.075  31.365  31.596  1.00  0.00     0.029 A 
ATOM     52  C   UNL A   1      44.543  30.134  31.133  1.00  0.00     0.049 A 
ATOM     53  H   UNL A   1      44.831  28.468  32.398  1.00  0.00     0.167 HD
ATOM     54  C   UNL A   1      45.094  28.430  29.400  1.00  0.00     0.074 A 
ATOM     55  C   UNL A   1      44.573  27.195  29.985  1.00  0.00     0.031 C 
ATOM     56  C   UNL A   1      45.091  29.717  29.861  1.00  0.00     0.037 A 
BRANCH  43  57
ATOM     57  C   UNL A   1      42.383  27.739  34.250  1.00  0.00     0.064 A 
ATOM     58  C   UNL A   1      42.986  26.528  33.855  1.00  0.00     0.173 A 
ATOM     59  C   UNL A   1      41.775  27.729  35.522  1.00  0.00     0.173 A 
ATOM     60  F   UNL A   1      43.599  26.423  32.666  1.00  0.00    -0.203 F 
ATOM     61  C   UNL A   1      42.902  25.372  34.635  1.00  0.00     0.198 A 
ATOM     62  C   UNL A   1      41.740  26.588  36.322  1.00  0.00     0.198 A 
ATOM     63  F   UNL A   1      41.095  28.776  36.000  1.00  0.00    -0.203 F 
ATOM     64  F   UNL A   1      43.379  24.215  34.160  1.00  0.00    -0.200 F 
ATOM     65  C   UNL A   1      42.271  25.401  35.863  1.00  0.00     0.200 A 
ATOM     66  F   UNL A   1      41.116  26.635  37.507  1.00  0.00    -0.200 F 
ATOM     67  F   UNL A   1      42.132  24.282  36.585  1.00  0.00    -0.200 F 
ENDBRANCH  43  57
BRANCH  44  68
ATOM     68  C   UNL A   1      43.856  25.536  25.834  1.00  0.00     0.064 A 
ATOM     69  C   UNL A   1      45.047  25.176  25.181  1.00  0.00     0.173 A 
ATOM     70  C   UNL A   1      42.850  24.547  25.872  1.00  0.00     0.173 A 
ATOM     71  F   UNL A   1      46.076  26.035  25.132  1.00  0.00    -0.203 F 
ATOM     72  C   UNL A   1      45.225  23.904  24.618  1.00  0.00     0.198 A 
ATOM     73  C   UNL A   1      43.026  23.283  25.307  1.00  0.00     0.198 A 
ATOM     74  F   UNL A   1      41.704  24.755  26.534  1.00  0.00    -0.203 F 
ATOM     75  F   UNL A   1      46.395  23.580  24.048  1.00  0.00    -0.200 F 
ATOM     76  C   UNL A   1      44.218  22.956  24.691  1.00  0.00     0.200 A 
ATOM     77  F   UNL A   1      42.053  22.367  25.415  1.00  0.00    -0.200 F 
ATOM     78  F   UNL A   1      44.408  21.721  24.205  1.00  0.00    -0.200 F 
ENDBRANCH  44  68
BRANCH  56  79
ATOM     79  C   UNL A   1      45.459  30.816  28.896  1.00  0.00     0.064 A 
ATOM     80  C   UNL A   1      46.783  31.157  28.564  1.00  0.00     0.173 A 
ATOM     81  C   UNL A   1      44.442  31.423  28.150  1.00  0.00     0.173 A 
ATOM     82  F   UNL A   1      47.818  30.544  29.144  1.00  0.00    -0.203 F 
ATOM     83  C   UNL A   1      47.072  32.091  27.570  1.00  0.00     0.198 A 
ATOM     84  C   UNL A   1      44.731  32.329  27.131  1.00  0.00     0.198 A 
ATOM     85  F   UNL A   1      43.160  31.092  28.371  1.00  0.00    -0.203 F 
ATOM     86  F   UNL A   1      48.346  32.395  27.283  1.00  0.00    -0.200 F 
ATOM     87  C   UNL A   1      46.045  32.671  26.849  1.00  0.00     0.200 A 
ATOM     88  F   UNL A   1      43.736  32.845  26.398  1.00  0.00    -0.200 F 
ATOM     89  F   UNL A   1      46.319  33.535  25.861  1.00  0.00    -0.200 F 
ENDBRANCH  56  79
ENDBRANCH  30  31
ENDBRANCH  22  25
ENDBRANCH  20  21
ENDBRANCH  19  20
ENDBRANCH  18  19
ENDBRANCH   1  18
TORSDOF 15
ENDMDL
MODEL 3
REMARK VINA RESULT:     -10.9      2.233      3.481
REMARK SMILES Cc1n[nH]c(CCC(=O)NCCCCCCNC(=O)c2ccc(-c3c4nc(c(-c5c(F)c(F)c(F)c(F)c5F)c5ccc([nH]5)c(-c5c(F)c(F)c(F)c(F)c5F)c5nc(c(-c6c(F)c(F)c(F)c(F)c6F)c6ccc3[nH]6)C=C5)C=C4)cc2)c1C
REMARK SMILES IDX 13 1 12 2 11 3 10 4 8 5 9 6 7 8 6 9 5 10 1 11 2 12 3 13
REMARK SMILES IDX 83 14 4 15 84 16 14 18 15 19 16 20 17 21 18 22 19 24 20 25
REMARK SMILES IDX 21 26 82 27 22 28 81 29 23 30 24 31 25 32 75 33 26 34 80 35
REMARK SMILES IDX 74 36 76 37 27 38 79 39 73 40 72 41 28 43 60 44 40 45 59 46
REMARK SMILES IDX 41 47 44 48 58 49 77 50 42 51 43 52 57 54 78 55 45 56 29 57
REMARK SMILES IDX 30 58 38 59 31 60 32 61 36 62 39 63 33 64 34 65 37 66 35 67
REMARK SMILES IDX 61 68 62 69 70 70 63 71 64 72 68 73 71 74 65 75 66 76 69 77
REMARK SMILES IDX 67 78 46 79 47 80 55 81 48 82 49 83 53 84 56 85 50 86 51 87
REMARK SMILES IDX 54 88 52 89
REMARK H PARENT 10 7 4 17 17 23 76 42 44 53
REMARK Flexibility Score: inf
ROOT
ATOM      1  C   UNL A   1      35.737  20.762  25.367  1.00  0.00     0.002 C 
ENDROOT
BRANCH   1   2
ATOM      2  C   UNL A   1      34.282  20.911  24.927  1.00  0.00     0.021 C 
BRANCH   2   3
ATOM      3  C   UNL A   1      33.684  22.314  24.991  1.00  0.00     0.116 C 
BRANCH   3   4
ATOM      4  N   UNL A   1      32.956  22.513  26.235  1.00  0.00    -0.356 N 
ATOM      5  C   UNL A   1      31.839  23.250  26.497  1.00  0.00     0.220 C 
ATOM      6  O   UNL A   1      31.511  23.411  27.675  1.00  0.00    -0.275 OA
ATOM      7  H   UNL A   1      33.330  22.038  27.013  1.00  0.00     0.163 HD
BRANCH   5   8
ATOM      8  C   UNL A   1      30.996  23.828  25.377  1.00  0.00     0.106 C 
BRANCH   8   9
ATOM      9  C   UNL A   1      31.593  25.091  24.753  1.00  0.00     0.066 C 
BRANCH   9  10
ATOM     10  C   UNL A   1      31.748  26.202  25.737  1.00  0.00     0.039 A 
ATOM     11  C   UNL A   1      32.550  29.437  27.257  1.00  0.00     0.069 C 
ATOM     12  C   UNL A   1      32.140  28.067  26.863  1.00  0.00     0.062 A 
ATOM     13  N   UNL A   1      31.098  27.495  27.477  1.00  0.00    -0.181 NA
ATOM     14  C   UNL A   1      32.637  27.259  25.799  1.00  0.00    -0.007 A 
ATOM     15  N   UNL A   1      30.924  26.342  26.818  1.00  0.00    -0.282 N 
ATOM     16  C   UNL A   1      33.761  27.548  24.869  1.00  0.00     0.048 C 
ATOM     17  H   UNL A   1      30.265  25.662  27.087  1.00  0.00     0.190 HD
ENDBRANCH   9  10
ENDBRANCH   8   9
ENDBRANCH   5   8
ENDBRANCH   3   4
ENDBRANCH   2   3
ENDBRANCH   1   2
BRANCH   1  18
ATOM     18  C   UNL A   1      36.593  22.033  25.310  1.00  0.00     0.002 C 
BRANCH  18  19
ATOM     19  C   UNL A   1      38.101  21.845  25.095  1.00  0.00     0.021 C 
BRANCH  19  20
ATOM     20  C   UNL A   1      38.939  22.168  26.318  1.00  0.00     0.116 C 
BRANCH  20  21
ATOM     21  N   UNL A   1      40.379  21.995  26.122  1.00  0.00    -0.352 N 
ATOM     22  C   UNL A   1      41.390  22.944  26.191  1.00  0.00     0.251 C 
ATOM     23  H   UNL A   1      40.672  21.078  25.910  1.00  0.00     0.163 HD
ATOM     24  O   UNL A   1      42.500  22.712  25.741  1.00  0.00    -0.269 OA
BRANCH  22  25
ATOM     25  C   UNL A   1      41.113  24.242  26.846  1.00  0.00     0.039 A 
ATOM     26  C   UNL A   1      40.023  25.051  26.507  1.00  0.00     0.014 A 
ATOM     27  C   UNL A   1      42.012  24.673  27.811  1.00  0.00     0.014 A 
ATOM     28  C   UNL A   1      39.906  26.301  27.116  1.00  0.00     0.010 A 
ATOM     29  C   UNL A   1      41.703  25.708  28.629  1.00  0.00     0.010 A 
ATOM     30  C   UNL A   1      40.794  26.621  28.148  1.00  0.00    -0.014 A 
BRANCH  30  31
ATOM     31  C   UNL A   1      40.888  27.920  28.778  1.00  0.00     0.031 A 
ATOM     32  C   UNL A   1      41.964  28.776  28.245  1.00  0.00     0.074 A 
ATOM     33  C   UNL A   1      39.880  28.389  29.550  1.00  0.00     0.049 A 
ATOM     34  N   UNL A   1      43.010  29.183  28.876  1.00  0.00    -0.248 NA
ATOM     35  C   UNL A   1      41.969  29.085  26.807  1.00  0.00     0.031 C 
ATOM     36  C   UNL A   1      38.589  27.768  29.885  1.00  0.00     0.029 A 
ATOM     37  N   UNL A   1      39.775  29.611  30.132  1.00  0.00    -0.354 N 
ATOM     38  C   UNL A   1      43.738  29.938  27.964  1.00  0.00     0.074 A 
ATOM     39  C   UNL A   1      43.154  29.682  26.674  1.00  0.00     0.031 C 
ATOM     40  C   UNL A   1      37.766  28.693  30.431  1.00  0.00     0.029 A 
ATOM     41  C   UNL A   1      38.507  29.927  30.609  1.00  0.00     0.049 A 
ATOM     42  H   UNL A   1      40.538  30.228  30.210  1.00  0.00     0.167 HD
ATOM     43  C   UNL A   1      44.633  30.871  28.388  1.00  0.00     0.037 A 
ATOM     44  C   UNL A   1      38.118  31.150  31.053  1.00  0.00     0.037 A 
ATOM     45  C   UNL A   1      44.899  30.718  29.799  1.00  0.00     0.049 A 
ATOM     46  C   UNL A   1      39.365  31.886  31.415  1.00  0.00     0.074 A 
ATOM     47  C   UNL A   1      45.465  29.715  30.563  1.00  0.00     0.029 A 
ATOM     48  N   UNL A   1      44.181  31.496  30.676  1.00  0.00    -0.354 N 
ATOM     49  N   UNL A   1      40.146  31.525  32.401  1.00  0.00    -0.248 NA
ATOM     50  C   UNL A   1      40.009  32.671  30.369  1.00  0.00     0.031 C 
ATOM     51  C   UNL A   1      44.663  29.654  31.741  1.00  0.00     0.029 A 
ATOM     52  C   UNL A   1      43.711  30.674  31.672  1.00  0.00     0.049 A 
ATOM     53  H   UNL A   1      44.029  32.467  30.604  1.00  0.00     0.167 HD
ATOM     54  C   UNL A   1      41.437  31.664  31.906  1.00  0.00     0.074 A 
ATOM     55  C   UNL A   1      41.290  32.429  30.669  1.00  0.00     0.031 C 
ATOM     56  C   UNL A   1      42.463  30.887  32.369  1.00  0.00     0.037 A 
BRANCH  43  57
ATOM     57  C   UNL A   1      45.025  32.112  27.632  1.00  0.00     0.064 A 
ATOM     58  C   UNL A   1      46.282  32.150  26.996  1.00  0.00     0.173 A 
ATOM     59  C   UNL A   1      44.356  33.350  27.731  1.00  0.00     0.173 A 
ATOM     60  F   UNL A   1      47.006  31.031  26.841  1.00  0.00    -0.203 F 
ATOM     61  C   UNL A   1      46.863  33.349  26.578  1.00  0.00     0.198 A 
ATOM     62  C   UNL A   1      44.915  34.538  27.263  1.00  0.00     0.198 A 
ATOM     63  F   UNL A   1      43.194  33.487  28.378  1.00  0.00    -0.203 F 
ATOM     64  F   UNL A   1      48.112  33.350  26.095  1.00  0.00    -0.200 F 
ATOM     65  C   UNL A   1      46.182  34.543  26.721  1.00  0.00     0.200 A 
ATOM     66  F   UNL A   1      44.242  35.686  27.419  1.00  0.00    -0.200 F 
ATOM     67  F   UNL A   1      46.760  35.703  26.380  1.00  0.00    -0.200 F 
ENDBRANCH  43  57
BRANCH  44  68
ATOM     68  C   UNL A   1      36.807  31.815  30.829  1.00  0.00     0.064 A 
ATOM     69  C   UNL A   1      35.930  32.094  31.891  1.00  0.00     0.173 A 
ATOM     70  C   UNL A   1      36.498  32.428  29.596  1.00  0.00     0.173 A 
ATOM     71  F   UNL A   1      36.167  31.590  33.112  1.00  0.00    -0.203 F 
ATOM     72  C   UNL A   1      34.828  32.946  31.734  1.00  0.00     0.198 A 
ATOM     73  C   UNL A   1      35.398  33.272  29.439  1.00  0.00     0.198 A 
ATOM     74  F   UNL A   1      37.308  32.293  28.537  1.00  0.00    -0.203 F 
ATOM     75  F   UNL A   1      34.043  33.230  32.784  1.00  0.00    -0.200 F 
ATOM     76  C   UNL A   1      34.569  33.542  30.510  1.00  0.00     0.200 A 
ATOM     77  F   UNL A   1      35.180  33.866  28.256  1.00  0.00    -0.200 F 
ATOM     78  F   UNL A   1      33.549  34.402  30.373  1.00  0.00    -0.200 F 
ENDBRANCH  44  68
BRANCH  56  79
ATOM     79  C   UNL A   1      42.199  30.000  33.560  1.00  0.00     0.064 A 
ATOM     80  C   UNL A   1      41.780  28.660  33.462  1.00  0.00     0.173 A 
ATOM     81  C   UNL A   1      42.551  30.463  34.833  1.00  0.00     0.173 A 
ATOM     82  F   UNL A   1      41.533  28.101  32.275  1.00  0.00    -0.203 F 
ATOM     83  C   UNL A   1      41.675  27.842  34.586  1.00  0.00     0.198 A 
ATOM     84  C   UNL A   1      42.483  29.634  35.951  1.00  0.00     0.198 A 
ATOM     85  F   UNL A   1      43.022  31.711  34.986  1.00  0.00    -0.203 F 
ATOM     86  F   UNL A   1      41.268  26.570  34.456  1.00  0.00    -0.200 F 
ATOM     87  C   UNL A   1      42.034  28.329  35.829  1.00  0.00     0.200 A 
ATOM     88  F   UNL A   1      42.885  30.093  37.144  1.00  0.00    -0.200 F 
ATOM     89  F   UNL A   1      41.978  27.531  36.906  1.00  0.00    -0.200 F 
ENDBRANCH  56  79
ENDBRANCH  30  31
ENDBRANCH  22  25
ENDBRANCH  20  21
ENDBRANCH  19  20
ENDBRANCH  18  19
ENDBRANCH   1  18
TORSDOF 15
ENDMDL
