MODEL 1
REMARK VINA RESULT:     -11.8      0.000      0.000
REMARK SMILES CS(=O)(=O)c1ccc(/C=C(/C(=O)NCCCCCCNC(=O)c2ccc(-c3c4nc(c(-c5c(F)c(F)c(F)c(F)c5F)c5ccc([nH]5)c(-c5c(F)c(F)c(F)c(F)c5F)c5nc(c(-c6c(F)c(F)c(F)c(F)c6F)c6ccc3[nH]6)C=C5)C=C4)cc2)c2cccc(Br)c2)cc1
REMARK SMILES IDX 16 1 15 2 14 3 13 4 11 5 12 6 10 8 9 9 8 10 5 11 6 12 94 13
REMARK SMILES IDX 7 14 93 15 2 16 1 17 3 18 4 19 86 20 87 21 92 22 88 23 90 24
REMARK SMILES IDX 89 25 91 26 17 27 18 28 19 29 20 30 21 31 22 33 23 34 24 35
REMARK SMILES IDX 85 36 25 37 84 38 26 39 27 40 28 41 78 42 29 43 83 44 77 45
REMARK SMILES IDX 79 46 30 47 82 48 76 49 75 50 31 52 63 53 43 54 62 55 44 56
REMARK SMILES IDX 47 57 61 58 80 59 45 60 46 61 60 63 81 64 48 65 32 66 33 67
REMARK SMILES IDX 41 68 34 69 35 70 39 71 42 72 36 73 37 74 40 75 38 76 64 77
REMARK SMILES IDX 65 78 73 79 66 80 67 81 71 82 74 83 68 84 69 85 72 86 70 87
REMARK SMILES IDX 49 88 50 89 58 90 51 91 52 92 56 93 59 94 53 95 54 96 57 97
REMARK SMILES IDX 55 98
REMARK H PARENT 13 7 20 32 79 51 47 62
REMARK Flexibility Score: inf
ROOT
ATOM      1  C   UNL A   1      40.778  21.299  27.417  1.00  0.00     0.002 C 
ENDROOT
BRANCH   1   2
ATOM      2  C   UNL A   1      40.252  22.737  27.283  1.00  0.00     0.021 C 
BRANCH   2   3
ATOM      3  C   UNL A   1      39.020  22.861  26.380  1.00  0.00     0.116 C 
BRANCH   3   4
ATOM      4  N   UNL A   1      38.829  21.631  25.638  1.00  0.00    -0.352 N 
ATOM      5  C   UNL A   1      37.776  21.053  25.004  1.00  0.00     0.251 C 
ATOM      6  O   UNL A   1      37.981  19.929  24.538  1.00  0.00    -0.269 OA
ATOM      7  H   UNL A   1      39.649  21.090  25.582  1.00  0.00     0.163 HD
BRANCH   5   8
ATOM      8  C   UNL A   1      36.450  21.743  24.770  1.00  0.00     0.047 C 
ATOM      9  C   UNL A   1      36.360  22.982  24.237  1.00  0.00     0.022 C 
BRANCH   9  10
ATOM     10  C   UNL A   1      35.149  23.736  23.841  1.00  0.00    -0.025 A 
ATOM     11  C   UNL A   1      32.945  25.332  23.152  1.00  0.00     0.067 A 
ATOM     12  C   UNL A   1      33.266  24.217  22.376  1.00  0.00     0.021 A 
ATOM     13  C   UNL A   1      33.679  25.631  24.299  1.00  0.00     0.021 A 
ATOM     14  C   UNL A   1      34.356  23.416  22.733  1.00  0.00     0.009 A 
ATOM     15  C   UNL A   1      34.779  24.835  24.636  1.00  0.00     0.009 A 
BRANCH  11  16
ATOM     16  S   UNL A   1      31.557  26.343  22.695  1.00  0.00     0.175 S 
ATOM     17  C   UNL A   1      32.031  27.974  23.211  1.00  0.00     0.163 C 
ATOM     18  O   UNL A   1      30.426  25.936  23.504  1.00  0.00    -0.224 OA
ATOM     19  O   UNL A   1      31.481  26.328  21.244  1.00  0.00    -0.224 OA
ENDBRANCH  11  16
ENDBRANCH   9  10
BRANCH   8  20
ATOM     20  C   UNL A   1      35.246  21.065  25.315  1.00  0.00    -0.012 A 
ATOM     21  C   UNL A   1      34.673  21.562  26.501  1.00  0.00     0.009 A 
ATOM     22  C   UNL A   1      34.621  20.002  24.654  1.00  0.00     0.024 A 
ATOM     23  C   UNL A   1      33.492  21.024  27.007  1.00  0.00     0.002 A 
ATOM     24  C   UNL A   1      33.427  19.481  25.157  1.00  0.00     0.018 A 
ATOM     25  C   UNL A   1      32.860  19.987  26.328  1.00  0.00     0.016 A 
ATOM     26  Br  UNL A   1      32.539  18.101  24.217  1.00  0.00    -0.051 Br
ENDBRANCH   8  20
ENDBRANCH   5   8
ENDBRANCH   3   4
ENDBRANCH   2   3
ENDBRANCH   1   2
BRANCH   1  27
ATOM     27  C   UNL A   1      42.041  20.988  26.606  1.00  0.00     0.002 C 
BRANCH  27  28
ATOM     28  C   UNL A   1      42.040  19.633  25.892  1.00  0.00     0.021 C 
BRANCH  28  29
ATOM     29  C   UNL A   1      43.307  18.806  26.094  1.00  0.00     0.116 C 
BRANCH  29  30
ATOM     30  N   UNL A   1      44.040  18.620  24.854  1.00  0.00    -0.352 N 
ATOM     31  C   UNL A   1      44.684  19.548  24.074  1.00  0.00     0.251 C 
ATOM     32  H   UNL A   1      44.082  17.693  24.523  1.00  0.00     0.163 HD
ATOM     33  O   UNL A   1      45.088  19.241  22.958  1.00  0.00    -0.269 OA
BRANCH  31  34
ATOM     34  C   UNL A   1      44.882  20.928  24.569  1.00  0.00     0.039 A 
ATOM     35  C   UNL A   1      44.393  21.992  23.806  1.00  0.00     0.014 A 
ATOM     36  C   UNL A   1      45.584  21.179  25.753  1.00  0.00     0.014 A 
ATOM     37  C   UNL A   1      44.570  23.304  24.250  1.00  0.00     0.010 A 
ATOM     38  C   UNL A   1      45.708  22.485  26.225  1.00  0.00     0.010 A 
ATOM     39  C   UNL A   1      45.214  23.560  25.471  1.00  0.00    -0.014 A 
BRANCH  39  40
ATOM     40  C   UNL A   1      45.396  24.950  25.958  1.00  0.00     0.031 A 
ATOM     41  C   UNL A   1      46.745  25.608  25.880  1.00  0.00     0.074 A 
ATOM     42  C   UNL A   1      44.358  25.605  26.511  1.00  0.00     0.049 A 
ATOM     43  N   UNL A   1      47.111  26.799  26.282  1.00  0.00    -0.248 NA
ATOM     44  C   UNL A   1      47.835  24.811  25.295  1.00  0.00     0.031 C 
ATOM     45  C   UNL A   1      43.011  25.057  26.689  1.00  0.00     0.029 A 
ATOM     46  N   UNL A   1      44.273  26.872  27.031  1.00  0.00    -0.354 N 
ATOM     47  C   UNL A   1      48.471  26.888  26.013  1.00  0.00     0.074 A 
ATOM     48  C   UNL A   1      48.876  25.614  25.458  1.00  0.00     0.031 C 
ATOM     49  C   UNL A   1      42.231  25.990  27.258  1.00  0.00     0.029 A 
ATOM     50  C   UNL A   1      43.025  27.190  27.507  1.00  0.00     0.049 A 
ATOM     51  H   UNL A   1      45.035  27.494  27.061  1.00  0.00     0.167 HD
ATOM     52  C   UNL A   1      49.301  27.943  26.191  1.00  0.00     0.037 A 
ATOM     53  C   UNL A   1      42.573  28.323  28.076  1.00  0.00     0.037 A 
ATOM     54  C   UNL A   1      48.890  29.220  26.713  1.00  0.00     0.049 A 
ATOM     55  C   UNL A   1      43.510  29.488  28.240  1.00  0.00     0.074 A 
ATOM     56  C   UNL A   1      49.642  30.371  26.873  1.00  0.00     0.029 A 
ATOM     57  N   UNL A   1      47.610  29.513  27.158  1.00  0.00    -0.354 N 
ATOM     58  N   UNL A   1      44.778  29.583  27.920  1.00  0.00    -0.248 NA
ATOM     59  C   UNL A   1      42.949  30.708  28.836  1.00  0.00     0.031 C 
ATOM     60  C   UNL A   1      48.824  31.351  27.447  1.00  0.00     0.029 A 
ATOM     61  C   UNL A   1      47.554  30.823  27.607  1.00  0.00     0.049 A 
ATOM     62  H   UNL A   1      46.853  28.884  27.156  1.00  0.00     0.167 HD
ATOM     63  C   UNL A   1      45.160  30.875  28.252  1.00  0.00     0.074 A 
ATOM     64  C   UNL A   1      43.984  31.535  28.784  1.00  0.00     0.031 C 
ATOM     65  C   UNL A   1      46.375  31.463  28.131  1.00  0.00     0.037 A 
BRANCH  52  66
ATOM     66  C   UNL A   1      50.741  27.761  25.808  1.00  0.00     0.064 A 
ATOM     67  C   UNL A   1      51.174  27.922  24.484  1.00  0.00     0.173 A 
ATOM     68  C   UNL A   1      51.702  27.451  26.781  1.00  0.00     0.173 A 
ATOM     69  F   UNL A   1      50.291  28.205  23.515  1.00  0.00    -0.203 F 
ATOM     70  C   UNL A   1      52.513  27.751  24.141  1.00  0.00     0.198 A 
ATOM     71  C   UNL A   1      53.045  27.309  26.440  1.00  0.00     0.198 A 
ATOM     72  F   UNL A   1      51.343  27.292  28.063  1.00  0.00    -0.203 F 
ATOM     73  F   UNL A   1      52.895  27.862  22.862  1.00  0.00    -0.200 F 
ATOM     74  C   UNL A   1      53.448  27.450  25.121  1.00  0.00     0.200 A 
ATOM     75  F   UNL A   1      53.950  27.028  27.388  1.00  0.00    -0.200 F 
ATOM     76  F   UNL A   1      54.737  27.289  24.791  1.00  0.00    -0.200 F 
ENDBRANCH  52  66
BRANCH  53  77
ATOM     77  C   UNL A   1      41.154  28.424  28.498  1.00  0.00     0.064 A 
ATOM     78  C   UNL A   1      40.755  28.020  29.780  1.00  0.00     0.173 A 
ATOM     79  C   UNL A   1      40.169  28.924  27.634  1.00  0.00     0.173 A 
ATOM     80  F   UNL A   1      41.659  27.517  30.633  1.00  0.00    -0.203 F 
ATOM     81  C   UNL A   1      39.422  28.094  30.175  1.00  0.00     0.198 A 
ATOM     82  C   UNL A   1      38.840  29.020  28.039  1.00  0.00     0.198 A 
ATOM     83  F   UNL A   1      40.502  29.328  26.399  1.00  0.00    -0.203 F 
ATOM     84  F   UNL A   1      39.061  27.663  31.392  1.00  0.00    -0.200 F 
ATOM     85  C   UNL A   1      38.466  28.600  29.306  1.00  0.00     0.200 A 
ATOM     86  F   UNL A   1      37.921  29.521  27.201  1.00  0.00    -0.200 F 
ATOM     87  F   UNL A   1      37.184  28.675  29.687  1.00  0.00    -0.200 F 
ENDBRANCH  53  77
BRANCH  65  88
ATOM     88  C   UNL A   1      46.486  32.896  28.559  1.00  0.00     0.064 A 
ATOM     89  C   UNL A   1      46.851  33.244  29.866  1.00  0.00     0.173 A 
ATOM     90  C   UNL A   1      46.248  33.931  27.643  1.00  0.00     0.173 A 
ATOM     91  F   UNL A   1      47.073  32.290  30.783  1.00  0.00    -0.203 F 
ATOM     92  C   UNL A   1      46.948  34.580  30.250  1.00  0.00     0.198 A 
ATOM     93  C   UNL A   1      46.371  35.265  28.022  1.00  0.00     0.198 A 
ATOM     94  F   UNL A   1      45.900  33.649  26.378  1.00  0.00    -0.203 F 
ATOM     95  F   UNL A   1      47.252  34.890  31.518  1.00  0.00    -0.200 F 
ATOM     96  C   UNL A   1      46.715  35.588  29.326  1.00  0.00     0.200 A 
ATOM     97  F   UNL A   1      46.154  36.238  27.127  1.00  0.00    -0.200 F 
ATOM     98  F   UNL A   1      46.809  36.872  29.697  1.00  0.00    -0.200 F 
ENDBRANCH  65  88
ENDBRANCH  39  40
ENDBRANCH  31  34
ENDBRANCH  29  30
ENDBRANCH  28  29
ENDBRANCH  27  28
ENDBRANCH   1  27
TORSDOF 16
ENDMDL
MODEL 2
REMARK VINA RESULT:     -11.8      2.762      4.688
REMARK SMILES CS(=O)(=O)c1ccc(/C=C(/C(=O)NCCCCCCNC(=O)c2ccc(-c3c4nc(c(-c5c(F)c(F)c(F)c(F)c5F)c5ccc([nH]5)c(-c5c(F)c(F)c(F)c(F)c5F)c5nc(c(-c6c(F)c(F)c(F)c(F)c6F)c6ccc3[nH]6)C=C5)C=C4)cc2)c2cccc(Br)c2)cc1
REMARK SMILES IDX 16 1 15 2 14 3 13 4 11 5 12 6 10 8 9 9 8 10 5 11 6 12 94 13
REMARK SMILES IDX 7 14 93 15 2 16 1 17 3 18 4 19 86 20 87 21 92 22 88 23 90 24
REMARK SMILES IDX 89 25 91 26 17 27 18 28 19 29 20 30 21 31 22 33 23 34 24 35
REMARK SMILES IDX 85 36 25 37 84 38 26 39 27 40 28 41 78 42 29 43 83 44 77 45
REMARK SMILES IDX 79 46 30 47 82 48 76 49 75 50 31 52 63 53 43 54 62 55 44 56
REMARK SMILES IDX 47 57 61 58 80 59 45 60 46 61 60 63 81 64 48 65 32 66 33 67
REMARK SMILES IDX 41 68 34 69 35 70 39 71 42 72 36 73 37 74 40 75 38 76 64 77
REMARK SMILES IDX 65 78 73 79 66 80 67 81 71 82 74 83 68 84 69 85 72 86 70 87
REMARK SMILES IDX 49 88 50 89 58 90 51 91 52 92 56 93 59 94 53 95 54 96 57 97
REMARK SMILES IDX 55 98
REMARK H PARENT 13 7 20 32 79 51 47 62
REMARK Flexibility Score: inf
ROOT
ATOM      1  C   UNL A   1      36.562  22.469  24.639  1.00  0.00     0.002 C 
ENDROOT
BRANCH   1   2
ATOM      2  C   UNL A   1      35.802  23.010  23.416  1.00  0.00     0.021 C 
BRANCH   2   3
ATOM      3  C   UNL A   1      34.817  24.134  23.750  1.00  0.00     0.116 C 
BRANCH   3   4
ATOM      4  N   UNL A   1      34.066  23.792  24.942  1.00  0.00    -0.352 N 
ATOM      5  C   UNL A   1      33.084  24.398  25.657  1.00  0.00     0.251 C 
ATOM      6  O   UNL A   1      32.737  23.819  26.691  1.00  0.00    -0.269 OA
ATOM      7  H   UNL A   1      34.329  22.922  25.320  1.00  0.00     0.163 HD
BRANCH   5   8
ATOM      8  C   UNL A   1      32.360  25.647  25.205  1.00  0.00     0.047 C 
ATOM      9  C   UNL A   1      31.690  25.716  24.033  1.00  0.00     0.022 C 
BRANCH   9  10
ATOM     10  C   UNL A   1      30.844  26.811  23.510  1.00  0.00    -0.025 A 
ATOM     11  C   UNL A   1      29.125  28.872  22.682  1.00  0.00     0.067 A 
ATOM     12  C   UNL A   1      30.487  28.939  22.383  1.00  0.00     0.021 A 
ATOM     13  C   UNL A   1      28.601  27.762  23.344  1.00  0.00     0.021 A 
ATOM     14  C   UNL A   1      31.337  27.903  22.784  1.00  0.00     0.009 A 
ATOM     15  C   UNL A   1      29.461  26.740  23.758  1.00  0.00     0.009 A 
BRANCH  11  16
ATOM     16  S   UNL A   1      28.053  30.191  22.166  1.00  0.00     0.175 S 
ATOM     17  C   UNL A   1      28.966  31.660  22.563  1.00  0.00     0.163 C 
ATOM     18  O   UNL A   1      26.877  30.162  23.011  1.00  0.00    -0.224 OA
ATOM     19  O   UNL A   1      27.936  30.102  20.721  1.00  0.00    -0.224 OA
ENDBRANCH  11  16
ENDBRANCH   9  10
BRANCH   8  20
ATOM     20  C   UNL A   1      32.561  26.865  26.032  1.00  0.00    -0.012 A 
ATOM     21  C   UNL A   1      31.472  27.365  26.770  1.00  0.00     0.009 A 
ATOM     22  C   UNL A   1      33.810  27.484  26.161  1.00  0.00     0.024 A 
ATOM     23  C   UNL A   1      31.627  28.448  27.633  1.00  0.00     0.002 A 
ATOM     24  C   UNL A   1      33.962  28.557  27.044  1.00  0.00     0.018 A 
ATOM     25  C   UNL A   1      32.878  29.040  27.779  1.00  0.00     0.016 A 
ATOM     26  Br  UNL A   1      35.667  29.339  27.280  1.00  0.00    -0.051 Br
ENDBRANCH   8  20
ENDBRANCH   5   8
ENDBRANCH   3   4
ENDBRANCH   2   3
ENDBRANCH   1   2
BRANCH   1  27
ATOM     27  C   UNL A   1      36.421  20.962  24.882  1.00  0.00     0.002 C 
BRANCH  27  28
ATOM     28  C   UNL A   1      37.737  20.180  24.913  1.00  0.00     0.021 C 
BRANCH  28  29
ATOM     29  C   UNL A   1      38.913  20.938  25.522  1.00  0.00     0.116 C 
BRANCH  29  30
ATOM     30  N   UNL A   1      39.748  20.078  26.344  1.00  0.00    -0.352 N 
ATOM     31  C   UNL A   1      40.877  20.387  27.061  1.00  0.00     0.251 C 
ATOM     32  H   UNL A   1      39.463  19.137  26.394  1.00  0.00     0.163 HD
ATOM     33  O   UNL A   1      41.564  19.492  27.543  1.00  0.00    -0.269 OA
BRANCH  31  34
ATOM     34  C   UNL A   1      41.280  21.798  27.246  1.00  0.00     0.039 A 
ATOM     35  C   UNL A   1      42.040  22.138  28.369  1.00  0.00     0.014 A 
ATOM     36  C   UNL A   1      40.878  22.790  26.346  1.00  0.00     0.014 A 
ATOM     37  C   UNL A   1      42.430  23.463  28.569  1.00  0.00     0.010 A 
ATOM     38  C   UNL A   1      41.318  24.102  26.514  1.00  0.00     0.010 A 
ATOM     39  C   UNL A   1      42.088  24.453  27.633  1.00  0.00    -0.014 A 
BRANCH  39  40
ATOM     40  C   UNL A   1      42.509  25.862  27.829  1.00  0.00     0.031 A 
ATOM     41  C   UNL A   1      43.851  26.326  27.337  1.00  0.00     0.074 A 
ATOM     42  C   UNL A   1      41.702  26.714  28.490  1.00  0.00     0.049 A 
ATOM     43  N   UNL A   1      44.411  27.505  27.442  1.00  0.00    -0.248 NA
ATOM     44  C   UNL A   1      44.687  25.324  26.658  1.00  0.00     0.031 C 
ATOM     45  C   UNL A   1      40.397  26.372  29.059  1.00  0.00     0.029 A 
ATOM     46  N   UNL A   1      41.862  28.041  28.799  1.00  0.00    -0.354 N 
ATOM     47  C   UNL A   1      45.664  27.383  26.858  1.00  0.00     0.074 A 
ATOM     48  C   UNL A   1      45.804  26.003  26.443  1.00  0.00     0.031 C 
ATOM     49  C   UNL A   1      39.867  27.466  29.630  1.00  0.00     0.029 A 
ATOM     50  C   UNL A   1      40.804  28.578  29.489  1.00  0.00     0.049 A 
ATOM     51  H   UNL A   1      42.661  28.560  28.550  1.00  0.00     0.167 HD
ATOM     52  C   UNL A   1      46.604  28.338  26.665  1.00  0.00     0.037 A 
ATOM     53  C   UNL A   1      40.610  29.827  29.952  1.00  0.00     0.037 A 
ATOM     54  C   UNL A   1      46.452  29.717  27.049  1.00  0.00     0.049 A 
ATOM     55  C   UNL A   1      41.659  30.875  29.703  1.00  0.00     0.074 A 
ATOM     56  C   UNL A   1      47.321  30.773  26.841  1.00  0.00     0.029 A 
ATOM     57  N   UNL A   1      45.352  30.229  27.721  1.00  0.00    -0.354 N 
ATOM     58  N   UNL A   1      42.812  30.763  29.089  1.00  0.00    -0.248 NA
ATOM     59  C   UNL A   1      41.374  32.227  30.202  1.00  0.00     0.031 C 
ATOM     60  C   UNL A   1      46.761  31.920  27.418  1.00  0.00     0.029 A 
ATOM     61  C   UNL A   1      45.527  31.585  27.949  1.00  0.00     0.049 A 
ATOM     62  H   UNL A   1      44.564  29.707  27.997  1.00  0.00     0.167 HD
ATOM     63  C   UNL A   1      43.379  32.029  29.108  1.00  0.00     0.074 A 
ATOM     64  C   UNL A   1      42.435  32.900  29.778  1.00  0.00     0.031 C 
ATOM     65  C   UNL A   1      44.576  32.435  28.616  1.00  0.00     0.037 A 
BRANCH  52  66
ATOM     66  C   UNL A   1      47.884  27.924  25.998  1.00  0.00     0.064 A 
ATOM     67  C   UNL A   1      47.966  27.759  24.608  1.00  0.00     0.173 A 
ATOM     68  C   UNL A   1      49.046  27.717  26.754  1.00  0.00     0.173 A 
ATOM     69  F   UNL A   1      46.878  27.931  23.842  1.00  0.00    -0.203 F 
ATOM     70  C   UNL A   1      49.159  27.374  24.000  1.00  0.00     0.198 A 
ATOM     71  C   UNL A   1      50.245  27.360  26.141  1.00  0.00     0.198 A 
ATOM     72  F   UNL A   1      49.024  27.866  28.087  1.00  0.00    -0.203 F 
ATOM     73  F   UNL A   1      49.201  27.176  22.676  1.00  0.00    -0.200 F 
ATOM     74  C   UNL A   1      50.298  27.180  24.767  1.00  0.00     0.200 A 
ATOM     75  F   UNL A   1      51.348  27.183  26.881  1.00  0.00    -0.200 F 
ATOM     76  F   UNL A   1      51.447  26.814  24.181  1.00  0.00    -0.200 F 
ENDBRANCH  52  66
BRANCH  53  77
ATOM     77  C   UNL A   1      39.352  30.165  30.665  1.00  0.00     0.064 A 
ATOM     78  C   UNL A   1      38.258  30.705  29.974  1.00  0.00     0.173 A 
ATOM     79  C   UNL A   1      39.217  29.958  32.045  1.00  0.00     0.173 A 
ATOM     80  F   UNL A   1      38.349  30.939  28.657  1.00  0.00    -0.203 F 
ATOM     81  C   UNL A   1      37.083  31.042  30.640  1.00  0.00     0.198 A 
ATOM     82  C   UNL A   1      38.033  30.273  32.706  1.00  0.00     0.198 A 
ATOM     83  F   UNL A   1      40.234  29.439  32.749  1.00  0.00    -0.203 F 
ATOM     84  F   UNL A   1      36.066  31.594  29.963  1.00  0.00    -0.200 F 
ATOM     85  C   UNL A   1      36.968  30.820  32.005  1.00  0.00     0.200 A 
ATOM     86  F   UNL A   1      37.920  30.046  34.022  1.00  0.00    -0.200 F 
ATOM     87  F   UNL A   1      35.836  31.141  32.645  1.00  0.00    -0.200 F 
ENDBRANCH  53  77
BRANCH  65  88
ATOM     88  C   UNL A   1      44.917  33.888  28.765  1.00  0.00     0.064 A 
ATOM     89  C   UNL A   1      44.585  34.824  27.776  1.00  0.00     0.173 A 
ATOM     90  C   UNL A   1      45.561  34.352  29.921  1.00  0.00     0.173 A 
ATOM     91  F   UNL A   1      43.983  34.426  26.644  1.00  0.00    -0.203 F 
ATOM     92  C   UNL A   1      44.910  36.170  27.926  1.00  0.00     0.198 A 
ATOM     93  C   UNL A   1      45.860  35.702  30.081  1.00  0.00     0.198 A 
ATOM     94  F   UNL A   1      45.895  33.496  30.899  1.00  0.00    -0.203 F 
ATOM     95  F   UNL A   1      44.626  37.039  26.947  1.00  0.00    -0.200 F 
ATOM     96  C   UNL A   1      45.541  36.608  29.081  1.00  0.00     0.200 A 
ATOM     97  F   UNL A   1      46.462  36.126  31.201  1.00  0.00    -0.200 F 
ATOM     98  F   UNL A   1      45.852  37.904  29.225  1.00  0.00    -0.200 F 
ENDBRANCH  65  88
ENDBRANCH  39  40
ENDBRANCH  31  34
ENDBRANCH  29  30
ENDBRANCH  28  29
ENDBRANCH  27  28
ENDBRANCH   1  27
TORSDOF 16
ENDMDL
MODEL 3
REMARK VINA RESULT:     -11.7      5.477     10.887
REMARK SMILES CS(=O)(=O)c1ccc(/C=C(/C(=O)NCCCCCCNC(=O)c2ccc(-c3c4nc(c(-c5c(F)c(F)c(F)c(F)c5F)c5ccc([nH]5)c(-c5c(F)c(F)c(F)c(F)c5F)c5nc(c(-c6c(F)c(F)c(F)c(F)c6F)c6ccc3[nH]6)C=C5)C=C4)cc2)c2cccc(Br)c2)cc1
REMARK SMILES IDX 16 1 15 2 14 3 13 4 11 5 12 6 10 8 9 9 8 10 5 11 6 12 94 13
REMARK SMILES IDX 7 14 93 15 2 16 1 17 3 18 4 19 86 20 87 21 92 22 88 23 90 24
REMARK SMILES IDX 89 25 91 26 17 27 18 28 19 29 20 30 21 31 22 33 23 34 24 35
REMARK SMILES IDX 85 36 25 37 84 38 26 39 27 40 28 41 78 42 29 43 83 44 77 45
REMARK SMILES IDX 79 46 30 47 82 48 76 49 75 50 31 52 63 53 43 54 62 55 44 56
REMARK SMILES IDX 47 57 61 58 80 59 45 60 46 61 60 63 81 64 48 65 32 66 33 67
REMARK SMILES IDX 41 68 34 69 35 70 39 71 42 72 36 73 37 74 40 75 38 76 64 77
REMARK SMILES IDX 65 78 73 79 66 80 67 81 71 82 74 83 68 84 69 85 72 86 70 87
REMARK SMILES IDX 49 88 50 89 58 90 51 91 52 92 56 93 59 94 53 95 54 96 57 97
REMARK SMILES IDX 55 98
REMARK H PARENT 13 7 20 32 79 51 47 62
REMARK Flexibility Score: inf
ROOT
ATOM      1  C   UNL A   1      30.912  26.322  25.949  1.00  0.00     0.002 C 
ENDROOT
BRANCH   1   2
ATOM      2  C   UNL A   1      30.402  26.566  24.519  1.00  0.00     0.021 C 
BRANCH   2   3
ATOM      3  C   UNL A   1      30.365  25.301  23.654  1.00  0.00     0.116 C 
BRANCH   3   4
ATOM      4  N   UNL A   1      31.384  25.378  22.627  1.00  0.00    -0.352 N 
ATOM      5  C   UNL A   1      32.487  24.647  22.321  1.00  0.00     0.251 C 
ATOM      6  O   UNL A   1      33.176  25.077  21.393  1.00  0.00    -0.269 OA
ATOM      7  H   UNL A   1      31.246  26.132  22.010  1.00  0.00     0.163 HD
BRANCH   5   8
ATOM      8  C   UNL A   1      32.835  23.330  22.980  1.00  0.00     0.047 C 
ATOM      9  C   UNL A   1      32.046  22.237  22.882  1.00  0.00     0.022 C 
BRANCH   9  10
ATOM     10  C   UNL A   1      32.302  20.861  23.362  1.00  0.00    -0.025 A 
ATOM     11  C   UNL A   1      32.879  18.214  24.101  1.00  0.00     0.067 A 
ATOM     12  C   UNL A   1      32.886  19.223  25.066  1.00  0.00     0.021 A 
ATOM     13  C   UNL A   1      32.536  18.501  22.780  1.00  0.00     0.021 A 
ATOM     14  C   UNL A   1      32.582  20.537  24.696  1.00  0.00     0.009 A 
ATOM     15  C   UNL A   1      32.253  19.822  22.416  1.00  0.00     0.009 A 
BRANCH  11  16
ATOM     16  S   UNL A   1      33.263  16.546  24.579  1.00  0.00     0.175 S 
ATOM     17  C   UNL A   1      34.704  16.719  25.599  1.00  0.00     0.163 C 
ATOM     18  O   UNL A   1      33.650  15.822  23.387  1.00  0.00    -0.224 OA
ATOM     19  O   UNL A   1      32.167  16.082  25.413  1.00  0.00    -0.224 OA
ENDBRANCH  11  16
ENDBRANCH   9  10
BRANCH   8  20
ATOM     20  C   UNL A   1      34.008  23.336  23.892  1.00  0.00    -0.012 A 
ATOM     21  C   UNL A   1      34.049  24.287  24.929  1.00  0.00     0.009 A 
ATOM     22  C   UNL A   1      35.031  22.385  23.803  1.00  0.00     0.024 A 
ATOM     23  C   UNL A   1      35.078  24.281  25.868  1.00  0.00     0.002 A 
ATOM     24  C   UNL A   1      36.048  22.372  24.761  1.00  0.00     0.018 A 
ATOM     25  C   UNL A   1      36.076  23.313  25.791  1.00  0.00     0.016 A 
ATOM     26  Br  UNL A   1      37.384  21.035  24.688  1.00  0.00    -0.051 Br
ENDBRANCH   8  20
ENDBRANCH   5   8
ENDBRANCH   3   4
ENDBRANCH   2   3
ENDBRANCH   1   2
BRANCH   1  27
ATOM     27  C   UNL A   1      32.080  27.215  26.386  1.00  0.00     0.002 C 
BRANCH  27  28
ATOM     28  C   UNL A   1      31.783  28.717  26.401  1.00  0.00     0.021 C 
BRANCH  28  29
ATOM     29  C   UNL A   1      32.944  29.600  25.956  1.00  0.00     0.116 C 
BRANCH  29  30
ATOM     30  N   UNL A   1      32.707  31.003  26.252  1.00  0.00    -0.352 N 
ATOM     31  C   UNL A   1      33.319  31.816  27.173  1.00  0.00     0.251 C 
ATOM     32  H   UNL A   1      32.003  31.434  25.714  1.00  0.00     0.163 HD
ATOM     33  O   UNL A   1      32.857  32.925  27.418  1.00  0.00    -0.269 OA
BRANCH  31  34
ATOM     34  C   UNL A   1      34.532  31.355  27.883  1.00  0.00     0.039 A 
ATOM     35  C   UNL A   1      35.601  32.244  28.033  1.00  0.00     0.014 A 
ATOM     36  C   UNL A   1      34.638  30.046  28.361  1.00  0.00     0.014 A 
ATOM     37  C   UNL A   1      36.758  31.833  28.697  1.00  0.00     0.010 A 
ATOM     38  C   UNL A   1      35.769  29.654  29.076  1.00  0.00     0.010 A 
ATOM     39  C   UNL A   1      36.845  30.541  29.240  1.00  0.00    -0.014 A 
BRANCH  39  40
ATOM     40  C   UNL A   1      38.065  30.098  29.958  1.00  0.00     0.031 A 
ATOM     41  C   UNL A   1      38.336  30.580  31.356  1.00  0.00     0.074 A 
ATOM     42  C   UNL A   1      38.952  29.298  29.337  1.00  0.00     0.049 A 
ATOM     43  N   UNL A   1      39.360  30.333  32.134  1.00  0.00    -0.248 NA
ATOM     44  C   UNL A   1      37.335  31.481  31.949  1.00  0.00     0.031 C 
ATOM     45  C   UNL A   1      38.826  28.802  27.965  1.00  0.00     0.029 A 
ATOM     46  N   UNL A   1      40.137  28.764  29.777  1.00  0.00    -0.354 N 
ATOM     47  C   UNL A   1      39.134  31.056  33.298  1.00  0.00     0.074 A 
ATOM     48  C   UNL A   1      37.901  31.790  33.107  1.00  0.00     0.031 C 
ATOM     49  C   UNL A   1      39.882  28.022  27.683  1.00  0.00     0.029 A 
ATOM     50  C   UNL A   1      40.768  27.981  28.843  1.00  0.00     0.049 A 
ATOM     51  H   UNL A   1      40.501  28.928  30.677  1.00  0.00     0.167 HD
ATOM     52  C   UNL A   1      39.875  31.088  34.431  1.00  0.00     0.037 A 
ATOM     53  C   UNL A   1      41.930  27.304  28.916  1.00  0.00     0.037 A 
ATOM     54  C   UNL A   1      41.084  30.334  34.632  1.00  0.00     0.049 A 
ATOM     55  C   UNL A   1      42.721  27.337  30.195  1.00  0.00     0.074 A 
ATOM     56  C   UNL A   1      41.872  30.251  35.766  1.00  0.00     0.029 A 
ATOM     57  N   UNL A   1      41.677  29.529  33.672  1.00  0.00    -0.354 N 
ATOM     58  N   UNL A   1      42.462  27.971  31.312  1.00  0.00    -0.248 NA
ATOM     59  C   UNL A   1      43.961  26.550  30.224  1.00  0.00     0.031 C 
ATOM     60  C   UNL A   1      42.962  29.420  35.481  1.00  0.00     0.029 A 
ATOM     61  C   UNL A   1      42.831  28.955  34.183  1.00  0.00     0.049 A 
ATOM     62  H   UNL A   1      41.331  29.385  32.762  1.00  0.00     0.167 HD
ATOM     63  C   UNL A   1      43.491  27.644  32.184  1.00  0.00     0.074 A 
ATOM     64  C   UNL A   1      44.371  26.739  31.472  1.00  0.00     0.031 C 
ATOM     65  C   UNL A   1      43.692  28.056  33.460  1.00  0.00     0.037 A 
BRANCH  52  66
ATOM     66  C   UNL A   1      39.391  31.966  35.548  1.00  0.00     0.064 A 
ATOM     67  C   UNL A   1      38.502  31.489  36.523  1.00  0.00     0.173 A 
ATOM     68  C   UNL A   1      39.842  33.289  35.661  1.00  0.00     0.173 A 
ATOM     69  F   UNL A   1      38.031  30.236  36.452  1.00  0.00    -0.203 F 
ATOM     70  C   UNL A   1      38.060  32.313  37.555  1.00  0.00     0.198 A 
ATOM     71  C   UNL A   1      39.420  34.102  36.711  1.00  0.00     0.198 A 
ATOM     72  F   UNL A   1      40.696  33.793  34.758  1.00  0.00    -0.203 F 
ATOM     73  F   UNL A   1      37.174  31.851  38.447  1.00  0.00    -0.200 F 
ATOM     74  C   UNL A   1      38.524  33.617  37.651  1.00  0.00     0.200 A 
ATOM     75  F   UNL A   1      39.876  35.359  36.808  1.00  0.00    -0.200 F 
ATOM     76  F   UNL A   1      38.101  34.408  38.647  1.00  0.00    -0.200 F 
ENDBRANCH  52  66
BRANCH  53  77
ATOM     77  C   UNL A   1      42.395  26.505  27.755  1.00  0.00     0.064 A 
ATOM     78  C   UNL A   1      41.972  25.179  27.580  1.00  0.00     0.173 A 
ATOM     79  C   UNL A   1      43.268  27.044  26.800  1.00  0.00     0.173 A 
ATOM     80  F   UNL A   1      41.153  24.615  28.480  1.00  0.00    -0.203 F 
ATOM     81  C   UNL A   1      42.420  24.418  26.504  1.00  0.00     0.198 A 
ATOM     82  C   UNL A   1      43.695  26.290  25.711  1.00  0.00     0.198 A 
ATOM     83  F   UNL A   1      43.695  28.310  26.920  1.00  0.00    -0.203 F 
ATOM     84  F   UNL A   1      42.033  23.141  26.382  1.00  0.00    -0.200 F 
ATOM     85  C   UNL A   1      43.277  24.975  25.566  1.00  0.00     0.200 A 
ATOM     86  F   UNL A   1      44.514  26.835  24.799  1.00  0.00    -0.200 F 
ATOM     87  F   UNL A   1      43.705  24.244  24.528  1.00  0.00    -0.200 F 
ENDBRANCH  53  77
BRANCH  65  88
ATOM     88  C   UNL A   1      44.896  27.513  34.171  1.00  0.00     0.064 A 
ATOM     89  C   UNL A   1      44.845  26.305  34.880  1.00  0.00     0.173 A 
ATOM     90  C   UNL A   1      46.120  28.197  34.121  1.00  0.00     0.173 A 
ATOM     91  F   UNL A   1      43.692  25.623  34.971  1.00  0.00    -0.203 F 
ATOM     92  C   UNL A   1      45.970  25.814  35.538  1.00  0.00     0.198 A 
ATOM     93  C   UNL A   1      47.249  27.689  34.757  1.00  0.00     0.198 A 
ATOM     94  F   UNL A   1      46.221  29.355  33.451  1.00  0.00    -0.203 F 
ATOM     95  F   UNL A   1      45.886  24.682  36.250  1.00  0.00    -0.200 F 
ATOM     96  C   UNL A   1      47.172  26.503  35.470  1.00  0.00     0.200 A 
ATOM     97  F   UNL A   1      48.412  28.351  34.683  1.00  0.00    -0.200 F 
ATOM     98  F   UNL A   1      48.254  26.028  36.102  1.00  0.00    -0.200 F 
ENDBRANCH  65  88
ENDBRANCH  39  40
ENDBRANCH  31  34
ENDBRANCH  29  30
ENDBRANCH  28  29
ENDBRANCH  27  28
ENDBRANCH   1  27
TORSDOF 16
ENDMDL
