MODEL 1
REMARK VINA RESULT:     -13.1      0.000      0.000
REMARK SMILES CC1CCN(S(=O)(=O)c2ccc3c(ccn3CC(=O)NCCCCCCNC(=O)c3ccc(-c4c5nc(c(-c6c(F)c(F)c(F)c(F)c6F)c6ccc([nH]6)c(-c6c(F)c(F)c(F)c(F)c6F)c6nc(c(-c7c(F)c(F)c(F)c(F)c7F)c7ccc4[nH]7)C=C6)C=C5)cc3)c2)CC1
REMARK SMILES IDX 23 1 22 2 21 3 20 4 18 5 19 6 17 8 16 9 9 10 10 11 93 12
REMARK SMILES IDX 11 13 13 14 12 15 14 16 15 17 6 18 7 19 8 20 5 21 1 22 2 23
REMARK SMILES IDX 3 24 95 25 4 26 94 27 24 28 25 29 26 30 27 31 28 32 29 34
REMARK SMILES IDX 30 35 31 36 92 37 32 38 91 39 33 40 34 41 35 42 85 43 36 44
REMARK SMILES IDX 90 45 84 46 86 47 37 48 89 49 83 50 82 51 38 53 70 54 50 55
REMARK SMILES IDX 69 56 51 57 54 58 68 59 87 60 52 61 53 62 67 64 88 65 55 66
REMARK SMILES IDX 39 67 40 68 48 69 41 70 42 71 46 72 49 73 43 74 44 75 47 76
REMARK SMILES IDX 45 77 71 78 72 79 80 80 73 81 74 82 78 83 81 84 75 85 76 86
REMARK SMILES IDX 79 87 77 88 56 89 57 90 65 91 58 92 59 93 63 94 66 95 60 96
REMARK SMILES IDX 61 97 64 98 62 99
REMARK H PARENT 20 7 27 33 86 52 54 63
REMARK Flexibility Score: inf
ROOT
ATOM      1  C   UNL A   1      32.907  27.781  26.270  1.00  0.00     0.002 C 
ENDROOT
BRANCH   1   2
ATOM      2  C   UNL A   1      31.646  28.613  26.008  1.00  0.00     0.021 C 
BRANCH   2   3
ATOM      3  C   UNL A   1      31.848  29.716  24.969  1.00  0.00     0.116 C 
BRANCH   3   4
ATOM      4  N   UNL A   1      30.600  30.374  24.636  1.00  0.00    -0.355 N 
ATOM      5  C   UNL A   1      29.814  30.221  23.528  1.00  0.00     0.239 C 
ATOM      6  O   UNL A   1      28.812  30.933  23.425  1.00  0.00    -0.273 OA
ATOM      7  H   UNL A   1      30.272  31.021  25.301  1.00  0.00     0.163 HD
BRANCH   5   8
ATOM      8  C   UNL A   1      30.122  29.151  22.499  1.00  0.00     0.222 C 
BRANCH   8   9
ATOM      9  N   UNL A   1      29.950  27.793  22.996  1.00  0.00    -0.338 N 
ATOM     10  C   UNL A   1      32.377  24.449  23.114  1.00  0.00     0.083 A 
ATOM     11  C   UNL A   1      32.924  25.584  22.517  1.00  0.00     0.024 A 
ATOM     12  C   UNL A   1      31.075  24.467  23.629  1.00  0.00     0.032 A 
ATOM     13  C   UNL A   1      32.232  26.793  22.514  1.00  0.00     0.028 A 
ATOM     14  C   UNL A   1      30.321  25.655  23.539  1.00  0.00     0.001 A 
ATOM     15  C   UNL A   1      30.913  26.800  22.993  1.00  0.00     0.049 A 
ATOM     16  C   UNL A   1      28.984  25.994  23.878  1.00  0.00     0.028 A 
ATOM     17  C   UNL A   1      28.786  27.314  23.543  1.00  0.00     0.087 A 
BRANCH  10  18
ATOM     18  S   UNL A   1      33.274  22.915  23.040  1.00  0.00     0.243 S 
ATOM     19  O   UNL A   1      34.583  23.230  22.515  1.00  0.00    -0.207 OA
ATOM     20  O   UNL A   1      32.430  21.951  22.354  1.00  0.00    -0.207 OA
BRANCH  18  21
ATOM     21  N   UNL A   1      33.426  22.373  24.662  1.00  0.00    -0.198 NA
ATOM     22  C   UNL A   1      37.409  23.710  25.425  1.00  0.00     0.008 C 
ATOM     23  C   UNL A   1      36.083  23.015  25.744  1.00  0.00    -0.012 C 
ATOM     24  C   UNL A   1      35.852  21.838  24.779  1.00  0.00     0.020 C 
ATOM     25  C   UNL A   1      34.935  24.035  25.730  1.00  0.00     0.020 C 
ATOM     26  C   UNL A   1      34.430  21.284  24.843  1.00  0.00     0.103 C 
ATOM     27  C   UNL A   1      33.573  23.355  25.765  1.00  0.00     0.103 C 
ENDBRANCH  18  21
ENDBRANCH  10  18
ENDBRANCH   8   9
ENDBRANCH   5   8
ENDBRANCH   3   4
ENDBRANCH   2   3
ENDBRANCH   1   2
BRANCH   1  28
ATOM     28  C   UNL A   1      34.216  28.580  26.300  1.00  0.00     0.002 C 
BRANCH  28  29
ATOM     29  C   UNL A   1      34.497  29.343  27.603  1.00  0.00     0.021 C 
BRANCH  29  30
ATOM     30  C   UNL A   1      34.352  30.861  27.490  1.00  0.00     0.116 C 
BRANCH  30  31
ATOM     31  N   UNL A   1      34.318  31.529  28.775  1.00  0.00    -0.352 N 
ATOM     32  C   UNL A   1      35.192  31.710  29.806  1.00  0.00     0.251 C 
ATOM     33  H   UNL A   1      33.450  31.959  28.946  1.00  0.00     0.163 HD
ATOM     34  O   UNL A   1      34.796  32.431  30.726  1.00  0.00    -0.269 OA
BRANCH  32  35
ATOM     35  C   UNL A   1      36.532  31.071  29.939  1.00  0.00     0.039 A 
ATOM     36  C   UNL A   1      37.758  31.656  29.625  1.00  0.00     0.014 A 
ATOM     37  C   UNL A   1      36.520  29.729  30.372  1.00  0.00     0.014 A 
ATOM     38  C   UNL A   1      38.924  30.891  29.646  1.00  0.00     0.010 A 
ATOM     39  C   UNL A   1      37.681  28.966  30.406  1.00  0.00     0.010 A 
ATOM     40  C   UNL A   1      38.876  29.535  29.990  1.00  0.00    -0.014 A 
BRANCH  40  41
ATOM     41  C   UNL A   1      40.126  28.776  30.001  1.00  0.00     0.031 A 
ATOM     42  C   UNL A   1      40.762  28.655  31.343  1.00  0.00     0.074 A 
ATOM     43  C   UNL A   1      40.630  28.142  28.922  1.00  0.00     0.049 A 
ATOM     44  N   UNL A   1      41.915  29.106  31.720  1.00  0.00    -0.248 NA
ATOM     45  C   UNL A   1      39.973  28.051  32.428  1.00  0.00     0.031 C 
ATOM     46  C   UNL A   1      39.999  27.936  27.615  1.00  0.00     0.029 A 
ATOM     47  N   UNL A   1      41.810  27.466  28.796  1.00  0.00    -0.354 N 
ATOM     48  C   UNL A   1      42.074  28.701  33.043  1.00  0.00     0.074 A 
ATOM     49  C   UNL A   1      40.802  28.176  33.467  1.00  0.00     0.031 C 
ATOM     50  C   UNL A   1      40.697  27.008  26.920  1.00  0.00     0.029 A 
ATOM     51  C   UNL A   1      41.896  26.664  27.664  1.00  0.00     0.049 A 
ATOM     52  H   UNL A   1      42.540  27.540  29.452  1.00  0.00     0.167 HD
ATOM     53  C   UNL A   1      43.306  28.634  33.618  1.00  0.00     0.037 A 
ATOM     54  C   UNL A   1      42.859  25.747  27.385  1.00  0.00     0.037 A 
ATOM     55  C   UNL A   1      44.266  29.427  32.899  1.00  0.00     0.049 A 
ATOM     56  C   UNL A   1      44.045  26.089  28.208  1.00  0.00     0.074 A 
ATOM     57  C   UNL A   1      44.393  30.769  32.605  1.00  0.00     0.029 A 
ATOM     58  N   UNL A   1      45.132  28.776  32.058  1.00  0.00    -0.354 N 
ATOM     59  N   UNL A   1      44.772  27.156  28.033  1.00  0.00    -0.248 NA
ATOM     60  C   UNL A   1      44.164  25.451  29.510  1.00  0.00     0.031 C 
ATOM     61  C   UNL A   1      44.945  30.806  31.291  1.00  0.00     0.029 A 
ATOM     62  C   UNL A   1      45.176  29.489  30.890  1.00  0.00     0.049 A 
ATOM     63  H   UNL A   1      45.629  27.950  32.256  1.00  0.00     0.167 HD
ATOM     64  C   UNL A   1      45.095  27.569  29.315  1.00  0.00     0.074 A 
ATOM     65  C   UNL A   1      44.770  26.435  30.177  1.00  0.00     0.031 C 
ATOM     66  C   UNL A   1      45.328  28.884  29.590  1.00  0.00     0.037 A 
BRANCH  53  67
ATOM     67  C   UNL A   1      43.730  27.563  34.593  1.00  0.00     0.064 A 
ATOM     68  C   UNL A   1      44.253  27.940  35.848  1.00  0.00     0.173 A 
ATOM     69  C   UNL A   1      43.946  26.218  34.222  1.00  0.00     0.173 A 
ATOM     70  F   UNL A   1      44.128  29.200  36.290  1.00  0.00    -0.203 F 
ATOM     71  C   UNL A   1      45.010  27.059  36.626  1.00  0.00     0.198 A 
ATOM     72  C   UNL A   1      44.656  25.329  35.026  1.00  0.00     0.198 A 
ATOM     73  F   UNL A   1      43.589  25.744  33.024  1.00  0.00    -0.203 F 
ATOM     74  F   UNL A   1      45.602  27.501  37.744  1.00  0.00    -0.200 F 
ATOM     75  C   UNL A   1      45.217  25.757  36.211  1.00  0.00     0.200 A 
ATOM     76  F   UNL A   1      44.866  24.077  34.596  1.00  0.00    -0.200 F 
ATOM     77  F   UNL A   1      45.997  24.931  36.921  1.00  0.00    -0.200 F 
ENDBRANCH  53  67
BRANCH  54  78
ATOM     78  C   UNL A   1      42.719  24.421  26.731  1.00  0.00     0.064 A 
ATOM     79  C   UNL A   1      43.345  24.147  25.501  1.00  0.00     0.173 A 
ATOM     80  C   UNL A   1      42.227  23.307  27.438  1.00  0.00     0.173 A 
ATOM     81  F   UNL A   1      43.883  25.143  24.782  1.00  0.00    -0.203 F 
ATOM     82  C   UNL A   1      43.497  22.840  25.027  1.00  0.00     0.198 A 
ATOM     83  C   UNL A   1      42.374  22.004  26.962  1.00  0.00     0.198 A 
ATOM     84  F   UNL A   1      41.682  23.451  28.655  1.00  0.00    -0.203 F 
ATOM     85  F   UNL A   1      44.162  22.614  23.883  1.00  0.00    -0.200 F 
ATOM     86  C   UNL A   1      43.023  21.767  25.763  1.00  0.00     0.200 A 
ATOM     87  F   UNL A   1      41.945  20.972  27.703  1.00  0.00    -0.200 F 
ATOM     88  F   UNL A   1      43.229  20.511  25.345  1.00  0.00    -0.200 F 
ENDBRANCH  54  78
BRANCH  66  89
ATOM     89  C   UNL A   1      45.512  29.831  28.440  1.00  0.00     0.064 A 
ATOM     90  C   UNL A   1      44.457  30.495  27.792  1.00  0.00     0.173 A 
ATOM     91  C   UNL A   1      46.819  30.232  28.132  1.00  0.00     0.173 A 
ATOM     92  F   UNL A   1      43.180  30.226  28.096  1.00  0.00    -0.203 F 
ATOM     93  C   UNL A   1      44.705  31.511  26.871  1.00  0.00     0.198 A 
ATOM     94  C   UNL A   1      47.062  31.270  27.238  1.00  0.00     0.198 A 
ATOM     95  F   UNL A   1      47.861  29.663  28.757  1.00  0.00    -0.203 F 
ATOM     96  F   UNL A   1      43.684  32.144  26.274  1.00  0.00    -0.200 F 
ATOM     97  C   UNL A   1      46.007  31.907  26.607  1.00  0.00     0.200 A 
ATOM     98  F   UNL A   1      48.319  31.683  27.025  1.00  0.00    -0.200 F 
ATOM     99  F   UNL A   1      46.244  32.929  25.772  1.00  0.00    -0.200 F 
ENDBRANCH  66  89
ENDBRANCH  40  41
ENDBRANCH  32  35
ENDBRANCH  30  31
ENDBRANCH  29  30
ENDBRANCH  28  29
ENDBRANCH   1  28
TORSDOF 16
ENDMDL
MODEL 2
REMARK VINA RESULT:     -13.0      2.803      8.831
REMARK SMILES CC1CCN(S(=O)(=O)c2ccc3c(ccn3CC(=O)NCCCCCCNC(=O)c3ccc(-c4c5nc(c(-c6c(F)c(F)c(F)c(F)c6F)c6ccc([nH]6)c(-c6c(F)c(F)c(F)c(F)c6F)c6nc(c(-c7c(F)c(F)c(F)c(F)c7F)c7ccc4[nH]7)C=C6)C=C5)cc3)c2)CC1
REMARK SMILES IDX 23 1 22 2 21 3 20 4 18 5 19 6 17 8 16 9 9 10 10 11 93 12
REMARK SMILES IDX 11 13 13 14 12 15 14 16 15 17 6 18 7 19 8 20 5 21 1 22 2 23
REMARK SMILES IDX 3 24 95 25 4 26 94 27 24 28 25 29 26 30 27 31 28 32 29 34
REMARK SMILES IDX 30 35 31 36 92 37 32 38 91 39 33 40 34 41 35 42 85 43 36 44
REMARK SMILES IDX 90 45 84 46 86 47 37 48 89 49 83 50 82 51 38 53 70 54 50 55
REMARK SMILES IDX 69 56 51 57 54 58 68 59 87 60 52 61 53 62 67 64 88 65 55 66
REMARK SMILES IDX 39 67 40 68 48 69 41 70 42 71 46 72 49 73 43 74 44 75 47 76
REMARK SMILES IDX 45 77 71 78 72 79 80 80 73 81 74 82 78 83 81 84 75 85 76 86
REMARK SMILES IDX 79 87 77 88 56 89 57 90 65 91 58 92 59 93 63 94 66 95 60 96
REMARK SMILES IDX 61 97 64 98 62 99
REMARK H PARENT 20 7 27 33 86 52 54 63
REMARK Flexibility Score: inf
ROOT
ATOM      1  C   UNL A   1      40.286  21.416  26.377  1.00  0.00     0.002 C 
ENDROOT
BRANCH   1   2
ATOM      2  C   UNL A   1      39.329  22.579  26.663  1.00  0.00     0.021 C 
BRANCH   2   3
ATOM      3  C   UNL A   1      38.100  22.595  25.754  1.00  0.00     0.116 C 
BRANCH   3   4
ATOM      4  N   UNL A   1      37.873  21.304  25.136  1.00  0.00    -0.355 N 
ATOM      5  C   UNL A   1      36.767  20.503  25.195  1.00  0.00     0.239 C 
ATOM      6  O   UNL A   1      36.815  19.406  24.632  1.00  0.00    -0.273 OA
ATOM      7  H   UNL A   1      38.620  20.955  24.599  1.00  0.00     0.163 HD
BRANCH   5   8
ATOM      8  C   UNL A   1      35.494  20.984  25.863  1.00  0.00     0.222 C 
BRANCH   8   9
ATOM      9  N   UNL A   1      34.440  21.342  24.924  1.00  0.00    -0.338 N 
ATOM     10  C   UNL A   1      33.398  24.833  22.971  1.00  0.00     0.083 A 
ATOM     11  C   UNL A   1      34.495  24.913  23.829  1.00  0.00     0.024 A 
ATOM     12  C   UNL A   1      32.704  23.627  22.805  1.00  0.00     0.032 A 
ATOM     13  C   UNL A   1      34.993  23.774  24.458  1.00  0.00     0.028 A 
ATOM     14  C   UNL A   1      33.132  22.489  23.518  1.00  0.00     0.001 A 
ATOM     15  C   UNL A   1      34.273  22.577  24.324  1.00  0.00     0.049 A 
ATOM     16  C   UNL A   1      32.629  21.166  23.644  1.00  0.00     0.028 A 
ATOM     17  C   UNL A   1      33.457  20.482  24.505  1.00  0.00     0.087 A 
BRANCH  10  18
ATOM     18  S   UNL A   1      32.763  26.323  22.237  1.00  0.00     0.243 S 
ATOM     19  O   UNL A   1      31.453  26.000  21.720  1.00  0.00    -0.207 OA
ATOM     20  O   UNL A   1      33.788  26.839  21.346  1.00  0.00    -0.207 OA
BRANCH  18  21
ATOM     21  N   UNL A   1      32.606  27.456  23.519  1.00  0.00    -0.198 NA
ATOM     22  C   UNL A   1      28.573  28.672  22.822  1.00  0.00     0.008 C 
ATOM     23  C   UNL A   1      29.936  28.687  23.517  1.00  0.00    -0.012 C 
ATOM     24  C   UNL A   1      31.035  29.109  22.526  1.00  0.00     0.020 C 
ATOM     25  C   UNL A   1      30.210  27.324  24.171  1.00  0.00     0.020 C 
ATOM     26  C   UNL A   1      32.446  28.867  23.060  1.00  0.00     0.103 C 
ATOM     27  C   UNL A   1      31.657  27.197  24.630  1.00  0.00     0.103 C 
ENDBRANCH  18  21
ENDBRANCH  10  18
ENDBRANCH   8   9
ENDBRANCH   5   8
ENDBRANCH   3   4
ENDBRANCH   2   3
ENDBRANCH   1   2
BRANCH   1  28
ATOM     28  C   UNL A   1      41.292  21.113  27.494  1.00  0.00     0.002 C 
BRANCH  28  29
ATOM     29  C   UNL A   1      42.294  19.987  27.197  1.00  0.00     0.021 C 
BRANCH  29  30
ATOM     30  C   UNL A   1      42.224  19.440  25.771  1.00  0.00     0.116 C 
BRANCH  30  31
ATOM     31  N   UNL A   1      43.448  19.642  25.022  1.00  0.00    -0.352 N 
ATOM     32  C   UNL A   1      44.380  20.632  24.922  1.00  0.00     0.251 C 
ATOM     33  H   UNL A   1      43.659  18.875  24.444  1.00  0.00     0.163 HD
ATOM     34  O   UNL A   1      45.354  20.382  24.205  1.00  0.00    -0.269 OA
BRANCH  32  35
ATOM     35  C   UNL A   1      44.290  21.983  25.542  1.00  0.00     0.039 A 
ATOM     36  C   UNL A   1      45.005  22.429  26.653  1.00  0.00     0.014 A 
ATOM     37  C   UNL A   1      43.343  22.852  24.961  1.00  0.00     0.014 A 
ATOM     38  C   UNL A   1      44.708  23.665  27.227  1.00  0.00     0.010 A 
ATOM     39  C   UNL A   1      43.052  24.090  25.522  1.00  0.00     0.010 A 
ATOM     40  C   UNL A   1      43.699  24.472  26.688  1.00  0.00    -0.014 A 
BRANCH  40  41
ATOM     41  C   UNL A   1      43.427  25.761  27.322  1.00  0.00     0.031 A 
ATOM     42  C   UNL A   1      44.398  26.837  26.975  1.00  0.00     0.074 A 
ATOM     43  C   UNL A   1      42.339  26.011  28.081  1.00  0.00     0.049 A 
ATOM     44  N   UNL A   1      45.199  27.470  27.769  1.00  0.00    -0.248 NA
ATOM     45  C   UNL A   1      44.575  27.173  25.554  1.00  0.00     0.031 C 
ATOM     46  C   UNL A   1      41.166  25.158  28.293  1.00  0.00     0.029 A 
ATOM     47  N   UNL A   1      42.016  27.143  28.773  1.00  0.00    -0.354 N 
ATOM     48  C   UNL A   1      45.866  28.404  26.979  1.00  0.00     0.074 A 
ATOM     49  C   UNL A   1      45.544  28.089  25.612  1.00  0.00     0.031 C 
ATOM     50  C   UNL A   1      40.179  25.884  28.865  1.00  0.00     0.029 A 
ATOM     51  C   UNL A   1      40.692  27.203  29.193  1.00  0.00     0.049 A 
ATOM     52  H   UNL A   1      42.666  27.859  28.958  1.00  0.00     0.167 HD
ATOM     53  C   UNL A   1      46.462  29.498  27.528  1.00  0.00     0.037 A 
ATOM     54  C   UNL A   1      40.053  28.277  29.726  1.00  0.00     0.037 A 
ATOM     55  C   UNL A   1      46.703  29.315  28.934  1.00  0.00     0.049 A 
ATOM     56  C   UNL A   1      41.094  29.195  30.248  1.00  0.00     0.074 A 
ATOM     57  C   UNL A   1      47.455  28.435  29.685  1.00  0.00     0.029 A 
ATOM     58  N   UNL A   1      45.839  29.915  29.815  1.00  0.00    -0.354 N 
ATOM     59  N   UNL A   1      41.857  28.928  31.271  1.00  0.00    -0.248 NA
ATOM     60  C   UNL A   1      41.577  30.238  29.357  1.00  0.00     0.031 C 
ATOM     61  C   UNL A   1      46.680  28.196  30.857  1.00  0.00     0.029 A 
ATOM     62  C   UNL A   1      45.534  28.990  30.777  1.00  0.00     0.049 A 
ATOM     63  H   UNL A   1      45.502  30.838  29.765  1.00  0.00     0.167 HD
ATOM     64  C   UNL A   1      43.095  29.442  30.922  1.00  0.00     0.074 A 
ATOM     65  C   UNL A   1      42.842  30.312  29.777  1.00  0.00     0.031 C 
ATOM     66  C   UNL A   1      44.244  28.896  31.414  1.00  0.00     0.037 A 
BRANCH  53  67
ATOM     67  C   UNL A   1      46.477  30.866  26.890  1.00  0.00     0.064 A 
ATOM     68  C   UNL A   1      47.680  31.602  26.866  1.00  0.00     0.173 A 
ATOM     69  C   UNL A   1      45.307  31.602  26.605  1.00  0.00     0.173 A 
ATOM     70  F   UNL A   1      48.850  31.009  27.147  1.00  0.00    -0.203 F 
ATOM     71  C   UNL A   1      47.695  32.984  26.659  1.00  0.00     0.198 A 
ATOM     72  C   UNL A   1      45.333  32.970  26.346  1.00  0.00     0.198 A 
ATOM     73  F   UNL A   1      44.087  31.058  26.682  1.00  0.00    -0.203 F 
ATOM     74  F   UNL A   1      48.845  33.661  26.781  1.00  0.00    -0.200 F 
ATOM     75  C   UNL A   1      46.521  33.668  26.406  1.00  0.00     0.200 A 
ATOM     76  F   UNL A   1      44.182  33.620  26.126  1.00  0.00    -0.200 F 
ATOM     77  F   UNL A   1      46.524  35.001  26.274  1.00  0.00    -0.200 F 
ENDBRANCH  53  67
BRANCH  54  78
ATOM     78  C   UNL A   1      38.652  28.724  29.516  1.00  0.00     0.064 A 
ATOM     79  C   UNL A   1      37.814  29.026  30.605  1.00  0.00     0.173 A 
ATOM     80  C   UNL A   1      38.206  29.154  28.251  1.00  0.00     0.173 A 
ATOM     81  F   UNL A   1      38.182  28.694  31.851  1.00  0.00    -0.203 F 
ATOM     82  C   UNL A   1      36.623  29.741  30.442  1.00  0.00     0.198 A 
ATOM     83  C   UNL A   1      37.015  29.863  28.089  1.00  0.00     0.198 A 
ATOM     84  F   UNL A   1      38.966  28.985  27.160  1.00  0.00    -0.203 F 
ATOM     85  F   UNL A   1      35.886  30.071  31.513  1.00  0.00    -0.200 F 
ATOM     86  C   UNL A   1      36.230  30.171  29.185  1.00  0.00     0.200 A 
ATOM     87  F   UNL A   1      36.665  30.307  26.872  1.00  0.00    -0.200 F 
ATOM     88  F   UNL A   1      35.126  30.916  29.036  1.00  0.00    -0.200 F 
ENDBRANCH  54  78
BRANCH  66  89
ATOM     89  C   UNL A   1      44.141  27.925  32.554  1.00  0.00     0.064 A 
ATOM     90  C   UNL A   1      43.997  26.537  32.392  1.00  0.00     0.173 A 
ATOM     91  C   UNL A   1      44.409  28.405  33.843  1.00  0.00     0.173 A 
ATOM     92  F   UNL A   1      43.823  25.996  31.179  1.00  0.00    -0.203 F 
ATOM     93  C   UNL A   1      44.111  25.671  33.479  1.00  0.00     0.198 A 
ATOM     94  C   UNL A   1      44.556  27.536  34.919  1.00  0.00     0.198 A 
ATOM     95  F   UNL A   1      44.602  29.718  34.043  1.00  0.00    -0.203 F 
ATOM     96  F   UNL A   1      43.986  24.347  33.302  1.00  0.00    -0.200 F 
ATOM     97  C   UNL A   1      44.406  26.171  34.738  1.00  0.00     0.200 A 
ATOM     98  F   UNL A   1      44.892  28.019  36.122  1.00  0.00    -0.200 F 
ATOM     99  F   UNL A   1      44.582  25.334  35.771  1.00  0.00    -0.200 F 
ENDBRANCH  66  89
ENDBRANCH  40  41
ENDBRANCH  32  35
ENDBRANCH  30  31
ENDBRANCH  29  30
ENDBRANCH  28  29
ENDBRANCH   1  28
TORSDOF 16
ENDMDL
MODEL 3
REMARK VINA RESULT:     -12.8      2.934      8.956
REMARK SMILES CC1CCN(S(=O)(=O)c2ccc3c(ccn3CC(=O)NCCCCCCNC(=O)c3ccc(-c4c5nc(c(-c6c(F)c(F)c(F)c(F)c6F)c6ccc([nH]6)c(-c6c(F)c(F)c(F)c(F)c6F)c6nc(c(-c7c(F)c(F)c(F)c(F)c7F)c7ccc4[nH]7)C=C6)C=C5)cc3)c2)CC1
REMARK SMILES IDX 23 1 22 2 21 3 20 4 18 5 19 6 17 8 16 9 9 10 10 11 93 12
REMARK SMILES IDX 11 13 13 14 12 15 14 16 15 17 6 18 7 19 8 20 5 21 1 22 2 23
REMARK SMILES IDX 3 24 95 25 4 26 94 27 24 28 25 29 26 30 27 31 28 32 29 34
REMARK SMILES IDX 30 35 31 36 92 37 32 38 91 39 33 40 34 41 35 42 85 43 36 44
REMARK SMILES IDX 90 45 84 46 86 47 37 48 89 49 83 50 82 51 38 53 70 54 50 55
REMARK SMILES IDX 69 56 51 57 54 58 68 59 87 60 52 61 53 62 67 64 88 65 55 66
REMARK SMILES IDX 39 67 40 68 48 69 41 70 42 71 46 72 49 73 43 74 44 75 47 76
REMARK SMILES IDX 45 77 71 78 72 79 80 80 73 81 74 82 78 83 81 84 75 85 76 86
REMARK SMILES IDX 79 87 77 88 56 89 57 90 65 91 58 92 59 93 63 94 66 95 60 96
REMARK SMILES IDX 61 97 64 98 62 99
REMARK H PARENT 20 7 27 33 86 52 54 63
REMARK Flexibility Score: inf
ROOT
ATOM      1  C   UNL A   1      41.841  20.125  26.995  1.00  0.00     0.002 C 
ENDROOT
BRANCH   1   2
ATOM      2  C   UNL A   1      41.216  21.387  26.388  1.00  0.00     0.021 C 
BRANCH   2   3
ATOM      3  C   UNL A   1      39.690  21.335  26.312  1.00  0.00     0.116 C 
BRANCH   3   4
ATOM      4  N   UNL A   1      39.089  22.582  26.741  1.00  0.00    -0.355 N 
ATOM      5  C   UNL A   1      38.129  23.334  26.122  1.00  0.00     0.239 C 
ATOM      6  O   UNL A   1      37.803  24.402  26.645  1.00  0.00    -0.273 OA
ATOM      7  H   UNL A   1      39.417  22.938  27.597  1.00  0.00     0.163 HD
BRANCH   5   8
ATOM      8  C   UNL A   1      37.431  22.828  24.875  1.00  0.00     0.222 C 
BRANCH   8   9
ATOM      9  N   UNL A   1      36.061  22.391  25.107  1.00  0.00    -0.338 N 
ATOM     10  C   UNL A   1      32.466  24.366  25.620  1.00  0.00     0.083 A 
ATOM     11  C   UNL A   1      33.589  25.173  25.439  1.00  0.00     0.024 A 
ATOM     12  C   UNL A   1      32.580  22.970  25.629  1.00  0.00     0.032 A 
ATOM     13  C   UNL A   1      34.833  24.612  25.157  1.00  0.00     0.028 A 
ATOM     14  C   UNL A   1      33.851  22.387  25.450  1.00  0.00     0.001 A 
ATOM     15  C   UNL A   1      34.953  23.214  25.208  1.00  0.00     0.049 A 
ATOM     16  C   UNL A   1      34.328  21.049  25.480  1.00  0.00     0.028 A 
ATOM     17  C   UNL A   1      35.685  21.081  25.257  1.00  0.00     0.087 A 
BRANCH  10  18
ATOM     18  S   UNL A   1      30.913  25.127  26.037  1.00  0.00     0.243 S 
ATOM     19  O   UNL A   1      31.225  26.435  26.566  1.00  0.00    -0.207 OA
ATOM     20  O   UNL A   1      30.168  24.176  26.844  1.00  0.00    -0.207 OA
BRANCH  18  21
ATOM     21  N   UNL A   1      30.056  25.299  24.559  1.00  0.00    -0.198 NA
ATOM     22  C   UNL A   1      33.228  26.823  22.141  1.00  0.00     0.008 C 
ATOM     23  C   UNL A   1      31.796  26.384  22.451  1.00  0.00    -0.012 C 
ATOM     24  C   UNL A   1      31.194  27.271  23.556  1.00  0.00     0.020 C 
ATOM     25  C   UNL A   1      31.765  24.888  22.801  1.00  0.00     0.020 C 
ATOM     26  C   UNL A   1      29.888  26.717  24.121  1.00  0.00     0.103 C 
ATOM     27  C   UNL A   1      30.422  24.470  23.383  1.00  0.00     0.103 C 
ENDBRANCH  18  21
ENDBRANCH  10  18
ENDBRANCH   8   9
ENDBRANCH   5   8
ENDBRANCH   3   4
ENDBRANCH   2   3
ENDBRANCH   1   2
BRANCH   1  28
ATOM     28  C   UNL A   1      42.116  18.993  25.997  1.00  0.00     0.002 C 
BRANCH  28  29
ATOM     29  C   UNL A   1      43.281  18.059  26.359  1.00  0.00     0.021 C 
BRANCH  29  30
ATOM     30  C   UNL A   1      44.654  18.555  25.901  1.00  0.00     0.116 C 
BRANCH  30  31
ATOM     31  N   UNL A   1      44.643  19.110  24.563  1.00  0.00    -0.352 N 
ATOM     32  C   UNL A   1      44.703  20.360  24.024  1.00  0.00     0.251 C 
ATOM     33  H   UNL A   1      44.576  18.411  23.873  1.00  0.00     0.163 HD
ATOM     34  O   UNL A   1      44.746  20.411  22.791  1.00  0.00    -0.269 OA
BRANCH  32  35
ATOM     35  C   UNL A   1      44.659  21.642  24.781  1.00  0.00     0.039 A 
ATOM     36  C   UNL A   1      45.320  21.915  25.978  1.00  0.00     0.014 A 
ATOM     37  C   UNL A   1      43.815  22.634  24.240  1.00  0.00     0.014 A 
ATOM     38  C   UNL A   1      45.066  23.102  26.664  1.00  0.00     0.010 A 
ATOM     39  C   UNL A   1      43.568  23.824  24.914  1.00  0.00     0.010 A 
ATOM     40  C   UNL A   1      44.154  24.034  26.154  1.00  0.00    -0.014 A 
BRANCH  40  41
ATOM     41  C   UNL A   1      43.924  25.265  26.907  1.00  0.00     0.031 A 
ATOM     42  C   UNL A   1      44.923  26.341  26.652  1.00  0.00     0.074 A 
ATOM     43  C   UNL A   1      42.849  25.474  27.697  1.00  0.00     0.049 A 
ATOM     44  N   UNL A   1      45.748  26.875  27.494  1.00  0.00    -0.248 NA
ATOM     45  C   UNL A   1      45.099  26.802  25.267  1.00  0.00     0.031 C 
ATOM     46  C   UNL A   1      41.654  24.638  27.840  1.00  0.00     0.029 A 
ATOM     47  N   UNL A   1      42.564  26.546  28.494  1.00  0.00    -0.354 N 
ATOM     48  C   UNL A   1      46.435  27.859  26.787  1.00  0.00     0.074 A 
ATOM     49  C   UNL A   1      46.095  27.681  25.400  1.00  0.00     0.031 C 
ATOM     50  C   UNL A   1      40.692  25.335  28.487  1.00  0.00     0.029 A 
ATOM     51  C   UNL A   1      41.245  26.603  28.930  1.00  0.00     0.049 A 
ATOM     52  H   UNL A   1      43.235  27.222  28.738  1.00  0.00     0.167 HD
ATOM     53  C   UNL A   1      47.066  28.880  27.429  1.00  0.00     0.037 A 
ATOM     54  C   UNL A   1      40.641  27.640  29.567  1.00  0.00     0.037 A 
ATOM     55  C   UNL A   1      47.312  28.561  28.809  1.00  0.00     0.049 A 
ATOM     56  C   UNL A   1      41.712  28.476  30.161  1.00  0.00     0.074 A 
ATOM     57  C   UNL A   1      48.044  27.594  29.469  1.00  0.00     0.029 A 
ATOM     58  N   UNL A   1      46.472  29.100  29.751  1.00  0.00    -0.354 N 
ATOM     59  N   UNL A   1      42.474  28.095  31.147  1.00  0.00    -0.248 NA
ATOM     60  C   UNL A   1      42.218  29.584  29.366  1.00  0.00     0.031 C 
ATOM     61  C   UNL A   1      47.271  27.270  30.620  1.00  0.00     0.029 A 
ATOM     62  C   UNL A   1      46.147  28.099  30.626  1.00  0.00     0.049 A 
ATOM     63  H   UNL A   1      46.161  30.033  29.790  1.00  0.00     0.167 HD
ATOM     64  C   UNL A   1      43.723  28.604  30.835  1.00  0.00     0.074 A 
ATOM     65  C   UNL A   1      43.487  29.583  29.778  1.00  0.00     0.031 C 
ATOM     66  C   UNL A   1      44.859  27.983  31.264  1.00  0.00     0.037 A 
BRANCH  53  67
ATOM     67  C   UNL A   1      47.116  30.300  26.920  1.00  0.00     0.064 A 
ATOM     68  C   UNL A   1      48.330  31.015  26.989  1.00  0.00     0.173 A 
ATOM     69  C   UNL A   1      45.964  31.079  26.679  1.00  0.00     0.173 A 
ATOM     70  F   UNL A   1      49.485  30.379  27.239  1.00  0.00    -0.203 F 
ATOM     71  C   UNL A   1      48.371  32.410  26.911  1.00  0.00     0.198 A 
ATOM     72  C   UNL A   1      46.016  32.465  26.548  1.00  0.00     0.198 A 
ATOM     73  F   UNL A   1      44.735  30.552  26.681  1.00  0.00    -0.203 F 
ATOM     74  F   UNL A   1      49.527  33.054  27.118  1.00  0.00    -0.200 F 
ATOM     75  C   UNL A   1      47.213  33.134  26.698  1.00  0.00     0.200 A 
ATOM     76  F   UNL A   1      44.880  33.152  26.365  1.00  0.00    -0.200 F 
ATOM     77  F   UNL A   1      47.238  34.473  26.689  1.00  0.00    -0.200 F 
ENDBRANCH  53  67
BRANCH  54  78
ATOM     78  C   UNL A   1      39.252  28.143  29.413  1.00  0.00     0.064 A 
ATOM     79  C   UNL A   1      38.419  28.332  30.530  1.00  0.00     0.173 A 
ATOM     80  C   UNL A   1      38.820  28.734  28.209  1.00  0.00     0.173 A 
ATOM     81  F   UNL A   1      38.775  27.844  31.727  1.00  0.00    -0.203 F 
ATOM     82  C   UNL A   1      37.246  29.092  30.455  1.00  0.00     0.198 A 
ATOM     83  C   UNL A   1      37.647  29.487  28.134  1.00  0.00     0.198 A 
ATOM     84  F   UNL A   1      39.578  28.679  27.105  1.00  0.00    -0.203 F 
ATOM     85  F   UNL A   1      36.514  29.307  31.559  1.00  0.00    -0.200 F 
ATOM     86  C   UNL A   1      36.867  29.679  29.259  1.00  0.00     0.200 A 
ATOM     87  F   UNL A   1      37.311  30.083  26.980  1.00  0.00    -0.200 F 
ATOM     88  F   UNL A   1      35.782  30.464  29.202  1.00  0.00    -0.200 F 
ENDBRANCH  54  78
BRANCH  66  89
ATOM     89  C   UNL A   1      44.737  26.913  32.310  1.00  0.00     0.064 A 
ATOM     90  C   UNL A   1      44.620  27.171  33.686  1.00  0.00     0.173 A 
ATOM     91  C   UNL A   1      44.520  25.599  31.874  1.00  0.00     0.173 A 
ATOM     92  F   UNL A   1      44.730  28.415  34.169  1.00  0.00    -0.203 F 
ATOM     93  C   UNL A   1      44.306  26.151  34.584  1.00  0.00     0.198 A 
ATOM     94  C   UNL A   1      44.173  24.591  32.768  1.00  0.00     0.198 A 
ATOM     95  F   UNL A   1      44.573  25.310  30.564  1.00  0.00    -0.203 F 
ATOM     96  F   UNL A   1      44.184  26.419  35.893  1.00  0.00    -0.200 F 
ATOM     97  C   UNL A   1      44.068  24.866  34.121  1.00  0.00     0.200 A 
ATOM     98  F   UNL A   1      43.894  23.364  32.309  1.00  0.00    -0.200 F 
ATOM     99  F   UNL A   1      43.701  23.900  34.975  1.00  0.00    -0.200 F 
ENDBRANCH  66  89
ENDBRANCH  40  41
ENDBRANCH  32  35
ENDBRANCH  30  31
ENDBRANCH  29  30
ENDBRANCH  28  29
ENDBRANCH   1  28
TORSDOF 16
ENDMDL
