MODEL 1
REMARK VINA RESULT:     -11.0      0.000      0.000
REMARK SMILES C[C@@H](CC(=O)NCCCCCCNC(=O)c1ccc(-c2c3nc(c(-c4c(F)c(F)c(F)c(F)c4F)c4ccc([nH]4)c(-c4c(F)c(F)c(F)c(F)c4F)c4nc(c(-c5c(F)c(F)c(F)c(F)c5F)c5ccc2[nH]5)C=C4)C=C3)cc1)CC(=O)NC[C@@]1(C)CCCO1
REMARK SMILES IDX 8 1 7 2 6 3 4 4 5 5 3 7 2 8 1 9 79 10 80 11 81 12 82 13
REMARK SMILES IDX 83 15 84 16 85 17 86 18 89 19 87 20 88 21 9 22 10 23 11 24
REMARK SMILES IDX 12 25 13 26 14 27 15 29 16 30 17 31 78 32 18 33 77 34 19 35
REMARK SMILES IDX 20 36 21 37 71 38 22 39 76 40 70 41 72 42 23 43 75 44 69 45
REMARK SMILES IDX 68 46 24 48 56 49 36 50 55 51 37 52 40 53 54 54 73 55 38 56
REMARK SMILES IDX 39 57 53 59 74 60 41 61 25 62 26 63 34 64 27 65 28 66 32 67
REMARK SMILES IDX 35 68 29 69 30 70 33 71 31 72 57 73 58 74 66 75 59 76 60 77
REMARK SMILES IDX 64 78 67 79 61 80 62 81 65 82 63 83 42 84 43 85 51 86 44 87
REMARK SMILES IDX 45 88 49 89 52 90 46 91 47 92 50 93 48 94
REMARK H PARENT 6 6 82 14 13 28 72 47 40 58
REMARK Flexibility Score: inf
ROOT
ATOM      1  C   UNL A   1      36.765  23.052  24.800  1.00  0.00     0.021 C 
ENDROOT
BRANCH   1   2
ATOM      2  C   UNL A   1      35.839  22.706  23.633  1.00  0.00     0.116 C 
BRANCH   2   3
ATOM      3  N   UNL A   1      35.054  23.868  23.264  1.00  0.00    -0.356 N 
ATOM      4  C   UNL A   1      33.713  24.087  23.347  1.00  0.00     0.220 C 
ATOM      5  O   UNL A   1      33.256  25.080  22.777  1.00  0.00    -0.275 OA
ATOM      6  H   UNL A   1      35.573  24.617  22.894  1.00  0.00     0.163 HD
BRANCH   4   7
ATOM      7  C   UNL A   1      32.811  23.169  24.153  1.00  0.00     0.103 C 
BRANCH   7   8
ATOM      8  C   UNL A   1      32.581  23.481  25.648  1.00  0.00     0.004 C 
ATOM      9  C   UNL A   1      33.650  24.447  26.154  1.00  0.00     0.009 C 
BRANCH   8  10
ATOM     10  C   UNL A   1      32.432  22.244  26.548  1.00  0.00     0.103 C 
BRANCH  10  11
ATOM     11  C   UNL A   1      33.642  21.330  26.486  1.00  0.00     0.220 C 
ATOM     12  O   UNL A   1      34.650  21.570  27.155  1.00  0.00    -0.275 OA
ATOM     13  N   UNL A   1      33.666  20.241  25.670  1.00  0.00    -0.353 N 
ATOM     14  H   UNL A   1      34.527  19.763  25.666  1.00  0.00     0.163 HD
BRANCH  13  15
ATOM     15  C   UNL A   1      32.654  19.647  24.799  1.00  0.00     0.151 C 
BRANCH  15  16
ATOM     16  C   UNL A   1      32.986  18.233  24.233  1.00  0.00     0.083 C 
ATOM     17  C   UNL A   1      32.540  18.056  22.775  1.00  0.00     0.044 C 
ATOM     18  C   UNL A   1      34.469  17.904  24.420  1.00  0.00     0.039 C 
ATOM     19  O   UNL A   1      32.324  17.214  25.014  1.00  0.00    -0.373 OA
ATOM     20  C   UNL A   1      34.487  16.394  24.463  1.00  0.00     0.031 C 
ATOM     21  C   UNL A   1      33.170  16.062  25.131  1.00  0.00     0.161 C 
ENDBRANCH  15  16
ENDBRANCH  13  15
ENDBRANCH  10  11
ENDBRANCH   8  10
ENDBRANCH   7   8
ENDBRANCH   4   7
ENDBRANCH   2   3
ENDBRANCH   1   2
BRANCH   1  22
ATOM     22  C   UNL A   1      37.604  21.883  25.324  1.00  0.00     0.002 C 
BRANCH  22  23
ATOM     23  C   UNL A   1      37.293  20.521  24.698  1.00  0.00     0.002 C 
BRANCH  23  24
ATOM     24  C   UNL A   1      38.313  19.413  24.976  1.00  0.00     0.021 C 
BRANCH  24  25
ATOM     25  C   UNL A   1      39.382  19.754  26.012  1.00  0.00     0.116 C 
BRANCH  25  26
ATOM     26  N   UNL A   1      40.508  18.837  25.963  1.00  0.00    -0.352 N 
ATOM     27  C   UNL A   1      41.856  19.102  25.998  1.00  0.00     0.251 C 
ATOM     28  H   UNL A   1      40.270  17.885  25.894  1.00  0.00     0.163 HD
ATOM     29  O   UNL A   1      42.666  18.218  25.742  1.00  0.00    -0.269 OA
BRANCH  27  30
ATOM     30  C   UNL A   1      42.340  20.457  26.339  1.00  0.00     0.039 A 
ATOM     31  C   UNL A   1      42.755  21.309  25.312  1.00  0.00     0.014 A 
ATOM     32  C   UNL A   1      42.432  20.870  27.671  1.00  0.00     0.014 A 
ATOM     33  C   UNL A   1      43.215  22.594  25.614  1.00  0.00     0.010 A 
ATOM     34  C   UNL A   1      42.840  22.170  27.968  1.00  0.00     0.010 A 
ATOM     35  C   UNL A   1      43.240  23.043  26.943  1.00  0.00    -0.014 A 
BRANCH  35  36
ATOM     36  C   UNL A   1      43.706  24.408  27.298  1.00  0.00     0.031 A 
ATOM     37  C   UNL A   1      42.725  25.418  27.822  1.00  0.00     0.074 A 
ATOM     38  C   UNL A   1      44.985  24.765  27.071  1.00  0.00     0.049 A 
ATOM     39  N   UNL A   1      42.889  26.697  28.047  1.00  0.00    -0.248 NA
ATOM     40  C   UNL A   1      41.368  24.926  28.111  1.00  0.00     0.031 C 
ATOM     41  C   UNL A   1      46.030  23.883  26.553  1.00  0.00     0.029 A 
ATOM     42  N   UNL A   1      45.617  25.974  27.230  1.00  0.00    -0.354 N 
ATOM     43  C   UNL A   1      41.655  27.167  28.476  1.00  0.00     0.074 A 
ATOM     44  C   UNL A   1      40.742  26.044  28.448  1.00  0.00     0.031 C 
ATOM     45  C   UNL A   1      47.173  24.579  26.436  1.00  0.00     0.029 A 
ATOM     46  C   UNL A   1      46.931  25.964  26.831  1.00  0.00     0.049 A 
ATOM     47  H   UNL A   1      45.170  26.772  27.595  1.00  0.00     0.167 HD
ATOM     48  C   UNL A   1      41.319  28.417  28.873  1.00  0.00     0.037 A 
ATOM     49  C   UNL A   1      47.832  26.963  26.769  1.00  0.00     0.037 A 
ATOM     50  C   UNL A   1      42.238  29.524  28.931  1.00  0.00     0.049 A 
ATOM     51  C   UNL A   1      47.430  28.349  27.201  1.00  0.00     0.074 A 
ATOM     52  C   UNL A   1      42.004  30.817  29.365  1.00  0.00     0.029 A 
ATOM     53  N   UNL A   1      43.569  29.465  28.547  1.00  0.00    -0.354 N 
ATOM     54  N   UNL A   1      46.272  28.773  27.642  1.00  0.00    -0.248 NA
ATOM     55  C   UNL A   1      48.462  29.394  27.128  1.00  0.00     0.031 C 
ATOM     56  C   UNL A   1      43.183  31.552  29.204  1.00  0.00     0.029 A 
ATOM     57  C   UNL A   1      44.164  30.704  28.717  1.00  0.00     0.049 A 
ATOM     58  H   UNL A   1      44.024  28.662  28.204  1.00  0.00     0.167 HD
ATOM     59  C   UNL A   1      46.444  30.119  27.937  1.00  0.00     0.074 A 
ATOM     60  C   UNL A   1      47.819  30.444  27.622  1.00  0.00     0.031 C 
ATOM     61  C   UNL A   1      45.543  31.004  28.428  1.00  0.00     0.037 A 
BRANCH  48  62
ATOM     62  C   UNL A   1      39.893  28.662  29.271  1.00  0.00     0.064 A 
ATOM     63  C   UNL A   1      39.451  28.468  30.589  1.00  0.00     0.173 A 
ATOM     64  C   UNL A   1      38.965  29.137  28.332  1.00  0.00     0.173 A 
ATOM     65  F   UNL A   1      40.297  28.005  31.522  1.00  0.00    -0.203 F 
ATOM     66  C   UNL A   1      38.128  28.713  30.944  1.00  0.00     0.198 A 
ATOM     67  C   UNL A   1      37.649  29.410  28.698  1.00  0.00     0.198 A 
ATOM     68  F   UNL A   1      39.336  29.346  27.059  1.00  0.00    -0.203 F 
ATOM     69  F   UNL A   1      37.718  28.475  32.198  1.00  0.00    -0.200 F 
ATOM     70  C   UNL A   1      37.231  29.191  30.001  1.00  0.00     0.200 A 
ATOM     71  F   UNL A   1      36.787  29.884  27.788  1.00  0.00    -0.200 F 
ATOM     72  F   UNL A   1      35.958  29.433  30.347  1.00  0.00    -0.200 F 
ENDBRANCH  48  62
BRANCH  49  73
ATOM     73  C   UNL A   1      49.212  26.689  26.288  1.00  0.00     0.064 A 
ATOM     74  C   UNL A   1      50.191  26.192  27.160  1.00  0.00     0.173 A 
ATOM     75  C   UNL A   1      49.580  26.918  24.955  1.00  0.00     0.173 A 
ATOM     76  F   UNL A   1      49.892  25.978  28.449  1.00  0.00    -0.203 F 
ATOM     77  C   UNL A   1      51.491  25.953  26.720  1.00  0.00     0.198 A 
ATOM     78  C   UNL A   1      50.873  26.652  24.510  1.00  0.00     0.198 A 
ATOM     79  F   UNL A   1      48.679  27.388  24.080  1.00  0.00    -0.203 F 
ATOM     80  F   UNL A   1      52.419  25.519  27.584  1.00  0.00    -0.200 F 
ATOM     81  C   UNL A   1      51.830  26.177  25.394  1.00  0.00     0.200 A 
ATOM     82  F   UNL A   1      51.192  26.857  23.224  1.00  0.00    -0.200 F 
ATOM     83  F   UNL A   1      53.079  25.943  24.971  1.00  0.00    -0.200 F 
ENDBRANCH  49  73
BRANCH  61  84
ATOM     84  C   UNL A   1      46.019  32.396  28.718  1.00  0.00     0.064 A 
ATOM     85  C   UNL A   1      45.926  33.422  27.767  1.00  0.00     0.173 A 
ATOM     86  C   UNL A   1      46.507  32.722  29.993  1.00  0.00     0.173 A 
ATOM     87  F   UNL A   1      45.479  33.157  26.530  1.00  0.00    -0.203 F 
ATOM     88  C   UNL A   1      46.313  34.723  28.080  1.00  0.00     0.198 A 
ATOM     89  C   UNL A   1      46.869  34.028  30.311  1.00  0.00     0.198 A 
ATOM     90  F   UNL A   1      46.611  31.776  30.939  1.00  0.00    -0.203 F 
ATOM     91  F   UNL A   1      46.242  35.683  27.148  1.00  0.00    -0.200 F 
ATOM     92  C   UNL A   1      46.773  35.027  29.353  1.00  0.00     0.200 A 
ATOM     93  F   UNL A   1      47.301  34.321  31.545  1.00  0.00    -0.200 F 
ATOM     94  F   UNL A   1      47.128  36.283  29.657  1.00  0.00    -0.200 F 
ENDBRANCH  61  84
ENDBRANCH  35  36
ENDBRANCH  27  30
ENDBRANCH  25  26
ENDBRANCH  24  25
ENDBRANCH  23  24
ENDBRANCH  22  23
ENDBRANCH   1  22
TORSDOF 18
ENDMDL
MODEL 2
REMARK VINA RESULT:     -11.0      1.510      7.625
REMARK SMILES C[C@@H](CC(=O)NCCCCCCNC(=O)c1ccc(-c2c3nc(c(-c4c(F)c(F)c(F)c(F)c4F)c4ccc([nH]4)c(-c4c(F)c(F)c(F)c(F)c4F)c4nc(c(-c5c(F)c(F)c(F)c(F)c5F)c5ccc2[nH]5)C=C4)C=C3)cc1)CC(=O)NC[C@@]1(C)CCCO1
REMARK SMILES IDX 8 1 7 2 6 3 4 4 5 5 3 7 2 8 1 9 79 10 80 11 81 12 82 13
REMARK SMILES IDX 83 15 84 16 85 17 86 18 89 19 87 20 88 21 9 22 10 23 11 24
REMARK SMILES IDX 12 25 13 26 14 27 15 29 16 30 17 31 78 32 18 33 77 34 19 35
REMARK SMILES IDX 20 36 21 37 71 38 22 39 76 40 70 41 72 42 23 43 75 44 69 45
REMARK SMILES IDX 68 46 24 48 56 49 36 50 55 51 37 52 40 53 54 54 73 55 38 56
REMARK SMILES IDX 39 57 53 59 74 60 41 61 25 62 26 63 34 64 27 65 28 66 32 67
REMARK SMILES IDX 35 68 29 69 30 70 33 71 31 72 57 73 58 74 66 75 59 76 60 77
REMARK SMILES IDX 64 78 67 79 61 80 62 81 65 82 63 83 42 84 43 85 51 86 44 87
REMARK SMILES IDX 45 88 49 89 52 90 46 91 47 92 50 93 48 94
REMARK H PARENT 6 6 82 14 13 28 72 47 40 58
REMARK Flexibility Score: inf
ROOT
ATOM      1  C   UNL A   1      39.541  23.107  26.616  1.00  0.00     0.021 C 
ENDROOT
BRANCH   1   2
ATOM      2  C   UNL A   1      38.184  23.708  26.245  1.00  0.00     0.116 C 
BRANCH   2   3
ATOM      3  N   UNL A   1      37.886  23.431  24.854  1.00  0.00    -0.356 N 
ATOM      4  C   UNL A   1      36.697  23.429  24.192  1.00  0.00     0.220 C 
ATOM      5  O   UNL A   1      36.673  22.958  23.053  1.00  0.00    -0.275 OA
ATOM      6  H   UNL A   1      38.668  23.207  24.300  1.00  0.00     0.163 HD
BRANCH   4   7
ATOM      7  C   UNL A   1      35.447  24.028  24.812  1.00  0.00     0.103 C 
BRANCH   7   8
ATOM      8  C   UNL A   1      34.521  23.114  25.645  1.00  0.00     0.004 C 
ATOM      9  C   UNL A   1      35.181  21.754  25.859  1.00  0.00     0.009 C 
BRANCH   8  10
ATOM     10  C   UNL A   1      33.084  22.996  25.112  1.00  0.00     0.103 C 
BRANCH  10  11
ATOM     11  C   UNL A   1      33.023  22.344  23.743  1.00  0.00     0.220 C 
ATOM     12  O   UNL A   1      33.259  22.995  22.723  1.00  0.00    -0.275 OA
ATOM     13  N   UNL A   1      32.676  21.036  23.596  1.00  0.00    -0.353 N 
ATOM     14  H   UNL A   1      32.607  20.744  22.658  1.00  0.00     0.163 HD
BRANCH  13  15
ATOM     15  C   UNL A   1      32.387  19.984  24.567  1.00  0.00     0.151 C 
BRANCH  15  16
ATOM     16  C   UNL A   1      32.736  18.531  24.124  1.00  0.00     0.083 C 
ATOM     17  C   UNL A   1      32.355  18.246  22.665  1.00  0.00     0.044 C 
ATOM     18  C   UNL A   1      34.207  18.214  24.403  1.00  0.00     0.039 C 
ATOM     19  O   UNL A   1      32.033  17.575  24.949  1.00  0.00    -0.373 OA
ATOM     20  C   UNL A   1      34.215  16.711  24.559  1.00  0.00     0.031 C 
ATOM     21  C   UNL A   1      32.868  16.433  25.190  1.00  0.00     0.161 C 
ENDBRANCH  15  16
ENDBRANCH  13  15
ENDBRANCH  10  11
ENDBRANCH   8  10
ENDBRANCH   7   8
ENDBRANCH   4   7
ENDBRANCH   2   3
ENDBRANCH   1   2
BRANCH   1  22
ATOM     22  C   UNL A   1      39.745  21.655  26.173  1.00  0.00     0.002 C 
BRANCH  22  23
ATOM     23  C   UNL A   1      41.118  21.059  26.492  1.00  0.00     0.002 C 
BRANCH  23  24
ATOM     24  C   UNL A   1      41.365  19.640  25.971  1.00  0.00     0.021 C 
BRANCH  24  25
ATOM     25  C   UNL A   1      42.659  18.985  26.448  1.00  0.00     0.116 C 
BRANCH  25  26
ATOM     26  N   UNL A   1      43.546  18.652  25.346  1.00  0.00    -0.352 N 
ATOM     27  C   UNL A   1      44.316  19.476  24.562  1.00  0.00     0.251 C 
ATOM     28  H   UNL A   1      43.604  17.694  25.130  1.00  0.00     0.163 HD
ATOM     29  O   UNL A   1      44.848  19.043  23.545  1.00  0.00    -0.269 OA
BRANCH  27  30
ATOM     30  C   UNL A   1      44.504  20.896  24.933  1.00  0.00     0.039 A 
ATOM     31  C   UNL A   1      43.991  21.891  24.096  1.00  0.00     0.014 A 
ATOM     32  C   UNL A   1      45.229  21.247  26.076  1.00  0.00     0.014 A 
ATOM     33  C   UNL A   1      44.157  23.237  24.430  1.00  0.00     0.010 A 
ATOM     34  C   UNL A   1      45.349  22.588  26.436  1.00  0.00     0.010 A 
ATOM     35  C   UNL A   1      44.819  23.597  25.615  1.00  0.00    -0.014 A 
BRANCH  35  36
ATOM     36  C   UNL A   1      44.998  25.017  26.009  1.00  0.00     0.031 A 
ATOM     37  C   UNL A   1      46.359  25.650  25.927  1.00  0.00     0.074 A 
ATOM     38  C   UNL A   1      43.962  25.712  26.518  1.00  0.00     0.049 A 
ATOM     39  N   UNL A   1      46.760  26.817  26.361  1.00  0.00    -0.248 NA
ATOM     40  C   UNL A   1      47.416  24.848  25.291  1.00  0.00     0.031 C 
ATOM     41  C   UNL A   1      42.596  25.209  26.663  1.00  0.00     0.029 A 
ATOM     42  N   UNL A   1      43.904  26.987  27.028  1.00  0.00    -0.354 N 
ATOM     43  C   UNL A   1      48.118  26.880  26.075  1.00  0.00     0.074 A 
ATOM     44  C   UNL A   1      48.480  25.620  25.463  1.00  0.00     0.031 C 
ATOM     45  C   UNL A   1      41.835  26.164  27.223  1.00  0.00     0.029 A 
ATOM     46  C   UNL A   1      42.666  27.328  27.515  1.00  0.00     0.049 A 
ATOM     47  H   UNL A   1      44.677  27.597  27.042  1.00  0.00     0.167 HD
ATOM     48  C   UNL A   1      48.979  27.902  26.291  1.00  0.00     0.037 A 
ATOM     49  C   UNL A   1      42.254  28.445  28.145  1.00  0.00     0.037 A 
ATOM     50  C   UNL A   1      48.609  29.166  26.870  1.00  0.00     0.049 A 
ATOM     51  C   UNL A   1      43.235  29.562  28.387  1.00  0.00     0.074 A 
ATOM     52  C   UNL A   1      49.400  30.281  27.084  1.00  0.00     0.029 A 
ATOM     53  N   UNL A   1      47.337  29.484  27.323  1.00  0.00    -0.354 N 
ATOM     54  N   UNL A   1      44.507  29.626  28.078  1.00  0.00    -0.248 NA
ATOM     55  C   UNL A   1      42.723  30.763  29.064  1.00  0.00     0.031 C 
ATOM     56  C   UNL A   1      48.617  31.260  27.706  1.00  0.00     0.029 A 
ATOM     57  C   UNL A   1      47.327  30.772  27.833  1.00  0.00     0.049 A 
ATOM     58  H   UNL A   1      46.558  28.884  27.288  1.00  0.00     0.167 HD
ATOM     59  C   UNL A   1      44.936  30.882  28.484  1.00  0.00     0.074 A 
ATOM     60  C   UNL A   1      43.791  31.550  29.065  1.00  0.00     0.031 C 
ATOM     61  C   UNL A   1      46.170  31.434  28.380  1.00  0.00     0.037 A 
BRANCH  48  62
ATOM     62  C   UNL A   1      50.415  27.696  25.904  1.00  0.00     0.064 A 
ATOM     63  C   UNL A   1      51.391  27.350  26.850  1.00  0.00     0.173 A 
ATOM     64  C   UNL A   1      50.812  27.807  24.563  1.00  0.00     0.173 A 
ATOM     65  F   UNL A   1      51.065  27.242  28.147  1.00  0.00    -0.203 F 
ATOM     66  C   UNL A   1      52.715  27.149  26.471  1.00  0.00     0.198 A 
ATOM     67  C   UNL A   1      52.132  27.576  24.184  1.00  0.00     0.198 A 
ATOM     68  F   UNL A   1      49.917  28.131  23.616  1.00  0.00    -0.203 F 
ATOM     69  F   UNL A   1      53.640  26.865  27.400  1.00  0.00    -0.200 F 
ATOM     70  C   UNL A   1      53.084  27.254  25.139  1.00  0.00     0.200 A 
ATOM     71  F   UNL A   1      52.483  27.666  22.893  1.00  0.00    -0.200 F 
ATOM     72  F   UNL A   1      54.358  27.054  24.776  1.00  0.00    -0.200 F 
ENDBRANCH  48  62
BRANCH  49  73
ATOM     73  C   UNL A   1      40.840  28.569  28.585  1.00  0.00     0.064 A 
ATOM     74  C   UNL A   1      39.854  29.044  27.709  1.00  0.00     0.173 A 
ATOM     75  C   UNL A   1      40.445  28.220  29.885  1.00  0.00     0.173 A 
ATOM     76  F   UNL A   1      40.187  29.411  26.463  1.00  0.00    -0.203 F 
ATOM     77  C   UNL A   1      38.531  29.182  28.121  1.00  0.00     0.198 A 
ATOM     78  C   UNL A   1      39.116  28.333  30.287  1.00  0.00     0.198 A 
ATOM     79  F   UNL A   1      41.349  27.756  30.760  1.00  0.00    -0.203 F 
ATOM     80  F   UNL A   1      37.617  29.679  27.277  1.00  0.00    -0.200 F 
ATOM     81  C   UNL A   1      38.162  28.821  29.408  1.00  0.00     0.200 A 
ATOM     82  F   UNL A   1      38.761  27.969  31.528  1.00  0.00    -0.200 F 
ATOM     83  F   UNL A   1      36.887  28.950  29.803  1.00  0.00    -0.200 F 
ENDBRANCH  49  73
BRANCH  61  84
ATOM     84  C   UNL A   1      46.343  32.849  28.845  1.00  0.00     0.064 A 
ATOM     85  C   UNL A   1      46.759  33.152  30.149  1.00  0.00     0.173 A 
ATOM     86  C   UNL A   1      46.160  33.912  27.947  1.00  0.00     0.173 A 
ATOM     87  F   UNL A   1      46.933  32.171  31.047  1.00  0.00    -0.203 F 
ATOM     88  C   UNL A   1      46.978  34.472  30.540  1.00  0.00     0.198 A 
ATOM     89  C   UNL A   1      46.404  35.227  28.334  1.00  0.00     0.198 A 
ATOM     90  F   UNL A   1      45.767  33.672  26.687  1.00  0.00    -0.203 F 
ATOM     91  F   UNL A   1      47.348  34.742  31.799  1.00  0.00    -0.200 F 
ATOM     92  C   UNL A   1      46.810  35.505  29.630  1.00  0.00     0.200 A 
ATOM     93  F   UNL A   1      46.255  36.222  27.449  1.00  0.00    -0.200 F 
ATOM     94  F   UNL A   1      47.039  36.772  30.004  1.00  0.00    -0.200 F 
ENDBRANCH  61  84
ENDBRANCH  35  36
ENDBRANCH  27  30
ENDBRANCH  25  26
ENDBRANCH  24  25
ENDBRANCH  23  24
ENDBRANCH  22  23
ENDBRANCH   1  22
TORSDOF 18
ENDMDL
MODEL 3
REMARK VINA RESULT:     -11.0      6.225     11.707
REMARK SMILES C[C@@H](CC(=O)NCCCCCCNC(=O)c1ccc(-c2c3nc(c(-c4c(F)c(F)c(F)c(F)c4F)c4ccc([nH]4)c(-c4c(F)c(F)c(F)c(F)c4F)c4nc(c(-c5c(F)c(F)c(F)c(F)c5F)c5ccc2[nH]5)C=C4)C=C3)cc1)CC(=O)NC[C@@]1(C)CCCO1
REMARK SMILES IDX 8 1 7 2 6 3 4 4 5 5 3 7 2 8 1 9 79 10 80 11 81 12 82 13
REMARK SMILES IDX 83 15 84 16 85 17 86 18 89 19 87 20 88 21 9 22 10 23 11 24
REMARK SMILES IDX 12 25 13 26 14 27 15 29 16 30 17 31 78 32 18 33 77 34 19 35
REMARK SMILES IDX 20 36 21 37 71 38 22 39 76 40 70 41 72 42 23 43 75 44 69 45
REMARK SMILES IDX 68 46 24 48 56 49 36 50 55 51 37 52 40 53 54 54 73 55 38 56
REMARK SMILES IDX 39 57 53 59 74 60 41 61 25 62 26 63 34 64 27 65 28 66 32 67
REMARK SMILES IDX 35 68 29 69 30 70 33 71 31 72 57 73 58 74 66 75 59 76 60 77
REMARK SMILES IDX 64 78 67 79 61 80 62 81 65 82 63 83 42 84 43 85 51 86 44 87
REMARK SMILES IDX 45 88 49 89 52 90 46 91 47 92 50 93 48 94
REMARK H PARENT 6 6 82 14 13 28 72 47 40 58
REMARK Flexibility Score: inf
ROOT
ATOM      1  C   UNL A   1      33.612  29.407  26.690  1.00  0.00     0.021 C 
ENDROOT
BRANCH   1   2
ATOM      2  C   UNL A   1      33.663  27.901  26.429  1.00  0.00     0.116 C 
BRANCH   2   3
ATOM      3  N   UNL A   1      32.419  27.285  26.845  1.00  0.00    -0.356 N 
ATOM      4  C   UNL A   1      31.816  26.142  26.418  1.00  0.00     0.220 C 
ATOM      5  O   UNL A   1      30.656  25.934  26.778  1.00  0.00    -0.275 OA
ATOM      6  H   UNL A   1      31.931  27.772  27.547  1.00  0.00     0.163 HD
BRANCH   4   7
ATOM      7  C   UNL A   1      32.558  25.129  25.565  1.00  0.00     0.103 C 
BRANCH   7   8
ATOM      8  C   UNL A   1      32.535  25.295  24.029  1.00  0.00     0.004 C 
ATOM      9  C   UNL A   1      33.932  25.074  23.456  1.00  0.00     0.009 C 
BRANCH   8  10
ATOM     10  C   UNL A   1      31.893  26.600  23.532  1.00  0.00     0.103 C 
BRANCH  10  11
ATOM     11  C   UNL A   1      30.380  26.509  23.451  1.00  0.00     0.220 C 
ATOM     12  O   UNL A   1      29.807  25.419  23.524  1.00  0.00    -0.275 OA
ATOM     13  N   UNL A   1      29.613  27.618  23.261  1.00  0.00    -0.353 N 
ATOM     14  H   UNL A   1      28.652  27.426  23.159  1.00  0.00     0.163 HD
BRANCH  13  15
ATOM     15  C   UNL A   1      29.946  29.038  23.181  1.00  0.00     0.151 C 
BRANCH  15  16
ATOM     16  C   UNL A   1      28.772  29.995  22.816  1.00  0.00     0.083 C 
ATOM     17  C   UNL A   1      27.407  29.295  22.827  1.00  0.00     0.044 C 
ATOM     18  C   UNL A   1      28.784  31.239  23.709  1.00  0.00     0.039 C 
ATOM     19  O   UNL A   1      28.967  30.542  21.493  1.00  0.00    -0.373 OA
ATOM     20  C   UNL A   1      28.097  32.282  22.860  1.00  0.00     0.031 C 
ATOM     21  C   UNL A   1      28.519  31.905  21.457  1.00  0.00     0.161 C 
ENDBRANCH  15  16
ENDBRANCH  13  15
ENDBRANCH  10  11
ENDBRANCH   8  10
ENDBRANCH   7   8
ENDBRANCH   4   7
ENDBRANCH   2   3
ENDBRANCH   1   2
BRANCH   1  22
ATOM     22  C   UNL A   1      32.258  29.929  27.180  1.00  0.00     0.002 C 
BRANCH  22  23
ATOM     23  C   UNL A   1      31.498  30.811  26.187  1.00  0.00     0.002 C 
BRANCH  23  24
ATOM     24  C   UNL A   1      31.379  32.291  26.567  1.00  0.00     0.021 C 
BRANCH  24  25
ATOM     25  C   UNL A   1      32.645  32.921  27.142  1.00  0.00     0.116 C 
BRANCH  25  26
ATOM     26  N   UNL A   1      32.411  34.263  27.646  1.00  0.00    -0.352 N 
ATOM     27  C   UNL A   1      32.998  34.918  28.702  1.00  0.00     0.251 C 
ATOM     28  H   UNL A   1      31.731  34.781  27.158  1.00  0.00     0.163 HD
ATOM     29  O   UNL A   1      32.532  35.977  29.109  1.00  0.00    -0.269 OA
BRANCH  27  30
ATOM     30  C   UNL A   1      34.192  34.347  29.361  1.00  0.00     0.039 A 
ATOM     31  C   UNL A   1      34.030  33.599  30.531  1.00  0.00     0.014 A 
ATOM     32  C   UNL A   1      35.473  34.589  28.857  1.00  0.00     0.014 A 
ATOM     33  C   UNL A   1      35.146  33.050  31.168  1.00  0.00     0.010 A 
ATOM     34  C   UNL A   1      36.581  33.998  29.463  1.00  0.00     0.010 A 
ATOM     35  C   UNL A   1      36.429  33.227  30.627  1.00  0.00    -0.014 A 
BRANCH  35  36
ATOM     36  C   UNL A   1      37.635  32.643  31.268  1.00  0.00     0.031 A 
ATOM     37  C   UNL A   1      38.352  31.499  30.608  1.00  0.00     0.074 A 
ATOM     38  C   UNL A   1      38.036  33.081  32.477  1.00  0.00     0.049 A 
ATOM     39  N   UNL A   1      39.323  30.751  31.066  1.00  0.00    -0.248 NA
ATOM     40  C   UNL A   1      37.896  31.132  29.258  1.00  0.00     0.031 C 
ATOM     41  C   UNL A   1      37.418  34.174  33.228  1.00  0.00     0.029 A 
ATOM     42  N   UNL A   1      39.048  32.643  33.296  1.00  0.00    -0.354 N 
ATOM     43  C   UNL A   1      39.576  29.812  30.076  1.00  0.00     0.074 A 
ATOM     44  C   UNL A   1      38.634  30.061  29.006  1.00  0.00     0.031 C 
ATOM     45  C   UNL A   1      38.063  34.322  34.397  1.00  0.00     0.029 A 
ATOM     46  C   UNL A   1      39.111  33.310  34.496  1.00  0.00     0.049 A 
ATOM     47  H   UNL A   1      39.669  31.922  33.047  1.00  0.00     0.167 HD
ATOM     48  C   UNL A   1      40.520  28.841  30.055  1.00  0.00     0.037 A 
ATOM     49  C   UNL A   1      39.909  33.112  35.563  1.00  0.00     0.037 A 
ATOM     50  C   UNL A   1      41.477  28.617  31.106  1.00  0.00     0.049 A 
ATOM     51  C   UNL A   1      40.941  32.016  35.522  1.00  0.00     0.074 A 
ATOM     52  C   UNL A   1      42.502  27.689  31.156  1.00  0.00     0.029 A 
ATOM     53  N   UNL A   1      41.527  29.334  32.293  1.00  0.00    -0.354 N 
ATOM     54  N   UNL A   1      41.198  31.159  34.564  1.00  0.00    -0.248 NA
ATOM     55  C   UNL A   1      41.794  31.860  36.709  1.00  0.00     0.031 C 
ATOM     56  C   UNL A   1      43.148  27.816  32.390  1.00  0.00     0.029 A 
ATOM     57  C   UNL A   1      42.556  28.856  33.088  1.00  0.00     0.049 A 
ATOM     58  H   UNL A   1      40.922  30.072  32.534  1.00  0.00     0.167 HD
ATOM     59  C   UNL A   1      42.263  30.392  35.013  1.00  0.00     0.074 A 
ATOM     60  C   UNL A   1      42.606  30.881  36.332  1.00  0.00     0.031 C 
ATOM     61  C   UNL A   1      42.903  29.375  34.386  1.00  0.00     0.037 A 
BRANCH  48  62
ATOM     62  C   UNL A   1      40.563  27.937  28.857  1.00  0.00     0.064 A 
ATOM     63  C   UNL A   1      41.353  28.235  27.737  1.00  0.00     0.173 A 
ATOM     64  C   UNL A   1      39.837  26.737  28.847  1.00  0.00     0.173 A 
ATOM     65  F   UNL A   1      42.058  29.376  27.693  1.00  0.00    -0.203 F 
ATOM     66  C   UNL A   1      41.392  27.379  26.640  1.00  0.00     0.198 A 
ATOM     67  C   UNL A   1      39.902  25.868  27.760  1.00  0.00     0.198 A 
ATOM     68  F   UNL A   1      39.069  26.401  29.895  1.00  0.00    -0.203 F 
ATOM     69  F   UNL A   1      42.117  27.708  25.561  1.00  0.00    -0.200 F 
ATOM     70  C   UNL A   1      40.674  26.194  26.655  1.00  0.00     0.200 A 
ATOM     71  F   UNL A   1      39.216  24.717  27.782  1.00  0.00    -0.200 F 
ATOM     72  F   UNL A   1      40.718  25.367  25.601  1.00  0.00    -0.200 F 
ENDBRANCH  48  62
BRANCH  49  73
ATOM     73  C   UNL A   1      39.773  33.981  36.762  1.00  0.00     0.064 A 
ATOM     74  C   UNL A   1      40.452  35.205  36.844  1.00  0.00     0.173 A 
ATOM     75  C   UNL A   1      38.967  33.608  37.847  1.00  0.00     0.173 A 
ATOM     76  F   UNL A   1      41.252  35.594  35.840  1.00  0.00    -0.203 F 
ATOM     77  C   UNL A   1      40.345  36.013  37.972  1.00  0.00     0.198 A 
ATOM     78  C   UNL A   1      38.839  34.431  38.964  1.00  0.00     0.198 A 
ATOM     79  F   UNL A   1      38.293  32.449  37.816  1.00  0.00    -0.203 F 
ATOM     80  F   UNL A   1      41.039  37.157  38.043  1.00  0.00    -0.200 F 
ATOM     81  C   UNL A   1      39.534  35.629  39.029  1.00  0.00     0.200 A 
ATOM     82  F   UNL A   1      38.043  34.061  39.977  1.00  0.00    -0.200 F 
ATOM     83  F   UNL A   1      39.428  36.409  40.114  1.00  0.00    -0.200 F 
ENDBRANCH  49  73
BRANCH  61  84
ATOM     84  C   UNL A   1      44.079  28.756  35.082  1.00  0.00     0.064 A 
ATOM     85  C   UNL A   1      43.938  27.645  35.925  1.00  0.00     0.173 A 
ATOM     86  C   UNL A   1      45.374  29.238  34.839  1.00  0.00     0.173 A 
ATOM     87  F   UNL A   1      42.719  27.157  36.200  1.00  0.00    -0.203 F 
ATOM     88  C   UNL A   1      45.052  27.045  36.508  1.00  0.00     0.198 A 
ATOM     89  C   UNL A   1      46.487  28.621  35.402  1.00  0.00     0.198 A 
ATOM     90  F   UNL A   1      45.562  30.296  34.034  1.00  0.00    -0.203 F 
ATOM     91  F   UNL A   1      44.893  26.002  37.335  1.00  0.00    -0.200 F 
ATOM     92  C   UNL A   1      46.325  27.527  36.238  1.00  0.00     0.200 A 
ATOM     93  F   UNL A   1      47.716  29.079  35.129  1.00  0.00    -0.200 F 
ATOM     94  F   UNL A   1      47.396  26.936  36.786  1.00  0.00    -0.200 F 
ENDBRANCH  61  84
ENDBRANCH  35  36
ENDBRANCH  27  30
ENDBRANCH  25  26
ENDBRANCH  24  25
ENDBRANCH  23  24
ENDBRANCH  22  23
ENDBRANCH   1  22
TORSDOF 18
ENDMDL
