MODEL 1
REMARK VINA RESULT:     -12.9      0.000      0.000
REMARK SMILES Cc1ccc([C@@H](Cc2cccs2)C(=O)NCCCCCCNC(=O)c2ccc(-c3c4nc(c(-c5c(F)c(F)c(F)c(F)c5F)c5ccc([nH]5)c(-c5c(F)c(F)c(F)c(F)c5F)c5nc(c(-c6c(F)c(F)c(F)c(F)c6F)c6ccc3[nH]6)C=C5)C=C4)cc2)cc1
REMARK SMILES IDX 18 1 17 2 16 3 15 4 13 5 14 6 6 8 5 9 1 10 2 11 3 12 89 13
REMARK SMILES IDX 4 14 88 15 7 16 8 17 9 18 12 19 10 20 11 21 19 22 20 23
REMARK SMILES IDX 21 24 22 25 23 26 24 28 25 29 26 30 87 31 27 32 86 33 28 34
REMARK SMILES IDX 29 35 30 36 80 37 31 38 85 39 79 40 81 41 32 42 84 43 78 44
REMARK SMILES IDX 77 45 33 47 65 48 45 49 64 50 46 51 49 52 63 53 82 54 47 55
REMARK SMILES IDX 48 56 62 58 83 59 50 60 34 61 35 62 43 63 36 64 37 65 41 66
REMARK SMILES IDX 44 67 38 68 39 69 42 70 40 71 66 72 67 73 75 74 68 75 69 76
REMARK SMILES IDX 73 77 76 78 70 79 71 80 74 81 72 82 51 83 52 84 60 85 53 86
REMARK SMILES IDX 54 87 58 88 61 89 55 90 56 91 59 92 57 93
REMARK H PARENT 15 7 22 27 81 46 49 57
REMARK Flexibility Score: inf
ROOT
ATOM      1  C   UNL A   1      31.808  27.915  26.885  1.00  0.00     0.002 C 
ENDROOT
BRANCH   1   2
ATOM      2  C   UNL A   1      31.696  27.631  25.381  1.00  0.00     0.021 C 
BRANCH   2   3
ATOM      3  C   UNL A   1      32.398  26.364  24.890  1.00  0.00     0.116 C 
BRANCH   3   4
ATOM      4  N   UNL A   1      33.010  26.490  23.592  1.00  0.00    -0.356 N 
ATOM      5  C   UNL A   1      33.434  25.553  22.706  1.00  0.00     0.227 C 
ATOM      6  O   UNL A   1      33.759  25.984  21.589  1.00  0.00    -0.274 OA
ATOM      7  H   UNL A   1      33.145  27.419  23.295  1.00  0.00     0.163 HD
BRANCH   5   8
ATOM      8  C   UNL A   1      33.549  24.045  22.992  1.00  0.00     0.113 C 
BRANCH   8   9
ATOM      9  C   UNL A   1      34.801  23.640  23.770  1.00  0.00    -0.035 A 
ATOM     10  C   UNL A   1      38.417  22.429  25.841  1.00  0.00     0.044 C 
ATOM     11  C   UNL A   1      37.174  22.840  25.112  1.00  0.00    -0.051 A 
ATOM     12  C   UNL A   1      36.263  23.704  25.722  1.00  0.00     0.004 A 
ATOM     13  C   UNL A   1      36.904  22.386  23.822  1.00  0.00     0.004 A 
ATOM     14  C   UNL A   1      35.097  24.096  25.056  1.00  0.00     0.005 A 
ATOM     15  C   UNL A   1      35.737  22.783  23.160  1.00  0.00     0.005 A 
ENDBRANCH   8   9
BRANCH   8  16
ATOM     16  C   UNL A   1      32.235  23.246  23.172  1.00  0.00     0.065 C 
BRANCH  16  17
ATOM     17  C   UNL A   1      32.299  21.780  23.495  1.00  0.00     0.006 A 
ATOM     18  C   UNL A   1      32.161  20.699  22.644  1.00  0.00     0.015 A 
ATOM     19  S   UNL A   1      32.437  21.257  25.128  1.00  0.00    -0.149 S 
ATOM     20  C   UNL A   1      32.365  19.455  23.305  1.00  0.00     0.012 A 
ATOM     21  C   UNL A   1      32.547  19.617  24.659  1.00  0.00     0.065 A 
ENDBRANCH  16  17
ENDBRANCH   8  16
ENDBRANCH   5   8
ENDBRANCH   3   4
ENDBRANCH   2   3
ENDBRANCH   1   2
BRANCH   1  22
ATOM     22  C   UNL A   1      33.104  28.575  27.393  1.00  0.00     0.002 C 
BRANCH  22  23
ATOM     23  C   UNL A   1      33.080  30.094  27.565  1.00  0.00     0.021 C 
BRANCH  23  24
ATOM     24  C   UNL A   1      34.445  30.760  27.454  1.00  0.00     0.116 C 
BRANCH  24  25
ATOM     25  N   UNL A   1      34.874  31.426  28.681  1.00  0.00    -0.352 N 
ATOM     26  C   UNL A   1      35.878  31.057  29.561  1.00  0.00     0.251 C 
ATOM     27  H   UNL A   1      34.384  32.247  28.914  1.00  0.00     0.163 HD
ATOM     28  O   UNL A   1      36.130  31.718  30.554  1.00  0.00    -0.269 OA
BRANCH  26  29
ATOM     29  C   UNL A   1      36.725  29.900  29.198  1.00  0.00     0.039 A 
ATOM     30  C   UNL A   1      37.032  28.980  30.205  1.00  0.00     0.014 A 
ATOM     31  C   UNL A   1      37.398  29.883  27.978  1.00  0.00     0.014 A 
ATOM     32  C   UNL A   1      38.189  28.218  30.087  1.00  0.00     0.010 A 
ATOM     33  C   UNL A   1      38.587  29.186  27.893  1.00  0.00     0.010 A 
ATOM     34  C   UNL A   1      39.019  28.423  28.984  1.00  0.00    -0.014 A 
BRANCH  34  35
ATOM     35  C   UNL A   1      40.413  27.998  28.969  1.00  0.00     0.031 A 
ATOM     36  C   UNL A   1      40.777  26.641  28.524  1.00  0.00     0.074 A 
ATOM     37  C   UNL A   1      41.367  28.875  29.355  1.00  0.00     0.049 A 
ATOM     38  N   UNL A   1      41.884  26.052  28.832  1.00  0.00    -0.248 NA
ATOM     39  C   UNL A   1      39.868  25.791  27.764  1.00  0.00     0.031 C 
ATOM     40  C   UNL A   1      42.815  28.738  29.207  1.00  0.00     0.029 A 
ATOM     41  N   UNL A   1      41.206  29.997  30.188  1.00  0.00    -0.354 N 
ATOM     42  C   UNL A   1      41.958  24.887  28.104  1.00  0.00     0.074 A 
ATOM     43  C   UNL A   1      40.630  24.707  27.577  1.00  0.00     0.031 C 
ATOM     44  C   UNL A   1      43.416  29.504  30.130  1.00  0.00     0.029 A 
ATOM     45  C   UNL A   1      42.373  30.042  30.987  1.00  0.00     0.049 A 
ATOM     46  H   UNL A   1      40.443  30.619  30.210  1.00  0.00     0.167 HD
ATOM     47  C   UNL A   1      43.179  24.304  27.934  1.00  0.00     0.037 A 
ATOM     48  C   UNL A   1      42.319  29.892  32.341  1.00  0.00     0.037 A 
ATOM     49  C   UNL A   1      44.151  24.869  28.876  1.00  0.00     0.049 A 
ATOM     50  C   UNL A   1      43.136  28.736  32.868  1.00  0.00     0.074 A 
ATOM     51  C   UNL A   1      45.197  25.766  28.742  1.00  0.00     0.029 A 
ATOM     52  N   UNL A   1      43.937  24.717  30.245  1.00  0.00    -0.354 N 
ATOM     53  N   UNL A   1      43.554  27.747  32.128  1.00  0.00    -0.248 NA
ATOM     54  C   UNL A   1      43.497  28.578  34.274  1.00  0.00     0.031 C 
ATOM     55  C   UNL A   1      45.546  26.226  30.040  1.00  0.00     0.029 A 
ATOM     56  C   UNL A   1      44.743  25.578  30.964  1.00  0.00     0.049 A 
ATOM     57  H   UNL A   1      43.297  24.083  30.645  1.00  0.00     0.167 HD
ATOM     58  C   UNL A   1      44.183  26.823  32.920  1.00  0.00     0.074 A 
ATOM     59  C   UNL A   1      44.147  27.400  34.250  1.00  0.00     0.031 C 
ATOM     60  C   UNL A   1      44.657  25.645  32.417  1.00  0.00     0.037 A 
BRANCH  47  61
ATOM     61  C   UNL A   1      43.581  23.401  26.772  1.00  0.00     0.064 A 
ATOM     62  C   UNL A   1      43.082  22.078  26.699  1.00  0.00     0.173 A 
ATOM     63  C   UNL A   1      44.541  23.702  25.781  1.00  0.00     0.173 A 
ATOM     64  F   UNL A   1      42.137  21.641  27.543  1.00  0.00    -0.203 F 
ATOM     65  C   UNL A   1      43.549  21.138  25.770  1.00  0.00     0.198 A 
ATOM     66  C   UNL A   1      44.987  22.772  24.836  1.00  0.00     0.198 A 
ATOM     67  F   UNL A   1      45.127  24.894  25.683  1.00  0.00    -0.203 F 
ATOM     68  F   UNL A   1      43.077  19.883  25.795  1.00  0.00    -0.200 F 
ATOM     69  C   UNL A   1      44.507  21.484  24.841  1.00  0.00     0.200 A 
ATOM     70  F   UNL A   1      45.912  23.139  23.936  1.00  0.00    -0.200 F 
ATOM     71  F   UNL A   1      44.968  20.585  23.961  1.00  0.00    -0.200 F 
ENDBRANCH  47  61
BRANCH  48  72
ATOM     72  C   UNL A   1      41.050  30.377  32.945  1.00  0.00     0.064 A 
ATOM     73  C   UNL A   1      40.827  31.765  33.016  1.00  0.00     0.173 A 
ATOM     74  C   UNL A   1      39.945  29.534  33.116  1.00  0.00     0.173 A 
ATOM     75  F   UNL A   1      41.852  32.618  32.857  1.00  0.00    -0.203 F 
ATOM     76  C   UNL A   1      39.542  32.288  33.140  1.00  0.00     0.198 A 
ATOM     77  C   UNL A   1      38.659  30.063  33.256  1.00  0.00     0.198 A 
ATOM     78  F   UNL A   1      40.087  28.204  33.039  1.00  0.00    -0.203 F 
ATOM     79  F   UNL A   1      39.353  33.616  33.094  1.00  0.00    -0.200 F 
ATOM     80  C   UNL A   1      38.456  31.436  33.235  1.00  0.00     0.200 A 
ATOM     81  F   UNL A   1      37.604  29.238  33.319  1.00  0.00    -0.200 F 
ATOM     82  F   UNL A   1      37.212  31.933  33.265  1.00  0.00    -0.200 F 
ENDBRANCH  48  72
BRANCH  60  83
ATOM     83  C   UNL A   1      45.153  24.484  33.242  1.00  0.00     0.064 A 
ATOM     84  C   UNL A   1      44.413  23.310  33.462  1.00  0.00     0.173 A 
ATOM     85  C   UNL A   1      46.481  24.470  33.727  1.00  0.00     0.173 A 
ATOM     86  F   UNL A   1      43.187  23.152  32.947  1.00  0.00    -0.203 F 
ATOM     87  C   UNL A   1      44.940  22.229  34.174  1.00  0.00     0.198 A 
ATOM     88  C   UNL A   1      47.021  23.368  34.389  1.00  0.00     0.198 A 
ATOM     89  F   UNL A   1      47.298  25.520  33.551  1.00  0.00    -0.203 F 
ATOM     90  F   UNL A   1      44.180  21.146  34.395  1.00  0.00    -0.200 F 
ATOM     91  C   UNL A   1      46.245  22.254  34.629  1.00  0.00     0.200 A 
ATOM     92  F   UNL A   1      48.304  23.387  34.777  1.00  0.00    -0.200 F 
ATOM     93  F   UNL A   1      46.759  21.198  35.274  1.00  0.00    -0.200 F 
ENDBRANCH  60  83
ENDBRANCH  34  35
ENDBRANCH  26  29
ENDBRANCH  24  25
ENDBRANCH  23  24
ENDBRANCH  22  23
ENDBRANCH   1  22
TORSDOF 16
ENDMDL
MODEL 2
REMARK VINA RESULT:     -12.8      1.565      2.754
REMARK SMILES Cc1ccc([C@@H](Cc2cccs2)C(=O)NCCCCCCNC(=O)c2ccc(-c3c4nc(c(-c5c(F)c(F)c(F)c(F)c5F)c5ccc([nH]5)c(-c5c(F)c(F)c(F)c(F)c5F)c5nc(c(-c6c(F)c(F)c(F)c(F)c6F)c6ccc3[nH]6)C=C5)C=C4)cc2)cc1
REMARK SMILES IDX 18 1 17 2 16 3 15 4 13 5 14 6 6 8 5 9 1 10 2 11 3 12 89 13
REMARK SMILES IDX 4 14 88 15 7 16 8 17 9 18 12 19 10 20 11 21 19 22 20 23
REMARK SMILES IDX 21 24 22 25 23 26 24 28 25 29 26 30 87 31 27 32 86 33 28 34
REMARK SMILES IDX 29 35 30 36 80 37 31 38 85 39 79 40 81 41 32 42 84 43 78 44
REMARK SMILES IDX 77 45 33 47 65 48 45 49 64 50 46 51 49 52 63 53 82 54 47 55
REMARK SMILES IDX 48 56 62 58 83 59 50 60 34 61 35 62 43 63 36 64 37 65 41 66
REMARK SMILES IDX 44 67 38 68 39 69 42 70 40 71 66 72 67 73 75 74 68 75 69 76
REMARK SMILES IDX 73 77 76 78 70 79 71 80 74 81 72 82 51 83 52 84 60 85 53 86
REMARK SMILES IDX 54 87 58 88 61 89 55 90 56 91 59 92 57 93
REMARK H PARENT 15 7 22 27 81 46 49 57
REMARK Flexibility Score: inf
ROOT
ATOM      1  C   UNL A   1      33.702  27.909  26.530  1.00  0.00     0.002 C 
ENDROOT
BRANCH   1   2
ATOM      2  C   UNL A   1      33.384  26.807  25.510  1.00  0.00     0.021 C 
BRANCH   2   3
ATOM      3  C   UNL A   1      33.543  25.372  26.011  1.00  0.00     0.116 C 
BRANCH   3   4
ATOM      4  N   UNL A   1      32.368  24.831  26.647  1.00  0.00    -0.356 N 
ATOM      5  C   UNL A   1      31.286  24.191  26.134  1.00  0.00     0.227 C 
ATOM      6  O   UNL A   1      30.520  23.688  26.969  1.00  0.00    -0.274 OA
ATOM      7  H   UNL A   1      32.346  24.946  27.624  1.00  0.00     0.163 HD
BRANCH   5   8
ATOM      8  C   UNL A   1      30.951  24.069  24.636  1.00  0.00     0.113 C 
BRANCH   8   9
ATOM      9  C   UNL A   1      30.701  25.401  23.930  1.00  0.00    -0.035 A 
ATOM     10  C   UNL A   1      29.914  29.238  22.060  1.00  0.00     0.044 C 
ATOM     11  C   UNL A   1      30.177  27.918  22.719  1.00  0.00    -0.051 A 
ATOM     12  C   UNL A   1      31.079  27.021  22.145  1.00  0.00     0.004 A 
ATOM     13  C   UNL A   1      29.546  27.561  23.910  1.00  0.00     0.004 A 
ATOM     14  C   UNL A   1      31.335  25.784  22.746  1.00  0.00     0.005 A 
ATOM     15  C   UNL A   1      29.806  26.323  24.508  1.00  0.00     0.005 A 
ENDBRANCH   8   9
BRANCH   8  16
ATOM     16  C   UNL A   1      31.574  22.886  23.856  1.00  0.00     0.065 C 
BRANCH  16  17
ATOM     17  C   UNL A   1      33.066  22.710  23.847  1.00  0.00     0.006 A 
ATOM     18  C   UNL A   1      33.996  23.246  22.974  1.00  0.00     0.015 A 
ATOM     19  S   UNL A   1      33.818  21.622  24.947  1.00  0.00    -0.149 S 
ATOM     20  C   UNL A   1      35.334  22.917  23.334  1.00  0.00     0.012 A 
ATOM     21  C   UNL A   1      35.381  22.056  24.406  1.00  0.00     0.065 A 
ENDBRANCH  16  17
ENDBRANCH   8  16
ENDBRANCH   5   8
ENDBRANCH   3   4
ENDBRANCH   2   3
ENDBRANCH   1   2
BRANCH   1  22
ATOM     22  C   UNL A   1      32.529  28.497  27.336  1.00  0.00     0.002 C 
BRANCH  22  23
ATOM     23  C   UNL A   1      32.390  30.020  27.336  1.00  0.00     0.021 C 
BRANCH  23  24
ATOM     24  C   UNL A   1      33.697  30.769  27.105  1.00  0.00     0.116 C 
BRANCH  24  25
ATOM     25  N   UNL A   1      34.096  31.612  28.228  1.00  0.00    -0.352 N 
ATOM     26  C   UNL A   1      35.121  31.414  29.138  1.00  0.00     0.251 C 
ATOM     27  H   UNL A   1      33.566  32.432  28.355  1.00  0.00     0.163 HD
ATOM     28  O   UNL A   1      35.343  32.212  30.032  1.00  0.00    -0.269 OA
BRANCH  26  29
ATOM     29  C   UNL A   1      36.024  30.262  28.922  1.00  0.00     0.039 A 
ATOM     30  C   UNL A   1      36.429  29.536  30.046  1.00  0.00     0.014 A 
ATOM     31  C   UNL A   1      36.648  30.086  27.689  1.00  0.00     0.014 A 
ATOM     32  C   UNL A   1      37.626  28.831  29.994  1.00  0.00     0.010 A 
ATOM     33  C   UNL A   1      37.874  29.452  27.656  1.00  0.00     0.010 A 
ATOM     34  C   UNL A   1      38.397  28.901  28.833  1.00  0.00    -0.014 A 
BRANCH  34  35
ATOM     35  C   UNL A   1      39.813  28.558  28.816  1.00  0.00     0.031 A 
ATOM     36  C   UNL A   1      40.247  27.184  28.506  1.00  0.00     0.074 A 
ATOM     37  C   UNL A   1      40.722  29.525  29.073  1.00  0.00     0.049 A 
ATOM     38  N   UNL A   1      41.395  26.696  28.838  1.00  0.00    -0.248 NA
ATOM     39  C   UNL A   1      39.371  26.205  27.873  1.00  0.00     0.031 C 
ATOM     40  C   UNL A   1      42.171  29.457  28.892  1.00  0.00     0.029 A 
ATOM     41  N   UNL A   1      40.516  30.720  29.787  1.00  0.00    -0.354 N 
ATOM     42  C   UNL A   1      41.520  25.466  28.237  1.00  0.00     0.074 A 
ATOM     43  C   UNL A   1      40.191  25.153  27.777  1.00  0.00     0.031 C 
ATOM     44  C   UNL A   1      42.749  30.352  29.707  1.00  0.00     0.029 A 
ATOM     45  C   UNL A   1      41.699  30.919  30.536  1.00  0.00     0.049 A 
ATOM     46  H   UNL A   1      39.717  31.296  29.767  1.00  0.00     0.167 HD
ATOM     47  C   UNL A   1      42.770  24.938  28.090  1.00  0.00     0.037 A 
ATOM     48  C   UNL A   1      41.691  30.915  31.899  1.00  0.00     0.037 A 
ATOM     49  C   UNL A   1      43.731  25.658  28.932  1.00  0.00     0.049 A 
ATOM     50  C   UNL A   1      42.591  29.872  32.519  1.00  0.00     0.074 A 
ATOM     51  C   UNL A   1      44.716  26.594  28.667  1.00  0.00     0.029 A 
ATOM     52  N   UNL A   1      43.563  25.644  30.316  1.00  0.00    -0.354 N 
ATOM     53  N   UNL A   1      43.049  28.834  31.876  1.00  0.00    -0.248 NA
ATOM     54  C   UNL A   1      43.001  29.889  33.921  1.00  0.00     0.031 C 
ATOM     55  C   UNL A   1      45.072  27.212  29.897  1.00  0.00     0.029 A 
ATOM     56  C   UNL A   1      44.335  26.623  30.911  1.00  0.00     0.049 A 
ATOM     57  H   UNL A   1      42.975  25.022  30.803  1.00  0.00     0.167 HD
ATOM     58  C   UNL A   1      43.754  28.039  32.740  1.00  0.00     0.074 A 
ATOM     59  C   UNL A   1      43.719  28.755  34.002  1.00  0.00     0.031 C 
ATOM     60  C   UNL A   1      44.285  26.843  32.350  1.00  0.00     0.037 A 
BRANCH  47  61
ATOM     61  C   UNL A   1      43.193  23.939  27.018  1.00  0.00     0.064 A 
ATOM     62  C   UNL A   1      42.840  22.574  27.144  1.00  0.00     0.173 A 
ATOM     63  C   UNL A   1      44.050  24.206  25.927  1.00  0.00     0.173 A 
ATOM     64  F   UNL A   1      42.004  22.156  28.105  1.00  0.00    -0.203 F 
ATOM     65  C   UNL A   1      43.348  21.574  26.302  1.00  0.00     0.198 A 
ATOM     66  C   UNL A   1      44.534  23.212  25.070  1.00  0.00     0.198 A 
ATOM     67  F   UNL A   1      44.494  25.429  25.641  1.00  0.00    -0.203 F 
ATOM     68  F   UNL A   1      43.019  20.293  26.516  1.00  0.00    -0.200 F 
ATOM     69  C   UNL A   1      44.200  21.893  25.267  1.00  0.00     0.200 A 
ATOM     70  F   UNL A   1      45.355  23.552  24.064  1.00  0.00    -0.200 F 
ATOM     71  F   UNL A   1      44.701  20.941  24.470  1.00  0.00    -0.200 F 
ENDBRANCH  47  61
BRANCH  48  72
ATOM     72  C   UNL A   1      40.412  31.388  32.490  1.00  0.00     0.064 A 
ATOM     73  C   UNL A   1      40.100  32.759  32.407  1.00  0.00     0.173 A 
ATOM     74  C   UNL A   1      39.372  30.506  32.801  1.00  0.00     0.173 A 
ATOM     75  F   UNL A   1      41.061  33.648  32.110  1.00  0.00    -0.203 F 
ATOM     76  C   UNL A   1      38.788  33.212  32.518  1.00  0.00     0.198 A 
ATOM     77  C   UNL A   1      38.058  30.967  32.927  1.00  0.00     0.198 A 
ATOM     78  F   UNL A   1      39.598  29.187  32.874  1.00  0.00    -0.203 F 
ATOM     79  F   UNL A   1      38.511  34.511  32.324  1.00  0.00    -0.200 F 
ATOM     80  C   UNL A   1      37.764  32.312  32.753  1.00  0.00     0.200 A 
ATOM     81  F   UNL A   1      37.063  30.092  33.127  1.00  0.00    -0.200 F 
ATOM     82  F   UNL A   1      36.491  32.731  32.773  1.00  0.00    -0.200 F 
ENDBRANCH  48  72
BRANCH  60  83
ATOM     83  C   UNL A   1      44.873  25.809  33.278  1.00  0.00     0.064 A 
ATOM     84  C   UNL A   1      44.113  25.044  34.178  1.00  0.00     0.173 A 
ATOM     85  C   UNL A   1      46.239  25.456  33.177  1.00  0.00     0.173 A 
ATOM     86  F   UNL A   1      42.786  25.199  34.276  1.00  0.00    -0.203 F 
ATOM     87  C   UNL A   1      44.689  24.046  34.968  1.00  0.00     0.198 A 
ATOM     88  C   UNL A   1      46.799  24.423  33.927  1.00  0.00     0.198 A 
ATOM     89  F   UNL A   1      47.063  26.092  32.329  1.00  0.00    -0.203 F 
ATOM     90  F   UNL A   1      43.930  23.371  35.844  1.00  0.00    -0.200 F 
ATOM     91  C   UNL A   1      46.028  23.729  34.837  1.00  0.00     0.200 A 
ATOM     92  F   UNL A   1      48.086  24.093  33.750  1.00  0.00    -0.200 F 
ATOM     93  F   UNL A   1      46.567  22.743  35.566  1.00  0.00    -0.200 F 
ENDBRANCH  60  83
ENDBRANCH  34  35
ENDBRANCH  26  29
ENDBRANCH  24  25
ENDBRANCH  23  24
ENDBRANCH  22  23
ENDBRANCH   1  22
TORSDOF 16
ENDMDL
MODEL 3
REMARK VINA RESULT:     -12.8      1.469      1.962
REMARK SMILES Cc1ccc([C@@H](Cc2cccs2)C(=O)NCCCCCCNC(=O)c2ccc(-c3c4nc(c(-c5c(F)c(F)c(F)c(F)c5F)c5ccc([nH]5)c(-c5c(F)c(F)c(F)c(F)c5F)c5nc(c(-c6c(F)c(F)c(F)c(F)c6F)c6ccc3[nH]6)C=C5)C=C4)cc2)cc1
REMARK SMILES IDX 18 1 17 2 16 3 15 4 13 5 14 6 6 8 5 9 1 10 2 11 3 12 89 13
REMARK SMILES IDX 4 14 88 15 7 16 8 17 9 18 12 19 10 20 11 21 19 22 20 23
REMARK SMILES IDX 21 24 22 25 23 26 24 28 25 29 26 30 87 31 27 32 86 33 28 34
REMARK SMILES IDX 29 35 30 36 80 37 31 38 85 39 79 40 81 41 32 42 84 43 78 44
REMARK SMILES IDX 77 45 33 47 65 48 45 49 64 50 46 51 49 52 63 53 82 54 47 55
REMARK SMILES IDX 48 56 62 58 83 59 50 60 34 61 35 62 43 63 36 64 37 65 41 66
REMARK SMILES IDX 44 67 38 68 39 69 42 70 40 71 66 72 67 73 75 74 68 75 69 76
REMARK SMILES IDX 73 77 76 78 70 79 71 80 74 81 72 82 51 83 52 84 60 85 53 86
REMARK SMILES IDX 54 87 58 88 61 89 55 90 56 91 59 92 57 93
REMARK H PARENT 15 7 22 27 81 46 49 57
REMARK Flexibility Score: inf
ROOT
ATOM      1  C   UNL A   1      33.043  29.174  25.075  1.00  0.00     0.002 C 
ENDROOT
BRANCH   1   2
ATOM      2  C   UNL A   1      32.904  28.455  23.725  1.00  0.00     0.021 C 
BRANCH   2   3
ATOM      3  C   UNL A   1      33.701  27.159  23.577  1.00  0.00     0.116 C 
BRANCH   3   4
ATOM      4  N   UNL A   1      33.633  26.567  22.265  1.00  0.00    -0.356 N 
ATOM      5  C   UNL A   1      33.371  25.295  21.868  1.00  0.00     0.227 C 
ATOM      6  O   UNL A   1      33.210  25.141  20.648  1.00  0.00    -0.274 OA
ATOM      7  H   UNL A   1      33.807  27.195  21.527  1.00  0.00     0.163 HD
BRANCH   5   8
ATOM      8  C   UNL A   1      33.281  24.073  22.799  1.00  0.00     0.113 C 
BRANCH   8   9
ATOM      9  C   UNL A   1      34.574  23.747  23.546  1.00  0.00    -0.035 A 
ATOM     10  C   UNL A   1      38.179  22.878  25.802  1.00  0.00     0.044 C 
ATOM     11  C   UNL A   1      36.927  23.184  25.036  1.00  0.00    -0.051 A 
ATOM     12  C   UNL A   1      36.760  22.681  23.746  1.00  0.00     0.004 A 
ATOM     13  C   UNL A   1      35.909  23.961  25.589  1.00  0.00     0.004 A 
ATOM     14  C   UNL A   1      35.599  22.959  23.017  1.00  0.00     0.005 A 
ATOM     15  C   UNL A   1      34.749  24.234  24.856  1.00  0.00     0.005 A 
ENDBRANCH   8   9
BRANCH   8  16
ATOM     16  C   UNL A   1      31.913  23.769  23.455  1.00  0.00     0.065 C 
BRANCH  16  17
ATOM     17  C   UNL A   1      31.238  24.827  24.282  1.00  0.00     0.006 A 
ATOM     18  C   UNL A   1      31.368  25.081  25.635  1.00  0.00     0.015 A 
ATOM     19  S   UNL A   1      30.032  25.836  23.585  1.00  0.00    -0.149 S 
ATOM     20  C   UNL A   1      30.626  26.224  26.049  1.00  0.00     0.012 A 
ATOM     21  C   UNL A   1      29.871  26.745  25.023  1.00  0.00     0.065 A 
ENDBRANCH  16  17
ENDBRANCH   8  16
ENDBRANCH   5   8
ENDBRANCH   3   4
ENDBRANCH   2   3
ENDBRANCH   1   2
BRANCH   1  22
ATOM     22  C   UNL A   1      31.861  30.042  25.546  1.00  0.00     0.002 C 
BRANCH  22  23
ATOM     23  C   UNL A   1      32.086  30.885  26.802  1.00  0.00     0.021 C 
BRANCH  23  24
ATOM     24  C   UNL A   1      33.293  30.464  27.632  1.00  0.00     0.116 C 
BRANCH  24  25
ATOM     25  N   UNL A   1      33.926  31.569  28.347  1.00  0.00    -0.352 N 
ATOM     26  C   UNL A   1      35.169  31.606  28.958  1.00  0.00     0.251 C 
ATOM     27  H   UNL A   1      33.400  32.399  28.401  1.00  0.00     0.163 HD
ATOM     28  O   UNL A   1      35.573  32.609  29.520  1.00  0.00    -0.269 OA
BRANCH  26  29
ATOM     29  C   UNL A   1      36.050  30.429  28.804  1.00  0.00     0.039 A 
ATOM     30  C   UNL A   1      36.448  29.760  29.966  1.00  0.00     0.014 A 
ATOM     31  C   UNL A   1      36.664  30.172  27.580  1.00  0.00     0.014 A 
ATOM     32  C   UNL A   1      37.632  29.032  29.948  1.00  0.00     0.010 A 
ATOM     33  C   UNL A   1      37.879  29.514  27.579  1.00  0.00     0.010 A 
ATOM     34  C   UNL A   1      38.398  29.022  28.782  1.00  0.00    -0.014 A 
BRANCH  34  35
ATOM     35  C   UNL A   1      39.808  28.654  28.779  1.00  0.00     0.031 A 
ATOM     36  C   UNL A   1      40.219  27.269  28.483  1.00  0.00     0.074 A 
ATOM     37  C   UNL A   1      40.733  29.606  29.035  1.00  0.00     0.049 A 
ATOM     38  N   UNL A   1      41.356  26.764  28.827  1.00  0.00    -0.248 NA
ATOM     39  C   UNL A   1      39.330  26.301  27.850  1.00  0.00     0.031 C 
ATOM     40  C   UNL A   1      42.181  29.510  28.866  1.00  0.00     0.029 A 
ATOM     41  N   UNL A   1      40.543  30.810  29.738  1.00  0.00    -0.354 N 
ATOM     42  C   UNL A   1      41.463  25.527  28.237  1.00  0.00     0.074 A 
ATOM     43  C   UNL A   1      40.133  25.235  27.769  1.00  0.00     0.031 C 
ATOM     44  C   UNL A   1      42.769  30.401  29.679  1.00  0.00     0.029 A 
ATOM     45  C   UNL A   1      41.724  30.993  30.495  1.00  0.00     0.049 A 
ATOM     46  H   UNL A   1      39.755  31.400  29.709  1.00  0.00     0.167 HD
ATOM     47  C   UNL A   1      42.704  24.976  28.103  1.00  0.00     0.037 A 
ATOM     48  C   UNL A   1      41.705  31.000  31.858  1.00  0.00     0.037 A 
ATOM     49  C   UNL A   1      43.672  25.685  28.947  1.00  0.00     0.049 A 
ATOM     50  C   UNL A   1      42.582  29.946  32.492  1.00  0.00     0.074 A 
ATOM     51  C   UNL A   1      44.676  26.601  28.683  1.00  0.00     0.029 A 
ATOM     52  N   UNL A   1      43.494  25.684  30.330  1.00  0.00    -0.354 N 
ATOM     53  N   UNL A   1      43.025  28.895  31.861  1.00  0.00    -0.248 NA
ATOM     54  C   UNL A   1      42.980  29.966  33.897  1.00  0.00     0.031 C 
ATOM     55  C   UNL A   1      45.033  27.221  29.910  1.00  0.00     0.029 A 
ATOM     56  C   UNL A   1      44.278  26.654  30.923  1.00  0.00     0.049 A 
ATOM     57  H   UNL A   1      42.891  25.076  30.817  1.00  0.00     0.167 HD
ATOM     58  C   UNL A   1      43.709  28.094  32.737  1.00  0.00     0.074 A 
ATOM     59  C   UNL A   1      43.678  28.821  33.993  1.00  0.00     0.031 C 
ATOM     60  C   UNL A   1      44.222  26.886  32.360  1.00  0.00     0.037 A 
BRANCH  47  61
ATOM     61  C   UNL A   1      43.118  23.961  27.042  1.00  0.00     0.064 A 
ATOM     62  C   UNL A   1      42.710  22.610  27.158  1.00  0.00     0.173 A 
ATOM     63  C   UNL A   1      44.013  24.194  25.975  1.00  0.00     0.173 A 
ATOM     64  F   UNL A   1      41.832  22.225  28.096  1.00  0.00    -0.203 F 
ATOM     65  C   UNL A   1      43.200  21.592  26.329  1.00  0.00     0.198 A 
ATOM     66  C   UNL A   1      44.482  23.182  25.130  1.00  0.00     0.198 A 
ATOM     67  F   UNL A   1      44.511  25.400  25.701  1.00  0.00    -0.203 F 
ATOM     68  F   UNL A   1      42.817  20.323  26.532  1.00  0.00    -0.200 F 
ATOM     69  C   UNL A   1      44.092  21.878  25.317  1.00  0.00     0.200 A 
ATOM     70  F   UNL A   1      45.341  23.491  24.147  1.00  0.00    -0.200 F 
ATOM     71  F   UNL A   1      44.578  20.906  24.533  1.00  0.00    -0.200 F 
ENDBRANCH  47  61
BRANCH  48  72
ATOM     72  C   UNL A   1      40.430  31.501  32.436  1.00  0.00     0.064 A 
ATOM     73  C   UNL A   1      40.135  32.873  32.323  1.00  0.00     0.173 A 
ATOM     74  C   UNL A   1      39.379  30.638  32.762  1.00  0.00     0.173 A 
ATOM     75  F   UNL A   1      41.108  33.745  32.010  1.00  0.00    -0.203 F 
ATOM     76  C   UNL A   1      38.828  33.345  32.421  1.00  0.00     0.198 A 
ATOM     77  C   UNL A   1      38.071  31.117  32.875  1.00  0.00     0.198 A 
ATOM     78  F   UNL A   1      39.589  29.318  32.864  1.00  0.00    -0.203 F 
ATOM     79  F   UNL A   1      38.567  34.642  32.199  1.00  0.00    -0.200 F 
ATOM     80  C   UNL A   1      37.793  32.461  32.672  1.00  0.00     0.200 A 
ATOM     81  F   UNL A   1      37.064  30.258  33.090  1.00  0.00    -0.200 F 
ATOM     82  F   UNL A   1      36.525  32.896  32.680  1.00  0.00    -0.200 F 
ENDBRANCH  48  72
BRANCH  60  83
ATOM     83  C   UNL A   1      44.784  25.849  33.300  1.00  0.00     0.064 A 
ATOM     84  C   UNL A   1      44.003  25.105  34.201  1.00  0.00     0.173 A 
ATOM     85  C   UNL A   1      46.144  25.470  33.212  1.00  0.00     0.173 A 
ATOM     86  F   UNL A   1      42.679  25.287  34.289  1.00  0.00    -0.203 F 
ATOM     87  C   UNL A   1      44.555  24.104  35.004  1.00  0.00     0.198 A 
ATOM     88  C   UNL A   1      46.679  24.432  33.974  1.00  0.00     0.198 A 
ATOM     89  F   UNL A   1      46.984  26.082  32.364  1.00  0.00    -0.203 F 
ATOM     90  F   UNL A   1      43.777  23.450  35.879  1.00  0.00    -0.200 F 
ATOM     91  C   UNL A   1      45.889  23.760  34.884  1.00  0.00     0.200 A 
ATOM     92  F   UNL A   1      47.961  24.076  33.808  1.00  0.00    -0.200 F 
ATOM     93  F   UNL A   1      46.404  22.770  35.625  1.00  0.00    -0.200 F 
ENDBRANCH  60  83
ENDBRANCH  34  35
ENDBRANCH  26  29
ENDBRANCH  24  25
ENDBRANCH  23  24
ENDBRANCH  22  23
ENDBRANCH   1  22
TORSDOF 16
ENDMDL
