MODEL 1
REMARK VINA RESULT:     -12.8      0.000      0.000
REMARK SMILES Cc1nn(C)c(=O)c(C(=O)N[C@H]2C=C[C@H](C(=O)NCCCCCCNC(=O)c3ccc(-c4c5nc(c(-c6c(F)c(F)c(F)c(F)c6F)c6ccc([nH]6)c(-c6c(F)c(F)c(F)c(F)c6F)c6nc(c(-c7c(F)c(F)c(F)c(F)c7F)c7ccc4[nH]7)C=C6)C=C5)cc3)C2)c1C
REMARK SMILES IDX 21 1 20 2 19 3 18 4 16 5 17 6 15 8 12 9 13 10 91 11 14 12
REMARK SMILES IDX 11 13 9 14 10 15 8 17 1 18 2 19 3 20 92 21 4 22 93 23 5 24
REMARK SMILES IDX 6 25 7 26 22 27 23 28 24 29 25 30 26 31 27 33 28 34 29 35
REMARK SMILES IDX 90 36 30 37 89 38 31 39 32 40 33 41 83 42 34 43 88 44 82 45
REMARK SMILES IDX 84 46 35 47 87 48 81 49 80 50 36 52 68 53 48 54 67 55 49 56
REMARK SMILES IDX 52 57 66 58 85 59 50 60 51 61 65 63 86 64 53 65 37 66 38 67
REMARK SMILES IDX 46 68 39 69 40 70 44 71 47 72 41 73 42 74 45 75 43 76 69 77
REMARK SMILES IDX 70 78 78 79 71 80 72 81 76 82 79 83 73 84 74 85 77 86 75 87
REMARK SMILES IDX 54 88 55 89 63 90 56 91 57 92 61 93 64 94 58 95 59 96 62 97
REMARK SMILES IDX 60 98
REMARK H PARENT 18 7 11 16 25 32 84 51 52 62
REMARK Flexibility Score: inf
ROOT
ATOM      1  C   UNL A   1      32.752  30.057  26.913  1.00  0.00     0.002 C 
ENDROOT
BRANCH   1   2
ATOM      2  C   UNL A   1      33.595  29.205  25.952  1.00  0.00     0.021 C 
BRANCH   2   3
ATOM      3  C   UNL A   1      33.725  27.743  26.382  1.00  0.00     0.116 C 
BRANCH   3   4
ATOM      4  N   UNL A   1      32.460  27.261  26.895  1.00  0.00    -0.356 N 
ATOM      5  C   UNL A   1      31.521  26.476  26.295  1.00  0.00     0.227 C 
ATOM      6  O   UNL A   1      30.428  26.377  26.851  1.00  0.00    -0.274 OA
ATOM      7  H   UNL A   1      32.248  27.540  27.814  1.00  0.00     0.163 HD
BRANCH   5   8
ATOM      8  C   UNL A   1      31.914  25.654  25.064  1.00  0.00     0.103 C 
ATOM      9  C   UNL A   1      31.494  25.594  22.639  1.00  0.00     0.106 C 
ATOM     10  C   UNL A   1      30.612  24.649  23.376  1.00  0.00    -0.006 C 
ATOM     11  C   UNL A   1      32.145  26.419  23.750  1.00  0.00     0.047 C 
ATOM     12  C   UNL A   1      30.829  24.686  24.695  1.00  0.00    -0.016 C 
BRANCH   9  13
ATOM     13  N   UNL A   1      32.304  24.845  21.689  1.00  0.00    -0.346 N 
ATOM     14  C   UNL A   1      33.088  23.738  21.637  1.00  0.00     0.257 C 
ATOM     15  O   UNL A   1      33.467  23.376  20.521  1.00  0.00    -0.269 OA
ATOM     16  H   UNL A   1      32.274  25.279  20.806  1.00  0.00     0.164 HD
BRANCH  14  17
ATOM     17  C   UNL A   1      33.500  22.964  22.831  1.00  0.00     0.111 A 
ATOM     18  C   UNL A   1      32.447  20.510  25.358  1.00  0.00     0.069 C 
ATOM     19  C   UNL A   1      33.413  21.167  24.398  1.00  0.00     0.062 A 
ATOM     20  N   UNL A   1      34.645  21.246  24.783  1.00  0.00    -0.175 NA
ATOM     21  C   UNL A   1      32.912  21.796  23.147  1.00  0.00    -0.010 A 
ATOM     22  N   UNL A   1      35.437  22.093  24.059  1.00  0.00    -0.232 N 
ATOM     23  C   UNL A   1      31.954  21.033  22.290  1.00  0.00     0.047 C 
ATOM     24  C   UNL A   1      36.868  21.933  24.236  1.00  0.00     0.178 C 
ATOM     25  C   UNL A   1      34.904  23.167  23.345  1.00  0.00     0.279 A 
ATOM     26  O   UNL A   1      35.546  24.176  23.061  1.00  0.00    -0.267 OA
ENDBRANCH  14  17
ENDBRANCH   9  13
ENDBRANCH   5   8
ENDBRANCH   3   4
ENDBRANCH   2   3
ENDBRANCH   1   2
BRANCH   1  27
ATOM     27  C   UNL A   1      31.534  30.728  26.271  1.00  0.00     0.002 C 
BRANCH  27  28
ATOM     28  C   UNL A   1      31.420  32.228  26.546  1.00  0.00     0.021 C 
BRANCH  28  29
ATOM     29  C   UNL A   1      32.568  32.805  27.366  1.00  0.00     0.116 C 
BRANCH  29  30
ATOM     30  N   UNL A   1      32.379  34.217  27.656  1.00  0.00    -0.352 N 
ATOM     31  C   UNL A   1      33.004  34.995  28.600  1.00  0.00     0.251 C 
ATOM     32  H   UNL A   1      31.712  34.679  27.098  1.00  0.00     0.163 HD
ATOM     33  O   UNL A   1      32.610  36.125  28.841  1.00  0.00    -0.269 OA
BRANCH  31  34
ATOM     34  C   UNL A   1      34.151  34.433  29.340  1.00  0.00     0.039 A 
ATOM     35  C   UNL A   1      33.918  33.786  30.554  1.00  0.00     0.014 A 
ATOM     36  C   UNL A   1      35.448  34.538  28.826  1.00  0.00     0.014 A 
ATOM     37  C   UNL A   1      34.984  33.191  31.231  1.00  0.00     0.010 A 
ATOM     38  C   UNL A   1      36.497  33.890  29.467  1.00  0.00     0.010 A 
ATOM     39  C   UNL A   1      36.275  33.218  30.678  1.00  0.00    -0.014 A 
BRANCH  39  40
ATOM     40  C   UNL A   1      37.412  32.564  31.367  1.00  0.00     0.031 A 
ATOM     41  C   UNL A   1      38.146  31.441  30.696  1.00  0.00     0.074 A 
ATOM     42  C   UNL A   1      37.754  32.956  32.609  1.00  0.00     0.049 A 
ATOM     43  N   UNL A   1      39.139  30.715  31.146  1.00  0.00    -0.248 NA
ATOM     44  C   UNL A   1      37.693  31.066  29.347  1.00  0.00     0.031 C 
ATOM     45  C   UNL A   1      37.092  34.015  33.371  1.00  0.00     0.029 A 
ATOM     46  N   UNL A   1      38.745  32.510  33.446  1.00  0.00    -0.354 N 
ATOM     47  C   UNL A   1      39.424  29.803  30.140  1.00  0.00     0.074 A 
ATOM     48  C   UNL A   1      38.463  30.022  29.081  1.00  0.00     0.031 C 
ATOM     49  C   UNL A   1      37.716  34.160  34.551  1.00  0.00     0.029 A 
ATOM     50  C   UNL A   1      38.799  33.184  34.641  1.00  0.00     0.049 A 
ATOM     51  H   UNL A   1      39.359  31.777  33.212  1.00  0.00     0.167 HD
ATOM     52  C   UNL A   1      40.418  28.886  30.092  1.00  0.00     0.037 A 
ATOM     53  C   UNL A   1      39.631  33.031  35.688  1.00  0.00     0.037 A 
ATOM     54  C   UNL A   1      41.382  28.684  31.140  1.00  0.00     0.049 A 
ATOM     55  C   UNL A   1      40.709  31.984  35.624  1.00  0.00     0.074 A 
ATOM     56  C   UNL A   1      42.451  27.806  31.170  1.00  0.00     0.029 A 
ATOM     57  N   UNL A   1      41.394  29.374  32.343  1.00  0.00    -0.354 N 
ATOM     58  N   UNL A   1      40.999  31.157  34.648  1.00  0.00    -0.248 NA
ATOM     59  C   UNL A   1      41.575  31.848  36.803  1.00  0.00     0.031 C 
ATOM     60  C   UNL A   1      43.087  27.938  32.408  1.00  0.00     0.029 A 
ATOM     61  C   UNL A   1      42.442  28.928  33.131  1.00  0.00     0.049 A 
ATOM     62  H   UNL A   1      40.754  30.077  32.598  1.00  0.00     0.167 HD
ATOM     63  C   UNL A   1      42.090  30.419  35.085  1.00  0.00     0.074 A 
ATOM     64  C   UNL A   1      42.419  30.905  36.410  1.00  0.00     0.031 C 
ATOM     65  C   UNL A   1      42.756  29.426  34.446  1.00  0.00     0.037 A 
BRANCH  52  66
ATOM     66  C   UNL A   1      40.520  28.041  28.856  1.00  0.00     0.064 A 
ATOM     67  C   UNL A   1      39.838  26.820  28.748  1.00  0.00     0.173 A 
ATOM     68  C   UNL A   1      41.273  28.473  27.755  1.00  0.00     0.173 A 
ATOM     69  F   UNL A   1      39.115  26.357  29.780  1.00  0.00    -0.203 F 
ATOM     70  C   UNL A   1      39.924  26.051  27.592  1.00  0.00     0.198 A 
ATOM     71  C   UNL A   1      41.334  27.714  26.588  1.00  0.00     0.198 A 
ATOM     72  F   UNL A   1      41.942  29.634  27.804  1.00  0.00    -0.203 F 
ATOM     73  F   UNL A   1      39.298  24.867  27.529  1.00  0.00    -0.200 F 
ATOM     74  C   UNL A   1      40.665  26.502  26.511  1.00  0.00     0.200 A 
ATOM     75  F   UNL A   1      42.042  28.155  25.540  1.00  0.00    -0.200 F 
ATOM     76  F   UNL A   1      40.740  25.764  25.394  1.00  0.00    -0.200 F 
ENDBRANCH  52  66
BRANCH  53  77
ATOM     77  C   UNL A   1      39.503  33.928  36.865  1.00  0.00     0.064 A 
ATOM     78  C   UNL A   1      38.763  33.531  37.987  1.00  0.00     0.173 A 
ATOM     79  C   UNL A   1      40.140  35.176  36.911  1.00  0.00     0.173 A 
ATOM     80  F   UNL A   1      38.122  32.353  37.981  1.00  0.00    -0.203 F 
ATOM     81  C   UNL A   1      38.658  34.351  39.107  1.00  0.00     0.198 A 
ATOM     82  C   UNL A   1      40.054  35.986  38.041  1.00  0.00     0.198 A 
ATOM     83  F   UNL A   1      40.865  35.599  35.865  1.00  0.00    -0.203 F 
ATOM     84  F   UNL A   1      37.922  33.959  40.156  1.00  0.00    -0.200 F 
ATOM     85  C   UNL A   1      39.311  35.575  39.137  1.00  0.00     0.200 A 
ATOM     86  F   UNL A   1      40.696  37.161  38.072  1.00  0.00    -0.200 F 
ATOM     87  F   UNL A   1      39.221  36.358  40.221  1.00  0.00    -0.200 F 
ENDBRANCH  53  77
BRANCH  65  88
ATOM     88  C   UNL A   1      43.920  28.803  35.158  1.00  0.00     0.064 A 
ATOM     89  C   UNL A   1      43.759  27.673  35.970  1.00  0.00     0.173 A 
ATOM     90  C   UNL A   1      45.219  29.296  34.962  1.00  0.00     0.173 A 
ATOM     91  F   UNL A   1      42.535  27.174  36.198  1.00  0.00    -0.203 F 
ATOM     92  C   UNL A   1      44.857  27.061  36.569  1.00  0.00     0.198 A 
ATOM     93  C   UNL A   1      46.318  28.666  35.540  1.00  0.00     0.198 A 
ATOM     94  F   UNL A   1      45.425  30.371  34.187  1.00  0.00    -0.203 F 
ATOM     95  F   UNL A   1      44.678  25.999  37.365  1.00  0.00    -0.200 F 
ATOM     96  C   UNL A   1      46.135  27.552  36.345  1.00  0.00     0.200 A 
ATOM     97  F   UNL A   1      47.553  29.132  35.313  1.00  0.00    -0.200 F 
ATOM     98  F   UNL A   1      47.192  26.951  36.909  1.00  0.00    -0.200 F 
ENDBRANCH  65  88
ENDBRANCH  39  40
ENDBRANCH  31  34
ENDBRANCH  29  30
ENDBRANCH  28  29
ENDBRANCH  27  28
ENDBRANCH   1  27
TORSDOF 15
ENDMDL
MODEL 2
REMARK VINA RESULT:     -12.7      1.208      2.313
REMARK SMILES Cc1nn(C)c(=O)c(C(=O)N[C@H]2C=C[C@H](C(=O)NCCCCCCNC(=O)c3ccc(-c4c5nc(c(-c6c(F)c(F)c(F)c(F)c6F)c6ccc([nH]6)c(-c6c(F)c(F)c(F)c(F)c6F)c6nc(c(-c7c(F)c(F)c(F)c(F)c7F)c7ccc4[nH]7)C=C6)C=C5)cc3)C2)c1C
REMARK SMILES IDX 21 1 20 2 19 3 18 4 16 5 17 6 15 8 12 9 13 10 91 11 14 12
REMARK SMILES IDX 11 13 9 14 10 15 8 17 1 18 2 19 3 20 92 21 4 22 93 23 5 24
REMARK SMILES IDX 6 25 7 26 22 27 23 28 24 29 25 30 26 31 27 33 28 34 29 35
REMARK SMILES IDX 90 36 30 37 89 38 31 39 32 40 33 41 83 42 34 43 88 44 82 45
REMARK SMILES IDX 84 46 35 47 87 48 81 49 80 50 36 52 68 53 48 54 67 55 49 56
REMARK SMILES IDX 52 57 66 58 85 59 50 60 51 61 65 63 86 64 53 65 37 66 38 67
REMARK SMILES IDX 46 68 39 69 40 70 44 71 47 72 41 73 42 74 45 75 43 76 69 77
REMARK SMILES IDX 70 78 78 79 71 80 72 81 76 82 79 83 73 84 74 85 77 86 75 87
REMARK SMILES IDX 54 88 55 89 63 90 56 91 57 92 61 93 64 94 58 95 59 96 62 97
REMARK SMILES IDX 60 98
REMARK H PARENT 18 7 11 16 25 32 84 51 52 62
REMARK Flexibility Score: inf
ROOT
ATOM      1  C   UNL A   1      32.168  29.779  27.110  1.00  0.00     0.002 C 
ENDROOT
BRANCH   1   2
ATOM      2  C   UNL A   1      33.695  29.756  27.272  1.00  0.00     0.021 C 
BRANCH   2   3
ATOM      3  C   UNL A   1      34.381  28.654  26.463  1.00  0.00     0.116 C 
BRANCH   3   4
ATOM      4  N   UNL A   1      34.245  28.920  25.046  1.00  0.00    -0.356 N 
ATOM      5  C   UNL A   1      33.730  28.134  24.059  1.00  0.00     0.227 C 
ATOM      6  O   UNL A   1      33.920  28.489  22.896  1.00  0.00    -0.274 OA
ATOM      7  H   UNL A   1      34.572  29.801  24.753  1.00  0.00     0.163 HD
BRANCH   5   8
ATOM      8  C   UNL A   1      32.832  26.954  24.440  1.00  0.00     0.103 C 
ATOM      9  C   UNL A   1      32.146  24.760  23.557  1.00  0.00     0.106 C 
ATOM     10  C   UNL A   1      31.150  25.820  23.240  1.00  0.00    -0.006 C 
ATOM     11  C   UNL A   1      33.342  25.543  24.103  1.00  0.00     0.047 C 
ATOM     12  C   UNL A   1      31.523  27.014  23.708  1.00  0.00    -0.016 C 
BRANCH   9  13
ATOM     13  N   UNL A   1      31.502  23.725  24.353  1.00  0.00    -0.346 N 
ATOM     14  C   UNL A   1      31.807  22.572  25.002  1.00  0.00     0.257 C 
ATOM     15  O   UNL A   1      30.927  22.085  25.715  1.00  0.00    -0.269 OA
ATOM     16  H   UNL A   1      30.543  23.925  24.452  1.00  0.00     0.164 HD
BRANCH  14  17
ATOM     17  C   UNL A   1      33.115  21.887  24.893  1.00  0.00     0.111 A 
ATOM     18  C   UNL A   1      36.717  22.114  25.599  1.00  0.00     0.069 C 
ATOM     19  C   UNL A   1      35.382  21.416  25.474  1.00  0.00     0.062 A 
ATOM     20  N   UNL A   1      35.403  20.207  25.016  1.00  0.00    -0.175 NA
ATOM     21  C   UNL A   1      34.121  22.157  25.745  1.00  0.00    -0.010 A 
ATOM     22  N   UNL A   1      34.194  19.700  24.627  1.00  0.00    -0.232 N 
ATOM     23  C   UNL A   1      34.025  22.984  26.986  1.00  0.00     0.047 C 
ATOM     24  C   UNL A   1      34.134  18.261  24.452  1.00  0.00     0.178 C 
ATOM     25  C   UNL A   1      33.141  20.529  24.237  1.00  0.00     0.279 A 
ATOM     26  O   UNL A   1      32.237  20.166  23.489  1.00  0.00    -0.267 OA
ENDBRANCH  14  17
ENDBRANCH   9  13
ENDBRANCH   5   8
ENDBRANCH   3   4
ENDBRANCH   2   3
ENDBRANCH   1   2
BRANCH   1  27
ATOM     27  C   UNL A   1      31.645  30.846  26.143  1.00  0.00     0.002 C 
BRANCH  27  28
ATOM     28  C   UNL A   1      31.409  32.216  26.780  1.00  0.00     0.021 C 
BRANCH  28  29
ATOM     29  C   UNL A   1      32.679  32.919  27.245  1.00  0.00     0.116 C 
BRANCH  29  30
ATOM     30  N   UNL A   1      32.430  34.296  27.638  1.00  0.00    -0.352 N 
ATOM     31  C   UNL A   1      33.003  35.019  28.657  1.00  0.00     0.251 C 
ATOM     32  H   UNL A   1      31.760  34.777  27.101  1.00  0.00     0.163 HD
ATOM     33  O   UNL A   1      32.562  36.112  28.974  1.00  0.00    -0.269 OA
BRANCH  31  34
ATOM     34  C   UNL A   1      34.152  34.442  29.381  1.00  0.00     0.039 A 
ATOM     35  C   UNL A   1      33.917  33.717  30.551  1.00  0.00     0.014 A 
ATOM     36  C   UNL A   1      35.454  34.609  28.897  1.00  0.00     0.014 A 
ATOM     37  C   UNL A   1      34.986  33.109  31.209  1.00  0.00     0.010 A 
ATOM     38  C   UNL A   1      36.509  33.949  29.516  1.00  0.00     0.010 A 
ATOM     39  C   UNL A   1      36.285  33.200  30.680  1.00  0.00    -0.014 A 
BRANCH  39  40
ATOM     40  C   UNL A   1      37.427  32.534  31.349  1.00  0.00     0.031 A 
ATOM     41  C   UNL A   1      38.147  31.413  30.658  1.00  0.00     0.074 A 
ATOM     42  C   UNL A   1      37.787  32.912  32.589  1.00  0.00     0.049 A 
ATOM     43  N   UNL A   1      39.141  30.678  31.087  1.00  0.00    -0.248 NA
ATOM     44  C   UNL A   1      37.674  31.054  29.311  1.00  0.00     0.031 C 
ATOM     45  C   UNL A   1      37.140  33.967  33.371  1.00  0.00     0.029 A 
ATOM     46  N   UNL A   1      38.787  32.453  33.409  1.00  0.00    -0.354 N 
ATOM     47  C   UNL A   1      39.409  29.775  30.069  1.00  0.00     0.074 A 
ATOM     48  C   UNL A   1      38.435  30.009  29.025  1.00  0.00     0.031 C 
ATOM     49  C   UNL A   1      37.781  34.097  34.544  1.00  0.00     0.029 A 
ATOM     50  C   UNL A   1      38.859  33.115  34.610  1.00  0.00     0.049 A 
ATOM     51  H   UNL A   1      39.394  31.719  33.161  1.00  0.00     0.167 HD
ATOM     52  C   UNL A   1      40.397  28.852  30.000  1.00  0.00     0.037 A 
ATOM     53  C   UNL A   1      39.704  32.948  35.645  1.00  0.00     0.037 A 
ATOM     54  C   UNL A   1      41.374  28.636  31.033  1.00  0.00     0.049 A 
ATOM     55  C   UNL A   1      40.775  31.896  35.557  1.00  0.00     0.074 A 
ATOM     56  C   UNL A   1      42.438  27.752  31.041  1.00  0.00     0.029 A 
ATOM     57  N   UNL A   1      41.405  29.314  32.242  1.00  0.00    -0.354 N 
ATOM     58  N   UNL A   1      41.048  31.076  34.569  1.00  0.00    -0.248 NA
ATOM     59  C   UNL A   1      41.656  31.744  36.723  1.00  0.00     0.031 C 
ATOM     60  C   UNL A   1      43.091  27.868  32.272  1.00  0.00     0.029 A 
ATOM     61  C   UNL A   1      42.460  28.855  33.013  1.00  0.00     0.049 A 
ATOM     62  H   UNL A   1      40.772  30.018  32.512  1.00  0.00     0.167 HD
ATOM     63  C   UNL A   1      42.141  30.329  34.985  1.00  0.00     0.074 A 
ATOM     64  C   UNL A   1      42.490  30.800  36.310  1.00  0.00     0.031 C 
ATOM     65  C   UNL A   1      42.794  29.339  34.328  1.00  0.00     0.037 A 
BRANCH  52  66
ATOM     66  C   UNL A   1      40.479  28.020  28.755  1.00  0.00     0.064 A 
ATOM     67  C   UNL A   1      41.240  28.431  27.651  1.00  0.00     0.173 A 
ATOM     68  C   UNL A   1      39.825  26.782  28.677  1.00  0.00     0.173 A 
ATOM     69  F   UNL A   1      41.874  29.613  27.671  1.00  0.00    -0.203 F 
ATOM     70  C   UNL A   1      41.326  27.644  26.506  1.00  0.00     0.198 A 
ATOM     71  C   UNL A   1      39.934  25.984  27.541  1.00  0.00     0.198 A 
ATOM     72  F   UNL A   1      39.086  26.340  29.706  1.00  0.00    -0.203 F 
ATOM     73  F   UNL A   1      42.024  28.078  25.447  1.00  0.00    -0.200 F 
ATOM     74  C   UNL A   1      40.680  26.418  26.455  1.00  0.00     0.200 A 
ATOM     75  F   UNL A   1      39.319  24.795  27.496  1.00  0.00    -0.200 F 
ATOM     76  F   UNL A   1      40.769  25.658  25.354  1.00  0.00    -0.200 F 
ENDBRANCH  52  66
BRANCH  53  77
ATOM     77  C   UNL A   1      39.596  33.833  36.832  1.00  0.00     0.064 A 
ATOM     78  C   UNL A   1      40.241  35.077  36.856  1.00  0.00     0.173 A 
ATOM     79  C   UNL A   1      38.825  33.475  37.948  1.00  0.00     0.173 A 
ATOM     80  F   UNL A   1      41.004  35.453  35.819  1.00  0.00    -0.203 F 
ATOM     81  C   UNL A   1      40.124  35.928  37.952  1.00  0.00     0.198 A 
ATOM     82  C   UNL A   1      38.690  34.337  39.034  1.00  0.00     0.198 A 
ATOM     83  F   UNL A   1      38.184  32.298  37.972  1.00  0.00    -0.203 F 
ATOM     84  F   UNL A   1      40.773  37.101  37.960  1.00  0.00    -0.200 F 
ATOM     85  C   UNL A   1      39.342  35.560  39.037  1.00  0.00     0.200 A 
ATOM     86  F   UNL A   1      37.923  33.986  40.074  1.00  0.00    -0.200 F 
ATOM     87  F   UNL A   1      39.219  36.386  40.086  1.00  0.00    -0.200 F 
ENDBRANCH  53  77
BRANCH  65  88
ATOM     88  C   UNL A   1      43.963  28.703  35.020  1.00  0.00     0.064 A 
ATOM     89  C   UNL A   1      43.814  27.541  35.787  1.00  0.00     0.173 A 
ATOM     90  C   UNL A   1      45.257  29.218  34.845  1.00  0.00     0.173 A 
ATOM     91  F   UNL A   1      42.595  27.019  35.993  1.00  0.00    -0.203 F 
ATOM     92  C   UNL A   1      44.917  26.919  36.366  1.00  0.00     0.198 A 
ATOM     93  C   UNL A   1      46.362  28.580  35.403  1.00  0.00     0.198 A 
ATOM     94  F   UNL A   1      45.452  30.325  34.113  1.00  0.00    -0.203 F 
ATOM     95  F   UNL A   1      44.749  25.826  37.121  1.00  0.00    -0.200 F 
ATOM     96  C   UNL A   1      46.190  27.433  36.164  1.00  0.00     0.200 A 
ATOM     97  F   UNL A   1      47.592  29.069  35.196  1.00  0.00    -0.200 F 
ATOM     98  F   UNL A   1      47.253  26.824  36.707  1.00  0.00    -0.200 F 
ENDBRANCH  65  88
ENDBRANCH  39  40
ENDBRANCH  31  34
ENDBRANCH  29  30
ENDBRANCH  28  29
ENDBRANCH  27  28
ENDBRANCH   1  27
TORSDOF 15
ENDMDL
MODEL 3
REMARK VINA RESULT:     -12.6      1.211      2.487
REMARK SMILES Cc1nn(C)c(=O)c(C(=O)N[C@H]2C=C[C@H](C(=O)NCCCCCCNC(=O)c3ccc(-c4c5nc(c(-c6c(F)c(F)c(F)c(F)c6F)c6ccc([nH]6)c(-c6c(F)c(F)c(F)c(F)c6F)c6nc(c(-c7c(F)c(F)c(F)c(F)c7F)c7ccc4[nH]7)C=C6)C=C5)cc3)C2)c1C
REMARK SMILES IDX 21 1 20 2 19 3 18 4 16 5 17 6 15 8 12 9 13 10 91 11 14 12
REMARK SMILES IDX 11 13 9 14 10 15 8 17 1 18 2 19 3 20 92 21 4 22 93 23 5 24
REMARK SMILES IDX 6 25 7 26 22 27 23 28 24 29 25 30 26 31 27 33 28 34 29 35
REMARK SMILES IDX 90 36 30 37 89 38 31 39 32 40 33 41 83 42 34 43 88 44 82 45
REMARK SMILES IDX 84 46 35 47 87 48 81 49 80 50 36 52 68 53 48 54 67 55 49 56
REMARK SMILES IDX 52 57 66 58 85 59 50 60 51 61 65 63 86 64 53 65 37 66 38 67
REMARK SMILES IDX 46 68 39 69 40 70 44 71 47 72 41 73 42 74 45 75 43 76 69 77
REMARK SMILES IDX 70 78 78 79 71 80 72 81 76 82 79 83 73 84 74 85 77 86 75 87
REMARK SMILES IDX 54 88 55 89 63 90 56 91 57 92 61 93 64 94 58 95 59 96 62 97
REMARK SMILES IDX 60 98
REMARK H PARENT 18 7 11 16 25 32 84 51 52 62
REMARK Flexibility Score: inf
ROOT
ATOM      1  C   UNL A   1      33.064  30.081  26.974  1.00  0.00     0.002 C 
ENDROOT
BRANCH   1   2
ATOM      2  C   UNL A   1      33.597  29.465  25.672  1.00  0.00     0.021 C 
BRANCH   2   3
ATOM      3  C   UNL A   1      32.626  29.583  24.495  1.00  0.00     0.116 C 
BRANCH   3   4
ATOM      4  N   UNL A   1      33.302  29.251  23.258  1.00  0.00    -0.356 N 
ATOM      5  C   UNL A   1      33.536  28.034  22.695  1.00  0.00     0.227 C 
ATOM      6  O   UNL A   1      34.320  27.989  21.747  1.00  0.00    -0.274 OA
ATOM      7  H   UNL A   1      33.642  30.022  22.748  1.00  0.00     0.163 HD
BRANCH   5   8
ATOM      8  C   UNL A   1      32.715  26.828  23.160  1.00  0.00     0.103 C 
ATOM      9  C   UNL A   1      33.030  24.454  23.730  1.00  0.00     0.106 C 
ATOM     10  C   UNL A   1      32.559  24.628  22.328  1.00  0.00    -0.006 C 
ATOM     11  C   UNL A   1      33.372  25.876  24.174  1.00  0.00     0.047 C 
ATOM     12  C   UNL A   1      32.397  25.916  22.011  1.00  0.00    -0.016 C 
BRANCH   9  13
ATOM     13  N   UNL A   1      32.057  23.654  24.461  1.00  0.00    -0.346 N 
ATOM     14  C   UNL A   1      31.983  22.495  25.165  1.00  0.00     0.257 C 
ATOM     15  O   UNL A   1      30.933  22.280  25.775  1.00  0.00    -0.269 OA
ATOM     16  H   UNL A   1      31.176  24.091  24.438  1.00  0.00     0.164 HD
BRANCH  14  17
ATOM     17  C   UNL A   1      33.079  21.500  25.231  1.00  0.00     0.111 A 
ATOM     18  C   UNL A   1      34.090  18.057  24.431  1.00  0.00     0.069 C 
ATOM     19  C   UNL A   1      34.289  19.547  24.584  1.00  0.00     0.062 A 
ATOM     20  N   UNL A   1      35.440  19.934  25.027  1.00  0.00    -0.175 NA
ATOM     21  C   UNL A   1      33.153  20.481  24.356  1.00  0.00    -0.010 A 
ATOM     22  N   UNL A   1      35.508  21.235  25.442  1.00  0.00    -0.232 N 
ATOM     23  C   UNL A   1      32.318  20.313  23.127  1.00  0.00     0.047 C 
ATOM     24  C   UNL A   1      36.842  21.784  25.601  1.00  0.00     0.178 C 
ATOM     25  C   UNL A   1      34.376  21.929  25.870  1.00  0.00     0.279 A 
ATOM     26  O   UNL A   1      34.421  22.887  26.638  1.00  0.00    -0.267 OA
ENDBRANCH  14  17
ENDBRANCH   9  13
ENDBRANCH   5   8
ENDBRANCH   3   4
ENDBRANCH   2   3
ENDBRANCH   1   2
BRANCH   1  27
ATOM     27  C   UNL A   1      31.615  30.572  26.902  1.00  0.00     0.002 C 
BRANCH  27  28
ATOM     28  C   UNL A   1      31.463  32.094  26.861  1.00  0.00     0.021 C 
BRANCH  28  29
ATOM     29  C   UNL A   1      32.740  32.860  27.184  1.00  0.00     0.116 C 
BRANCH  29  30
ATOM     30  N   UNL A   1      32.468  34.227  27.598  1.00  0.00    -0.352 N 
ATOM     31  C   UNL A   1      33.020  34.940  28.634  1.00  0.00     0.251 C 
ATOM     32  H   UNL A   1      31.797  34.708  27.061  1.00  0.00     0.163 HD
ATOM     33  O   UNL A   1      32.560  36.022  28.965  1.00  0.00    -0.269 OA
BRANCH  31  34
ATOM     34  C   UNL A   1      34.169  34.367  29.361  1.00  0.00     0.039 A 
ATOM     35  C   UNL A   1      33.929  33.588  30.494  1.00  0.00     0.014 A 
ATOM     36  C   UNL A   1      35.476  34.590  28.915  1.00  0.00     0.014 A 
ATOM     37  C   UNL A   1      35.001  32.984  31.152  1.00  0.00     0.010 A 
ATOM     38  C   UNL A   1      36.536  33.936  29.531  1.00  0.00     0.010 A 
ATOM     39  C   UNL A   1      36.308  33.133  30.659  1.00  0.00    -0.014 A 
BRANCH  39  40
ATOM     40  C   UNL A   1      37.454  32.473  31.326  1.00  0.00     0.031 A 
ATOM     41  C   UNL A   1      38.178  31.355  30.634  1.00  0.00     0.074 A 
ATOM     42  C   UNL A   1      37.814  32.853  32.565  1.00  0.00     0.049 A 
ATOM     43  N   UNL A   1      39.176  30.624  31.063  1.00  0.00    -0.248 NA
ATOM     44  C   UNL A   1      37.705  30.993  29.289  1.00  0.00     0.031 C 
ATOM     45  C   UNL A   1      37.164  33.906  33.347  1.00  0.00     0.029 A 
ATOM     46  N   UNL A   1      38.817  32.399  33.385  1.00  0.00    -0.354 N 
ATOM     47  C   UNL A   1      39.446  29.721  30.046  1.00  0.00     0.074 A 
ATOM     48  C   UNL A   1      38.470  29.950  29.003  1.00  0.00     0.031 C 
ATOM     49  C   UNL A   1      37.805  34.040  34.519  1.00  0.00     0.029 A 
ATOM     50  C   UNL A   1      38.888  33.063  34.585  1.00  0.00     0.049 A 
ATOM     51  H   UNL A   1      39.427  31.667  33.136  1.00  0.00     0.167 HD
ATOM     52  C   UNL A   1      40.438  28.803  29.975  1.00  0.00     0.037 A 
ATOM     53  C   UNL A   1      39.735  32.900  35.619  1.00  0.00     0.037 A 
ATOM     54  C   UNL A   1      41.418  28.592  31.007  1.00  0.00     0.049 A 
ATOM     55  C   UNL A   1      40.811  31.853  35.529  1.00  0.00     0.074 A 
ATOM     56  C   UNL A   1      42.485  27.713  31.014  1.00  0.00     0.029 A 
ATOM     57  N   UNL A   1      41.447  29.271  32.216  1.00  0.00    -0.354 N 
ATOM     58  N   UNL A   1      41.086  31.034  34.542  1.00  0.00    -0.248 NA
ATOM     59  C   UNL A   1      41.693  31.705  36.695  1.00  0.00     0.031 C 
ATOM     60  C   UNL A   1      43.140  27.833  32.244  1.00  0.00     0.029 A 
ATOM     61  C   UNL A   1      42.506  28.817  32.986  1.00  0.00     0.049 A 
ATOM     62  H   UNL A   1      40.811  29.973  32.486  1.00  0.00     0.167 HD
ATOM     63  C   UNL A   1      42.183  30.291  34.957  1.00  0.00     0.074 A 
ATOM     64  C   UNL A   1      42.531  30.765  36.281  1.00  0.00     0.031 C 
ATOM     65  C   UNL A   1      42.839  29.304  34.300  1.00  0.00     0.037 A 
BRANCH  52  66
ATOM     66  C   UNL A   1      40.522  27.970  28.731  1.00  0.00     0.064 A 
ATOM     67  C   UNL A   1      41.290  28.378  27.630  1.00  0.00     0.173 A 
ATOM     68  C   UNL A   1      39.863  26.735  28.651  1.00  0.00     0.173 A 
ATOM     69  F   UNL A   1      41.928  29.558  27.653  1.00  0.00    -0.203 F 
ATOM     70  C   UNL A   1      41.377  27.590  26.486  1.00  0.00     0.198 A 
ATOM     71  C   UNL A   1      39.975  25.936  27.516  1.00  0.00     0.198 A 
ATOM     72  F   UNL A   1      39.119  26.296  29.677  1.00  0.00    -0.203 F 
ATOM     73  F   UNL A   1      42.081  28.021  25.430  1.00  0.00    -0.200 F 
ATOM     74  C   UNL A   1      40.726  26.367  26.432  1.00  0.00     0.200 A 
ATOM     75  F   UNL A   1      39.354  24.749  27.468  1.00  0.00    -0.200 F 
ATOM     76  F   UNL A   1      40.818  25.606  25.333  1.00  0.00    -0.200 F 
ENDBRANCH  52  66
BRANCH  53  77
ATOM     77  C   UNL A   1      39.625  33.786  36.805  1.00  0.00     0.064 A 
ATOM     78  C   UNL A   1      40.267  35.031  36.829  1.00  0.00     0.173 A 
ATOM     79  C   UNL A   1      38.854  33.427  37.920  1.00  0.00     0.173 A 
ATOM     80  F   UNL A   1      41.030  35.408  35.792  1.00  0.00    -0.203 F 
ATOM     81  C   UNL A   1      40.148  35.882  37.924  1.00  0.00     0.198 A 
ATOM     82  C   UNL A   1      38.717  34.289  39.006  1.00  0.00     0.198 A 
ATOM     83  F   UNL A   1      38.215  32.249  37.945  1.00  0.00    -0.203 F 
ATOM     84  F   UNL A   1      40.795  37.056  37.931  1.00  0.00    -0.200 F 
ATOM     85  C   UNL A   1      39.366  35.514  39.009  1.00  0.00     0.200 A 
ATOM     86  F   UNL A   1      37.949  33.937  40.046  1.00  0.00    -0.200 F 
ATOM     87  F   UNL A   1      39.241  36.340  40.057  1.00  0.00    -0.200 F 
ENDBRANCH  53  77
BRANCH  65  88
ATOM     88  C   UNL A   1      44.012  28.674  34.990  1.00  0.00     0.064 A 
ATOM     89  C   UNL A   1      45.303  29.203  34.865  1.00  0.00     0.173 A 
ATOM     90  C   UNL A   1      43.827  27.579  35.848  1.00  0.00     0.173 A 
ATOM     91  F   UNL A   1      45.531  30.241  34.047  1.00  0.00    -0.203 F 
ATOM     92  C   UNL A   1      46.372  28.652  35.567  1.00  0.00     0.198 A 
ATOM     93  C   UNL A   1      44.893  27.047  36.569  1.00  0.00     0.198 A 
ATOM     94  F   UNL A   1      42.609  27.041  36.007  1.00  0.00    -0.203 F 
ATOM     95  F   UNL A   1      47.605  29.155  35.410  1.00  0.00    -0.200 F 
ATOM     96  C   UNL A   1      46.164  27.583  36.426  1.00  0.00     0.200 A 
ATOM     97  F   UNL A   1      44.689  26.023  37.408  1.00  0.00    -0.200 F 
ATOM     98  F   UNL A   1      47.192  27.065  37.113  1.00  0.00    -0.200 F 
ENDBRANCH  65  88
ENDBRANCH  39  40
ENDBRANCH  31  34
ENDBRANCH  29  30
ENDBRANCH  28  29
ENDBRANCH  27  28
ENDBRANCH   1  27
TORSDOF 15
ENDMDL
