MODEL 1
REMARK VINA RESULT:     -11.1      0.000      0.000
REMARK SMILES COc1ccc(NCc2cc(C(=O)NCCCCCCNC(=O)c3ccc(-c4c5nc(c(-c6c(F)c(F)c(F)c(F)c6F)c6ccc([nH]6)c(-c6c(F)c(F)c(F)c(F)c6F)c6nc(c(-c7c(F)c(F)c(F)c(F)c7F)c7ccc4[nH]7)C=C6)C=C5)cc3)cs2)cc1Br
REMARK SMILES IDX 16 1 15 2 14 3 12 4 13 5 11 7 9 8 10 9 88 10 87 11 8 12 7 13
REMARK SMILES IDX 6 15 3 16 4 17 90 18 5 19 89 20 91 21 2 22 1 23 17 24 18 25
REMARK SMILES IDX 19 26 20 27 21 28 22 29 23 31 24 32 25 33 86 34 26 35 85 36
REMARK SMILES IDX 27 37 28 38 29 39 79 40 30 41 84 42 78 43 80 44 31 45 83 46
REMARK SMILES IDX 77 47 76 48 32 50 64 51 44 52 63 53 45 54 48 55 62 56 81 57
REMARK SMILES IDX 46 58 47 59 61 61 82 62 49 63 33 64 34 65 42 66 35 67 36 68
REMARK SMILES IDX 40 69 43 70 37 71 38 72 41 73 39 74 65 75 66 76 74 77 67 78
REMARK SMILES IDX 68 79 72 80 75 81 69 82 70 83 73 84 71 85 50 86 51 87 59 88
REMARK SMILES IDX 52 89 53 90 57 91 60 92 54 93 55 94 58 95 56 96
REMARK H PARENT 14 6 7 14 21 30 80 49 48 60
REMARK Flexibility Score: inf
ROOT
ATOM      1  C   UNL A   1      35.733  22.337  24.476  1.00  0.00     0.021 C 
ENDROOT
BRANCH   1   2
ATOM      2  C   UNL A   1      34.609  21.678  25.276  1.00  0.00     0.116 C 
BRANCH   2   3
ATOM      3  N   UNL A   1      33.733  20.939  24.391  1.00  0.00    -0.352 N 
ATOM      4  C   UNL A   1      32.671  21.318  23.612  1.00  0.00     0.252 C 
ATOM      5  O   UNL A   1      32.135  20.440  22.937  1.00  0.00    -0.269 OA
ATOM      6  H   UNL A   1      33.939  19.977  24.342  1.00  0.00     0.163 HD
BRANCH   4   7
ATOM      7  C   UNL A   1      32.240  22.715  23.528  1.00  0.00     0.050 A 
ATOM      8  C   UNL A   1      31.880  24.909  22.743  1.00  0.00     0.024 A 
ATOM      9  C   UNL A   1      32.678  23.781  22.676  1.00  0.00     0.031 A 
ATOM     10  S   UNL A   1      30.787  24.798  24.051  1.00  0.00    -0.146 S 
ATOM     11  C   UNL A   1      31.271  23.199  24.395  1.00  0.00     0.079 A 
BRANCH   8  12
ATOM     12  C   UNL A   1      31.928  26.094  21.816  1.00  0.00     0.159 C 
BRANCH  12  13
ATOM     13  N   UNL A   1      32.747  27.214  22.234  1.00  0.00    -0.380 N 
ATOM     14  H   UNL A   1      33.565  27.382  21.711  1.00  0.00     0.160 HD
BRANCH  13  15
ATOM     15  C   UNL A   1      32.502  28.067  23.287  1.00  0.00     0.036 A 
ATOM     16  C   UNL A   1      32.092  29.722  25.541  1.00  0.00     0.133 A 
ATOM     17  C   UNL A   1      31.133  29.655  24.533  1.00  0.00     0.050 A 
ATOM     18  C   UNL A   1      33.234  28.929  25.458  1.00  0.00     0.062 A 
ATOM     19  C   UNL A   1      31.340  28.836  23.419  1.00  0.00     0.029 A 
ATOM     20  C   UNL A   1      33.435  28.119  24.335  1.00  0.00     0.045 A 
ATOM     21  Br  UNL A   1      34.524  28.865  26.846  1.00  0.00    -0.047 Br
BRANCH  16  22
ATOM     22  O   UNL A   1      31.818  30.524  26.617  1.00  0.00    -0.496 OA
ATOM     23  C   UNL A   1      31.088  31.681  26.204  1.00  0.00     0.278 C 
ENDBRANCH  16  22
ENDBRANCH  13  15
ENDBRANCH  12  13
ENDBRANCH   8  12
ENDBRANCH   4   7
ENDBRANCH   2   3
ENDBRANCH   1   2
BRANCH   1  24
ATOM     24  C   UNL A   1      37.061  21.573  24.577  1.00  0.00     0.002 C 
BRANCH  24  25
ATOM     25  C   UNL A   1      36.916  20.077  24.890  1.00  0.00     0.002 C 
BRANCH  25  26
ATOM     26  C   UNL A   1      38.237  19.317  25.022  1.00  0.00     0.021 C 
BRANCH  26  27
ATOM     27  C   UNL A   1      39.231  19.962  25.982  1.00  0.00     0.116 C 
BRANCH  27  28
ATOM     28  N   UNL A   1      40.439  19.164  26.116  1.00  0.00    -0.352 N 
ATOM     29  C   UNL A   1      41.741  19.571  26.239  1.00  0.00     0.251 C 
ATOM     30  H   UNL A   1      40.301  18.188  26.121  1.00  0.00     0.163 HD
ATOM     31  O   UNL A   1      42.658  18.768  26.099  1.00  0.00    -0.269 OA
BRANCH  29  32
ATOM     32  C   UNL A   1      42.041  20.988  26.531  1.00  0.00     0.039 A 
ATOM     33  C   UNL A   1      42.229  21.380  27.858  1.00  0.00     0.014 A 
ATOM     34  C   UNL A   1      42.117  21.928  25.499  1.00  0.00     0.014 A 
ATOM     35  C   UNL A   1      42.542  22.710  28.145  1.00  0.00     0.010 A 
ATOM     36  C   UNL A   1      42.505  23.234  25.780  1.00  0.00     0.010 A 
ATOM     37  C   UNL A   1      42.710  23.641  27.106  1.00  0.00    -0.014 A 
BRANCH  37  38
ATOM     38  C   UNL A   1      43.092  25.046  27.393  1.00  0.00     0.031 A 
ATOM     39  C   UNL A   1      44.484  25.527  27.094  1.00  0.00     0.074 A 
ATOM     40  C   UNL A   1      42.199  25.871  27.973  1.00  0.00     0.049 A 
ATOM     41  N   UNL A   1      45.020  26.701  27.314  1.00  0.00    -0.248 NA
ATOM     42  C   UNL A   1      45.407  24.551  26.493  1.00  0.00     0.031 C 
ATOM     43  C   UNL A   1      40.835  25.505  28.356  1.00  0.00     0.029 A 
ATOM     44  N   UNL A   1      42.307  27.187  28.347  1.00  0.00    -0.354 N 
ATOM     45  C   UNL A   1      46.339  26.600  26.891  1.00  0.00     0.074 A 
ATOM     46  C   UNL A   1      46.541  25.235  26.457  1.00  0.00     0.031 C 
ATOM     47  C   UNL A   1      40.224  26.576  28.885  1.00  0.00     0.029 A 
ATOM     48  C   UNL A   1      41.164  27.693  28.915  1.00  0.00     0.049 A 
ATOM     49  H   UNL A   1      43.127  27.717  28.221  1.00  0.00     0.167 HD
ATOM     50  C   UNL A   1      47.287  27.566  26.843  1.00  0.00     0.037 A 
ATOM     51  C   UNL A   1      40.906  28.919  29.409  1.00  0.00     0.037 A 
ATOM     52  C   UNL A   1      47.073  28.928  27.257  1.00  0.00     0.049 A 
ATOM     53  C   UNL A   1      41.980  29.972  29.349  1.00  0.00     0.074 A 
ATOM     54  C   UNL A   1      47.951  29.995  27.199  1.00  0.00     0.029 A 
ATOM     55  N   UNL A   1      45.895  29.408  27.811  1.00  0.00    -0.354 N 
ATOM     56  N   UNL A   1      43.200  29.885  28.880  1.00  0.00    -0.248 NA
ATOM     57  C   UNL A   1      41.635  31.298  29.881  1.00  0.00     0.031 C 
ATOM     58  C   UNL A   1      47.324  31.110  27.766  1.00  0.00     0.029 A 
ATOM     59  C   UNL A   1      46.032  30.752  28.120  1.00  0.00     0.049 A 
ATOM     60  H   UNL A   1      45.083  28.873  27.962  1.00  0.00     0.167 HD
ATOM     61  C   UNL A   1      43.756  31.149  29.024  1.00  0.00     0.074 A 
ATOM     62  C   UNL A   1      42.734  31.989  29.615  1.00  0.00     0.031 C 
ATOM     63  C   UNL A   1      45.000  31.577  28.695  1.00  0.00     0.037 A 
BRANCH  50  64
ATOM     64  C   UNL A   1      48.644  27.184  26.323  1.00  0.00     0.064 A 
ATOM     65  C   UNL A   1      49.664  26.740  27.179  1.00  0.00     0.173 A 
ATOM     66  C   UNL A   1      48.918  27.226  24.947  1.00  0.00     0.173 A 
ATOM     67  F   UNL A   1      49.460  26.690  28.504  1.00  0.00    -0.203 F 
ATOM     68  C   UNL A   1      50.915  26.385  26.682  1.00  0.00     0.198 A 
ATOM     69  C   UNL A   1      50.159  26.838  24.449  1.00  0.00     0.198 A 
ATOM     70  F   UNL A   1      47.977  27.637  24.083  1.00  0.00    -0.203 F 
ATOM     71  F   UNL A   1      51.890  26.018  27.524  1.00  0.00    -0.200 F 
ATOM     72  C   UNL A   1      51.159  26.427  25.317  1.00  0.00     0.200 A 
ATOM     73  F   UNL A   1      50.388  26.864  23.129  1.00  0.00    -0.200 F 
ATOM     74  F   UNL A   1      52.361  26.077  24.839  1.00  0.00    -0.200 F 
ENDBRANCH  50  64
BRANCH  51  75
ATOM     75  C   UNL A   1      39.566  29.226  29.975  1.00  0.00     0.064 A 
ATOM     76  C   UNL A   1      38.562  29.798  29.180  1.00  0.00     0.173 A 
ATOM     77  C   UNL A   1      39.261  28.960  31.317  1.00  0.00     0.173 A 
ATOM     78  F   UNL A   1      38.810  30.087  27.894  1.00  0.00    -0.203 F 
ATOM     79  C   UNL A   1      37.315  30.116  29.714  1.00  0.00     0.198 A 
ATOM     80  C   UNL A   1      38.003  29.249  31.842  1.00  0.00     0.198 A 
ATOM     81  F   UNL A   1      40.182  28.404  32.118  1.00  0.00    -0.203 F 
ATOM     82  F   UNL A   1      36.391  30.709  28.944  1.00  0.00    -0.200 F 
ATOM     83  C   UNL A   1      37.034  29.836  31.042  1.00  0.00     0.200 A 
ATOM     84  F   UNL A   1      37.730  28.960  33.122  1.00  0.00    -0.200 F 
ATOM     85  F   UNL A   1      35.833  30.139  31.553  1.00  0.00    -0.200 F 
ENDBRANCH  51  75
BRANCH  63  86
ATOM     86  C   UNL A   1      45.311  33.029  28.918  1.00  0.00     0.064 A 
ATOM     87  C   UNL A   1      45.909  33.486  30.101  1.00  0.00     0.173 A 
ATOM     88  C   UNL A   1      45.043  33.972  27.912  1.00  0.00     0.173 A 
ATOM     89  F   UNL A   1      46.173  32.629  31.099  1.00  0.00    -0.203 F 
ATOM     90  C   UNL A   1      46.199  34.837  30.282  1.00  0.00     0.198 A 
ATOM     91  C   UNL A   1      45.365  35.314  28.082  1.00  0.00     0.198 A 
ATOM     92  F   UNL A   1      44.479  33.587  26.757  1.00  0.00    -0.203 F 
ATOM     93  F   UNL A   1      46.720  35.259  31.442  1.00  0.00    -0.200 F 
ATOM     94  C   UNL A   1      45.934  35.747  29.270  1.00  0.00     0.200 A 
ATOM     95  F   UNL A   1      45.124  36.189  27.096  1.00  0.00    -0.200 F 
ATOM     96  F   UNL A   1      46.222  37.045  29.441  1.00  0.00    -0.200 F 
ENDBRANCH  63  86
ENDBRANCH  37  38
ENDBRANCH  29  32
ENDBRANCH  27  28
ENDBRANCH  26  27
ENDBRANCH  25  26
ENDBRANCH  24  25
ENDBRANCH   1  24
TORSDOF 17
ENDMDL
MODEL 2
REMARK VINA RESULT:     -11.1      1.251      7.464
REMARK SMILES COc1ccc(NCc2cc(C(=O)NCCCCCCNC(=O)c3ccc(-c4c5nc(c(-c6c(F)c(F)c(F)c(F)c6F)c6ccc([nH]6)c(-c6c(F)c(F)c(F)c(F)c6F)c6nc(c(-c7c(F)c(F)c(F)c(F)c7F)c7ccc4[nH]7)C=C6)C=C5)cc3)cs2)cc1Br
REMARK SMILES IDX 16 1 15 2 14 3 12 4 13 5 11 7 9 8 10 9 88 10 87 11 8 12 7 13
REMARK SMILES IDX 6 15 3 16 4 17 90 18 5 19 89 20 91 21 2 22 1 23 17 24 18 25
REMARK SMILES IDX 19 26 20 27 21 28 22 29 23 31 24 32 25 33 86 34 26 35 85 36
REMARK SMILES IDX 27 37 28 38 29 39 79 40 30 41 84 42 78 43 80 44 31 45 83 46
REMARK SMILES IDX 77 47 76 48 32 50 64 51 44 52 63 53 45 54 48 55 62 56 81 57
REMARK SMILES IDX 46 58 47 59 61 61 82 62 49 63 33 64 34 65 42 66 35 67 36 68
REMARK SMILES IDX 40 69 43 70 37 71 38 72 41 73 39 74 65 75 66 76 74 77 67 78
REMARK SMILES IDX 68 79 72 80 75 81 69 82 70 83 73 84 71 85 50 86 51 87 59 88
REMARK SMILES IDX 52 89 53 90 57 91 60 92 54 93 55 94 58 95 56 96
REMARK H PARENT 14 6 7 14 21 30 80 49 48 60
REMARK Flexibility Score: inf
ROOT
ATOM      1  C   UNL A   1      35.614  22.072  24.904  1.00  0.00     0.021 C 
ENDROOT
BRANCH   1   2
ATOM      2  C   UNL A   1      34.936  21.491  26.146  1.00  0.00     0.116 C 
BRANCH   2   3
ATOM      3  N   UNL A   1      34.053  20.405  25.772  1.00  0.00    -0.352 N 
ATOM      4  C   UNL A   1      32.759  20.378  25.324  1.00  0.00     0.252 C 
ATOM      5  O   UNL A   1      32.284  19.274  25.061  1.00  0.00    -0.269 OA
ATOM      6  H   UNL A   1      34.463  19.513  25.858  1.00  0.00     0.163 HD
BRANCH   4   7
ATOM      7  C   UNL A   1      31.998  21.609  25.099  1.00  0.00     0.050 A 
ATOM      8  C   UNL A   1      30.763  23.583  25.472  1.00  0.00     0.024 A 
ATOM      9  C   UNL A   1      31.130  22.347  25.971  1.00  0.00     0.031 A 
ATOM     10  S   UNL A   1      31.210  23.729  23.830  1.00  0.00    -0.146 S 
ATOM     11  C   UNL A   1      32.028  22.232  23.860  1.00  0.00     0.079 A 
BRANCH   8  12
ATOM     12  C   UNL A   1      30.065  24.681  26.230  1.00  0.00     0.159 C 
BRANCH  12  13
ATOM     13  N   UNL A   1      30.091  26.001  25.633  1.00  0.00    -0.380 N 
ATOM     14  H   UNL A   1      29.360  26.218  25.009  1.00  0.00     0.160 HD
BRANCH  13  15
ATOM     15  C   UNL A   1      31.032  26.984  25.848  1.00  0.00     0.036 A 
ATOM     16  C   UNL A   1      33.037  28.953  26.153  1.00  0.00     0.133 A 
ATOM     17  C   UNL A   1      32.375  28.443  27.267  1.00  0.00     0.050 A 
ATOM     18  C   UNL A   1      32.742  28.448  24.888  1.00  0.00     0.062 A 
ATOM     19  C   UNL A   1      31.382  27.471  27.112  1.00  0.00     0.029 A 
ATOM     20  C   UNL A   1      31.741  27.481  24.743  1.00  0.00     0.045 A 
ATOM     21  Br  UNL A   1      33.685  28.994  23.336  1.00  0.00    -0.047 Br
BRANCH  16  22
ATOM     22  O   UNL A   1      34.015  29.885  26.374  1.00  0.00    -0.496 OA
ATOM     23  C   UNL A   1      33.559  30.878  27.295  1.00  0.00     0.278 C 
ENDBRANCH  16  22
ENDBRANCH  13  15
ENDBRANCH  12  13
ENDBRANCH   8  12
ENDBRANCH   4   7
ENDBRANCH   2   3
ENDBRANCH   1   2
BRANCH   1  24
ATOM     24  C   UNL A   1      36.953  21.392  24.585  1.00  0.00     0.002 C 
BRANCH  24  25
ATOM     25  C   UNL A   1      37.021  19.905  24.964  1.00  0.00     0.002 C 
BRANCH  25  26
ATOM     26  C   UNL A   1      38.414  19.280  24.865  1.00  0.00     0.021 C 
BRANCH  26  27
ATOM     27  C   UNL A   1      39.374  19.728  25.961  1.00  0.00     0.116 C 
BRANCH  27  28
ATOM     28  N   UNL A   1      40.549  18.873  26.024  1.00  0.00    -0.352 N 
ATOM     29  C   UNL A   1      41.873  19.218  26.093  1.00  0.00     0.251 C 
ATOM     30  H   UNL A   1      40.366  17.905  26.017  1.00  0.00     0.163 HD
ATOM     31  O   UNL A   1      42.744  18.377  25.896  1.00  0.00    -0.269 OA
BRANCH  29  32
ATOM     32  C   UNL A   1      42.252  20.613  26.398  1.00  0.00     0.039 A 
ATOM     33  C   UNL A   1      42.371  21.007  27.732  1.00  0.00     0.014 A 
ATOM     34  C   UNL A   1      42.469  21.534  25.368  1.00  0.00     0.014 A 
ATOM     35  C   UNL A   1      42.757  22.314  28.032  1.00  0.00     0.010 A 
ATOM     36  C   UNL A   1      42.928  22.812  25.667  1.00  0.00     0.010 A 
ATOM     37  C   UNL A   1      43.066  23.219  27.003  1.00  0.00    -0.014 A 
BRANCH  37  38
ATOM     38  C   UNL A   1      43.525  24.597  27.307  1.00  0.00     0.031 A 
ATOM     39  C   UNL A   1      42.563  25.610  27.861  1.00  0.00     0.074 A 
ATOM     40  C   UNL A   1      44.797  24.948  27.033  1.00  0.00     0.049 A 
ATOM     41  N   UNL A   1      42.762  26.871  28.148  1.00  0.00    -0.248 NA
ATOM     42  C   UNL A   1      41.184  25.152  28.099  1.00  0.00     0.031 C 
ATOM     43  C   UNL A   1      45.808  24.068  26.448  1.00  0.00     0.029 A 
ATOM     44  N   UNL A   1      45.453  26.141  27.203  1.00  0.00    -0.354 N 
ATOM     45  C   UNL A   1      41.537  27.357  28.586  1.00  0.00     0.074 A 
ATOM     46  C   UNL A   1      40.586  26.273  28.471  1.00  0.00     0.031 C 
ATOM     47  C   UNL A   1      46.964  24.741  26.334  1.00  0.00     0.029 A 
ATOM     48  C   UNL A   1      46.765  26.110  26.800  1.00  0.00     0.049 A 
ATOM     49  H   UNL A   1      45.023  26.943  27.579  1.00  0.00     0.167 HD
ATOM     50  C   UNL A   1      41.240  28.588  29.066  1.00  0.00     0.037 A 
ATOM     51  C   UNL A   1      47.700  27.079  26.802  1.00  0.00     0.037 A 
ATOM     52  C   UNL A   1      42.196  29.656  29.198  1.00  0.00     0.049 A 
ATOM     53  C   UNL A   1      47.341  28.440  27.335  1.00  0.00     0.074 A 
ATOM     54  C   UNL A   1      42.009  30.922  29.722  1.00  0.00     0.029 A 
ATOM     55  N   UNL A   1      43.522  29.581  28.794  1.00  0.00    -0.354 N 
ATOM     56  N   UNL A   1      46.199  28.867  27.815  1.00  0.00    -0.248 NA
ATOM     57  C   UNL A   1      48.407  29.452  27.335  1.00  0.00     0.031 C 
ATOM     58  C   UNL A   1      43.207  31.633  29.588  1.00  0.00     0.029 A 
ATOM     59  C   UNL A   1      44.159  30.788  29.038  1.00  0.00     0.049 A 
ATOM     60  H   UNL A   1      43.947  28.789  28.395  1.00  0.00     0.167 HD
ATOM     61  C   UNL A   1      46.416  30.181  28.208  1.00  0.00     0.074 A 
ATOM     62  C   UNL A   1      47.805  30.477  27.920  1.00  0.00     0.031 C 
ATOM     63  C   UNL A   1      45.546  31.062  28.759  1.00  0.00     0.037 A 
BRANCH  50  64
ATOM     64  C   UNL A   1      39.821  28.846  29.488  1.00  0.00     0.064 A 
ATOM     65  C   UNL A   1      38.868  29.362  28.596  1.00  0.00     0.173 A 
ATOM     66  C   UNL A   1      39.398  28.541  30.791  1.00  0.00     0.173 A 
ATOM     67  F   UNL A   1      39.222  29.683  27.341  1.00  0.00    -0.203 F 
ATOM     68  C   UNL A   1      37.556  29.592  29.000  1.00  0.00     0.198 A 
ATOM     69  C   UNL A   1      38.076  28.739  31.182  1.00  0.00     0.198 A 
ATOM     70  F   UNL A   1      40.265  28.039  31.683  1.00  0.00    -0.203 F 
ATOM     71  F   UNL A   1      36.679  30.137  28.146  1.00  0.00    -0.200 F 
ATOM     72  C   UNL A   1      37.159  29.274  30.290  1.00  0.00     0.200 A 
ATOM     73  F   UNL A   1      37.691  28.416  32.424  1.00  0.00    -0.200 F 
ATOM     74  F   UNL A   1      35.893  29.487  30.675  1.00  0.00    -0.200 F 
ENDBRANCH  50  64
BRANCH  51  75
ATOM     75  C   UNL A   1      49.073  26.789  26.311  1.00  0.00     0.064 A 
ATOM     76  C   UNL A   1      50.046  26.252  27.166  1.00  0.00     0.173 A 
ATOM     77  C   UNL A   1      49.443  27.045  24.982  1.00  0.00     0.173 A 
ATOM     78  F   UNL A   1      49.746  26.006  28.449  1.00  0.00    -0.203 F 
ATOM     79  C   UNL A   1      51.342  26.008  26.718  1.00  0.00     0.198 A 
ATOM     80  C   UNL A   1      50.730  26.771  24.528  1.00  0.00     0.198 A 
ATOM     81  F   UNL A   1      48.547  27.549  24.121  1.00  0.00    -0.203 F 
ATOM     82  F   UNL A   1      52.266  25.542  27.570  1.00  0.00    -0.200 F 
ATOM     83  C   UNL A   1      51.682  26.262  25.398  1.00  0.00     0.200 A 
ATOM     84  F   UNL A   1      51.050  27.000  23.246  1.00  0.00    -0.200 F 
ATOM     85  F   UNL A   1      52.928  26.023  24.967  1.00  0.00    -0.200 F 
ENDBRANCH  51  75
BRANCH  63  86
ATOM     86  C   UNL A   1      46.078  32.415  29.136  1.00  0.00     0.064 A 
ATOM     87  C   UNL A   1      46.659  32.660  30.388  1.00  0.00     0.173 A 
ATOM     88  C   UNL A   1      46.041  33.472  28.211  1.00  0.00     0.173 A 
ATOM     89  F   UNL A   1      46.707  31.689  31.312  1.00  0.00    -0.203 F 
ATOM     90  C   UNL A   1      47.156  33.920  30.712  1.00  0.00     0.198 A 
ATOM     91  C   UNL A   1      46.569  34.719  28.526  1.00  0.00     0.198 A 
ATOM     92  F   UNL A   1      45.503  33.288  26.996  1.00  0.00    -0.203 F 
ATOM     93  F   UNL A   1      47.658  34.146  31.934  1.00  0.00    -0.200 F 
ATOM     94  C   UNL A   1      47.118  34.945  29.779  1.00  0.00     0.200 A 
ATOM     95  F   UNL A   1      46.547  35.703  27.617  1.00  0.00    -0.200 F 
ATOM     96  F   UNL A   1      47.605  36.155  30.089  1.00  0.00    -0.200 F 
ENDBRANCH  63  86
ENDBRANCH  37  38
ENDBRANCH  29  32
ENDBRANCH  27  28
ENDBRANCH  26  27
ENDBRANCH  25  26
ENDBRANCH  24  25
ENDBRANCH   1  24
TORSDOF 17
ENDMDL
MODEL 3
REMARK VINA RESULT:     -10.9      1.588      7.399
REMARK SMILES COc1ccc(NCc2cc(C(=O)NCCCCCCNC(=O)c3ccc(-c4c5nc(c(-c6c(F)c(F)c(F)c(F)c6F)c6ccc([nH]6)c(-c6c(F)c(F)c(F)c(F)c6F)c6nc(c(-c7c(F)c(F)c(F)c(F)c7F)c7ccc4[nH]7)C=C6)C=C5)cc3)cs2)cc1Br
REMARK SMILES IDX 16 1 15 2 14 3 12 4 13 5 11 7 9 8 10 9 88 10 87 11 8 12 7 13
REMARK SMILES IDX 6 15 3 16 4 17 90 18 5 19 89 20 91 21 2 22 1 23 17 24 18 25
REMARK SMILES IDX 19 26 20 27 21 28 22 29 23 31 24 32 25 33 86 34 26 35 85 36
REMARK SMILES IDX 27 37 28 38 29 39 79 40 30 41 84 42 78 43 80 44 31 45 83 46
REMARK SMILES IDX 77 47 76 48 32 50 64 51 44 52 63 53 45 54 48 55 62 56 81 57
REMARK SMILES IDX 46 58 47 59 61 61 82 62 49 63 33 64 34 65 42 66 35 67 36 68
REMARK SMILES IDX 40 69 43 70 37 71 38 72 41 73 39 74 65 75 66 76 74 77 67 78
REMARK SMILES IDX 68 79 72 80 75 81 69 82 70 83 73 84 71 85 50 86 51 87 59 88
REMARK SMILES IDX 52 89 53 90 57 91 60 92 54 93 55 94 58 95 56 96
REMARK H PARENT 14 6 7 14 21 30 80 49 48 60
REMARK Flexibility Score: inf
ROOT
ATOM      1  C   UNL A   1      36.787  23.676  25.210  1.00  0.00     0.021 C 
ENDROOT
BRANCH   1   2
ATOM      2  C   UNL A   1      36.559  22.783  23.991  1.00  0.00     0.116 C 
BRANCH   2   3
ATOM      3  N   UNL A   1      36.100  21.474  24.408  1.00  0.00    -0.352 N 
ATOM      4  C   UNL A   1      34.855  20.977  24.691  1.00  0.00     0.252 C 
ATOM      5  O   UNL A   1      34.788  19.788  25.001  1.00  0.00    -0.269 OA
ATOM      6  H   UNL A   1      36.825  20.814  24.510  1.00  0.00     0.163 HD
BRANCH   4   7
ATOM      7  C   UNL A   1      33.651  21.801  24.560  1.00  0.00     0.050 A 
ATOM      8  C   UNL A   1      31.953  23.377  24.998  1.00  0.00     0.024 A 
ATOM      9  C   UNL A   1      32.913  22.541  25.541  1.00  0.00     0.031 A 
ATOM     10  S   UNL A   1      31.733  23.045  23.337  1.00  0.00    -0.146 S 
ATOM     11  C   UNL A   1      33.024  21.929  23.330  1.00  0.00     0.079 A 
BRANCH   8  12
ATOM     12  C   UNL A   1      31.183  24.445  25.727  1.00  0.00     0.159 C 
BRANCH  12  13
ATOM     13  N   UNL A   1      30.003  24.964  25.064  1.00  0.00    -0.380 N 
ATOM     14  H   UNL A   1      29.169  24.456  25.187  1.00  0.00     0.160 HD
BRANCH  13  15
ATOM     15  C   UNL A   1      29.928  26.094  24.281  1.00  0.00     0.036 A 
ATOM     16  C   UNL A   1      29.921  28.458  22.731  1.00  0.00     0.133 A 
ATOM     17  C   UNL A   1      28.721  27.872  23.127  1.00  0.00     0.050 A 
ATOM     18  C   UNL A   1      31.129  27.902  23.147  1.00  0.00     0.062 A 
ATOM     19  C   UNL A   1      28.729  26.701  23.892  1.00  0.00     0.029 A 
ATOM     20  C   UNL A   1      31.125  26.726  23.906  1.00  0.00     0.045 A 
ATOM     21  Br  UNL A   1      32.801  28.709  22.760  1.00  0.00    -0.047 Br
BRANCH  16  22
ATOM     22  O   UNL A   1      29.845  29.615  22.003  1.00  0.00    -0.496 OA
ATOM     23  C   UNL A   1      28.812  30.460  22.515  1.00  0.00     0.278 C 
ENDBRANCH  16  22
ENDBRANCH  13  15
ENDBRANCH  12  13
ENDBRANCH   8  12
ENDBRANCH   4   7
ENDBRANCH   2   3
ENDBRANCH   1   2
BRANCH   1  24
ATOM     24  C   UNL A   1      37.597  22.981  26.313  1.00  0.00     0.002 C 
BRANCH  24  25
ATOM     25  C   UNL A   1      38.952  22.423  25.855  1.00  0.00     0.002 C 
BRANCH  25  26
ATOM     26  C   UNL A   1      39.316  21.058  26.443  1.00  0.00     0.021 C 
BRANCH  26  27
ATOM     27  C   UNL A   1      39.450  19.950  25.403  1.00  0.00     0.116 C 
BRANCH  27  28
ATOM     28  N   UNL A   1      40.442  18.963  25.799  1.00  0.00    -0.352 N 
ATOM     29  C   UNL A   1      41.761  19.140  26.128  1.00  0.00     0.251 C 
ATOM     30  H   UNL A   1      40.120  18.033  25.837  1.00  0.00     0.163 HD
ATOM     31  O   UNL A   1      42.515  18.175  26.203  1.00  0.00    -0.269 OA
BRANCH  29  32
ATOM     32  C   UNL A   1      42.276  20.500  26.384  1.00  0.00     0.039 A 
ATOM     33  C   UNL A   1      42.711  21.274  25.306  1.00  0.00     0.014 A 
ATOM     34  C   UNL A   1      42.346  21.002  27.688  1.00  0.00     0.014 A 
ATOM     35  C   UNL A   1      43.172  22.572  25.532  1.00  0.00     0.010 A 
ATOM     36  C   UNL A   1      42.732  22.321  27.902  1.00  0.00     0.010 A 
ATOM     37  C   UNL A   1      43.160  23.115  26.827  1.00  0.00    -0.014 A 
BRANCH  37  38
ATOM     38  C   UNL A   1      43.600  24.511  27.076  1.00  0.00     0.031 A 
ATOM     39  C   UNL A   1      42.622  25.533  27.584  1.00  0.00     0.074 A 
ATOM     40  C   UNL A   1      44.867  24.868  26.791  1.00  0.00     0.049 A 
ATOM     41  N   UNL A   1      42.803  26.808  27.819  1.00  0.00    -0.248 NA
ATOM     42  C   UNL A   1      41.249  25.067  27.837  1.00  0.00     0.031 C 
ATOM     43  C   UNL A   1      45.893  23.978  26.245  1.00  0.00     0.029 A 
ATOM     44  N   UNL A   1      45.507  26.076  26.913  1.00  0.00    -0.354 N 
ATOM     45  C   UNL A   1      41.570  27.295  28.233  1.00  0.00     0.074 A 
ATOM     46  C   UNL A   1      40.635  26.194  28.161  1.00  0.00     0.031 C 
ATOM     47  C   UNL A   1      47.040  24.662  26.106  1.00  0.00     0.029 A 
ATOM     48  C   UNL A   1      46.820  26.045  26.515  1.00  0.00     0.049 A 
ATOM     49  H   UNL A   1      45.064  26.887  27.254  1.00  0.00     0.167 HD
ATOM     50  C   UNL A   1      41.255  28.541  28.661  1.00  0.00     0.037 A 
ATOM     51  C   UNL A   1      47.742  27.026  26.479  1.00  0.00     0.037 A 
ATOM     52  C   UNL A   1      42.197  29.626  28.751  1.00  0.00     0.049 A 
ATOM     53  C   UNL A   1      47.363  28.403  26.954  1.00  0.00     0.074 A 
ATOM     54  C   UNL A   1      41.991  30.910  29.221  1.00  0.00     0.029 A 
ATOM     55  N   UNL A   1      43.524  29.553  28.354  1.00  0.00    -0.354 N 
ATOM     56  N   UNL A   1      46.214  28.834  27.413  1.00  0.00    -0.248 NA
ATOM     57  C   UNL A   1      48.415  29.429  26.915  1.00  0.00     0.031 C 
ATOM     58  C   UNL A   1      43.179  31.631  29.062  1.00  0.00     0.029 A 
ATOM     59  C   UNL A   1      44.144  30.777  28.549  1.00  0.00     0.049 A 
ATOM     60  H   UNL A   1      43.962  28.750  27.989  1.00  0.00     0.167 HD
ATOM     61  C   UNL A   1      46.412  30.167  27.751  1.00  0.00     0.074 A 
ATOM     62  C   UNL A   1      47.798  30.469  27.455  1.00  0.00     0.031 C 
ATOM     63  C   UNL A   1      45.528  31.058  28.263  1.00  0.00     0.037 A 
BRANCH  50  64
ATOM     64  C   UNL A   1      39.832  28.797  29.068  1.00  0.00     0.064 A 
ATOM     65  C   UNL A   1      39.392  28.589  30.385  1.00  0.00     0.173 A 
ATOM     66  C   UNL A   1      38.903  29.291  28.140  1.00  0.00     0.173 A 
ATOM     67  F   UNL A   1      40.236  28.107  31.311  1.00  0.00    -0.203 F 
ATOM     68  C   UNL A   1      38.071  28.835  30.748  1.00  0.00     0.198 A 
ATOM     69  C   UNL A   1      37.591  29.570  28.515  1.00  0.00     0.198 A 
ATOM     70  F   UNL A   1      39.270  29.515  26.869  1.00  0.00    -0.203 F 
ATOM     71  F   UNL A   1      37.662  28.577  31.998  1.00  0.00    -0.200 F 
ATOM     72  C   UNL A   1      37.173  29.332  29.815  1.00  0.00     0.200 A 
ATOM     73  F   UNL A   1      36.729  30.064  27.615  1.00  0.00    -0.200 F 
ATOM     74  F   UNL A   1      35.904  29.577  30.169  1.00  0.00    -0.200 F 
ENDBRANCH  50  64
BRANCH  51  75
ATOM     75  C   UNL A   1      49.120  26.735  26.004  1.00  0.00     0.064 A 
ATOM     76  C   UNL A   1      49.498  27.000  24.680  1.00  0.00     0.173 A 
ATOM     77  C   UNL A   1      50.086  26.183  26.859  1.00  0.00     0.173 A 
ATOM     78  F   UNL A   1      48.606  27.512  23.819  1.00  0.00    -0.203 F 
ATOM     79  C   UNL A   1      50.779  26.700  24.223  1.00  0.00     0.198 A 
ATOM     80  C   UNL A   1      51.376  25.913  26.409  1.00  0.00     0.198 A 
ATOM     81  F   UNL A   1      49.779  25.920  28.138  1.00  0.00    -0.203 F 
ATOM     82  F   UNL A   1      51.097  26.917  22.939  1.00  0.00    -0.200 F 
ATOM     83  C   UNL A   1      51.719  26.163  25.088  1.00  0.00     0.200 A 
ATOM     84  F   UNL A   1      52.287  25.410  27.254  1.00  0.00    -0.200 F 
ATOM     85  F   UNL A   1      52.952  25.877  24.648  1.00  0.00    -0.200 F 
ENDBRANCH  51  75
BRANCH  63  86
ATOM     86  C   UNL A   1      46.041  32.432  28.584  1.00  0.00     0.064 A 
ATOM     87  C   UNL A   1      46.601  32.741  29.833  1.00  0.00     0.173 A 
ATOM     88  C   UNL A   1      46.007  33.445  27.612  1.00  0.00     0.173 A 
ATOM     89  F   UNL A   1      46.644  31.814  30.802  1.00  0.00    -0.203 F 
ATOM     90  C   UNL A   1      47.080  34.020  30.106  1.00  0.00     0.198 A 
ATOM     91  C   UNL A   1      46.518  34.711  27.877  1.00  0.00     0.198 A 
ATOM     92  F   UNL A   1      45.490  33.200  26.398  1.00  0.00    -0.203 F 
ATOM     93  F   UNL A   1      47.561  34.308  31.323  1.00  0.00    -0.200 F 
ATOM     94  C   UNL A   1      47.045  35.001  29.125  1.00  0.00     0.200 A 
ATOM     95  F   UNL A   1      46.500  35.652  26.922  1.00  0.00    -0.200 F 
ATOM     96  F   UNL A   1      47.515  36.228  29.386  1.00  0.00    -0.200 F 
ENDBRANCH  63  86
ENDBRANCH  37  38
ENDBRANCH  29  32
ENDBRANCH  27  28
ENDBRANCH  26  27
ENDBRANCH  25  26
ENDBRANCH  24  25
ENDBRANCH   1  24
TORSDOF 17
ENDMDL
