MODEL 1
REMARK VINA RESULT:     -10.8      0.000      0.000
REMARK SMILES C[C@H](CNc1cccc(F)c1C(=O)NCCCCCCNC(=O)c1ccc(-c2c3nc(c(-c4c(F)c(F)c(F)c(F)c4F)c4ccc([nH]4)c(-c4c(F)c(F)c(F)c(F)c4F)c4nc(c(-c5c(F)c(F)c(F)c(F)c5F)c5ccc2[nH]5)C=C4)C=C3)cc1)C[NH+]1CCCC1
REMARK SMILES IDX 16 1 15 2 14 3 12 4 13 5 11 7 5 8 6 9 7 10 9 11 8 12 10 13
REMARK SMILES IDX 4 14 3 16 2 17 1 18 87 19 88 20 89 21 92 22 90 24 91 25
REMARK SMILES IDX 17 26 18 27 19 28 20 29 21 30 22 31 23 33 24 34 25 35 86 36
REMARK SMILES IDX 26 37 85 38 27 39 28 40 29 41 79 42 30 43 84 44 78 45 80 46
REMARK SMILES IDX 31 47 83 48 77 49 76 50 32 52 64 53 44 54 63 55 45 56 48 57
REMARK SMILES IDX 62 58 81 59 46 60 47 61 61 63 82 64 49 65 33 66 34 67 42 68
REMARK SMILES IDX 35 69 36 70 40 71 43 72 37 73 38 74 41 75 39 76 65 77 66 78
REMARK SMILES IDX 74 79 67 80 68 81 72 82 75 83 69 84 70 85 73 86 71 87 50 88
REMARK SMILES IDX 51 89 59 90 52 91 53 92 57 93 60 94 54 95 55 96 58 97 56 98
REMARK H PARENT 14 6 4 15 88 23 21 32 80 51 48 62
REMARK Flexibility Score: inf
ROOT
ATOM      1  C   UNL A   1      34.370  29.354  27.475  1.00  0.00     0.021 C 
ENDROOT
BRANCH   1   2
ATOM      2  C   UNL A   1      34.020  28.289  26.438  1.00  0.00     0.116 C 
BRANCH   2   3
ATOM      3  N   UNL A   1      32.925  27.440  26.848  1.00  0.00    -0.352 N 
ATOM      4  C   UNL A   1      32.351  26.333  26.275  1.00  0.00     0.256 C 
ATOM      5  O   UNL A   1      31.377  25.876  26.876  1.00  0.00    -0.269 OA
ATOM      6  H   UNL A   1      32.511  27.706  27.700  1.00  0.00     0.163 HD
BRANCH   4   7
ATOM      7  C   UNL A   1      32.793  25.727  24.981  1.00  0.00     0.098 A 
ATOM      8  C   UNL A   1      31.995  25.888  23.816  1.00  0.00     0.050 A 
ATOM      9  C   UNL A   1      32.469  25.371  22.595  1.00  0.00     0.027 A 
ATOM     10  C   UNL A   1      33.665  24.663  22.515  1.00  0.00     0.005 A 
ATOM     11  C   UNL A   1      33.938  24.928  24.892  1.00  0.00     0.138 A 
ATOM     12  C   UNL A   1      34.387  24.419  23.673  1.00  0.00     0.040 A 
ATOM     13  F   UNL A   1      34.628  24.569  25.984  1.00  0.00    -0.206 F 
BRANCH   8  14
ATOM     14  N   UNL A   1      30.744  26.500  23.856  1.00  0.00    -0.384 N 
ATOM     15  H   UNL A   1      30.182  26.379  24.656  1.00  0.00     0.160 HD
BRANCH  14  16
ATOM     16  C   UNL A   1      30.237  27.316  22.756  1.00  0.00     0.122 C 
BRANCH  16  17
ATOM     17  C   UNL A   1      29.982  28.786  23.162  1.00  0.00     0.060 C 
ATOM     18  C   UNL A   1      31.025  29.284  24.173  1.00  0.00     0.015 C 
BRANCH  17  19
ATOM     19  C   UNL A   1      29.892  29.767  21.971  1.00  0.00     0.267 C 
BRANCH  19  20
ATOM     20  N   UNL A   1      28.514  30.216  21.713  1.00  0.00    -0.335 N 
ATOM     21  C   UNL A   1      28.475  31.619  21.274  1.00  0.00     0.262 C 
ATOM     22  C   UNL A   1      27.675  30.167  22.921  1.00  0.00     0.262 C 
ATOM     23  H   UNL A   1      28.163  29.582  20.995  1.00  0.00     0.348 HD
ATOM     24  C   UNL A   1      28.469  32.426  22.556  1.00  0.00     0.067 C 
ATOM     25  C   UNL A   1      27.637  31.578  23.501  1.00  0.00     0.067 C 
ENDBRANCH  19  20
ENDBRANCH  17  19
ENDBRANCH  16  17
ENDBRANCH  14  16
ENDBRANCH   8  14
ENDBRANCH   4   7
ENDBRANCH   2   3
ENDBRANCH   1   2
BRANCH   1  26
ATOM     26  C   UNL A   1      33.756  30.743  27.274  1.00  0.00     0.002 C 
BRANCH  26  27
ATOM     27  C   UNL A   1      32.229  30.831  27.236  1.00  0.00     0.002 C 
BRANCH  27  28
ATOM     28  C   UNL A   1      31.621  32.234  27.195  1.00  0.00     0.021 C 
BRANCH  28  29
ATOM     29  C   UNL A   1      32.570  33.375  26.839  1.00  0.00     0.116 C 
BRANCH  29  30
ATOM     30  N   UNL A   1      32.351  34.573  27.626  1.00  0.00    -0.352 N 
ATOM     31  C   UNL A   1      32.936  34.981  28.799  1.00  0.00     0.251 C 
ATOM     32  H   UNL A   1      31.676  35.192  27.261  1.00  0.00     0.163 HD
ATOM     33  O   UNL A   1      32.528  35.998  29.356  1.00  0.00    -0.269 OA
BRANCH  31  34
ATOM     34  C   UNL A   1      34.028  34.199  29.427  1.00  0.00     0.039 A 
ATOM     35  C   UNL A   1      35.346  34.524  29.091  1.00  0.00     0.014 A 
ATOM     36  C   UNL A   1      33.781  33.135  30.300  1.00  0.00     0.014 A 
ATOM     37  C   UNL A   1      36.408  33.826  29.668  1.00  0.00     0.010 A 
ATOM     38  C   UNL A   1      34.845  32.478  30.926  1.00  0.00     0.010 A 
ATOM     39  C   UNL A   1      36.169  32.817  30.614  1.00  0.00    -0.014 A 
BRANCH  39  40
ATOM     40  C   UNL A   1      37.307  32.142  31.292  1.00  0.00     0.031 A 
ATOM     41  C   UNL A   1      38.042  31.010  30.632  1.00  0.00     0.074 A 
ATOM     42  C   UNL A   1      37.668  32.545  32.528  1.00  0.00     0.049 A 
ATOM     43  N   UNL A   1      39.076  30.332  31.068  1.00  0.00    -0.248 NA
ATOM     44  C   UNL A   1      37.543  30.561  29.323  1.00  0.00     0.031 C 
ATOM     45  C   UNL A   1      36.995  33.589  33.302  1.00  0.00     0.029 A 
ATOM     46  N   UNL A   1      38.688  32.130  33.347  1.00  0.00    -0.354 N 
ATOM     47  C   UNL A   1      39.345  29.380  30.095  1.00  0.00     0.074 A 
ATOM     48  C   UNL A   1      38.341  29.534  29.064  1.00  0.00     0.031 C 
ATOM     49  C   UNL A   1      37.637  33.754  34.468  1.00  0.00     0.029 A 
ATOM     50  C   UNL A   1      38.751  32.812  34.537  1.00  0.00     0.049 A 
ATOM     51  H   UNL A   1      39.315  31.410  33.106  1.00  0.00     0.167 HD
ATOM     52  C   UNL A   1      40.352  28.475  30.056  1.00  0.00     0.037 A 
ATOM     53  C   UNL A   1      39.612  32.699  35.567  1.00  0.00     0.037 A 
ATOM     54  C   UNL A   1      41.373  28.347  31.064  1.00  0.00     0.049 A 
ATOM     55  C   UNL A   1      40.741  31.710  35.481  1.00  0.00     0.074 A 
ATOM     56  C   UNL A   1      42.482  27.519  31.063  1.00  0.00     0.029 A 
ATOM     57  N   UNL A   1      41.408  29.063  32.250  1.00  0.00    -0.354 N 
ATOM     58  N   UNL A   1      41.032  30.873  34.516  1.00  0.00    -0.248 NA
ATOM     59  C   UNL A   1      41.665  31.654  36.623  1.00  0.00     0.031 C 
ATOM     60  C   UNL A   1      43.164  27.701  32.270  1.00  0.00     0.029 A 
ATOM     61  C   UNL A   1      42.506  28.675  33.001  1.00  0.00     0.049 A 
ATOM     62  H   UNL A   1      40.752  29.746  32.519  1.00  0.00     0.167 HD
ATOM     63  C   UNL A   1      42.173  30.199  34.927  1.00  0.00     0.074 A 
ATOM     64  C   UNL A   1      42.538  30.743  36.218  1.00  0.00     0.031 C 
ATOM     65  C   UNL A   1      42.852  29.214  34.292  1.00  0.00     0.037 A 
BRANCH  52  66
ATOM     66  C   UNL A   1      40.427  27.552  28.875  1.00  0.00     0.064 A 
ATOM     67  C   UNL A   1      41.200  27.893  27.755  1.00  0.00     0.173 A 
ATOM     68  C   UNL A   1      39.655  26.383  28.810  1.00  0.00     0.173 A 
ATOM     69  F   UNL A   1      41.950  29.005  27.764  1.00  0.00    -0.203 F 
ATOM     70  C   UNL A   1      41.183  27.105  26.607  1.00  0.00     0.198 A 
ATOM     71  C   UNL A   1      39.659  25.586  27.669  1.00  0.00     0.198 A 
ATOM     72  F   UNL A   1      38.904  26.011  29.858  1.00  0.00    -0.203 F 
ATOM     73  F   UNL A   1      41.901  27.470  25.535  1.00  0.00    -0.200 F 
ATOM     74  C   UNL A   1      40.414  25.952  26.565  1.00  0.00     0.200 A 
ATOM     75  F   UNL A   1      38.929  24.462  27.637  1.00  0.00    -0.200 F 
ATOM     76  F   UNL A   1      40.398  25.196  25.459  1.00  0.00    -0.200 F 
ENDBRANCH  52  66
BRANCH  53  77
ATOM     77  C   UNL A   1      39.452  33.577  36.755  1.00  0.00     0.064 A 
ATOM     78  C   UNL A   1      40.065  34.837  36.816  1.00  0.00     0.173 A 
ATOM     79  C   UNL A   1      38.704  33.161  37.864  1.00  0.00     0.173 A 
ATOM     80  F   UNL A   1      40.797  35.278  35.782  1.00  0.00    -0.203 F 
ATOM     81  C   UNL A   1      39.950  35.640  37.949  1.00  0.00     0.198 A 
ATOM     82  C   UNL A   1      38.566  33.975  38.986  1.00  0.00     0.198 A 
ATOM     83  F   UNL A   1      38.081  31.973  37.843  1.00  0.00    -0.203 F 
ATOM     84  F   UNL A   1      40.572  36.825  37.994  1.00  0.00    -0.200 F 
ATOM     85  C   UNL A   1      39.196  35.210  39.031  1.00  0.00     0.200 A 
ATOM     86  F   UNL A   1      37.817  33.567  40.020  1.00  0.00    -0.200 F 
ATOM     87  F   UNL A   1      39.074  35.988  40.115  1.00  0.00    -0.200 F 
ENDBRANCH  53  77
BRANCH  65  88
ATOM     88  C   UNL A   1      44.056  28.646  34.984  1.00  0.00     0.064 A 
ATOM     89  C   UNL A   1      43.932  27.557  35.858  1.00  0.00     0.173 A 
ATOM     90  C   UNL A   1      45.326  29.221  34.824  1.00  0.00     0.173 A 
ATOM     91  F   UNL A   1      42.739  26.976  36.051  1.00  0.00    -0.203 F 
ATOM     92  C   UNL A   1      45.034  27.070  36.557  1.00  0.00     0.198 A 
ATOM     93  C   UNL A   1      46.431  28.714  35.504  1.00  0.00     0.198 A 
ATOM     94  F   UNL A   1      45.498  30.256  33.990  1.00  0.00    -0.203 F 
ATOM     95  F   UNL A   1      44.887  26.046  37.409  1.00  0.00    -0.200 F 
ATOM     96  C   UNL A   1      46.282  27.645  36.376  1.00  0.00     0.200 A 
ATOM     97  F   UNL A   1      47.640  29.257  35.309  1.00  0.00    -0.200 F 
ATOM     98  F   UNL A   1      47.345  27.168  37.037  1.00  0.00    -0.200 F 
ENDBRANCH  65  88
ENDBRANCH  39  40
ENDBRANCH  31  34
ENDBRANCH  29  30
ENDBRANCH  28  29
ENDBRANCH  27  28
ENDBRANCH  26  27
ENDBRANCH   1  26
TORSDOF 18
ENDMDL
MODEL 2
REMARK VINA RESULT:     -10.8      5.855     11.305
REMARK SMILES C[C@H](CNc1cccc(F)c1C(=O)NCCCCCCNC(=O)c1ccc(-c2c3nc(c(-c4c(F)c(F)c(F)c(F)c4F)c4ccc([nH]4)c(-c4c(F)c(F)c(F)c(F)c4F)c4nc(c(-c5c(F)c(F)c(F)c(F)c5F)c5ccc2[nH]5)C=C4)C=C3)cc1)C[NH+]1CCCC1
REMARK SMILES IDX 16 1 15 2 14 3 12 4 13 5 11 7 5 8 6 9 7 10 9 11 8 12 10 13
REMARK SMILES IDX 4 14 3 16 2 17 1 18 87 19 88 20 89 21 92 22 90 24 91 25
REMARK SMILES IDX 17 26 18 27 19 28 20 29 21 30 22 31 23 33 24 34 25 35 86 36
REMARK SMILES IDX 26 37 85 38 27 39 28 40 29 41 79 42 30 43 84 44 78 45 80 46
REMARK SMILES IDX 31 47 83 48 77 49 76 50 32 52 64 53 44 54 63 55 45 56 48 57
REMARK SMILES IDX 62 58 81 59 46 60 47 61 61 63 82 64 49 65 33 66 34 67 42 68
REMARK SMILES IDX 35 69 36 70 40 71 43 72 37 73 38 74 41 75 39 76 65 77 66 78
REMARK SMILES IDX 74 79 67 80 68 81 72 82 75 83 69 84 70 85 73 86 71 87 50 88
REMARK SMILES IDX 51 89 59 90 52 91 53 92 57 93 60 94 54 95 55 96 58 97 56 98
REMARK H PARENT 14 6 4 15 88 23 21 32 80 51 48 62
REMARK Flexibility Score: inf
ROOT
ATOM      1  C   UNL A   1      37.771  23.689  25.757  1.00  0.00     0.021 C 
ENDROOT
BRANCH   1   2
ATOM      2  C   UNL A   1      36.265  23.706  25.507  1.00  0.00     0.116 C 
BRANCH   2   3
ATOM      3  N   UNL A   1      35.503  23.177  26.616  1.00  0.00    -0.352 N 
ATOM      4  C   UNL A   1      34.165  23.218  26.918  1.00  0.00     0.256 C 
ATOM      5  O   UNL A   1      33.854  22.704  27.995  1.00  0.00    -0.269 OA
ATOM      6  H   UNL A   1      36.047  22.699  27.281  1.00  0.00     0.163 HD
BRANCH   4   7
ATOM      7  C   UNL A   1      33.128  23.885  26.072  1.00  0.00     0.098 A 
ATOM      8  C   UNL A   1      32.103  23.108  25.467  1.00  0.00     0.050 A 
ATOM      9  C   UNL A   1      31.097  23.768  24.735  1.00  0.00     0.027 A 
ATOM     10  C   UNL A   1      31.116  25.148  24.545  1.00  0.00     0.005 A 
ATOM     11  C   UNL A   1      33.179  25.253  25.782  1.00  0.00     0.138 A 
ATOM     12  C   UNL A   1      32.175  25.886  25.048  1.00  0.00     0.040 A 
ATOM     13  F   UNL A   1      34.223  26.009  26.151  1.00  0.00    -0.206 F 
BRANCH   8  14
ATOM     14  N   UNL A   1      32.089  21.717  25.541  1.00  0.00    -0.384 N 
ATOM     15  H   UNL A   1      32.074  21.288  26.427  1.00  0.00     0.160 HD
BRANCH  14  16
ATOM     16  C   UNL A   1      32.096  20.871  24.350  1.00  0.00     0.122 C 
BRANCH  16  17
ATOM     17  C   UNL A   1      33.126  19.721  24.433  1.00  0.00     0.060 C 
ATOM     18  C   UNL A   1      34.506  20.226  24.879  1.00  0.00     0.015 C 
BRANCH  17  19
ATOM     19  C   UNL A   1      32.686  18.538  25.325  1.00  0.00     0.267 C 
BRANCH  19  20
ATOM     20  N   UNL A   1      32.399  17.321  24.547  1.00  0.00    -0.335 N 
ATOM     21  C   UNL A   1      33.075  16.144  25.113  1.00  0.00     0.262 C 
ATOM     22  C   UNL A   1      32.886  17.416  23.162  1.00  0.00     0.262 C 
ATOM     23  H   UNL A   1      31.384  17.228  24.574  1.00  0.00     0.348 HD
ATOM     24  C   UNL A   1      34.465  16.169  24.511  1.00  0.00     0.067 C 
ATOM     25  C   UNL A   1      34.230  16.694  23.106  1.00  0.00     0.067 C 
ENDBRANCH  19  20
ENDBRANCH  17  19
ENDBRANCH  16  17
ENDBRANCH  14  16
ENDBRANCH   8  14
ENDBRANCH   4   7
ENDBRANCH   2   3
ENDBRANCH   1   2
BRANCH   1  26
ATOM     26  C   UNL A   1      38.435  22.315  25.894  1.00  0.00     0.002 C 
BRANCH  26  27
ATOM     27  C   UNL A   1      37.951  21.211  24.950  1.00  0.00     0.002 C 
BRANCH  27  28
ATOM     28  C   UNL A   1      38.769  19.919  24.926  1.00  0.00     0.021 C 
BRANCH  28  29
ATOM     29  C   UNL A   1      39.438  19.515  26.236  1.00  0.00     0.116 C 
BRANCH  29  30
ATOM     30  N   UNL A   1      40.699  18.822  26.049  1.00  0.00    -0.352 N 
ATOM     31  C   UNL A   1      41.980  19.313  26.008  1.00  0.00     0.251 C 
ATOM     32  H   UNL A   1      40.624  17.846  25.935  1.00  0.00     0.163 HD
ATOM     33  O   UNL A   1      42.909  18.555  25.738  1.00  0.00    -0.269 OA
BRANCH  31  34
ATOM     34  C   UNL A   1      42.262  20.749  26.247  1.00  0.00     0.039 A 
ATOM     35  C   UNL A   1      42.418  21.176  27.569  1.00  0.00     0.014 A 
ATOM     36  C   UNL A   1      42.335  21.681  25.208  1.00  0.00     0.014 A 
ATOM     37  C   UNL A   1      42.700  22.516  27.844  1.00  0.00     0.010 A 
ATOM     38  C   UNL A   1      42.679  23.009  25.478  1.00  0.00     0.010 A 
ATOM     39  C   UNL A   1      42.863  23.439  26.800  1.00  0.00    -0.014 A 
BRANCH  39  40
ATOM     40  C   UNL A   1      43.254  24.843  27.096  1.00  0.00     0.031 A 
ATOM     41  C   UNL A   1      42.289  25.797  27.740  1.00  0.00     0.074 A 
ATOM     42  C   UNL A   1      44.491  25.265  26.761  1.00  0.00     0.049 A 
ATOM     43  N   UNL A   1      42.476  27.045  28.097  1.00  0.00    -0.248 NA
ATOM     44  C   UNL A   1      40.929  25.299  28.000  1.00  0.00     0.031 C 
ATOM     45  C   UNL A   1      45.498  24.455  26.073  1.00  0.00     0.029 A 
ATOM     46  N   UNL A   1      45.111  26.474  26.954  1.00  0.00    -0.354 N 
ATOM     47  C   UNL A   1      41.264  27.478  28.615  1.00  0.00     0.074 A 
ATOM     48  C   UNL A   1      40.332  26.379  28.488  1.00  0.00     0.031 C 
ATOM     49  C   UNL A   1      46.620  25.178  25.930  1.00  0.00     0.029 A 
ATOM     50  C   UNL A   1      46.404  26.510  26.492  1.00  0.00     0.049 A 
ATOM     51  H   UNL A   1      44.672  27.244  27.382  1.00  0.00     0.167 HD
ATOM     52  C   UNL A   1      40.964  28.678  29.167  1.00  0.00     0.037 A 
ATOM     53  C   UNL A   1      47.318  27.498  26.522  1.00  0.00     0.037 A 
ATOM     54  C   UNL A   1      41.902  29.759  29.328  1.00  0.00     0.049 A 
ATOM     55  C   UNL A   1      46.968  28.808  27.172  1.00  0.00     0.074 A 
ATOM     56  C   UNL A   1      41.710  30.977  29.957  1.00  0.00     0.029 A 
ATOM     57  N   UNL A   1      43.205  29.753  28.856  1.00  0.00    -0.354 N 
ATOM     58  N   UNL A   1      45.843  29.175  27.733  1.00  0.00    -0.248 NA
ATOM     59  C   UNL A   1      48.017  29.838  27.200  1.00  0.00     0.031 C 
ATOM     60  C   UNL A   1      42.882  31.727  29.825  1.00  0.00     0.029 A 
ATOM     61  C   UNL A   1      43.820  30.958  29.156  1.00  0.00     0.049 A 
ATOM     62  H   UNL A   1      43.631  29.004  28.379  1.00  0.00     0.167 HD
ATOM     63  C   UNL A   1      46.048  30.470  28.187  1.00  0.00     0.074 A 
ATOM     64  C   UNL A   1      47.415  30.816  27.861  1.00  0.00     0.031 C 
ATOM     65  C   UNL A   1      45.178  31.298  28.814  1.00  0.00     0.037 A 
BRANCH  52  66
ATOM     66  C   UNL A   1      39.565  28.897  29.665  1.00  0.00     0.064 A 
ATOM     67  C   UNL A   1      38.609  29.515  28.846  1.00  0.00     0.173 A 
ATOM     68  C   UNL A   1      39.202  28.588  30.983  1.00  0.00     0.173 A 
ATOM     69  F   UNL A   1      38.909  29.838  27.578  1.00  0.00    -0.203 F 
ATOM     70  C   UNL A   1      37.344  29.832  29.336  1.00  0.00     0.198 A 
ATOM     71  C   UNL A   1      37.929  28.885  31.462  1.00  0.00     0.198 A 
ATOM     72  F   UNL A   1      40.080  27.990  31.802  1.00  0.00    -0.203 F 
ATOM     73  F   UNL A   1      36.458  30.455  28.547  1.00  0.00    -0.200 F 
ATOM     74  C   UNL A   1      37.005  29.515  30.643  1.00  0.00     0.200 A 
ATOM     75  F   UNL A   1      37.596  28.562  32.720  1.00  0.00    -0.200 F 
ATOM     76  F   UNL A   1      35.788  29.822  31.113  1.00  0.00    -0.200 F 
ENDBRANCH  52  66
BRANCH  53  77
ATOM     77  C   UNL A   1      48.666  27.267  25.942  1.00  0.00     0.064 A 
ATOM     78  C   UNL A   1      48.907  27.438  24.571  1.00  0.00     0.173 A 
ATOM     79  C   UNL A   1      49.734  26.846  26.745  1.00  0.00     0.173 A 
ATOM     80  F   UNL A   1      47.915  27.835  23.759  1.00  0.00    -0.203 F 
ATOM     81  C   UNL A   1      50.162  27.178  24.023  1.00  0.00     0.198 A 
ATOM     82  C   UNL A   1      50.996  26.613  26.201  1.00  0.00     0.198 A 
ATOM     83  F   UNL A   1      49.558  26.690  28.065  1.00  0.00    -0.203 F 
ATOM     84  F   UNL A   1      50.357  27.318  22.704  1.00  0.00    -0.200 F 
ATOM     85  C   UNL A   1      51.206  26.771  24.840  1.00  0.00     0.200 A 
ATOM     86  F   UNL A   1      52.009  26.243  26.996  1.00  0.00    -0.200 F 
ATOM     87  F   UNL A   1      52.416  26.534  24.314  1.00  0.00    -0.200 F 
ENDBRANCH  53  77
BRANCH  65  88
ATOM     88  C   UNL A   1      45.668  32.667  29.182  1.00  0.00     0.064 A 
ATOM     89  C   UNL A   1      45.519  33.743  28.295  1.00  0.00     0.173 A 
ATOM     90  C   UNL A   1      46.338  32.900  30.392  1.00  0.00     0.173 A 
ATOM     91  F   UNL A   1      44.892  33.571  27.122  1.00  0.00    -0.203 F 
ATOM     92  C   UNL A   1      46.033  35.000  28.601  1.00  0.00     0.198 A 
ATOM     93  C   UNL A   1      46.828  34.165  30.706  1.00  0.00     0.198 A 
ATOM     94  F   UNL A   1      46.495  31.906  31.278  1.00  0.00    -0.203 F 
ATOM     95  F   UNL A   1      45.905  36.007  27.725  1.00  0.00    -0.200 F 
ATOM     96  C   UNL A   1      46.683  35.211  29.807  1.00  0.00     0.200 A 
ATOM     97  F   UNL A   1      47.434  34.372  31.883  1.00  0.00    -0.200 F 
ATOM     98  F   UNL A   1      47.165  36.425  30.107  1.00  0.00    -0.200 F 
ENDBRANCH  65  88
ENDBRANCH  39  40
ENDBRANCH  31  34
ENDBRANCH  29  30
ENDBRANCH  28  29
ENDBRANCH  27  28
ENDBRANCH  26  27
ENDBRANCH   1  26
TORSDOF 18
ENDMDL
MODEL 3
REMARK VINA RESULT:     -10.7      0.836      7.333
REMARK SMILES C[C@H](CNc1cccc(F)c1C(=O)NCCCCCCNC(=O)c1ccc(-c2c3nc(c(-c4c(F)c(F)c(F)c(F)c4F)c4ccc([nH]4)c(-c4c(F)c(F)c(F)c(F)c4F)c4nc(c(-c5c(F)c(F)c(F)c(F)c5F)c5ccc2[nH]5)C=C4)C=C3)cc1)C[NH+]1CCCC1
REMARK SMILES IDX 16 1 15 2 14 3 12 4 13 5 11 7 5 8 6 9 7 10 9 11 8 12 10 13
REMARK SMILES IDX 4 14 3 16 2 17 1 18 87 19 88 20 89 21 92 22 90 24 91 25
REMARK SMILES IDX 17 26 18 27 19 28 20 29 21 30 22 31 23 33 24 34 25 35 86 36
REMARK SMILES IDX 26 37 85 38 27 39 28 40 29 41 79 42 30 43 84 44 78 45 80 46
REMARK SMILES IDX 31 47 83 48 77 49 76 50 32 52 64 53 44 54 63 55 45 56 48 57
REMARK SMILES IDX 62 58 81 59 46 60 47 61 61 63 82 64 49 65 33 66 34 67 42 68
REMARK SMILES IDX 35 69 36 70 40 71 43 72 37 73 38 74 41 75 39 76 65 77 66 78
REMARK SMILES IDX 74 79 67 80 68 81 72 82 75 83 69 84 70 85 73 86 71 87 50 88
REMARK SMILES IDX 51 89 59 90 52 91 53 92 57 93 60 94 54 95 55 96 58 97 56 98
REMARK H PARENT 14 6 4 15 88 23 21 32 80 51 48 62
REMARK Flexibility Score: inf
ROOT
ATOM      1  C   UNL A   1      33.473  28.582  27.232  1.00  0.00     0.021 C 
ENDROOT
BRANCH   1   2
ATOM      2  C   UNL A   1      33.071  27.656  26.086  1.00  0.00     0.116 C 
BRANCH   2   3
ATOM      3  N   UNL A   1      32.166  26.607  26.499  1.00  0.00    -0.352 N 
ATOM      4  C   UNL A   1      32.048  25.291  26.128  1.00  0.00     0.256 C 
ATOM      5  O   UNL A   1      31.111  24.682  26.646  1.00  0.00    -0.269 OA
ATOM      6  H   UNL A   1      31.509  26.891  27.174  1.00  0.00     0.163 HD
BRANCH   4   7
ATOM      7  C   UNL A   1      32.923  24.617  25.120  1.00  0.00     0.098 A 
ATOM      8  C   UNL A   1      32.582  24.669  23.741  1.00  0.00     0.050 A 
ATOM      9  C   UNL A   1      33.460  24.088  22.805  1.00  0.00     0.027 A 
ATOM     10  C   UNL A   1      34.617  23.422  23.202  1.00  0.00     0.005 A 
ATOM     11  C   UNL A   1      34.035  23.857  25.497  1.00  0.00     0.138 A 
ATOM     12  C   UNL A   1      34.889  23.284  24.554  1.00  0.00     0.040 A 
ATOM     13  F   UNL A   1      34.302  23.599  26.786  1.00  0.00    -0.206 F 
BRANCH   8  14
ATOM     14  N   UNL A   1      31.390  25.234  23.295  1.00  0.00    -0.384 N 
ATOM     15  H   UNL A   1      30.575  24.681  23.287  1.00  0.00     0.160 HD
BRANCH  14  16
ATOM     16  C   UNL A   1      31.303  26.620  22.841  1.00  0.00     0.122 C 
BRANCH  16  17
ATOM     17  C   UNL A   1      29.896  27.231  23.033  1.00  0.00     0.060 C 
ATOM     18  C   UNL A   1      29.179  26.635  24.253  1.00  0.00     0.015 C 
BRANCH  17  19
ATOM     19  C   UNL A   1      29.880  28.774  23.115  1.00  0.00     0.267 C 
BRANCH  19  20
ATOM     20  N   UNL A   1      28.806  29.372  22.304  1.00  0.00    -0.335 N 
ATOM     21  C   UNL A   1      29.178  30.707  21.812  1.00  0.00     0.262 C 
ATOM     22  C   UNL A   1      27.571  29.575  23.076  1.00  0.00     0.262 C 
ATOM     23  H   UNL A   1      28.659  28.711  21.540  1.00  0.00     0.348 HD
ATOM     24  C   UNL A   1      28.814  31.650  22.939  1.00  0.00     0.067 C 
ATOM     25  C   UNL A   1      27.551  31.037  23.517  1.00  0.00     0.067 C 
ENDBRANCH  19  20
ENDBRANCH  17  19
ENDBRANCH  16  17
ENDBRANCH  14  16
ENDBRANCH   8  14
ENDBRANCH   4   7
ENDBRANCH   2   3
ENDBRANCH   1   2
BRANCH   1  26
ATOM     26  C   UNL A   1      33.225  30.080  27.030  1.00  0.00     0.002 C 
BRANCH  26  27
ATOM     27  C   UNL A   1      31.785  30.517  26.751  1.00  0.00     0.002 C 
BRANCH  27  28
ATOM     28  C   UNL A   1      31.482  32.010  26.876  1.00  0.00     0.021 C 
BRANCH  28  29
ATOM     29  C   UNL A   1      32.687  32.942  26.970  1.00  0.00     0.116 C 
BRANCH  29  30
ATOM     30  N   UNL A   1      32.392  34.201  27.626  1.00  0.00    -0.352 N 
ATOM     31  C   UNL A   1      33.004  34.808  28.694  1.00  0.00     0.251 C 
ATOM     32  H   UNL A   1      31.631  34.700  27.245  1.00  0.00     0.163 HD
ATOM     33  O   UNL A   1      32.527  35.841  29.158  1.00  0.00    -0.269 OA
BRANCH  31  34
ATOM     34  C   UNL A   1      34.213  34.222  29.323  1.00  0.00     0.039 A 
ATOM     35  C   UNL A   1      34.033  33.323  30.378  1.00  0.00     0.014 A 
ATOM     36  C   UNL A   1      35.507  34.569  28.925  1.00  0.00     0.014 A 
ATOM     37  C   UNL A   1      35.140  32.733  30.992  1.00  0.00     0.010 A 
ATOM     38  C   UNL A   1      36.613  33.932  29.496  1.00  0.00     0.010 A 
ATOM     39  C   UNL A   1      36.439  33.008  30.538  1.00  0.00    -0.014 A 
BRANCH  39  40
ATOM     40  C   UNL A   1      37.606  32.306  31.135  1.00  0.00     0.031 A 
ATOM     41  C   UNL A   1      38.088  32.642  32.518  1.00  0.00     0.074 A 
ATOM     42  C   UNL A   1      38.249  31.368  30.411  1.00  0.00     0.049 A 
ATOM     43  N   UNL A   1      39.068  32.106  33.203  1.00  0.00    -0.248 NA
ATOM     44  C   UNL A   1      37.397  33.735  33.220  1.00  0.00     0.031 C 
ATOM     45  C   UNL A   1      37.919  30.996  29.034  1.00  0.00     0.029 A 
ATOM     46  N   UNL A   1      39.308  30.555  30.730  1.00  0.00    -0.354 N 
ATOM     47  C   UNL A   1      39.115  32.796  34.405  1.00  0.00     0.074 A 
ATOM     48  C   UNL A   1      38.095  33.821  34.345  1.00  0.00     0.031 C 
ATOM     49  C   UNL A   1      38.738  30.009  28.638  1.00  0.00     0.029 A 
ATOM     50  C   UNL A   1      39.666  29.694  29.722  1.00  0.00     0.049 A 
ATOM     51  H   UNL A   1      39.769  30.586  31.599  1.00  0.00     0.167 HD
ATOM     52  C   UNL A   1      39.921  32.579  35.472  1.00  0.00     0.037 A 
ATOM     53  C   UNL A   1      40.627  28.752  29.673  1.00  0.00     0.037 A 
ATOM     54  C   UNL A   1      40.911  31.535  35.547  1.00  0.00     0.049 A 
ATOM     55  C   UNL A   1      41.484  28.510  30.884  1.00  0.00     0.074 A 
ATOM     56  C   UNL A   1      41.709  31.184  36.621  1.00  0.00     0.029 A 
ATOM     57  N   UNL A   1      41.236  30.677  34.508  1.00  0.00    -0.354 N 
ATOM     58  N   UNL A   1      41.460  29.115  32.046  1.00  0.00    -0.248 NA
ATOM     59  C   UNL A   1      42.496  27.448  30.781  1.00  0.00     0.031 C 
ATOM     60  C   UNL A   1      42.552  30.144  36.218  1.00  0.00     0.029 A 
ATOM     61  C   UNL A   1      42.245  29.815  34.909  1.00  0.00     0.049 A 
ATOM     62  H   UNL A   1      40.813  30.678  33.619  1.00  0.00     0.167 HD
ATOM     63  C   UNL A   1      42.443  28.506  32.813  1.00  0.00     0.074 A 
ATOM     64  C   UNL A   1      43.027  27.464  31.995  1.00  0.00     0.031 C 
ATOM     65  C   UNL A   1      42.829  28.790  34.081  1.00  0.00     0.037 A 
BRANCH  52  66
ATOM     66  C   UNL A   1      39.765  33.471  36.669  1.00  0.00     0.064 A 
ATOM     67  C   UNL A   1      40.593  34.592  36.831  1.00  0.00     0.173 A 
ATOM     68  C   UNL A   1      38.870  33.159  37.701  1.00  0.00     0.173 A 
ATOM     69  F   UNL A   1      41.472  34.929  35.875  1.00  0.00    -0.203 F 
ATOM     70  C   UNL A   1      40.540  35.358  37.992  1.00  0.00     0.198 A 
ATOM     71  C   UNL A   1      38.804  33.941  38.851  1.00  0.00     0.198 A 
ATOM     72  F   UNL A   1      38.053  32.100  37.590  1.00  0.00    -0.203 F 
ATOM     73  F   UNL A   1      41.366  36.404  38.142  1.00  0.00    -0.200 F 
ATOM     74  C   UNL A   1      39.646  35.032  39.001  1.00  0.00     0.200 A 
ATOM     75  F   UNL A   1      37.926  33.636  39.817  1.00  0.00    -0.200 F 
ATOM     76  F   UNL A   1      39.597  35.771  40.118  1.00  0.00    -0.200 F 
ENDBRANCH  52  66
BRANCH  53  77
ATOM     77  C   UNL A   1      40.802  27.947  28.438  1.00  0.00     0.064 A 
ATOM     78  C   UNL A   1      40.168  26.705  28.283  1.00  0.00     0.173 A 
ATOM     79  C   UNL A   1      41.629  28.391  27.397  1.00  0.00     0.173 A 
ATOM     80  F   UNL A   1      39.370  26.233  29.253  1.00  0.00    -0.203 F 
ATOM     81  C   UNL A   1      40.368  25.931  27.142  1.00  0.00     0.198 A 
ATOM     82  C   UNL A   1      41.807  27.630  26.244  1.00  0.00     0.198 A 
ATOM     83  F   UNL A   1      42.239  29.582  27.491  1.00  0.00    -0.203 F 
ATOM     84  F   UNL A   1      39.776  24.735  27.033  1.00  0.00    -0.200 F 
ATOM     85  C   UNL A   1      41.184  26.397  26.121  1.00  0.00     0.200 A 
ATOM     86  F   UNL A   1      42.577  28.093  25.250  1.00  0.00    -0.200 F 
ATOM     87  F   UNL A   1      41.367  25.658  25.018  1.00  0.00    -0.200 F 
ENDBRANCH  53  77
BRANCH  65  88
ATOM     88  C   UNL A   1      43.943  27.974  34.665  1.00  0.00     0.064 A 
ATOM     89  C   UNL A   1      45.278  28.384  34.532  1.00  0.00     0.173 A 
ATOM     90  C   UNL A   1      43.692  26.752  35.306  1.00  0.00     0.173 A 
ATOM     91  F   UNL A   1      45.572  29.541  33.920  1.00  0.00    -0.203 F 
ATOM     92  C   UNL A   1      46.321  27.596  35.011  1.00  0.00     0.198 A 
ATOM     93  C   UNL A   1      44.735  25.979  35.808  1.00  0.00     0.198 A 
ATOM     94  F   UNL A   1      42.432  26.322  35.469  1.00  0.00    -0.203 F 
ATOM     95  F   UNL A   1      47.590  27.994  34.847  1.00  0.00    -0.200 F 
ATOM     96  C   UNL A   1      46.049  26.397  35.652  1.00  0.00     0.200 A 
ATOM     97  F   UNL A   1      44.469  24.833  36.449  1.00  0.00    -0.200 F 
ATOM     98  F   UNL A   1      47.053  25.646  36.125  1.00  0.00    -0.200 F 
ENDBRANCH  65  88
ENDBRANCH  39  40
ENDBRANCH  31  34
ENDBRANCH  29  30
ENDBRANCH  28  29
ENDBRANCH  27  28
ENDBRANCH  26  27
ENDBRANCH   1  26
TORSDOF 18
ENDMDL
