MODEL 1
REMARK VINA RESULT:     -10.9      0.000      0.000
REMARK SMILES O=C(CC[NH2+][C@@H]1CCCC[C@@H]1[C@@H]1CCC[NH2+]1)NCCCCCCNC(=O)c1ccc(-c2c3nc(c(-c4c(F)c(F)c(F)c(F)c4F)c4ccc([nH]4)c(-c4c(F)c(F)c(F)c(F)c4F)c4nc(c(-c5c(F)c(F)c(F)c(F)c5F)c5ccc2[nH]5)C=C4)C=C3)cc1
REMARK SMILES IDX 19 1 18 2 17 3 1 4 2 5 3 7 4 8 5 9 6 12 7 13 11 14 8 15
REMARK SMILES IDX 10 16 9 17 12 18 13 19 16 20 14 21 15 22 20 25 21 26 22 27
REMARK SMILES IDX 23 28 24 29 25 30 26 32 27 33 28 34 89 35 29 36 88 37 30 38
REMARK SMILES IDX 31 39 32 40 82 41 33 42 87 43 81 44 83 45 34 46 86 47 80 48
REMARK SMILES IDX 79 49 35 51 67 52 47 53 66 54 48 55 51 56 65 57 84 58 49 59
REMARK SMILES IDX 50 60 64 62 85 63 52 64 36 65 37 66 45 67 38 68 39 69 43 70
REMARK SMILES IDX 46 71 40 72 41 73 44 74 42 75 68 76 69 77 77 78 70 79 71 80
REMARK SMILES IDX 75 81 78 82 72 83 73 84 76 85 74 86 53 87 54 88 62 89 55 90
REMARK SMILES IDX 56 91 60 92 63 93 57 94 58 95 61 96 59 97
REMARK H PARENT 17 6 5 10 5 11 16 23 16 24 24 31 83 50 51 61
REMARK Flexibility Score: inf
ROOT
ATOM      1  C   UNL A   1      34.770  31.630  28.520  1.00  0.00     0.021 C 
ENDROOT
BRANCH   1   2
ATOM      2  C   UNL A   1      33.659  31.387  27.498  1.00  0.00     0.116 C 
BRANCH   2   3
ATOM      3  N   UNL A   1      33.102  30.068  27.680  1.00  0.00    -0.356 N 
ATOM      4  O   UNL A   1      31.636  30.019  25.905  1.00  0.00    -0.275 OA
ATOM      5  C   UNL A   1      32.115  29.506  26.908  1.00  0.00     0.225 C 
ATOM      6  H   UNL A   1      33.460  29.527  28.420  1.00  0.00     0.163 HD
BRANCH   5   7
ATOM      7  C   UNL A   1      31.641  28.181  27.476  1.00  0.00     0.161 C 
BRANCH   7   8
ATOM      8  C   UNL A   1      31.904  26.964  26.578  1.00  0.00     0.270 C 
BRANCH   8   9
ATOM      9  N   UNL A   1      33.109  27.079  25.744  1.00  0.00    -0.343 N 
ATOM     10  H   UNL A   1      33.721  26.293  25.959  1.00  0.00     0.346 HD
ATOM     11  H   UNL A   1      33.526  27.984  25.964  1.00  0.00     0.346 HD
BRANCH   9  12
ATOM     12  C   UNL A   1      32.859  27.081  24.290  1.00  0.00     0.191 C 
ATOM     13  C   UNL A   1      31.341  26.936  24.076  1.00  0.00     0.065 C 
ATOM     14  C   UNL A   1      33.654  26.021  23.471  1.00  0.00     0.105 C 
ATOM     15  C   UNL A   1      30.946  26.999  22.603  1.00  0.00     0.006 C 
ATOM     16  C   UNL A   1      33.252  26.121  21.985  1.00  0.00     0.016 C 
ATOM     17  C   UNL A   1      31.754  26.068  21.709  1.00  0.00     0.001 C 
BRANCH  14  18
ATOM     18  C   UNL A   1      33.654  24.592  24.088  1.00  0.00     0.191 C 
ATOM     19  C   UNL A   1      34.425  23.558  23.279  1.00  0.00     0.071 C 
ATOM     20  N   UNL A   1      32.369  23.923  24.332  1.00  0.00    -0.343 N 
ATOM     21  C   UNL A   1      34.101  22.278  24.027  1.00  0.00     0.067 C 
ATOM     22  C   UNL A   1      32.692  22.502  24.561  1.00  0.00     0.260 C 
ATOM     23  H   UNL A   1      31.757  24.021  23.522  1.00  0.00     0.346 HD
ATOM     24  H   UNL A   1      31.880  24.329  25.129  1.00  0.00     0.346 HD
ENDBRANCH  14  18
ENDBRANCH   9  12
ENDBRANCH   8   9
ENDBRANCH   7   8
ENDBRANCH   5   7
ENDBRANCH   2   3
ENDBRANCH   1   2
BRANCH   1  25
ATOM     25  C   UNL A   1      34.505  32.798  29.484  1.00  0.00     0.002 C 
BRANCH  25  26
ATOM     26  C   UNL A   1      34.488  34.186  28.838  1.00  0.00     0.002 C 
BRANCH  26  27
ATOM     27  C   UNL A   1      33.183  34.962  29.018  1.00  0.00     0.021 C 
BRANCH  27  28
ATOM     28  C   UNL A   1      33.323  36.285  29.762  1.00  0.00     0.116 C 
BRANCH  28  29
ATOM     29  N   UNL A   1      32.425  36.385  30.901  1.00  0.00    -0.352 N 
ATOM     30  C   UNL A   1      32.527  35.796  32.136  1.00  0.00     0.251 C 
ATOM     31  H   UNL A   1      31.632  36.954  30.768  1.00  0.00     0.163 HD
ATOM     32  O   UNL A   1      31.593  35.862  32.933  1.00  0.00    -0.269 OA
BRANCH  30  33
ATOM     33  C   UNL A   1      33.754  35.060  32.504  1.00  0.00     0.039 A 
ATOM     34  C   UNL A   1      33.640  33.751  32.983  1.00  0.00     0.014 A 
ATOM     35  C   UNL A   1      35.014  35.657  32.395  1.00  0.00     0.014 A 
ATOM     36  C   UNL A   1      34.789  33.028  33.308  1.00  0.00     0.010 A 
ATOM     37  C   UNL A   1      36.161  34.909  32.644  1.00  0.00     0.010 A 
ATOM     38  C   UNL A   1      36.062  33.592  33.118  1.00  0.00    -0.014 A 
BRANCH  38  39
ATOM     39  C   UNL A   1      37.296  32.834  33.450  1.00  0.00     0.031 A 
ATOM     40  C   UNL A   1      38.043  33.139  34.722  1.00  0.00     0.074 A 
ATOM     41  C   UNL A   1      37.768  31.905  32.596  1.00  0.00     0.049 A 
ATOM     42  N   UNL A   1      39.175  32.645  35.158  1.00  0.00    -0.248 NA
ATOM     43  C   UNL A   1      37.452  34.154  35.609  1.00  0.00     0.031 C 
ATOM     44  C   UNL A   1      37.159  31.546  31.314  1.00  0.00     0.029 A 
ATOM     45  N   UNL A   1      38.878  31.101  32.672  1.00  0.00    -0.354 N 
ATOM     46  C   UNL A   1      39.429  33.289  36.363  1.00  0.00     0.074 A 
ATOM     47  C   UNL A   1      38.372  34.257  36.557  1.00  0.00     0.031 C 
ATOM     48  C   UNL A   1      37.894  30.583  30.733  1.00  0.00     0.029 A 
ATOM     49  C   UNL A   1      39.044  30.283  31.581  1.00  0.00     0.049 A 
ATOM     50  H   UNL A   1      39.496  31.109  33.438  1.00  0.00     0.167 HD
ATOM     51  C   UNL A   1      40.432  33.069  37.245  1.00  0.00     0.037 A 
ATOM     52  C   UNL A   1      40.019  29.399  31.293  1.00  0.00     0.037 A 
ATOM     53  C   UNL A   1      41.475  32.095  37.060  1.00  0.00     0.049 A 
ATOM     54  C   UNL A   1      41.132  29.188  32.288  1.00  0.00     0.074 A 
ATOM     55  C   UNL A   1      42.532  31.792  37.899  1.00  0.00     0.029 A 
ATOM     56  N   UNL A   1      41.586  31.261  35.957  1.00  0.00    -0.354 N 
ATOM     57  N   UNL A   1      41.334  29.770  33.444  1.00  0.00    -0.248 NA
ATOM     58  C   UNL A   1      42.145  28.180  31.942  1.00  0.00     0.031 C 
ATOM     59  C   UNL A   1      43.302  30.796  37.289  1.00  0.00     0.029 A 
ATOM     60  C   UNL A   1      42.695  30.442  36.097  1.00  0.00     0.049 A 
ATOM     61  H   UNL A   1      40.969  31.253  35.190  1.00  0.00     0.167 HD
ATOM     62  C   UNL A   1      42.466  29.172  33.981  1.00  0.00     0.074 A 
ATOM     63  C   UNL A   1      42.900  28.170  33.030  1.00  0.00     0.031 C 
ATOM     64  C   UNL A   1      43.092  29.428  35.155  1.00  0.00     0.037 A 
BRANCH  51  65
ATOM     65  C   UNL A   1      40.439  33.884  38.507  1.00  0.00     0.064 A 
ATOM     66  C   UNL A   1      41.150  35.092  38.590  1.00  0.00     0.173 A 
ATOM     67  C   UNL A   1      39.689  33.487  39.623  1.00  0.00     0.173 A 
ATOM     68  F   UNL A   1      41.894  35.510  37.556  1.00  0.00    -0.203 F 
ATOM     69  C   UNL A   1      41.128  35.859  39.752  1.00  0.00     0.198 A 
ATOM     70  C   UNL A   1      39.643  34.273  40.772  1.00  0.00     0.198 A 
ATOM     71  F   UNL A   1      38.986  32.345  39.595  1.00  0.00    -0.203 F 
ATOM     72  F   UNL A   1      41.850  36.985  39.823  1.00  0.00    -0.200 F 
ATOM     73  C   UNL A   1      40.366  35.454  40.838  1.00  0.00     0.200 A 
ATOM     74  F   UNL A   1      38.895  33.888  41.815  1.00  0.00    -0.200 F 
ATOM     75  F   UNL A   1      40.334  36.201  41.950  1.00  0.00    -0.200 F 
ENDBRANCH  51  65
BRANCH  52  76
ATOM     76  C   UNL A   1      39.991  28.634  30.017  1.00  0.00     0.064 A 
ATOM     77  C   UNL A   1      39.396  27.366  29.946  1.00  0.00     0.173 A 
ATOM     78  C   UNL A   1      40.599  29.134  28.856  1.00  0.00     0.173 A 
ATOM     79  F   UNL A   1      38.817  26.836  31.034  1.00  0.00    -0.203 F 
ATOM     80  C   UNL A   1      39.449  26.609  28.777  1.00  0.00     0.198 A 
ATOM     81  C   UNL A   1      40.620  28.391  27.678  1.00  0.00     0.198 A 
ATOM     82  F   UNL A   1      41.176  30.343  28.866  1.00  0.00    -0.203 F 
ATOM     83  F   UNL A   1      38.936  25.372  28.759  1.00  0.00    -0.200 F 
ATOM     84  C   UNL A   1      40.059  27.123  27.643  1.00  0.00     0.200 A 
ATOM     85  F   UNL A   1      41.197  28.897  26.579  1.00  0.00    -0.200 F 
ATOM     86  F   UNL A   1      40.118  26.392  26.521  1.00  0.00    -0.200 F 
ENDBRANCH  52  76
BRANCH  64  87
ATOM     87  C   UNL A   1      44.268  28.564  35.514  1.00  0.00     0.064 A 
ATOM     88  C   UNL A   1      45.576  28.890  35.129  1.00  0.00     0.173 A 
ATOM     89  C   UNL A   1      44.080  27.404  36.283  1.00  0.00     0.173 A 
ATOM     90  F   UNL A   1      45.808  29.981  34.382  1.00  0.00    -0.203 F 
ATOM     91  C   UNL A   1      46.648  28.069  35.469  1.00  0.00     0.198 A 
ATOM     92  C   UNL A   1      45.158  26.605  36.650  1.00  0.00     0.198 A 
ATOM     93  F   UNL A   1      42.851  27.052  36.687  1.00  0.00    -0.203 F 
ATOM     94  F   UNL A   1      47.882  28.370  35.039  1.00  0.00    -0.200 F 
ATOM     95  C   UNL A   1      46.439  26.932  36.234  1.00  0.00     0.200 A 
ATOM     96  F   UNL A   1      44.956  25.516  37.405  1.00  0.00    -0.200 F 
ATOM     97  F   UNL A   1      47.473  26.145  36.564  1.00  0.00    -0.200 F 
ENDBRANCH  64  87
ENDBRANCH  38  39
ENDBRANCH  30  33
ENDBRANCH  28  29
ENDBRANCH  27  28
ENDBRANCH  26  27
ENDBRANCH  25  26
ENDBRANCH   1  25
TORSDOF 17
ENDMDL
MODEL 2
REMARK VINA RESULT:     -10.9      7.084     12.736
REMARK SMILES O=C(CC[NH2+][C@@H]1CCCC[C@@H]1[C@@H]1CCC[NH2+]1)NCCCCCCNC(=O)c1ccc(-c2c3nc(c(-c4c(F)c(F)c(F)c(F)c4F)c4ccc([nH]4)c(-c4c(F)c(F)c(F)c(F)c4F)c4nc(c(-c5c(F)c(F)c(F)c(F)c5F)c5ccc2[nH]5)C=C4)C=C3)cc1
REMARK SMILES IDX 19 1 18 2 17 3 1 4 2 5 3 7 4 8 5 9 6 12 7 13 11 14 8 15
REMARK SMILES IDX 10 16 9 17 12 18 13 19 16 20 14 21 15 22 20 25 21 26 22 27
REMARK SMILES IDX 23 28 24 29 25 30 26 32 27 33 28 34 89 35 29 36 88 37 30 38
REMARK SMILES IDX 31 39 32 40 82 41 33 42 87 43 81 44 83 45 34 46 86 47 80 48
REMARK SMILES IDX 79 49 35 51 67 52 47 53 66 54 48 55 51 56 65 57 84 58 49 59
REMARK SMILES IDX 50 60 64 62 85 63 52 64 36 65 37 66 45 67 38 68 39 69 43 70
REMARK SMILES IDX 46 71 40 72 41 73 44 74 42 75 68 76 69 77 77 78 70 79 71 80
REMARK SMILES IDX 75 81 78 82 72 83 73 84 76 85 74 86 53 87 54 88 62 89 55 90
REMARK SMILES IDX 56 91 60 92 63 93 57 94 58 95 61 96 59 97
REMARK H PARENT 17 6 5 10 5 11 16 23 16 24 24 31 83 50 51 61
REMARK Flexibility Score: inf
ROOT
ATOM      1  C   UNL A   1      41.369  22.077  26.322  1.00  0.00     0.021 C 
ENDROOT
BRANCH   1   2
ATOM      2  C   UNL A   1      39.959  22.555  26.673  1.00  0.00     0.116 C 
BRANCH   2   3
ATOM      3  N   UNL A   1      39.014  22.050  25.706  1.00  0.00    -0.356 N 
ATOM      4  O   UNL A   1      37.386  23.670  25.875  1.00  0.00    -0.275 OA
ATOM      5  C   UNL A   1      37.796  22.612  25.414  1.00  0.00     0.225 C 
ATOM      6  H   UNL A   1      39.264  21.235  25.216  1.00  0.00     0.163 HD
BRANCH   5   7
ATOM      7  C   UNL A   1      36.979  21.736  24.481  1.00  0.00     0.161 C 
BRANCH   7   8
ATOM      8  C   UNL A   1      35.911  20.879  25.172  1.00  0.00     0.270 C 
BRANCH   8   9
ATOM      9  N   UNL A   1      35.399  21.449  26.428  1.00  0.00    -0.343 N 
ATOM     10  H   UNL A   1      35.762  22.398  26.516  1.00  0.00     0.346 HD
ATOM     11  H   UNL A   1      35.712  20.828  27.174  1.00  0.00     0.346 HD
BRANCH   9  12
ATOM     12  C   UNL A   1      33.928  21.510  26.527  1.00  0.00     0.191 C 
ATOM     13  C   UNL A   1      33.347  20.919  25.230  1.00  0.00     0.065 C 
ATOM     14  C   UNL A   1      33.334  22.917  26.830  1.00  0.00     0.105 C 
ATOM     15  C   UNL A   1      31.822  20.859  25.243  1.00  0.00     0.006 C 
ATOM     16  C   UNL A   1      31.795  22.823  26.860  1.00  0.00     0.016 C 
ATOM     17  C   UNL A   1      31.157  22.170  25.638  1.00  0.00     0.001 C 
BRANCH  14  18
ATOM     18  C   UNL A   1      33.935  24.072  25.976  1.00  0.00     0.191 C 
ATOM     19  C   UNL A   1      33.224  25.409  26.138  1.00  0.00     0.071 C 
ATOM     20  N   UNL A   1      34.006  23.915  24.518  1.00  0.00    -0.343 N 
ATOM     21  C   UNL A   1      33.915  26.254  25.083  1.00  0.00     0.067 C 
ATOM     22  C   UNL A   1      34.264  25.264  23.980  1.00  0.00     0.260 C 
ATOM     23  H   UNL A   1      33.125  23.551  24.155  1.00  0.00     0.346 HD
ATOM     24  H   UNL A   1      34.737  23.258  24.246  1.00  0.00     0.346 HD
ENDBRANCH  14  18
ENDBRANCH   9  12
ENDBRANCH   8   9
ENDBRANCH   7   8
ENDBRANCH   5   7
ENDBRANCH   2   3
ENDBRANCH   1   2
BRANCH   1  25
ATOM     25  C   UNL A   1      42.052  21.247  27.422  1.00  0.00     0.002 C 
BRANCH  25  26
ATOM     26  C   UNL A   1      41.791  19.740  27.359  1.00  0.00     0.002 C 
BRANCH  26  27
ATOM     27  C   UNL A   1      42.292  19.055  26.087  1.00  0.00     0.021 C 
BRANCH  27  28
ATOM     28  C   UNL A   1      43.751  18.616  26.130  1.00  0.00     0.116 C 
BRANCH  28  29
ATOM     29  N   UNL A   1      44.339  18.494  24.805  1.00  0.00    -0.352 N 
ATOM     30  C   UNL A   1      44.816  19.480  23.978  1.00  0.00     0.251 C 
ATOM     31  H   UNL A   1      44.402  17.577  24.452  1.00  0.00     0.163 HD
ATOM     32  O   UNL A   1      45.137  19.215  22.821  1.00  0.00    -0.269 OA
BRANCH  30  33
ATOM     33  C   UNL A   1      44.926  20.869  24.470  1.00  0.00     0.039 A 
ATOM     34  C   UNL A   1      45.476  21.096  25.735  1.00  0.00     0.014 A 
ATOM     35  C   UNL A   1      44.475  21.944  23.699  1.00  0.00     0.014 A 
ATOM     36  C   UNL A   1      45.615  22.404  26.206  1.00  0.00     0.010 A 
ATOM     37  C   UNL A   1      44.686  23.249  24.136  1.00  0.00     0.010 A 
ATOM     38  C   UNL A   1      45.245  23.493  25.400  1.00  0.00    -0.014 A 
BRANCH  38  39
ATOM     39  C   UNL A   1      45.394  24.892  25.882  1.00  0.00     0.031 A 
ATOM     40  C   UNL A   1      46.743  25.558  25.840  1.00  0.00     0.074 A 
ATOM     41  C   UNL A   1      44.333  25.545  26.393  1.00  0.00     0.049 A 
ATOM     42  N   UNL A   1      47.098  26.740  26.278  1.00  0.00    -0.248 NA
ATOM     43  C   UNL A   1      47.847  24.783  25.250  1.00  0.00     0.031 C 
ATOM     44  C   UNL A   1      42.983  24.997  26.526  1.00  0.00     0.029 A 
ATOM     45  N   UNL A   1      44.227  26.814  26.908  1.00  0.00    -0.354 N 
ATOM     46  C   UNL A   1      48.460  26.845  26.019  1.00  0.00     0.074 A 
ATOM     47  C   UNL A   1      48.882  25.584  25.449  1.00  0.00     0.031 C 
ATOM     48  C   UNL A   1      42.181  25.927  27.071  1.00  0.00     0.029 A 
ATOM     49  C   UNL A   1      42.966  27.123  27.359  1.00  0.00     0.049 A 
ATOM     50  H   UNL A   1      44.983  27.443  26.948  1.00  0.00     0.167 HD
ATOM     51  C   UNL A   1      49.277  27.909  26.205  1.00  0.00     0.037 A 
ATOM     52  C   UNL A   1      42.501  28.242  27.948  1.00  0.00     0.037 A 
ATOM     53  C   UNL A   1      48.855  29.169  26.757  1.00  0.00     0.049 A 
ATOM     54  C   UNL A   1      43.439  29.403  28.158  1.00  0.00     0.074 A 
ATOM     55  C   UNL A   1      49.605  30.309  26.979  1.00  0.00     0.029 A 
ATOM     56  N   UNL A   1      47.561  29.453  27.168  1.00  0.00    -0.354 N 
ATOM     57  N   UNL A   1      44.713  29.506  27.866  1.00  0.00    -0.248 NA
ATOM     58  C   UNL A   1      42.867  30.614  28.765  1.00  0.00     0.031 C 
ATOM     59  C   UNL A   1      48.773  31.275  27.555  1.00  0.00     0.029 A 
ATOM     60  C   UNL A   1      47.493  30.754  27.641  1.00  0.00     0.049 A 
ATOM     61  H   UNL A   1      46.804  28.825  27.129  1.00  0.00     0.167 HD
ATOM     62  C   UNL A   1      45.081  30.798  28.212  1.00  0.00     0.074 A 
ATOM     63  C   UNL A   1      43.894  31.449  28.723  1.00  0.00     0.031 C 
ATOM     64  C   UNL A   1      46.294  31.395  28.116  1.00  0.00     0.037 A 
BRANCH  51  65
ATOM     65  C   UNL A   1      50.713  27.763  25.788  1.00  0.00     0.064 A 
ATOM     66  C   UNL A   1      51.107  27.961  24.455  1.00  0.00     0.173 A 
ATOM     67  C   UNL A   1      51.710  27.477  26.730  1.00  0.00     0.173 A 
ATOM     68  F   UNL A   1      50.191  28.224  23.511  1.00  0.00    -0.203 F 
ATOM     69  C   UNL A   1      52.443  27.855  24.079  1.00  0.00     0.198 A 
ATOM     70  C   UNL A   1      53.050  27.403  26.356  1.00  0.00     0.198 A 
ATOM     71  F   UNL A   1      51.390  27.284  28.018  1.00  0.00    -0.203 F 
ATOM     72  F   UNL A   1      52.789  28.004  22.792  1.00  0.00    -0.200 F 
ATOM     73  C   UNL A   1      53.414  27.586  25.031  1.00  0.00     0.200 A 
ATOM     74  F   UNL A   1      53.989  27.158  27.280  1.00  0.00    -0.200 F 
ATOM     75  F   UNL A   1      54.702  27.499  24.670  1.00  0.00    -0.200 F 
ENDBRANCH  51  65
BRANCH  52  76
ATOM     76  C   UNL A   1      41.078  28.333  28.375  1.00  0.00     0.064 A 
ATOM     77  C   UNL A   1      40.106  28.897  27.537  1.00  0.00     0.173 A 
ATOM     78  C   UNL A   1      40.672  27.902  29.646  1.00  0.00     0.173 A 
ATOM     79  F   UNL A   1      40.448  29.342  26.319  1.00  0.00    -0.203 F 
ATOM     80  C   UNL A   1      38.792  29.068  27.970  1.00  0.00     0.198 A 
ATOM     81  C   UNL A   1      39.350  28.040  30.065  1.00  0.00     0.198 A 
ATOM     82  F   UNL A   1      41.559  27.349  30.485  1.00  0.00    -0.203 F 
ATOM     83  F   UNL A   1      37.901  29.675  27.175  1.00  0.00    -0.200 F 
ATOM     84  C   UNL A   1      38.415  28.637  29.232  1.00  0.00     0.200 A 
ATOM     85  F   UNL A   1      38.985  27.609  31.279  1.00  0.00    -0.200 F 
ATOM     86  F   UNL A   1      37.153  28.809  29.652  1.00  0.00    -0.200 F 
ENDBRANCH  52  76
BRANCH  64  87
ATOM     87  C   UNL A   1      46.384  32.845  28.502  1.00  0.00     0.064 A 
ATOM     88  C   UNL A   1      46.171  33.876  27.576  1.00  0.00     0.173 A 
ATOM     89  C   UNL A   1      46.659  33.202  29.831  1.00  0.00     0.173 A 
ATOM     90  F   UNL A   1      45.917  33.588  26.290  1.00  0.00    -0.203 F 
ATOM     91  C   UNL A   1      46.266  35.211  27.958  1.00  0.00     0.198 A 
ATOM     92  C   UNL A   1      46.719  34.538  30.216  1.00  0.00     0.198 A 
ATOM     93  F   UNL A   1      46.861  32.255  30.759  1.00  0.00    -0.203 F 
ATOM     94  F   UNL A   1      46.117  36.180  27.043  1.00  0.00    -0.200 F 
ATOM     95  C   UNL A   1      46.533  35.541  29.278  1.00  0.00     0.200 A 
ATOM     96  F   UNL A   1      46.960  34.855  31.496  1.00  0.00    -0.200 F 
ATOM     97  F   UNL A   1      46.620  36.828  29.644  1.00  0.00    -0.200 F 
ENDBRANCH  64  87
ENDBRANCH  38  39
ENDBRANCH  30  33
ENDBRANCH  28  29
ENDBRANCH  27  28
ENDBRANCH  26  27
ENDBRANCH  25  26
ENDBRANCH   1  25
TORSDOF 17
ENDMDL
MODEL 3
REMARK VINA RESULT:     -10.8      7.238     12.696
REMARK SMILES O=C(CC[NH2+][C@@H]1CCCC[C@@H]1[C@@H]1CCC[NH2+]1)NCCCCCCNC(=O)c1ccc(-c2c3nc(c(-c4c(F)c(F)c(F)c(F)c4F)c4ccc([nH]4)c(-c4c(F)c(F)c(F)c(F)c4F)c4nc(c(-c5c(F)c(F)c(F)c(F)c5F)c5ccc2[nH]5)C=C4)C=C3)cc1
REMARK SMILES IDX 19 1 18 2 17 3 1 4 2 5 3 7 4 8 5 9 6 12 7 13 11 14 8 15
REMARK SMILES IDX 10 16 9 17 12 18 13 19 16 20 14 21 15 22 20 25 21 26 22 27
REMARK SMILES IDX 23 28 24 29 25 30 26 32 27 33 28 34 89 35 29 36 88 37 30 38
REMARK SMILES IDX 31 39 32 40 82 41 33 42 87 43 81 44 83 45 34 46 86 47 80 48
REMARK SMILES IDX 79 49 35 51 67 52 47 53 66 54 48 55 51 56 65 57 84 58 49 59
REMARK SMILES IDX 50 60 64 62 85 63 52 64 36 65 37 66 45 67 38 68 39 69 43 70
REMARK SMILES IDX 46 71 40 72 41 73 44 74 42 75 68 76 69 77 77 78 70 79 71 80
REMARK SMILES IDX 75 81 78 82 72 83 73 84 76 85 74 86 53 87 54 88 62 89 55 90
REMARK SMILES IDX 56 91 60 92 63 93 57 94 58 95 61 96 59 97
REMARK H PARENT 17 6 5 10 5 11 16 23 16 24 24 31 83 50 51 61
REMARK Flexibility Score: inf
ROOT
ATOM      1  C   UNL A   1      40.830  22.032  26.122  1.00  0.00     0.021 C 
ENDROOT
BRANCH   1   2
ATOM      2  C   UNL A   1      39.399  21.502  26.218  1.00  0.00     0.116 C 
BRANCH   2   3
ATOM      3  N   UNL A   1      38.552  22.201  25.281  1.00  0.00    -0.356 N 
ATOM      4  O   UNL A   1      36.866  20.649  25.052  1.00  0.00    -0.275 OA
ATOM      5  C   UNL A   1      37.388  21.713  24.742  1.00  0.00     0.225 C 
ATOM      6  H   UNL A   1      38.833  23.103  25.007  1.00  0.00     0.163 HD
BRANCH   5   7
ATOM      7  C   UNL A   1      36.838  22.628  23.664  1.00  0.00     0.161 C 
BRANCH   7   8
ATOM      8  C   UNL A   1      35.664  23.513  24.105  1.00  0.00     0.270 C 
BRANCH   8   9
ATOM      9  N   UNL A   1      34.994  23.056  25.332  1.00  0.00    -0.343 N 
ATOM     10  H   UNL A   1      35.429  23.527  26.125  1.00  0.00     0.346 HD
ATOM     11  H   UNL A   1      35.102  22.042  25.358  1.00  0.00     0.346 HD
BRANCH   9  12
ATOM     12  C   UNL A   1      33.543  23.321  25.381  1.00  0.00     0.191 C 
ATOM     13  C   UNL A   1      33.109  23.276  26.858  1.00  0.00     0.065 C 
ATOM     14  C   UNL A   1      32.661  22.390  24.498  1.00  0.00     0.105 C 
ATOM     15  C   UNL A   1      31.632  23.610  27.047  1.00  0.00     0.006 C 
ATOM     16  C   UNL A   1      31.177  22.763  24.691  1.00  0.00     0.016 C 
ATOM     17  C   UNL A   1      30.701  22.818  26.139  1.00  0.00     0.001 C 
BRANCH  14  18
ATOM     18  C   UNL A   1      33.008  20.876  24.605  1.00  0.00     0.191 C 
ATOM     19  C   UNL A   1      32.465  20.025  23.465  1.00  0.00     0.071 C 
ATOM     20  N   UNL A   1      32.584  20.131  25.798  1.00  0.00    -0.343 N 
ATOM     21  C   UNL A   1      32.814  18.624  23.934  1.00  0.00     0.067 C 
ATOM     22  C   UNL A   1      32.723  18.704  25.452  1.00  0.00     0.260 C 
ATOM     23  H   UNL A   1      31.614  20.348  26.026  1.00  0.00     0.346 HD
ATOM     24  H   UNL A   1      33.146  20.376  26.613  1.00  0.00     0.346 HD
ENDBRANCH  14  18
ENDBRANCH   9  12
ENDBRANCH   8   9
ENDBRANCH   7   8
ENDBRANCH   5   7
ENDBRANCH   2   3
ENDBRANCH   1   2
BRANCH   1  25
ATOM     25  C   UNL A   1      41.811  21.403  27.126  1.00  0.00     0.002 C 
BRANCH  25  26
ATOM     26  C   UNL A   1      41.671  19.890  27.313  1.00  0.00     0.002 C 
BRANCH  26  27
ATOM     27  C   UNL A   1      42.154  19.050  26.130  1.00  0.00     0.021 C 
BRANCH  27  28
ATOM     28  C   UNL A   1      43.609  18.601  26.217  1.00  0.00     0.116 C 
BRANCH  28  29
ATOM     29  N   UNL A   1      44.230  18.459  24.910  1.00  0.00    -0.352 N 
ATOM     30  C   UNL A   1      44.743  19.431  24.088  1.00  0.00     0.251 C 
ATOM     31  H   UNL A   1      44.291  17.538  24.567  1.00  0.00     0.163 HD
ATOM     32  O   UNL A   1      45.091  19.152  22.942  1.00  0.00    -0.269 OA
BRANCH  30  33
ATOM     33  C   UNL A   1      44.857  20.823  24.571  1.00  0.00     0.039 A 
ATOM     34  C   UNL A   1      45.520  21.068  25.777  1.00  0.00     0.014 A 
ATOM     35  C   UNL A   1      44.301  21.884  23.849  1.00  0.00     0.014 A 
ATOM     36  C   UNL A   1      45.665  22.379  26.235  1.00  0.00     0.010 A 
ATOM     37  C   UNL A   1      44.513  23.194  24.267  1.00  0.00     0.010 A 
ATOM     38  C   UNL A   1      45.184  23.456  25.472  1.00  0.00    -0.014 A 
BRANCH  38  39
ATOM     39  C   UNL A   1      45.337  24.859  25.940  1.00  0.00     0.031 A 
ATOM     40  C   UNL A   1      46.688  25.522  25.891  1.00  0.00     0.074 A 
ATOM     41  C   UNL A   1      44.277  25.519  26.445  1.00  0.00     0.049 A 
ATOM     42  N   UNL A   1      47.046  26.707  26.318  1.00  0.00    -0.248 NA
ATOM     43  C   UNL A   1      47.789  24.739  25.308  1.00  0.00     0.031 C 
ATOM     44  C   UNL A   1      42.926  24.975  26.584  1.00  0.00     0.029 A 
ATOM     45  N   UNL A   1      44.174  26.793  26.948  1.00  0.00    -0.354 N 
ATOM     46  C   UNL A   1      48.407  26.807  26.057  1.00  0.00     0.074 A 
ATOM     47  C   UNL A   1      48.826  25.540  25.499  1.00  0.00     0.031 C 
ATOM     48  C   UNL A   1      42.127  25.912  27.121  1.00  0.00     0.029 A 
ATOM     49  C   UNL A   1      42.915  27.109  27.397  1.00  0.00     0.049 A 
ATOM     50  H   UNL A   1      44.932  27.421  26.983  1.00  0.00     0.167 HD
ATOM     51  C   UNL A   1      49.227  27.870  26.233  1.00  0.00     0.037 A 
ATOM     52  C   UNL A   1      42.452  28.234  27.976  1.00  0.00     0.037 A 
ATOM     53  C   UNL A   1      48.807  29.136  26.773  1.00  0.00     0.049 A 
ATOM     54  C   UNL A   1      43.393  29.396  28.175  1.00  0.00     0.074 A 
ATOM     55  C   UNL A   1      49.560  30.278  26.984  1.00  0.00     0.029 A 
ATOM     56  N   UNL A   1      47.514  29.428  27.182  1.00  0.00    -0.354 N 
ATOM     57  N   UNL A   1      44.666  29.493  27.881  1.00  0.00    -0.248 NA
ATOM     58  C   UNL A   1      42.823  30.613  28.770  1.00  0.00     0.031 C 
ATOM     59  C   UNL A   1      48.730  31.250  27.552  1.00  0.00     0.029 A 
ATOM     60  C   UNL A   1      47.449  30.733  27.643  1.00  0.00     0.049 A 
ATOM     61  H   UNL A   1      46.756  28.801  27.149  1.00  0.00     0.167 HD
ATOM     62  C   UNL A   1      45.038  30.788  28.214  1.00  0.00     0.074 A 
ATOM     63  C   UNL A   1      43.852  31.446  28.720  1.00  0.00     0.031 C 
ATOM     64  C   UNL A   1      46.252  31.381  28.112  1.00  0.00     0.037 A 
BRANCH  51  65
ATOM     65  C   UNL A   1      50.662  27.718  25.816  1.00  0.00     0.064 A 
ATOM     66  C   UNL A   1      51.056  27.903  24.481  1.00  0.00     0.173 A 
ATOM     67  C   UNL A   1      51.659  27.438  26.761  1.00  0.00     0.173 A 
ATOM     68  F   UNL A   1      50.140  28.159  23.536  1.00  0.00    -0.203 F 
ATOM     69  C   UNL A   1      52.392  27.790  24.106  1.00  0.00     0.198 A 
ATOM     70  C   UNL A   1      52.999  27.358  26.387  1.00  0.00     0.198 A 
ATOM     71  F   UNL A   1      51.339  27.258  28.051  1.00  0.00    -0.203 F 
ATOM     72  F   UNL A   1      52.737  27.927  22.818  1.00  0.00    -0.200 F 
ATOM     73  C   UNL A   1      53.363  27.528  25.060  1.00  0.00     0.200 A 
ATOM     74  F   UNL A   1      53.938  27.120  27.313  1.00  0.00    -0.200 F 
ATOM     75  F   UNL A   1      54.650  27.435  24.699  1.00  0.00    -0.200 F 
ENDBRANCH  51  65
BRANCH  52  76
ATOM     76  C   UNL A   1      41.030  28.333  28.403  1.00  0.00     0.064 A 
ATOM     77  C   UNL A   1      40.058  28.892  27.560  1.00  0.00     0.173 A 
ATOM     78  C   UNL A   1      40.623  27.914  29.678  1.00  0.00     0.173 A 
ATOM     79  F   UNL A   1      40.401  29.324  26.338  1.00  0.00    -0.203 F 
ATOM     80  C   UNL A   1      38.745  29.069  27.992  1.00  0.00     0.198 A 
ATOM     81  C   UNL A   1      39.302  28.059  30.096  1.00  0.00     0.198 A 
ATOM     82  F   UNL A   1      41.509  27.367  30.521  1.00  0.00    -0.203 F 
ATOM     83  F   UNL A   1      37.855  29.671  27.192  1.00  0.00    -0.200 F 
ATOM     84  C   UNL A   1      38.368  28.650  29.259  1.00  0.00     0.200 A 
ATOM     85  F   UNL A   1      38.936  27.640  31.315  1.00  0.00    -0.200 F 
ATOM     86  F   UNL A   1      37.106  28.829  29.677  1.00  0.00    -0.200 F 
ENDBRANCH  52  76
BRANCH  64  87
ATOM     87  C   UNL A   1      46.345  32.834  28.485  1.00  0.00     0.064 A 
ATOM     88  C   UNL A   1      46.134  33.857  27.549  1.00  0.00     0.173 A 
ATOM     89  C   UNL A   1      46.622  33.204  29.810  1.00  0.00     0.173 A 
ATOM     90  F   UNL A   1      45.879  33.557  26.266  1.00  0.00    -0.203 F 
ATOM     91  C   UNL A   1      46.232  35.196  27.918  1.00  0.00     0.198 A 
ATOM     92  C   UNL A   1      46.685  34.543  30.183  1.00  0.00     0.198 A 
ATOM     93  F   UNL A   1      46.822  32.265  30.747  1.00  0.00    -0.203 F 
ATOM     94  F   UNL A   1      46.084  36.156  26.994  1.00  0.00    -0.200 F 
ATOM     95  C   UNL A   1      46.500  35.537  29.235  1.00  0.00     0.200 A 
ATOM     96  F   UNL A   1      46.927  34.871  31.460  1.00  0.00    -0.200 F 
ATOM     97  F   UNL A   1      46.590  36.827  29.590  1.00  0.00    -0.200 F 
ENDBRANCH  64  87
ENDBRANCH  38  39
ENDBRANCH  30  33
ENDBRANCH  28  29
ENDBRANCH  27  28
ENDBRANCH  26  27
ENDBRANCH  25  26
ENDBRANCH   1  25
TORSDOF 17
ENDMDL
