MODEL 1
REMARK VINA RESULT:     -13.9      0.000      0.000
REMARK SMILES C[C@]12c3ccccc3[C@](C)(c3ccccc31)[C@@H]1C(=O)N(c3ccc(C(=O)NCCCCCCNC(=O)c4ccc(-c5c6nc(c(-c7c(F)c(F)c(F)c(F)c7F)c7ccc([nH]7)c(-c7c(F)c(F)c(F)c(F)c7F)c7nc(c(-c8c(F)c(F)c(F)c(F)c8F)c8ccc5[nH]8)C=C7)C=C6)cc4)cc3)C(=O)[C@H]12
REMARK SMILES IDX 31 1 30 2 29 3 28 4 27 5 25 6 26 7 24 9 21 10 22 11 101 12
REMARK SMILES IDX 23 13 100 14 20 15 1 16 2 17 16 18 3 19 104 20 15 21 11 22
REMARK SMILES IDX 8 23 4 24 17 25 102 26 14 27 12 28 9 29 7 30 5 31 18 32
REMARK SMILES IDX 103 33 13 34 10 35 6 36 19 37 32 38 33 39 34 40 35 41 36 43
REMARK SMILES IDX 37 44 38 45 99 46 39 47 98 48 40 49 41 50 42 51 92 52 43 53
REMARK SMILES IDX 97 54 91 55 93 56 44 57 96 58 90 59 89 60 45 62 77 63 57 64
REMARK SMILES IDX 76 65 58 66 61 67 75 68 94 69 59 70 60 71 74 73 95 74 62 75
REMARK SMILES IDX 46 76 47 77 55 78 48 79 49 80 53 81 56 82 50 83 51 84 54 85
REMARK SMILES IDX 52 86 78 87 79 88 87 89 80 90 81 91 85 92 88 93 82 94 83 95
REMARK SMILES IDX 86 96 84 97 63 98 64 99 72 100 65 101 66 102 70 103 73 104
REMARK SMILES IDX 67 105 68 106 71 107 69 108
REMARK H PARENT 27 8 34 42 93 61 61 72
REMARK Flexibility Score: inf
ROOT
ATOM      1  C   UNL A   1      37.452  18.994  24.868  1.00  0.00     0.002 C 
ENDROOT
BRANCH   1   2
ATOM      2  C   UNL A   1      35.923  18.923  24.841  1.00  0.00     0.002 C 
BRANCH   2   3
ATOM      3  C   UNL A   1      35.313  17.546  24.574  1.00  0.00     0.021 C 
BRANCH   3   4
ATOM      4  C   UNL A   1      33.804  17.427  24.770  1.00  0.00     0.116 C 
BRANCH   4   5
ATOM      5  N   UNL A   1      33.078  17.152  23.545  1.00  0.00    -0.352 N 
ATOM      6  C   UNL A   1      32.480  18.008  22.651  1.00  0.00     0.251 C 
ATOM      7  O   UNL A   1      31.863  17.543  21.696  1.00  0.00    -0.269 OA
ATOM      8  H   UNL A   1      33.001  16.198  23.317  1.00  0.00     0.163 HD
BRANCH   6   9
ATOM      9  C   UNL A   1      32.510  19.478  22.851  1.00  0.00     0.039 A 
ATOM     10  C   UNL A   1      32.272  22.258  23.216  1.00  0.00     0.052 A 
ATOM     11  C   UNL A   1      31.905  21.667  22.001  1.00  0.00     0.027 A 
ATOM     12  C   UNL A   1      32.855  21.454  24.205  1.00  0.00     0.027 A 
ATOM     13  C   UNL A   1      32.040  20.288  21.812  1.00  0.00     0.016 A 
ATOM     14  C   UNL A   1      32.980  20.074  24.021  1.00  0.00     0.016 A 
BRANCH  10  15
ATOM     15  N   UNL A   1      32.010  23.624  23.467  1.00  0.00    -0.250 N 
ATOM     16  C   UNL A   1      29.329  26.288  25.962  1.00  0.00     0.022 C 
ATOM     17  C   UNL A   1      30.508  26.703  25.083  1.00  0.00     0.030 C 
ATOM     18  C   UNL A   1      31.682  27.379  25.840  1.00  0.00    -0.033 A 
ATOM     19  C   UNL A   1      30.156  27.720  23.950  1.00  0.00    -0.033 A 
ATOM     20  C   UNL A   1      31.003  25.545  24.182  1.00  0.00     0.108 C 
ATOM     21  C   UNL A   1      31.736  27.648  27.205  1.00  0.00     0.005 A 
ATOM     22  C   UNL A   1      32.759  27.817  24.993  1.00  0.00    -0.033 A 
ATOM     23  C   UNL A   1      31.257  27.990  23.066  1.00  0.00    -0.033 A 
ATOM     24  C   UNL A   1      28.903  28.283  23.715  1.00  0.00     0.005 A 
ATOM     25  C   UNL A   1      32.442  25.841  23.757  1.00  0.00     0.108 C 
ATOM     26  C   UNL A   1      31.118  24.079  24.451  1.00  0.00     0.238 C 
ATOM     27  C   UNL A   1      32.829  28.348  27.722  1.00  0.00     0.000 A 
ATOM     28  C   UNL A   1      33.836  28.526  25.520  1.00  0.00     0.005 A 
ATOM     29  C   UNL A   1      32.601  27.358  23.509  1.00  0.00     0.030 C 
ATOM     30  C   UNL A   1      31.064  28.806  21.956  1.00  0.00     0.005 A 
ATOM     31  C   UNL A   1      28.733  29.100  22.599  1.00  0.00     0.000 A 
ATOM     32  C   UNL A   1      32.687  24.682  22.849  1.00  0.00     0.238 C 
ATOM     33  O   UNL A   1      30.500  23.456  25.294  1.00  0.00    -0.274 OA
ATOM     34  C   UNL A   1      33.863  28.791  26.888  1.00  0.00     0.000 A 
ATOM     35  C   UNL A   1      33.799  27.669  22.616  1.00  0.00     0.022 C 
ATOM     36  C   UNL A   1      29.799  29.353  21.726  1.00  0.00     0.000 A 
ATOM     37  O   UNL A   1      33.426  24.676  21.878  1.00  0.00    -0.274 OA
ENDBRANCH  10  15
ENDBRANCH   6   9
ENDBRANCH   4   5
ENDBRANCH   3   4
ENDBRANCH   2   3
ENDBRANCH   1   2
BRANCH   1  38
ATOM     38  C   UNL A   1      38.054  20.391  25.008  1.00  0.00     0.021 C 
BRANCH  38  39
ATOM     39  C   UNL A   1      39.196  20.515  26.007  1.00  0.00     0.116 C 
BRANCH  39  40
ATOM     40  N   UNL A   1      40.139  19.408  25.944  1.00  0.00    -0.352 N 
ATOM     41  C   UNL A   1      41.507  19.419  26.092  1.00  0.00     0.251 C 
ATOM     42  H   UNL A   1      39.741  18.525  25.770  1.00  0.00     0.163 HD
ATOM     43  O   UNL A   1      42.166  18.408  25.882  1.00  0.00    -0.269 OA
BRANCH  41  44
ATOM     44  C   UNL A   1      42.188  20.680  26.462  1.00  0.00     0.039 A 
ATOM     45  C   UNL A   1      42.340  21.036  27.803  1.00  0.00     0.014 A 
ATOM     46  C   UNL A   1      42.627  21.540  25.453  1.00  0.00     0.014 A 
ATOM     47  C   UNL A   1      42.740  22.326  28.128  1.00  0.00     0.010 A 
ATOM     48  C   UNL A   1      43.128  22.801  25.789  1.00  0.00     0.010 A 
ATOM     49  C   UNL A   1      43.131  23.229  27.125  1.00  0.00    -0.014 A 
BRANCH  49  50
ATOM     50  C   UNL A   1      43.519  24.615  27.498  1.00  0.00     0.031 A 
ATOM     51  C   UNL A   1      42.475  25.633  27.875  1.00  0.00     0.074 A 
ATOM     52  C   UNL A   1      44.825  24.942  27.554  1.00  0.00     0.049 A 
ATOM     53  N   UNL A   1      42.632  26.883  28.236  1.00  0.00    -0.248 NA
ATOM     54  C   UNL A   1      41.070  25.196  27.841  1.00  0.00     0.031 C 
ATOM     55  C   UNL A   1      45.930  24.038  27.231  1.00  0.00     0.029 A 
ATOM     56  N   UNL A   1      45.446  26.108  27.922  1.00  0.00    -0.354 N 
ATOM     57  C   UNL A   1      41.353  27.382  28.454  1.00  0.00     0.074 A 
ATOM     58  C   UNL A   1      40.427  26.314  28.150  1.00  0.00     0.031 C 
ATOM     59  C   UNL A   1      47.092  24.664  27.467  1.00  0.00     0.029 A 
ATOM     60  C   UNL A   1      46.817  26.034  27.885  1.00  0.00     0.049 A 
ATOM     61  H   UNL A   1      44.956  26.920  28.187  1.00  0.00     0.167 HD
ATOM     62  C   UNL A   1      40.988  28.613  28.887  1.00  0.00     0.037 A 
ATOM     63  C   UNL A   1      47.752  26.968  28.141  1.00  0.00     0.037 A 
ATOM     64  C   UNL A   1      41.915  29.668  29.208  1.00  0.00     0.049 A 
ATOM     65  C   UNL A   1      47.316  28.346  28.554  1.00  0.00     0.074 A 
ATOM     66  C   UNL A   1      41.642  30.942  29.674  1.00  0.00     0.029 A 
ATOM     67  N   UNL A   1      43.295  29.572  29.094  1.00  0.00    -0.354 N 
ATOM     68  N   UNL A   1      46.106  28.799  28.772  1.00  0.00    -0.248 NA
ATOM     69  C   UNL A   1      48.375  29.345  28.748  1.00  0.00     0.031 C 
ATOM     70  C   UNL A   1      42.850  31.636  29.787  1.00  0.00     0.029 A 
ATOM     71  C   UNL A   1      43.883  30.776  29.452  1.00  0.00     0.049 A 
ATOM     72  H   UNL A   1      43.784  28.769  28.801  1.00  0.00     0.167 HD
ATOM     73  C   UNL A   1      46.257  30.126  29.144  1.00  0.00     0.074 A 
ATOM     74  C   UNL A   1      47.679  30.400  29.147  1.00  0.00     0.031 C 
ATOM     75  C   UNL A   1      45.301  31.037  29.453  1.00  0.00     0.037 A 
BRANCH  62  76
ATOM     76  C   UNL A   1      39.520  28.902  29.038  1.00  0.00     0.064 A 
ATOM     77  C   UNL A   1      38.869  28.780  30.274  1.00  0.00     0.173 A 
ATOM     78  C   UNL A   1      38.774  29.377  27.949  1.00  0.00     0.173 A 
ATOM     79  F   UNL A   1      39.533  28.321  31.346  1.00  0.00    -0.203 F 
ATOM     80  C   UNL A   1      37.522  29.107  30.410  1.00  0.00     0.198 A 
ATOM     81  C   UNL A   1      37.435  29.734  28.095  1.00  0.00     0.198 A 
ATOM     82  F   UNL A   1      39.348  29.522  26.745  1.00  0.00    -0.203 F 
ATOM     83  F   UNL A   1      36.911  28.948  31.593  1.00  0.00    -0.200 F 
ATOM     84  C   UNL A   1      36.808  29.594  29.324  1.00  0.00     0.200 A 
ATOM     85  F   UNL A   1      36.754  30.222  27.049  1.00  0.00    -0.200 F 
ATOM     86  F   UNL A   1      35.518  29.926  29.463  1.00  0.00    -0.200 F 
ENDBRANCH  62  76
BRANCH  63  87
ATOM     87  C   UNL A   1      49.191  26.618  28.013  1.00  0.00     0.064 A 
ATOM     88  C   UNL A   1      49.824  26.628  26.764  1.00  0.00     0.173 A 
ATOM     89  C   UNL A   1      49.968  26.304  29.138  1.00  0.00     0.173 A 
ATOM     90  F   UNL A   1      49.118  26.901  25.657  1.00  0.00    -0.203 F 
ATOM     91  C   UNL A   1      51.181  26.333  26.644  1.00  0.00     0.198 A 
ATOM     92  C   UNL A   1      51.332  26.043  29.021  1.00  0.00     0.198 A 
ATOM     93  F   UNL A   1      49.409  26.285  30.357  1.00  0.00    -0.203 F 
ATOM     94  F   UNL A   1      51.756  26.319  25.434  1.00  0.00    -0.200 F 
ATOM     95  C   UNL A   1      51.936  26.052  27.774  1.00  0.00     0.200 A 
ATOM     96  F   UNL A   1      52.059  25.793  30.118  1.00  0.00    -0.200 F 
ATOM     97  F   UNL A   1      53.245  25.790  27.660  1.00  0.00    -0.200 F 
ENDBRANCH  63  87
BRANCH  75  98
ATOM     98  C   UNL A   1      45.752  32.417  29.835  1.00  0.00     0.064 A 
ATOM     99  C   UNL A   1      45.844  33.448  28.887  1.00  0.00     0.173 A 
ATOM    100  C   UNL A   1      46.022  32.733  31.175  1.00  0.00     0.173 A 
ATOM    101  F   UNL A   1      45.611  33.194  27.590  1.00  0.00    -0.203 F 
ATOM    102  C   UNL A   1      46.204  34.738  29.266  1.00  0.00     0.198 A 
ATOM    103  C   UNL A   1      46.349  34.032  31.555  1.00  0.00     0.198 A 
ATOM    104  F   UNL A   1      45.940  31.787  32.123  1.00  0.00    -0.203 F 
ATOM    105  F   UNL A   1      46.324  35.697  28.337  1.00  0.00    -0.200 F 
ATOM    106  C   UNL A   1      46.444  35.031  30.600  1.00  0.00     0.200 A 
ATOM    107  F   UNL A   1      46.562  34.317  32.847  1.00  0.00    -0.200 F 
ATOM    108  F   UNL A   1      46.772  36.279  30.964  1.00  0.00    -0.200 F 
ENDBRANCH  75  98
ENDBRANCH  49  50
ENDBRANCH  41  44
ENDBRANCH  39  40
ENDBRANCH  38  39
ENDBRANCH   1  38
TORSDOF 14
ENDMDL
MODEL 2
REMARK VINA RESULT:     -13.9      0.839      7.075
REMARK SMILES C[C@]12c3ccccc3[C@](C)(c3ccccc31)[C@@H]1C(=O)N(c3ccc(C(=O)NCCCCCCNC(=O)c4ccc(-c5c6nc(c(-c7c(F)c(F)c(F)c(F)c7F)c7ccc([nH]7)c(-c7c(F)c(F)c(F)c(F)c7F)c7nc(c(-c8c(F)c(F)c(F)c(F)c8F)c8ccc5[nH]8)C=C7)C=C6)cc4)cc3)C(=O)[C@H]12
REMARK SMILES IDX 31 1 30 2 29 3 28 4 27 5 25 6 26 7 24 9 21 10 22 11 101 12
REMARK SMILES IDX 23 13 100 14 20 15 1 16 2 17 16 18 3 19 104 20 15 21 11 22
REMARK SMILES IDX 8 23 4 24 17 25 102 26 14 27 12 28 9 29 7 30 5 31 18 32
REMARK SMILES IDX 103 33 13 34 10 35 6 36 19 37 32 38 33 39 34 40 35 41 36 43
REMARK SMILES IDX 37 44 38 45 99 46 39 47 98 48 40 49 41 50 42 51 92 52 43 53
REMARK SMILES IDX 97 54 91 55 93 56 44 57 96 58 90 59 89 60 45 62 77 63 57 64
REMARK SMILES IDX 76 65 58 66 61 67 75 68 94 69 59 70 60 71 74 73 95 74 62 75
REMARK SMILES IDX 46 76 47 77 55 78 48 79 49 80 53 81 56 82 50 83 51 84 54 85
REMARK SMILES IDX 52 86 78 87 79 88 87 89 80 90 81 91 85 92 88 93 82 94 83 95
REMARK SMILES IDX 86 96 84 97 63 98 64 99 72 100 65 101 66 102 70 103 73 104
REMARK SMILES IDX 67 105 68 106 71 107 69 108
REMARK H PARENT 27 8 34 42 93 61 61 72
REMARK Flexibility Score: inf
ROOT
ATOM      1  C   UNL A   1      37.351  18.774  25.004  1.00  0.00     0.002 C 
ENDROOT
BRANCH   1   2
ATOM      2  C   UNL A   1      35.868  18.708  24.631  1.00  0.00     0.002 C 
BRANCH   2   3
ATOM      3  C   UNL A   1      35.231  17.317  24.622  1.00  0.00     0.021 C 
BRANCH   3   4
ATOM      4  C   UNL A   1      33.717  17.267  24.808  1.00  0.00     0.116 C 
BRANCH   4   5
ATOM      5  N   UNL A   1      32.983  17.104  23.568  1.00  0.00    -0.352 N 
ATOM      6  C   UNL A   1      32.441  18.042  22.721  1.00  0.00     0.251 C 
ATOM      7  O   UNL A   1      31.804  17.667  21.740  1.00  0.00    -0.269 OA
ATOM      8  H   UNL A   1      32.852  16.169  23.287  1.00  0.00     0.163 HD
BRANCH   6   9
ATOM      9  C   UNL A   1      32.557  19.494  23.003  1.00  0.00     0.039 A 
ATOM     10  C   UNL A   1      32.479  22.258  23.524  1.00  0.00     0.052 A 
ATOM     11  C   UNL A   1      32.077  21.758  22.280  1.00  0.00     0.027 A 
ATOM     12  C   UNL A   1      33.017  21.368  24.464  1.00  0.00     0.027 A 
ATOM     13  C   UNL A   1      32.132  20.387  22.013  1.00  0.00     0.016 A 
ATOM     14  C   UNL A   1      33.062  19.996  24.202  1.00  0.00     0.016 A 
BRANCH  10  15
ATOM     15  N   UNL A   1      32.297  23.621  23.852  1.00  0.00    -0.250 N 
ATOM     16  C   UNL A   1      33.886  27.731  22.807  1.00  0.00     0.022 C 
ATOM     17  C   UNL A   1      32.690  27.384  23.694  1.00  0.00     0.030 C 
ATOM     18  C   UNL A   1      31.323  27.915  23.185  1.00  0.00    -0.033 A 
ATOM     19  C   UNL A   1      32.782  27.923  25.158  1.00  0.00    -0.033 A 
ATOM     20  C   UNL A   1      32.626  25.873  24.027  1.00  0.00     0.108 C 
ATOM     21  C   UNL A   1      31.109  28.674  22.038  1.00  0.00     0.005 A 
ATOM     22  C   UNL A   1      30.216  27.633  24.059  1.00  0.00    -0.033 A 
ATOM     23  C   UNL A   1      31.704  27.472  25.998  1.00  0.00    -0.033 A 
ATOM     24  C   UNL A   1      33.814  28.696  25.684  1.00  0.00     0.005 A 
ATOM     25  C   UNL A   1      31.193  25.526  24.432  1.00  0.00     0.108 C 
ATOM     26  C   UNL A   1      32.948  24.676  23.193  1.00  0.00     0.238 C 
ATOM     27  C   UNL A   1      29.826  29.155  21.764  1.00  0.00     0.000 A 
ATOM     28  C   UNL A   1      28.945  28.130  23.782  1.00  0.00     0.005 A 
ATOM     29  C   UNL A   1      30.594  26.694  25.248  1.00  0.00     0.030 C 
ATOM     30  C   UNL A   1      31.705  27.798  27.350  1.00  0.00     0.005 A 
ATOM     31  C   UNL A   1      33.793  29.013  27.041  1.00  0.00     0.000 A 
ATOM     32  C   UNL A   1      31.367  24.087  24.789  1.00  0.00     0.238 C 
ATOM     33  O   UNL A   1      33.676  24.657  22.219  1.00  0.00    -0.274 OA
ATOM     34  C   UNL A   1      28.758  28.895  22.631  1.00  0.00     0.000 A 
ATOM     35  C   UNL A   1      29.413  26.246  26.105  1.00  0.00     0.022 C 
ATOM     36  C   UNL A   1      32.754  28.563  27.866  1.00  0.00     0.000 A 
ATOM     37  O   UNL A   1      30.724  23.473  25.624  1.00  0.00    -0.274 OA
ENDBRANCH  10  15
ENDBRANCH   6   9
ENDBRANCH   4   5
ENDBRANCH   3   4
ENDBRANCH   2   3
ENDBRANCH   1   2
BRANCH   1  38
ATOM     38  C   UNL A   1      38.011  20.146  24.881  1.00  0.00     0.021 C 
BRANCH  38  39
ATOM     39  C   UNL A   1      39.191  20.391  25.811  1.00  0.00     0.116 C 
BRANCH  39  40
ATOM     40  N   UNL A   1      40.123  19.274  25.865  1.00  0.00    -0.352 N 
ATOM     41  C   UNL A   1      41.480  19.282  26.087  1.00  0.00     0.251 C 
ATOM     42  H   UNL A   1      39.724  18.385  25.723  1.00  0.00     0.163 HD
ATOM     43  O   UNL A   1      42.138  18.254  25.974  1.00  0.00    -0.269 OA
BRANCH  41  44
ATOM     44  C   UNL A   1      42.155  20.556  26.419  1.00  0.00     0.039 A 
ATOM     45  C   UNL A   1      42.268  20.975  27.746  1.00  0.00     0.014 A 
ATOM     46  C   UNL A   1      42.629  21.367  25.385  1.00  0.00     0.014 A 
ATOM     47  C   UNL A   1      42.663  22.278  28.022  1.00  0.00     0.010 A 
ATOM     48  C   UNL A   1      43.125  22.641  25.676  1.00  0.00     0.010 A 
ATOM     49  C   UNL A   1      43.089  23.131  26.991  1.00  0.00    -0.014 A 
BRANCH  49  50
ATOM     50  C   UNL A   1      43.471  24.532  27.310  1.00  0.00     0.031 A 
ATOM     51  C   UNL A   1      44.861  25.037  27.023  1.00  0.00     0.074 A 
ATOM     52  C   UNL A   1      42.543  25.371  27.809  1.00  0.00     0.049 A 
ATOM     53  N   UNL A   1      45.365  26.229  27.227  1.00  0.00    -0.248 NA
ATOM     54  C   UNL A   1      45.812  24.082  26.433  1.00  0.00     0.031 C 
ATOM     55  C   UNL A   1      41.159  25.006  28.112  1.00  0.00     0.029 A 
ATOM     56  N   UNL A   1      42.612  26.704  28.126  1.00  0.00    -0.354 N 
ATOM     57  C   UNL A   1      46.689  26.162  26.807  1.00  0.00     0.074 A 
ATOM     58  C   UNL A   1      46.923  24.803  26.371  1.00  0.00     0.031 C 
ATOM     59  C   UNL A   1      40.495  26.097  28.518  1.00  0.00     0.029 A 
ATOM     60  C   UNL A   1      41.422  27.222  28.577  1.00  0.00     0.049 A 
ATOM     61  H   UNL A   1      43.434  27.237  28.039  1.00  0.00     0.167 HD
ATOM     62  C   UNL A   1      47.616  27.149  26.772  1.00  0.00     0.037 A 
ATOM     63  C   UNL A   1      41.113  28.459  29.008  1.00  0.00     0.037 A 
ATOM     64  C   UNL A   1      47.372  28.506  27.189  1.00  0.00     0.049 A 
ATOM     65  C   UNL A   1      42.180  29.518  29.021  1.00  0.00     0.074 A 
ATOM     66  C   UNL A   1      48.242  29.582  27.170  1.00  0.00     0.029 A 
ATOM     67  N   UNL A   1      46.170  28.974  27.701  1.00  0.00    -0.354 N 
ATOM     68  N   UNL A   1      43.421  29.445  28.607  1.00  0.00    -0.248 NA
ATOM     69  C   UNL A   1      41.805  30.828  29.570  1.00  0.00     0.031 C 
ATOM     70  C   UNL A   1      47.587  30.686  27.724  1.00  0.00     0.029 A 
ATOM     71  C   UNL A   1      46.288  30.316  28.030  1.00  0.00     0.049 A 
ATOM     72  H   UNL A   1      45.355  28.433  27.815  1.00  0.00     0.167 HD
ATOM     73  C   UNL A   1      43.970  30.699  28.828  1.00  0.00     0.074 A 
ATOM     74  C   UNL A   1      42.921  31.522  29.391  1.00  0.00     0.031 C 
ATOM     75  C   UNL A   1      45.234  31.127  28.589  1.00  0.00     0.037 A 
BRANCH  62  76
ATOM     76  C   UNL A   1      48.992  26.807  26.271  1.00  0.00     0.064 A 
ATOM     77  C   UNL A   1      49.943  26.188  27.094  1.00  0.00     0.173 A 
ATOM     78  C   UNL A   1      49.337  27.036  24.929  1.00  0.00     0.173 A 
ATOM     79  F   UNL A   1      49.668  25.954  28.386  1.00  0.00    -0.203 F 
ATOM     80  C   UNL A   1      51.193  25.824  26.598  1.00  0.00     0.198 A 
ATOM     81  C   UNL A   1      50.576  26.642  24.428  1.00  0.00     0.198 A 
ATOM     82  F   UNL A   1      48.463  27.617  24.094  1.00  0.00    -0.203 F 
ATOM     83  F   UNL A   1      52.099  25.266  27.414  1.00  0.00    -0.200 F 
ATOM     84  C   UNL A   1      51.505  26.042  25.264  1.00  0.00     0.200 A 
ATOM     85  F   UNL A   1      50.868  26.837  23.135  1.00  0.00    -0.200 F 
ATOM     86  F   UNL A   1      52.701  25.674  24.786  1.00  0.00    -0.200 F 
ENDBRANCH  62  76
BRANCH  63  87
ATOM     87  C   UNL A   1      39.726  28.753  29.457  1.00  0.00     0.064 A 
ATOM     88  C   UNL A   1      38.787  29.301  28.575  1.00  0.00     0.173 A 
ATOM     89  C   UNL A   1      39.304  28.457  30.762  1.00  0.00     0.173 A 
ATOM     90  F   UNL A   1      39.149  29.620  27.324  1.00  0.00    -0.203 F 
ATOM     91  C   UNL A   1      37.477  29.545  28.982  1.00  0.00     0.198 A 
ATOM     92  C   UNL A   1      37.985  28.670  31.157  1.00  0.00     0.198 A 
ATOM     93  F   UNL A   1      40.164  27.927  31.643  1.00  0.00    -0.203 F 
ATOM     94  F   UNL A   1      36.605  30.099  28.128  1.00  0.00    -0.200 F 
ATOM     95  C   UNL A   1      37.074  29.219  30.269  1.00  0.00     0.200 A 
ATOM     96  F   UNL A   1      37.597  28.334  32.395  1.00  0.00    -0.200 F 
ATOM     97  F   UNL A   1      35.809  29.435  30.653  1.00  0.00    -0.200 F 
ENDBRANCH  63  87
BRANCH  75  98
ATOM     98  C   UNL A   1      45.560  32.555  28.918  1.00  0.00     0.064 A 
ATOM     99  C   UNL A   1      46.129  32.913  30.150  1.00  0.00     0.173 A 
ATOM    100  C   UNL A   1      45.371  33.567  27.965  1.00  0.00     0.173 A 
ATOM    101  F   UNL A   1      46.316  31.985  31.101  1.00  0.00    -0.203 F 
ATOM    102  C   UNL A   1      46.482  34.232  30.419  1.00  0.00     0.198 A 
ATOM    103  C   UNL A   1      45.756  34.879  28.225  1.00  0.00     0.198 A 
ATOM    104  F   UNL A   1      44.838  33.279  26.768  1.00  0.00    -0.203 F 
ATOM    105  F   UNL A   1      46.988  34.557  31.617  1.00  0.00    -0.200 F 
ATOM    106  C   UNL A   1      46.307  35.211  29.453  1.00  0.00     0.200 A 
ATOM    107  F   UNL A   1      45.604  35.821  27.283  1.00  0.00    -0.200 F 
ATOM    108  F   UNL A   1      46.666  36.478  29.707  1.00  0.00    -0.200 F 
ENDBRANCH  75  98
ENDBRANCH  49  50
ENDBRANCH  41  44
ENDBRANCH  39  40
ENDBRANCH  38  39
ENDBRANCH   1  38
TORSDOF 14
ENDMDL
MODEL 3
REMARK VINA RESULT:     -13.8      0.731      6.767
REMARK SMILES C[C@]12c3ccccc3[C@](C)(c3ccccc31)[C@@H]1C(=O)N(c3ccc(C(=O)NCCCCCCNC(=O)c4ccc(-c5c6nc(c(-c7c(F)c(F)c(F)c(F)c7F)c7ccc([nH]7)c(-c7c(F)c(F)c(F)c(F)c7F)c7nc(c(-c8c(F)c(F)c(F)c(F)c8F)c8ccc5[nH]8)C=C7)C=C6)cc4)cc3)C(=O)[C@H]12
REMARK SMILES IDX 31 1 30 2 29 3 28 4 27 5 25 6 26 7 24 9 21 10 22 11 101 12
REMARK SMILES IDX 23 13 100 14 20 15 1 16 2 17 16 18 3 19 104 20 15 21 11 22
REMARK SMILES IDX 8 23 4 24 17 25 102 26 14 27 12 28 9 29 7 30 5 31 18 32
REMARK SMILES IDX 103 33 13 34 10 35 6 36 19 37 32 38 33 39 34 40 35 41 36 43
REMARK SMILES IDX 37 44 38 45 99 46 39 47 98 48 40 49 41 50 42 51 92 52 43 53
REMARK SMILES IDX 97 54 91 55 93 56 44 57 96 58 90 59 89 60 45 62 77 63 57 64
REMARK SMILES IDX 76 65 58 66 61 67 75 68 94 69 59 70 60 71 74 73 95 74 62 75
REMARK SMILES IDX 46 76 47 77 55 78 48 79 49 80 53 81 56 82 50 83 51 84 54 85
REMARK SMILES IDX 52 86 78 87 79 88 87 89 80 90 81 91 85 92 88 93 82 94 83 95
REMARK SMILES IDX 86 96 84 97 63 98 64 99 72 100 65 101 66 102 70 103 73 104
REMARK SMILES IDX 67 105 68 106 71 107 69 108
REMARK H PARENT 27 8 34 42 93 61 61 72
REMARK Flexibility Score: inf
ROOT
ATOM      1  C   UNL A   1      37.455  18.789  24.947  1.00  0.00     0.002 C 
ENDROOT
BRANCH   1   2
ATOM      2  C   UNL A   1      35.925  18.793  24.889  1.00  0.00     0.002 C 
BRANCH   2   3
ATOM      3  C   UNL A   1      35.253  17.449  24.601  1.00  0.00     0.021 C 
BRANCH   3   4
ATOM      4  C   UNL A   1      33.739  17.399  24.783  1.00  0.00     0.116 C 
BRANCH   4   5
ATOM      5  N   UNL A   1      33.014  17.131  23.556  1.00  0.00    -0.352 N 
ATOM      6  C   UNL A   1      32.428  17.993  22.659  1.00  0.00     0.251 C 
ATOM      7  O   UNL A   1      31.810  17.534  21.702  1.00  0.00    -0.269 OA
ATOM      8  H   UNL A   1      32.928  16.177  23.327  1.00  0.00     0.163 HD
BRANCH   6   9
ATOM      9  C   UNL A   1      32.473  19.462  22.858  1.00  0.00     0.039 A 
ATOM     10  C   UNL A   1      32.263  22.245  23.223  1.00  0.00     0.052 A 
ATOM     11  C   UNL A   1      31.888  21.656  22.009  1.00  0.00     0.027 A 
ATOM     12  C   UNL A   1      32.840  21.436  24.211  1.00  0.00     0.027 A 
ATOM     13  C   UNL A   1      32.009  20.277  21.819  1.00  0.00     0.016 A 
ATOM     14  C   UNL A   1      32.951  20.054  24.027  1.00  0.00     0.016 A 
BRANCH  10  15
ATOM     15  N   UNL A   1      32.015  23.613  23.474  1.00  0.00    -0.250 N 
ATOM     16  C   UNL A   1      29.392  26.304  26.001  1.00  0.00     0.022 C 
ATOM     17  C   UNL A   1      30.561  26.708  25.103  1.00  0.00     0.030 C 
ATOM     18  C   UNL A   1      31.751  27.377  25.840  1.00  0.00    -0.033 A 
ATOM     19  C   UNL A   1      30.199  27.725  23.973  1.00  0.00    -0.033 A 
ATOM     20  C   UNL A   1      31.034  25.543  24.198  1.00  0.00     0.108 C 
ATOM     21  C   UNL A   1      31.828  27.650  27.203  1.00  0.00     0.005 A 
ATOM     22  C   UNL A   1      32.818  27.805  24.976  1.00  0.00    -0.033 A 
ATOM     23  C   UNL A   1      31.289  27.983  23.071  1.00  0.00    -0.033 A 
ATOM     24  C   UNL A   1      28.947  28.296  23.754  1.00  0.00     0.005 A 
ATOM     25  C   UNL A   1      32.468  25.827  23.751  1.00  0.00     0.108 C 
ATOM     26  C   UNL A   1      31.141  24.078  24.470  1.00  0.00     0.238 C 
ATOM     27  C   UNL A   1      32.934  28.343  27.702  1.00  0.00     0.000 A 
ATOM     28  C   UNL A   1      33.908  28.508  25.484  1.00  0.00     0.005 A 
ATOM     29  C   UNL A   1      32.634  27.343  23.495  1.00  0.00     0.030 C 
ATOM     30  C   UNL A   1      31.084  28.798  21.962  1.00  0.00     0.005 A 
ATOM     31  C   UNL A   1      28.766  29.111  22.639  1.00  0.00     0.000 A 
ATOM     32  C   UNL A   1      32.691  24.664  22.842  1.00  0.00     0.238 C 
ATOM     33  O   UNL A   1      30.531  23.462  25.323  1.00  0.00    -0.274 OA
ATOM     34  C   UNL A   1      33.958  28.776  26.850  1.00  0.00     0.000 A 
ATOM     35  C   UNL A   1      33.821  27.642  22.583  1.00  0.00     0.022 C 
ATOM     36  C   UNL A   1      29.821  29.353  21.749  1.00  0.00     0.000 A 
ATOM     37  O   UNL A   1      33.415  24.650  21.860  1.00  0.00    -0.274 OA
ENDBRANCH  10  15
ENDBRANCH   6   9
ENDBRANCH   4   5
ENDBRANCH   3   4
ENDBRANCH   2   3
ENDBRANCH   1   2
BRANCH   1  38
ATOM     38  C   UNL A   1      38.126  20.160  24.962  1.00  0.00     0.021 C 
BRANCH  38  39
ATOM     39  C   UNL A   1      39.278  20.315  25.947  1.00  0.00     0.116 C 
BRANCH  39  40
ATOM     40  N   UNL A   1      40.225  19.211  25.904  1.00  0.00    -0.352 N 
ATOM     41  C   UNL A   1      41.593  19.231  26.047  1.00  0.00     0.251 C 
ATOM     42  H   UNL A   1      39.830  18.322  25.750  1.00  0.00     0.163 HD
ATOM     43  O   UNL A   1      42.255  18.218  25.856  1.00  0.00    -0.269 OA
BRANCH  41  44
ATOM     44  C   UNL A   1      42.270  20.501  26.389  1.00  0.00     0.039 A 
ATOM     45  C   UNL A   1      42.341  20.932  27.715  1.00  0.00     0.014 A 
ATOM     46  C   UNL A   1      42.788  21.296  25.364  1.00  0.00     0.014 A 
ATOM     47  C   UNL A   1      42.741  22.234  27.992  1.00  0.00     0.010 A 
ATOM     48  C   UNL A   1      43.287  22.567  25.659  1.00  0.00     0.010 A 
ATOM     49  C   UNL A   1      43.211  23.072  26.967  1.00  0.00    -0.014 A 
BRANCH  49  50
ATOM     50  C   UNL A   1      43.597  24.472  27.285  1.00  0.00     0.031 A 
ATOM     51  C   UNL A   1      45.005  24.956  27.054  1.00  0.00     0.074 A 
ATOM     52  C   UNL A   1      42.659  25.329  27.731  1.00  0.00     0.049 A 
ATOM     53  N   UNL A   1      45.515  26.143  27.265  1.00  0.00    -0.248 NA
ATOM     54  C   UNL A   1      45.969  23.981  26.519  1.00  0.00     0.031 C 
ATOM     55  C   UNL A   1      41.258  24.986  27.977  1.00  0.00     0.029 A 
ATOM     56  N   UNL A   1      42.731  26.665  28.034  1.00  0.00    -0.354 N 
ATOM     57  C   UNL A   1      46.855  26.054  26.905  1.00  0.00     0.074 A 
ATOM     58  C   UNL A   1      47.091  24.687  26.498  1.00  0.00     0.031 C 
ATOM     59  C   UNL A   1      40.591  26.091  28.340  1.00  0.00     0.029 A 
ATOM     60  C   UNL A   1      41.530  27.204  28.425  1.00  0.00     0.049 A 
ATOM     61  H   UNL A   1      43.563  27.187  27.977  1.00  0.00     0.167 HD
ATOM     62  C   UNL A   1      47.796  27.029  26.899  1.00  0.00     0.037 A 
ATOM     63  C   UNL A   1      41.218  28.451  28.826  1.00  0.00     0.037 A 
ATOM     64  C   UNL A   1      47.552  28.394  27.287  1.00  0.00     0.049 A 
ATOM     65  C   UNL A   1      42.297  29.496  28.873  1.00  0.00     0.074 A 
ATOM     66  C   UNL A   1      48.436  29.459  27.293  1.00  0.00     0.029 A 
ATOM     67  N   UNL A   1      46.335  28.885  27.739  1.00  0.00    -0.354 N 
ATOM     68  N   UNL A   1      43.554  29.402  28.516  1.00  0.00    -0.248 NA
ATOM     69  C   UNL A   1      41.916  30.818  29.388  1.00  0.00     0.031 C 
ATOM     70  C   UNL A   1      47.772  30.578  27.804  1.00  0.00     0.029 A 
ATOM     71  C   UNL A   1      46.455  30.229  28.056  1.00  0.00     0.049 A 
ATOM     72  H   UNL A   1      45.508  28.356  27.824  1.00  0.00     0.167 HD
ATOM     73  C   UNL A   1      44.110  30.652  28.745  1.00  0.00     0.074 A 
ATOM     74  C   UNL A   1      43.047  31.496  29.250  1.00  0.00     0.031 C 
ATOM     75  C   UNL A   1      45.389  31.061  28.557  1.00  0.00     0.037 A 
BRANCH  62  76
ATOM     76  C   UNL A   1      49.188  26.663  26.464  1.00  0.00     0.064 A 
ATOM     77  C   UNL A   1      49.623  26.857  25.145  1.00  0.00     0.173 A 
ATOM     78  C   UNL A   1      50.121  26.183  27.396  1.00  0.00     0.173 A 
ATOM     79  F   UNL A   1      48.770  27.306  24.211  1.00  0.00    -0.203 F 
ATOM     80  C   UNL A   1      50.933  26.568  24.772  1.00  0.00     0.198 A 
ATOM     81  C   UNL A   1      51.440  25.925  27.027  1.00  0.00     0.198 A 
ATOM     82  F   UNL A   1      49.762  25.987  28.674  1.00  0.00    -0.203 F 
ATOM     83  F   UNL A   1      51.315  26.727  23.496  1.00  0.00    -0.200 F 
ATOM     84  C   UNL A   1      51.843  26.113  25.714  1.00  0.00     0.200 A 
ATOM     85  F   UNL A   1      52.321  25.503  27.944  1.00  0.00    -0.200 F 
ATOM     86  F   UNL A   1      53.108  25.854  25.356  1.00  0.00    -0.200 F 
ENDBRANCH  62  76
BRANCH  63  87
ATOM     87  C   UNL A   1      39.817  28.768  29.209  1.00  0.00     0.064 A 
ATOM     88  C   UNL A   1      38.921  29.304  28.275  1.00  0.00     0.173 A 
ATOM     89  C   UNL A   1      39.337  28.507  30.501  1.00  0.00     0.173 A 
ATOM     90  F   UNL A   1      39.339  29.590  27.034  1.00  0.00    -0.203 F 
ATOM     91  C   UNL A   1      37.598  29.570  28.621  1.00  0.00     0.198 A 
ATOM     92  C   UNL A   1      38.005  28.742  30.835  1.00  0.00     0.198 A 
ATOM     93  F   UNL A   1      40.154  27.989  31.430  1.00  0.00    -0.203 F 
ATOM     94  F   UNL A   1      36.769  30.112  27.719  1.00  0.00    -0.200 F 
ATOM     95  C   UNL A   1      37.138  29.278  29.897  1.00  0.00     0.200 A 
ATOM     96  F   UNL A   1      37.561  28.438  32.063  1.00  0.00    -0.200 F 
ATOM     97  F   UNL A   1      35.860  29.515  30.222  1.00  0.00    -0.200 F 
ENDBRANCH  63  87
BRANCH  75  98
ATOM     98  C   UNL A   1      45.718  32.489  28.882  1.00  0.00     0.064 A 
ATOM     99  C   UNL A   1      45.576  33.510  27.930  1.00  0.00     0.173 A 
ATOM    100  C   UNL A   1      46.107  32.853  30.181  1.00  0.00     0.173 A 
ATOM    101  F   UNL A   1      45.221  33.213  26.671  1.00  0.00    -0.203 F 
ATOM    102  C   UNL A   1      45.826  34.839  28.263  1.00  0.00     0.198 A 
ATOM    103  C   UNL A   1      46.324  34.185  30.518  1.00  0.00     0.198 A 
ATOM    104  F   UNL A   1      46.250  31.917  31.132  1.00  0.00    -0.203 F 
ATOM    105  F   UNL A   1      45.722  35.792  27.327  1.00  0.00    -0.200 F 
ATOM    106  C   UNL A   1      46.187  35.176  29.559  1.00  0.00     0.200 A 
ATOM    107  F   UNL A   1      46.654  34.512  31.776  1.00  0.00    -0.200 F 
ATOM    108  F   UNL A   1      46.408  36.459  29.881  1.00  0.00    -0.200 F 
ENDBRANCH  75  98
ENDBRANCH  49  50
ENDBRANCH  41  44
ENDBRANCH  39  40
ENDBRANCH  38  39
ENDBRANCH   1  38
TORSDOF 14
ENDMDL
