MODEL 1
REMARK VINA RESULT:     -11.7      0.000      0.000
REMARK SMILES N#CCC[NH+]1CCN(c2cc(C(=O)NCCCCCCNC(=O)c3ccc(-c4c5nc(c(-c6c(F)c(F)c(F)c(F)c6F)c6ccc([nH]6)c(-c6c(F)c(F)c(F)c(F)c6F)c6nc(c(-c7c(F)c(F)c(F)c(F)c7F)c7ccc4[nH]7)C=C6)C=C5)cc3)c3cc(NS(=O)(=O)c4ccccc4Cl)ccc3n2)CC1
REMARK SMILES IDX 16 1 15 2 14 3 12 4 13 5 11 7 9 8 10 9 104 10 103 11 87 12
REMARK SMILES IDX 102 13 88 14 101 15 89 16 8 17 5 18 6 19 106 20 7 22 105 23
REMARK SMILES IDX 4 24 3 25 2 26 1 27 90 28 91 30 92 31 93 32 94 33 95 34
REMARK SMILES IDX 99 35 96 36 98 37 100 38 97 39 17 40 18 41 19 42 20 43 21 44
REMARK SMILES IDX 22 45 23 47 24 48 25 49 86 50 26 51 85 52 27 53 28 54 29 55
REMARK SMILES IDX 79 56 30 57 84 58 78 59 80 60 31 61 83 62 77 63 76 64 32 66
REMARK SMILES IDX 64 67 44 68 63 69 45 70 48 71 62 72 81 73 46 74 47 75 61 77
REMARK SMILES IDX 82 78 49 79 33 80 34 81 42 82 35 83 36 84 40 85 43 86 37 87
REMARK SMILES IDX 38 88 41 89 39 90 65 91 66 92 74 93 67 94 68 95 72 96 75 97
REMARK SMILES IDX 69 98 70 99 73 100 71 101 50 102 51 103 59 104 52 105 53 106
REMARK SMILES IDX 57 107 60 108 54 109 55 110 58 111 56 112
REMARK H PARENT 14 6 5 21 90 29 21 46 80 65 48 76
REMARK Flexibility Score: inf
ROOT
ATOM      1  C   UNL A   1      33.592  30.194  26.537  1.00  0.00     0.021 C 
ENDROOT
BRANCH   1   2
ATOM      2  C   UNL A   1      33.734  28.634  26.421  1.00  0.00     0.116 C 
BRANCH   2   3
ATOM      3  N   UNL A   1      34.451  28.088  25.295  1.00  0.00    -0.352 N 
ATOM      4  C   UNL A   1      33.902  28.067  24.028  1.00  0.00     0.252 C 
ATOM      5  O   UNL A   1      34.427  28.788  23.179  1.00  0.00    -0.269 OA
ATOM      6  H   UNL A   1      35.354  27.720  25.433  1.00  0.00     0.163 HD
BRANCH   4   7
ATOM      7  C   UNL A   1      32.781  27.155  23.641  1.00  0.00     0.052 A 
ATOM      8  C   UNL A   1      30.428  27.099  23.171  1.00  0.00     0.130 A 
ATOM      9  C   UNL A   1      31.528  27.744  23.715  1.00  0.00     0.061 A 
ATOM     10  N   UNL A   1      30.460  25.780  22.899  1.00  0.00    -0.231 NA
ATOM     11  C   UNL A   1      31.630  25.122  23.048  1.00  0.00     0.074 A 
ATOM     12  C   UNL A   1      32.831  25.800  23.278  1.00  0.00     0.015 A 
ATOM     13  C   UNL A   1      31.717  23.732  22.988  1.00  0.00     0.031 A 
ATOM     14  C   UNL A   1      33.988  25.031  23.205  1.00  0.00     0.038 A 
ATOM     15  C   UNL A   1      32.882  23.073  23.452  1.00  0.00     0.029 A 
ATOM     16  C   UNL A   1      34.008  23.805  23.832  1.00  0.00     0.050 A 
BRANCH   8  17
ATOM     17  N   UNL A   1      29.366  27.876  22.707  1.00  0.00    -0.345 N 
ATOM     18  N   UNL A   1      27.610  30.218  22.611  1.00  0.00    -0.331 N 
ATOM     19  C   UNL A   1      28.728  30.121  21.669  1.00  0.00     0.284 C 
ATOM     20  C   UNL A   1      27.113  28.881  22.950  1.00  0.00     0.284 C 
ATOM     21  H   UNL A   1      26.855  30.689  22.110  1.00  0.00     0.348 HD
ATOM     22  C   UNL A   1      29.807  29.057  21.943  1.00  0.00     0.179 C 
ATOM     23  C   UNL A   1      28.161  27.909  23.526  1.00  0.00     0.179 C 
BRANCH  18  24
ATOM     24  C   UNL A   1      27.711  31.201  23.694  1.00  0.00     0.277 C 
BRANCH  24  25
ATOM     25  C   UNL A   1      29.052  31.780  24.185  1.00  0.00     0.181 C 
BRANCH  25  26
ATOM     26  C   UNL A   1      29.284  33.182  23.644  1.00  0.00     0.068 C 
ATOM     27  N   UNL A   1      29.476  34.345  23.196  1.00  0.00    -0.198 NA
ENDBRANCH  25  26
ENDBRANCH  24  25
ENDBRANCH  18  24
ENDBRANCH   8  17
BRANCH  16  28
ATOM     28  N   UNL A   1      34.270  23.871  25.338  1.00  0.00    -0.280 N 
ATOM     29  H   UNL A   1      34.036  24.691  25.831  1.00  0.00     0.180 HD
BRANCH  28  30
ATOM     30  S   UNL A   1      34.976  22.522  26.205  1.00  0.00     0.263 S 
ATOM     31  O   UNL A   1      36.374  22.721  26.081  1.00  0.00    -0.201 OA
ATOM     32  O   UNL A   1      34.369  22.584  27.540  1.00  0.00    -0.201 OA
BRANCH  30  33
ATOM     33  C   UNL A   1      34.560  20.832  25.495  1.00  0.00     0.106 A 
ATOM     34  C   UNL A   1      33.330  20.210  25.755  1.00  0.00     0.024 A 
ATOM     35  C   UNL A   1      35.482  19.930  24.978  1.00  0.00     0.061 A 
ATOM     36  C   UNL A   1      32.873  18.952  25.308  1.00  0.00     0.002 A 
ATOM     37  C   UNL A   1      35.079  18.608  24.576  1.00  0.00     0.022 A 
ATOM     38  Cl  UNL A   1      37.167  20.235  24.863  1.00  0.00    -0.083 Cl
ATOM     39  C   UNL A   1      33.768  18.138  24.679  1.00  0.00     0.002 A 
ENDBRANCH  30  33
ENDBRANCH  28  30
ENDBRANCH  16  28
ENDBRANCH   4   7
ENDBRANCH   2   3
ENDBRANCH   1   2
BRANCH   1  40
ATOM     40  C   UNL A   1      33.879  31.138  27.786  1.00  0.00     0.002 C 
BRANCH  40  41
ATOM     41  C   UNL A   1      34.151  32.685  27.979  1.00  0.00     0.002 C 
BRANCH  41  42
ATOM     42  C   UNL A   1      33.075  33.756  28.213  1.00  0.00     0.021 C 
BRANCH  42  43
ATOM     43  C   UNL A   1      33.621  35.073  28.706  1.00  0.00     0.116 C 
BRANCH  43  44
ATOM     44  N   UNL A   1      32.873  35.538  29.870  1.00  0.00    -0.352 N 
ATOM     45  C   UNL A   1      33.043  35.147  31.178  1.00  0.00     0.251 C 
ATOM     46  H   UNL A   1      32.168  36.204  29.700  1.00  0.00     0.163 HD
ATOM     47  O   UNL A   1      32.184  35.361  32.024  1.00  0.00    -0.269 OA
BRANCH  45  48
ATOM     48  C   UNL A   1      34.298  34.456  31.539  1.00  0.00     0.039 A 
ATOM     49  C   UNL A   1      35.531  35.065  31.301  1.00  0.00     0.014 A 
ATOM     50  C   UNL A   1      34.231  33.204  32.156  1.00  0.00     0.014 A 
ATOM     51  C   UNL A   1      36.700  34.415  31.702  1.00  0.00     0.010 A 
ATOM     52  C   UNL A   1      35.379  32.625  32.668  1.00  0.00     0.010 A 
ATOM     53  C   UNL A   1      36.628  33.195  32.394  1.00  0.00    -0.014 A 
BRANCH  53  54
ATOM     54  C   UNL A   1      37.845  32.425  32.744  1.00  0.00     0.031 A 
ATOM     55  C   UNL A   1      38.543  32.721  34.047  1.00  0.00     0.074 A 
ATOM     56  C   UNL A   1      38.342  31.516  31.886  1.00  0.00     0.049 A 
ATOM     57  N   UNL A   1      39.655  32.225  34.524  1.00  0.00    -0.248 NA
ATOM     58  C   UNL A   1      37.933  33.748  34.909  1.00  0.00     0.031 C 
ATOM     59  C   UNL A   1      37.784  31.195  30.572  1.00  0.00     0.029 A 
ATOM     60  N   UNL A   1      39.435  30.695  31.994  1.00  0.00    -0.354 N 
ATOM     61  C   UNL A   1      39.883  32.900  35.717  1.00  0.00     0.074 A 
ATOM     62  C   UNL A   1      38.848  33.895  35.854  1.00  0.00     0.031 C 
ATOM     63  C   UNL A   1      38.517  30.219  30.011  1.00  0.00     0.029 A 
ATOM     64  C   UNL A   1      39.614  29.872  30.910  1.00  0.00     0.049 A 
ATOM     65  H   UNL A   1      40.035  30.697  32.774  1.00  0.00     0.167 HD
ATOM     66  C   UNL A   1      40.846  32.679  36.642  1.00  0.00     0.037 A 
ATOM     67  C   UNL A   1      40.559  28.941  30.677  1.00  0.00     0.037 A 
ATOM     68  C   UNL A   1      41.838  31.647  36.522  1.00  0.00     0.049 A 
ATOM     69  C   UNL A   1      41.606  28.697  31.731  1.00  0.00     0.074 A 
ATOM     70  C   UNL A   1      42.818  31.281  37.426  1.00  0.00     0.029 A 
ATOM     71  N   UNL A   1      41.967  30.809  35.423  1.00  0.00    -0.354 N 
ATOM     72  N   UNL A   1      41.768  29.287  32.892  1.00  0.00    -0.248 NA
ATOM     73  C   UNL A   1      42.597  27.650  31.448  1.00  0.00     0.031 C 
ATOM     74  C   UNL A   1      43.572  30.253  36.853  1.00  0.00     0.029 A 
ATOM     75  C   UNL A   1      43.026  29.939  35.617  1.00  0.00     0.049 A 
ATOM     76  H   UNL A   1      41.392  30.830  34.625  1.00  0.00     0.167 HD
ATOM     77  C   UNL A   1      42.858  28.667  33.488  1.00  0.00     0.074 A 
ATOM     78  C   UNL A   1      43.305  27.641  32.568  1.00  0.00     0.031 C 
ATOM     79  C   UNL A   1      43.441  28.921  34.687  1.00  0.00     0.037 A 
BRANCH  66  80
ATOM     80  C   UNL A   1      40.858  33.557  37.860  1.00  0.00     0.064 A 
ATOM     81  C   UNL A   1      41.757  34.628  37.993  1.00  0.00     0.173 A 
ATOM     82  C   UNL A   1      39.947  33.337  38.904  1.00  0.00     0.173 A 
ATOM     83  F   UNL A   1      42.661  34.874  37.031  1.00  0.00    -0.203 F 
ATOM     84  C   UNL A   1      41.768  35.421  39.137  1.00  0.00     0.198 A 
ATOM     85  C   UNL A   1      39.936  34.155  40.032  1.00  0.00     0.198 A 
ATOM     86  F   UNL A   1      39.065  32.329  38.832  1.00  0.00    -0.203 F 
ATOM     87  F   UNL A   1      42.676  36.398  39.265  1.00  0.00    -0.200 F 
ATOM     88  C   UNL A   1      40.852  35.189  40.152  1.00  0.00     0.200 A 
ATOM     89  F   UNL A   1      39.042  33.937  41.007  1.00  0.00    -0.200 F 
ATOM     90  F   UNL A   1      40.857  35.957  41.250  1.00  0.00    -0.200 F 
ENDBRANCH  66  80
BRANCH  67  91
ATOM     91  C   UNL A   1      40.533  28.150  29.419  1.00  0.00     0.064 A 
ATOM     92  C   UNL A   1      41.308  28.528  28.313  1.00  0.00     0.173 A 
ATOM     93  C   UNL A   1      39.733  27.006  29.291  1.00  0.00     0.173 A 
ATOM     94  F   UNL A   1      42.077  29.626  28.379  1.00  0.00    -0.203 F 
ATOM     95  C   UNL A   1      41.264  27.809  27.121  1.00  0.00     0.198 A 
ATOM     96  C   UNL A   1      39.712  26.269  28.108  1.00  0.00     0.198 A 
ATOM     97  F   UNL A   1      38.976  26.596  30.318  1.00  0.00    -0.203 F 
ATOM     98  F   UNL A   1      41.976  28.223  26.063  1.00  0.00    -0.200 F 
ATOM     99  C   UNL A   1      40.471  26.676  27.020  1.00  0.00     0.200 A 
ATOM    100  F   UNL A   1      38.956  25.166  28.020  1.00  0.00    -0.200 F 
ATOM    101  F   UNL A   1      40.429  25.984  25.874  1.00  0.00    -0.200 F 
ENDBRANCH  67  91
BRANCH  79 102
ATOM    102  C   UNL A   1      44.600  28.055  35.084  1.00  0.00     0.064 A 
ATOM    103  C   UNL A   1      45.923  28.424  34.804  1.00  0.00     0.173 A 
ATOM    104  C   UNL A   1      44.383  26.868  35.800  1.00  0.00     0.173 A 
ATOM    105  F   UNL A   1      46.181  29.544  34.111  1.00  0.00    -0.203 F 
ATOM    106  C   UNL A   1      46.987  27.619  35.201  1.00  0.00     0.198 A 
ATOM    107  C   UNL A   1      45.451  26.086  36.227  1.00  0.00     0.198 A 
ATOM    108  F   UNL A   1      43.136  26.479  36.104  1.00  0.00    -0.203 F 
ATOM    109  F   UNL A   1      48.242  27.964  34.879  1.00  0.00    -0.200 F 
ATOM    110  C   UNL A   1      46.751  26.456  35.919  1.00  0.00     0.200 A 
ATOM    111  F   UNL A   1      45.221  24.972  36.937  1.00  0.00    -0.200 F 
ATOM    112  F   UNL A   1      47.777  25.690  36.311  1.00  0.00    -0.200 F 
ENDBRANCH  79 102
ENDBRANCH  53  54
ENDBRANCH  45  48
ENDBRANCH  43  44
ENDBRANCH  42  43
ENDBRANCH  41  42
ENDBRANCH  40  41
ENDBRANCH   1  40
TORSDOF 20
ENDMDL
MODEL 2
REMARK VINA RESULT:     -11.7      6.192     10.731
REMARK SMILES N#CCC[NH+]1CCN(c2cc(C(=O)NCCCCCCNC(=O)c3ccc(-c4c5nc(c(-c6c(F)c(F)c(F)c(F)c6F)c6ccc([nH]6)c(-c6c(F)c(F)c(F)c(F)c6F)c6nc(c(-c7c(F)c(F)c(F)c(F)c7F)c7ccc4[nH]7)C=C6)C=C5)cc3)c3cc(NS(=O)(=O)c4ccccc4Cl)ccc3n2)CC1
REMARK SMILES IDX 16 1 15 2 14 3 12 4 13 5 11 7 9 8 10 9 104 10 103 11 87 12
REMARK SMILES IDX 102 13 88 14 101 15 89 16 8 17 5 18 6 19 106 20 7 22 105 23
REMARK SMILES IDX 4 24 3 25 2 26 1 27 90 28 91 30 92 31 93 32 94 33 95 34
REMARK SMILES IDX 99 35 96 36 98 37 100 38 97 39 17 40 18 41 19 42 20 43 21 44
REMARK SMILES IDX 22 45 23 47 24 48 25 49 86 50 26 51 85 52 27 53 28 54 29 55
REMARK SMILES IDX 79 56 30 57 84 58 78 59 80 60 31 61 83 62 77 63 76 64 32 66
REMARK SMILES IDX 64 67 44 68 63 69 45 70 48 71 62 72 81 73 46 74 47 75 61 77
REMARK SMILES IDX 82 78 49 79 33 80 34 81 42 82 35 83 36 84 40 85 43 86 37 87
REMARK SMILES IDX 38 88 41 89 39 90 65 91 66 92 74 93 67 94 68 95 72 96 75 97
REMARK SMILES IDX 69 98 70 99 73 100 71 101 50 102 51 103 59 104 52 105 53 106
REMARK SMILES IDX 57 107 60 108 54 109 55 110 58 111 56 112
REMARK H PARENT 14 6 5 21 90 29 21 46 80 65 48 76
REMARK Flexibility Score: inf
ROOT
ATOM      1  C   UNL A   1      38.146  31.578  35.188  1.00  0.00     0.021 C 
ENDROOT
BRANCH   1   2
ATOM      2  C   UNL A   1      38.703  30.313  34.441  1.00  0.00     0.116 C 
BRANCH   2   3
ATOM      3  N   UNL A   1      37.765  29.415  33.812  1.00  0.00    -0.352 N 
ATOM      4  C   UNL A   1      38.124  28.636  32.729  1.00  0.00     0.252 C 
ATOM      5  O   UNL A   1      38.171  27.418  32.907  1.00  0.00    -0.269 OA
ATOM      6  H   UNL A   1      36.848  29.356  34.163  1.00  0.00     0.163 HD
BRANCH   4   7
ATOM      7  C   UNL A   1      38.361  29.200  31.364  1.00  0.00     0.052 A 
ATOM      8  C   UNL A   1      39.845  29.103  29.479  1.00  0.00     0.130 A 
ATOM      9  C   UNL A   1      39.586  28.848  30.817  1.00  0.00     0.061 A 
ATOM     10  N   UNL A   1      39.107  29.991  28.786  1.00  0.00    -0.231 NA
ATOM     11  C   UNL A   1      38.026  30.536  29.387  1.00  0.00     0.074 A 
ATOM     12  C   UNL A   1      37.548  30.061  30.611  1.00  0.00     0.015 A 
ATOM     13  C   UNL A   1      37.323  31.605  28.831  1.00  0.00     0.031 A 
ATOM     14  C   UNL A   1      36.316  30.562  31.020  1.00  0.00     0.038 A 
ATOM     15  C   UNL A   1      36.406  32.339  29.623  1.00  0.00     0.029 A 
ATOM     16  C   UNL A   1      36.083  31.914  30.913  1.00  0.00     0.050 A 
BRANCH   8  17
ATOM     17  N   UNL A   1      40.737  28.269  28.805  1.00  0.00    -0.345 N 
ATOM     18  N   UNL A   1      41.684  25.756  27.634  1.00  0.00    -0.331 N 
ATOM     19  C   UNL A   1      41.035  26.749  26.774  1.00  0.00     0.284 C 
ATOM     20  C   UNL A   1      42.387  26.421  28.736  1.00  0.00     0.284 C 
ATOM     21  H   UNL A   1      42.400  25.307  27.062  1.00  0.00     0.348 HD
ATOM     22  C   UNL A   1      40.274  27.902  27.455  1.00  0.00     0.179 C 
ATOM     23  C   UNL A   1      41.523  27.347  29.614  1.00  0.00     0.179 C 
BRANCH  18  24
ATOM     24  C   UNL A   1      40.942  24.530  27.943  1.00  0.00     0.277 C 
BRANCH  24  25
ATOM     25  C   UNL A   1      40.532  23.500  26.873  1.00  0.00     0.181 C 
BRANCH  25  26
ATOM     26  C   UNL A   1      40.652  22.078  27.394  1.00  0.00     0.068 C 
ATOM     27  N   UNL A   1      40.751  20.897  27.827  1.00  0.00    -0.198 NA
ENDBRANCH  25  26
ENDBRANCH  24  25
ENDBRANCH  18  24
ENDBRANCH   8  17
BRANCH  16  28
ATOM     28  N   UNL A   1      36.683  32.749  32.046  1.00  0.00    -0.280 N 
ATOM     29  H   UNL A   1      37.637  32.644  32.268  1.00  0.00     0.180 HD
BRANCH  28  30
ATOM     30  S   UNL A   1      35.713  33.886  32.960  1.00  0.00     0.263 S 
ATOM     31  O   UNL A   1      35.031  33.082  33.907  1.00  0.00    -0.201 OA
ATOM     32  O   UNL A   1      36.673  34.886  33.442  1.00  0.00    -0.201 OA
BRANCH  30  33
ATOM     33  C   UNL A   1      34.427  34.809  31.944  1.00  0.00     0.106 A 
ATOM     34  C   UNL A   1      34.301  34.605  30.563  1.00  0.00     0.024 A 
ATOM     35  C   UNL A   1      33.761  35.959  32.348  1.00  0.00     0.061 A 
ATOM     36  C   UNL A   1      33.401  35.219  29.665  1.00  0.00     0.002 A 
ATOM     37  C   UNL A   1      32.888  36.665  31.446  1.00  0.00     0.022 A 
ATOM     38  Cl  UNL A   1      33.974  36.710  33.877  1.00  0.00    -0.083 Cl
ATOM     39  C   UNL A   1      32.657  36.264  30.129  1.00  0.00     0.002 A 
ENDBRANCH  30  33
ENDBRANCH  28  30
ENDBRANCH  16  28
ENDBRANCH   4   7
ENDBRANCH   2   3
ENDBRANCH   1   2
BRANCH   1  40
ATOM     40  C   UNL A   1      38.112  31.887  36.749  1.00  0.00     0.002 C 
BRANCH  40  41
ATOM     41  C   UNL A   1      37.502  33.037  37.648  1.00  0.00     0.002 C 
BRANCH  41  42
ATOM     42  C   UNL A   1      37.810  33.263  39.136  1.00  0.00     0.021 C 
BRANCH  42  43
ATOM     43  C   UNL A   1      39.150  33.907  39.392  1.00  0.00     0.116 C 
BRANCH  43  44
ATOM     44  N   UNL A   1      39.089  35.343  39.136  1.00  0.00    -0.352 N 
ATOM     45  C   UNL A   1      39.785  36.046  38.181  1.00  0.00     0.251 C 
ATOM     46  H   UNL A   1      38.483  35.865  39.710  1.00  0.00     0.163 HD
ATOM     47  O   UNL A   1      39.894  37.265  38.240  1.00  0.00    -0.269 OA
BRANCH  45  48
ATOM     48  C   UNL A   1      40.404  35.289  37.073  1.00  0.00     0.039 A 
ATOM     49  C   UNL A   1      39.713  35.101  35.876  1.00  0.00     0.014 A 
ATOM     50  C   UNL A   1      41.704  34.799  37.229  1.00  0.00     0.014 A 
ATOM     51  C   UNL A   1      40.342  34.430  34.826  1.00  0.00     0.010 A 
ATOM     52  C   UNL A   1      42.369  34.253  36.145  1.00  0.00     0.010 A 
ATOM     53  C   UNL A   1      41.676  34.010  34.953  1.00  0.00    -0.014 A 
BRANCH  53  54
ATOM     54  C   UNL A   1      42.343  33.205  33.903  1.00  0.00     0.031 A 
ATOM     55  C   UNL A   1      42.729  33.875  32.609  1.00  0.00     0.074 A 
ATOM     56  C   UNL A   1      42.552  31.889  34.086  1.00  0.00     0.049 A 
ATOM     57  N   UNL A   1      43.255  33.356  31.530  1.00  0.00    -0.248 NA
ATOM     58  C   UNL A   1      42.440  35.316  32.495  1.00  0.00     0.031 C 
ATOM     59  C   UNL A   1      42.163  31.126  35.273  1.00  0.00     0.029 A 
ATOM     60  N   UNL A   1      43.144  30.959  33.271  1.00  0.00    -0.354 N 
ATOM     61  C   UNL A   1      43.329  34.398  30.612  1.00  0.00     0.074 A 
ATOM     62  C   UNL A   1      42.721  35.554  31.225  1.00  0.00     0.031 C 
ATOM     63  C   UNL A   1      42.560  29.851  35.124  1.00  0.00     0.029 A 
ATOM     64  C   UNL A   1      43.199  29.702  33.820  1.00  0.00     0.049 A 
ATOM     65  H   UNL A   1      43.495  31.173  32.377  1.00  0.00     0.167 HD
ATOM     66  C   UNL A   1      43.895  34.403  29.383  1.00  0.00     0.037 A 
ATOM     67  C   UNL A   1      43.712  28.562  33.319  1.00  0.00     0.037 A 
ATOM     68  C   UNL A   1      44.548  33.260  28.808  1.00  0.00     0.049 A 
ATOM     69  C   UNL A   1      44.358  28.597  31.959  1.00  0.00     0.074 A 
ATOM     70  C   UNL A   1      45.221  33.164  27.604  1.00  0.00     0.029 A 
ATOM     71  N   UNL A   1      44.614  32.010  29.408  1.00  0.00    -0.354 N 
ATOM     72  N   UNL A   1      44.493  29.606  31.131  1.00  0.00    -0.248 NA
ATOM     73  C   UNL A   1      44.934  27.338  31.468  1.00  0.00     0.031 C 
ATOM     74  C   UNL A   1      45.651  31.843  27.452  1.00  0.00     0.029 A 
ATOM     75  C   UNL A   1      45.298  31.130  28.588  1.00  0.00     0.049 A 
ATOM     76  H   UNL A   1      44.230  31.783  30.286  1.00  0.00     0.167 HD
ATOM     77  C   UNL A   1      45.190  29.112  30.037  1.00  0.00     0.074 A 
ATOM     78  C   UNL A   1      45.467  27.717  30.316  1.00  0.00     0.031 C 
ATOM     79  C   UNL A   1      45.567  29.749  28.899  1.00  0.00     0.037 A 
BRANCH  66  80
ATOM     80  C   UNL A   1      43.844  35.680  28.597  1.00  0.00     0.064 A 
ATOM     81  C   UNL A   1      42.689  36.079  27.905  1.00  0.00     0.173 A 
ATOM     82  C   UNL A   1      44.961  36.528  28.546  1.00  0.00     0.173 A 
ATOM     83  F   UNL A   1      41.598  35.298  27.907  1.00  0.00    -0.203 F 
ATOM     84  C   UNL A   1      42.664  37.258  27.165  1.00  0.00     0.198 A 
ATOM     85  C   UNL A   1      44.921  37.726  27.833  1.00  0.00     0.198 A 
ATOM     86  F   UNL A   1      46.092  36.199  29.187  1.00  0.00    -0.203 F 
ATOM     87  F   UNL A   1      41.570  37.585  26.465  1.00  0.00    -0.200 F 
ATOM     88  C   UNL A   1      43.778  38.084  27.136  1.00  0.00     0.200 A 
ATOM     89  F   UNL A   1      45.994  38.529  27.817  1.00  0.00    -0.200 F 
ATOM     90  F   UNL A   1      43.751  39.222  26.430  1.00  0.00    -0.200 F 
ENDBRANCH  66  80
BRANCH  67  91
ATOM     91  C   UNL A   1      43.671  27.310  34.120  1.00  0.00     0.064 A 
ATOM     92  C   UNL A   1      44.831  26.793  34.713  1.00  0.00     0.173 A 
ATOM     93  C   UNL A   1      42.475  26.600  34.305  1.00  0.00     0.173 A 
ATOM     94  F   UNL A   1      46.004  27.425  34.550  1.00  0.00    -0.203 F 
ATOM     95  C   UNL A   1      44.804  25.604  35.438  1.00  0.00     0.198 A 
ATOM     96  C   UNL A   1      42.442  25.427  35.056  1.00  0.00     0.198 A 
ATOM     97  F   UNL A   1      41.335  27.052  33.765  1.00  0.00    -0.203 F 
ATOM     98  F   UNL A   1      45.939  25.107  35.949  1.00  0.00    -0.200 F 
ATOM     99  C   UNL A   1      43.609  24.924  35.614  1.00  0.00     0.200 A 
ATOM    100  F   UNL A   1      41.282  24.781  35.237  1.00  0.00    -0.200 F 
ATOM    101  F   UNL A   1      43.582  23.781  36.312  1.00  0.00    -0.200 F 
ENDBRANCH  67  91
BRANCH  79 102
ATOM    102  C   UNL A   1      46.347  28.956  27.893  1.00  0.00     0.064 A 
ATOM    103  C   UNL A   1      45.717  28.302  26.824  1.00  0.00     0.173 A 
ATOM    104  C   UNL A   1      47.747  28.894  27.973  1.00  0.00     0.173 A 
ATOM    105  F   UNL A   1      44.380  28.323  26.712  1.00  0.00    -0.203 F 
ATOM    106  C   UNL A   1      46.460  27.590  25.887  1.00  0.00     0.198 A 
ATOM    107  C   UNL A   1      48.488  28.211  27.013  1.00  0.00     0.198 A 
ATOM    108  F   UNL A   1      48.396  29.513  28.970  1.00  0.00    -0.203 F 
ATOM    109  F   UNL A   1      45.835  26.931  24.902  1.00  0.00    -0.200 F 
ATOM    110  C   UNL A   1      47.844  27.552  25.977  1.00  0.00     0.200 A 
ATOM    111  F   UNL A   1      49.825  28.191  27.092  1.00  0.00    -0.200 F 
ATOM    112  F   UNL A   1      48.557  26.876  25.067  1.00  0.00    -0.200 F 
ENDBRANCH  79 102
ENDBRANCH  53  54
ENDBRANCH  45  48
ENDBRANCH  43  44
ENDBRANCH  42  43
ENDBRANCH  41  42
ENDBRANCH  40  41
ENDBRANCH   1  40
TORSDOF 20
ENDMDL
MODEL 3
REMARK VINA RESULT:     -11.7      6.022     10.585
REMARK SMILES N#CCC[NH+]1CCN(c2cc(C(=O)NCCCCCCNC(=O)c3ccc(-c4c5nc(c(-c6c(F)c(F)c(F)c(F)c6F)c6ccc([nH]6)c(-c6c(F)c(F)c(F)c(F)c6F)c6nc(c(-c7c(F)c(F)c(F)c(F)c7F)c7ccc4[nH]7)C=C6)C=C5)cc3)c3cc(NS(=O)(=O)c4ccccc4Cl)ccc3n2)CC1
REMARK SMILES IDX 16 1 15 2 14 3 12 4 13 5 11 7 9 8 10 9 104 10 103 11 87 12
REMARK SMILES IDX 102 13 88 14 101 15 89 16 8 17 5 18 6 19 106 20 7 22 105 23
REMARK SMILES IDX 4 24 3 25 2 26 1 27 90 28 91 30 92 31 93 32 94 33 95 34
REMARK SMILES IDX 99 35 96 36 98 37 100 38 97 39 17 40 18 41 19 42 20 43 21 44
REMARK SMILES IDX 22 45 23 47 24 48 25 49 86 50 26 51 85 52 27 53 28 54 29 55
REMARK SMILES IDX 79 56 30 57 84 58 78 59 80 60 31 61 83 62 77 63 76 64 32 66
REMARK SMILES IDX 64 67 44 68 63 69 45 70 48 71 62 72 81 73 46 74 47 75 61 77
REMARK SMILES IDX 82 78 49 79 33 80 34 81 42 82 35 83 36 84 40 85 43 86 37 87
REMARK SMILES IDX 38 88 41 89 39 90 65 91 66 92 74 93 67 94 68 95 72 96 75 97
REMARK SMILES IDX 69 98 70 99 73 100 71 101 50 102 51 103 59 104 52 105 53 106
REMARK SMILES IDX 57 107 60 108 54 109 55 110 58 111 56 112
REMARK H PARENT 14 6 5 21 90 29 21 46 80 65 48 76
REMARK Flexibility Score: inf
ROOT
ATOM      1  C   UNL A   1      38.559  31.681  34.628  1.00  0.00     0.021 C 
ENDROOT
BRANCH   1   2
ATOM      2  C   UNL A   1      39.015  30.343  33.943  1.00  0.00     0.116 C 
BRANCH   2   3
ATOM      3  N   UNL A   1      38.003  29.418  33.493  1.00  0.00    -0.352 N 
ATOM      4  C   UNL A   1      38.253  28.502  32.491  1.00  0.00     0.252 C 
ATOM      5  O   UNL A   1      38.271  27.313  32.811  1.00  0.00    -0.269 OA
ATOM      6  H   UNL A   1      37.112  29.442  33.911  1.00  0.00     0.163 HD
BRANCH   4   7
ATOM      7  C   UNL A   1      38.410  28.889  31.054  1.00  0.00     0.052 A 
ATOM      8  C   UNL A   1      39.792  28.564  29.119  1.00  0.00     0.130 A 
ATOM      9  C   UNL A   1      39.609  28.479  30.490  1.00  0.00     0.061 A 
ATOM     10  N   UNL A   1      39.006  29.351  28.360  1.00  0.00    -0.231 NA
ATOM     11  C   UNL A   1      37.951  29.960  28.945  1.00  0.00     0.074 A 
ATOM     12  C   UNL A   1      37.545  29.641  30.243  1.00  0.00     0.015 A 
ATOM     13  C   UNL A   1      37.204  30.944  28.297  1.00  0.00     0.031 A 
ATOM     14  C   UNL A   1      36.330  30.181  30.652  1.00  0.00     0.038 A 
ATOM     15  C   UNL A   1      36.320  31.766  29.039  1.00  0.00     0.029 A 
ATOM     16  C   UNL A   1      36.073  31.507  30.387  1.00  0.00     0.050 A 
BRANCH   8  17
ATOM     17  N   UNL A   1      40.659  27.657  28.508  1.00  0.00    -0.345 N 
ATOM     18  N   UNL A   1      41.507  25.052  27.472  1.00  0.00    -0.331 N 
ATOM     19  C   UNL A   1      40.937  26.039  26.551  1.00  0.00     0.284 C 
ATOM     20  C   UNL A   1      42.212  25.726  28.568  1.00  0.00     0.284 C 
ATOM     21  H   UNL A   1      42.215  24.543  26.942  1.00  0.00     0.348 HD
ATOM     22  C   UNL A   1      40.217  27.257  27.160  1.00  0.00     0.179 C 
ATOM     23  C   UNL A   1      41.372  26.732  29.379  1.00  0.00     0.179 C 
BRANCH  18  24
ATOM     24  C   UNL A   1      40.693  23.879  27.807  1.00  0.00     0.277 C 
BRANCH  24  25
ATOM     25  C   UNL A   1      40.618  22.623  26.919  1.00  0.00     0.181 C 
BRANCH  25  26
ATOM     26  C   UNL A   1      41.829  22.513  26.008  1.00  0.00     0.068 C 
ATOM     27  N   UNL A   1      42.835  22.421  25.252  1.00  0.00    -0.198 NA
ENDBRANCH  25  26
ENDBRANCH  24  25
ENDBRANCH  18  24
ENDBRANCH   8  17
BRANCH  16  28
ATOM     28  N   UNL A   1      36.720  32.483  31.372  1.00  0.00    -0.280 N 
ATOM     29  H   UNL A   1      37.702  32.511  31.447  1.00  0.00     0.180 HD
BRANCH  28  30
ATOM     30  S   UNL A   1      35.756  33.553  32.369  1.00  0.00     0.263 S 
ATOM     31  O   UNL A   1      35.050  32.682  33.235  1.00  0.00    -0.201 OA
ATOM     32  O   UNL A   1      36.725  34.492  32.948  1.00  0.00    -0.201 OA
BRANCH  30  33
ATOM     33  C   UNL A   1      34.498  34.582  31.423  1.00  0.00     0.106 A 
ATOM     34  C   UNL A   1      34.351  34.464  30.033  1.00  0.00     0.024 A 
ATOM     35  C   UNL A   1      33.881  35.732  31.900  1.00  0.00     0.061 A 
ATOM     36  C   UNL A   1      33.468  35.163  29.183  1.00  0.00     0.002 A 
ATOM     37  C   UNL A   1      33.028  36.521  31.049  1.00  0.00     0.022 A 
ATOM     38  Cl  UNL A   1      34.137  36.385  33.466  1.00  0.00    -0.083 Cl
ATOM     39  C   UNL A   1      32.769  36.207  29.714  1.00  0.00     0.002 A 
ENDBRANCH  30  33
ENDBRANCH  28  30
ENDBRANCH  16  28
ENDBRANCH   4   7
ENDBRANCH   2   3
ENDBRANCH   1   2
BRANCH   1  40
ATOM     40  C   UNL A   1      38.265  31.971  36.165  1.00  0.00     0.002 C 
BRANCH  40  41
ATOM     41  C   UNL A   1      37.412  33.043  36.957  1.00  0.00     0.002 C 
BRANCH  41  42
ATOM     42  C   UNL A   1      37.450  33.266  38.477  1.00  0.00     0.021 C 
BRANCH  42  43
ATOM     43  C   UNL A   1      38.786  33.742  38.991  1.00  0.00     0.116 C 
BRANCH  43  44
ATOM     44  N   UNL A   1      38.872  35.198  38.933  1.00  0.00    -0.352 N 
ATOM     45  C   UNL A   1      39.704  35.949  38.137  1.00  0.00     0.251 C 
ATOM     46  H   UNL A   1      38.269  35.696  39.530  1.00  0.00     0.163 HD
ATOM     47  O   UNL A   1      39.913  37.133  38.372  1.00  0.00    -0.269 OA
BRANCH  45  48
ATOM     48  C   UNL A   1      40.344  35.288  36.981  1.00  0.00     0.039 A 
ATOM     49  C   UNL A   1      39.778  35.388  35.710  1.00  0.00     0.014 A 
ATOM     50  C   UNL A   1      41.543  34.596  37.173  1.00  0.00     0.014 A 
ATOM     51  C   UNL A   1      40.433  34.801  34.625  1.00  0.00     0.010 A 
ATOM     52  C   UNL A   1      42.253  34.130  36.080  1.00  0.00     0.010 A 
ATOM     53  C   UNL A   1      41.678  34.176  34.805  1.00  0.00    -0.014 A 
BRANCH  53  54
ATOM     54  C   UNL A   1      42.352  33.452  33.702  1.00  0.00     0.031 A 
ATOM     55  C   UNL A   1      42.604  31.973  33.849  1.00  0.00     0.074 A 
ATOM     56  C   UNL A   1      42.775  34.118  32.612  1.00  0.00     0.049 A 
ATOM     57  N   UNL A   1      43.236  31.154  33.049  1.00  0.00    -0.248 NA
ATOM     58  C   UNL A   1      42.122  31.337  35.088  1.00  0.00     0.031 C 
ATOM     59  C   UNL A   1      42.640  35.559  32.394  1.00  0.00     0.029 A 
ATOM     60  N   UNL A   1      43.409  33.667  31.483  1.00  0.00    -0.354 N 
ATOM     61  C   UNL A   1      43.247  29.928  33.702  1.00  0.00     0.074 A 
ATOM     62  C   UNL A   1      42.637  30.123  34.995  1.00  0.00     0.031 C 
ATOM     63  C   UNL A   1      43.142  35.867  31.186  1.00  0.00     0.029 A 
ATOM     64  C   UNL A   1      43.663  34.654  30.564  1.00  0.00     0.049 A 
ATOM     65  H   UNL A   1      43.658  32.724  31.347  1.00  0.00     0.167 HD
ATOM     66  C   UNL A   1      43.686  28.732  33.246  1.00  0.00     0.037 A 
ATOM     67  C   UNL A   1      44.250  34.577  29.354  1.00  0.00     0.037 A 
ATOM     68  C   UNL A   1      44.239  28.539  31.934  1.00  0.00     0.049 A 
ATOM     69  C   UNL A   1      44.709  33.232  28.858  1.00  0.00     0.074 A 
ATOM     70  C   UNL A   1      44.650  27.363  31.334  1.00  0.00     0.029 A 
ATOM     71  N   UNL A   1      44.451  29.558  31.015  1.00  0.00    -0.354 N 
ATOM     72  N   UNL A   1      44.645  32.063  29.450  1.00  0.00    -0.248 NA
ATOM     73  C   UNL A   1      45.313  33.192  27.519  1.00  0.00     0.031 C 
ATOM     74  C   UNL A   1      45.157  27.678  30.069  1.00  0.00     0.029 A 
ATOM     75  C   UNL A   1      45.008  29.040  29.859  1.00  0.00     0.049 A 
ATOM     76  H   UNL A   1      44.237  30.507  31.165  1.00  0.00     0.167 HD
ATOM     77  C   UNL A   1      45.173  31.147  28.550  1.00  0.00     0.074 A 
ATOM     78  C   UNL A   1      45.535  31.895  27.363  1.00  0.00     0.031 C 
ATOM     79  C   UNL A   1      45.347  29.809  28.689  1.00  0.00     0.037 A 
BRANCH  66  80
ATOM     80  C   UNL A   1      43.569  27.549  34.164  1.00  0.00     0.064 A 
ATOM     81  C   UNL A   1      44.671  27.057  34.882  1.00  0.00     0.173 A 
ATOM     82  C   UNL A   1      42.335  26.907  34.341  1.00  0.00     0.173 A 
ATOM     83  F   UNL A   1      45.879  27.624  34.737  1.00  0.00    -0.203 F 
ATOM     84  C   UNL A   1      44.550  25.948  35.715  1.00  0.00     0.198 A 
ATOM     85  C   UNL A   1      42.209  25.819  35.204  1.00  0.00     0.198 A 
ATOM     86  F   UNL A   1      41.248  27.333  33.682  1.00  0.00    -0.203 F 
ATOM     87  F   UNL A   1      45.630  25.462  36.342  1.00  0.00    -0.200 F 
ATOM     88  C   UNL A   1      43.317  25.335  35.881  1.00  0.00     0.200 A 
ATOM     89  F   UNL A   1      41.014  25.236  35.373  1.00  0.00    -0.200 F 
ATOM     90  F   UNL A   1      43.200  24.272  36.689  1.00  0.00    -0.200 F 
ENDBRANCH  66  80
BRANCH  67  91
ATOM     91  C   UNL A   1      44.399  35.798  28.519  1.00  0.00     0.064 A 
ATOM     92  C   UNL A   1      43.322  36.301  27.776  1.00  0.00     0.173 A 
ATOM     93  C   UNL A   1      45.620  36.485  28.440  1.00  0.00     0.173 A 
ATOM     94  F   UNL A   1      42.138  35.670  27.803  1.00  0.00    -0.203 F 
ATOM     95  C   UNL A   1      43.465  37.426  26.967  1.00  0.00     0.198 A 
ATOM     96  C   UNL A   1      45.754  37.629  27.655  1.00  0.00     0.198 A 
ATOM     97  F   UNL A   1      46.681  36.052  29.135  1.00  0.00    -0.203 F 
ATOM     98  F   UNL A   1      42.432  37.853  26.227  1.00  0.00    -0.200 F 
ATOM     99  C   UNL A   1      44.679  38.093  26.911  1.00  0.00     0.200 A 
ATOM    100  F   UNL A   1      46.925  38.279  27.616  1.00  0.00    -0.200 F 
ATOM    101  F   UNL A   1      44.817  39.176  26.135  1.00  0.00    -0.200 F 
ENDBRANCH  67  91
BRANCH  79 102
ATOM    102  C   UNL A   1      45.921  29.066  27.519  1.00  0.00     0.064 A 
ATOM    103  C   UNL A   1      47.304  28.999  27.298  1.00  0.00     0.173 A 
ATOM    104  C   UNL A   1      45.077  28.370  26.640  1.00  0.00     0.173 A 
ATOM    105  F   UNL A   1      48.151  29.657  28.104  1.00  0.00    -0.203 F 
ATOM    106  C   UNL A   1      47.820  28.284  26.220  1.00  0.00     0.198 A 
ATOM    107  C   UNL A   1      45.599  27.628  25.586  1.00  0.00     0.198 A 
ATOM    108  F   UNL A   1      43.748  28.394  26.818  1.00  0.00    -0.203 F 
ATOM    109  F   UNL A   1      49.141  28.274  25.997  1.00  0.00    -0.200 F 
ATOM    110  C   UNL A   1      46.968  27.593  25.371  1.00  0.00     0.200 A 
ATOM    111  F   UNL A   1      44.776  26.946  24.777  1.00  0.00    -0.200 F 
ATOM    112  F   UNL A   1      47.468  26.897  24.341  1.00  0.00    -0.200 F 
ENDBRANCH  79 102
ENDBRANCH  53  54
ENDBRANCH  45  48
ENDBRANCH  43  44
ENDBRANCH  42  43
ENDBRANCH  41  42
ENDBRANCH  40  41
ENDBRANCH   1  40
TORSDOF 20
ENDMDL
