MODEL 1
REMARK VINA RESULT:     -12.2      0.000      0.000
REMARK SMILES C[C@](NC(=O)c1c(F)cccc1F)(C(=O)NCCCCCCNC(=O)c1ccc(-c2c3nc(c(-c4c(F)c(F)c(F)c(F)c4F)c4ccc([nH]4)c(-c4c(F)c(F)c(F)c(F)c4F)c4nc(c(-c5c(F)c(F)c(F)c(F)c5F)c5ccc2[nH]5)C=C4)C=C3)cc1)C(F)(F)F
REMARK SMILES IDX 19 1 18 2 17 3 16 4 14 5 15 6 2 8 1 9 89 10 90 11 91 12
REMARK SMILES IDX 92 13 3 14 4 15 5 17 6 18 7 19 12 20 8 21 9 22 11 23 13 24
REMARK SMILES IDX 10 25 20 26 21 27 22 28 23 29 24 30 25 32 26 33 27 34 88 35
REMARK SMILES IDX 28 36 87 37 29 38 30 39 31 40 81 41 32 42 86 43 80 44 82 45
REMARK SMILES IDX 33 46 85 47 79 48 78 49 34 51 66 52 46 53 65 54 47 55 50 56
REMARK SMILES IDX 64 57 83 58 48 59 49 60 63 62 84 63 51 64 35 65 36 66 44 67
REMARK SMILES IDX 37 68 38 69 42 70 45 71 39 72 40 73 43 74 41 75 67 76 68 77
REMARK SMILES IDX 76 78 69 79 70 80 74 81 77 82 71 83 72 84 75 85 73 86 52 87
REMARK SMILES IDX 53 88 61 89 54 90 55 91 59 92 62 93 56 94 57 95 60 96 58 97
REMARK H PARENT 16 7 3 16 23 31 82 50 50 61
REMARK Flexibility Score: inf
ROOT
ATOM      1  C   UNL A   1      32.433  29.911  27.060  1.00  0.00     0.002 C 
ENDROOT
BRANCH   1   2
ATOM      2  C   UNL A   1      32.910  28.590  26.449  1.00  0.00     0.021 C 
BRANCH   2   3
ATOM      3  C   UNL A   1      31.792  27.566  26.320  1.00  0.00     0.116 C 
BRANCH   3   4
ATOM      4  N   UNL A   1      31.323  27.464  24.954  1.00  0.00    -0.354 N 
ATOM      5  C   UNL A   1      31.581  26.524  23.992  1.00  0.00     0.254 C 
ATOM      6  O   UNL A   1      30.991  26.678  22.923  1.00  0.00    -0.272 OA
ATOM      7  H   UNL A   1      30.721  28.189  24.670  1.00  0.00     0.163 HD
BRANCH   5   8
ATOM      8  C   UNL A   1      32.429  25.271  24.313  1.00  0.00     0.212 C 
ATOM      9  C   UNL A   1      32.264  24.321  23.117  1.00  0.00     0.056 C 
BRANCH   8  10
ATOM     10  C   UNL A   1      33.904  25.729  24.366  1.00  0.00     0.420 C 
ATOM     11  F   UNL A   1      34.074  26.936  23.774  1.00  0.00    -0.168 F 
ATOM     12  F   UNL A   1      34.301  25.876  25.658  1.00  0.00    -0.168 F 
ATOM     13  F   UNL A   1      34.764  24.852  23.804  1.00  0.00    -0.168 F 
ENDBRANCH   8  10
BRANCH   8  14
ATOM     14  N   UNL A   1      32.013  24.763  25.677  1.00  0.00    -0.330 N 
ATOM     15  C   UNL A   1      32.285  23.700  26.494  1.00  0.00     0.258 C 
ATOM     16  H   UNL A   1      31.363  25.372  26.095  1.00  0.00     0.165 HD
ATOM     17  O   UNL A   1      31.800  23.679  27.622  1.00  0.00    -0.269 OA
BRANCH  15  18
ATOM     18  C   UNL A   1      33.029  22.529  26.042  1.00  0.00     0.111 A 
ATOM     19  C   UNL A   1      34.403  22.438  26.191  1.00  0.00     0.138 A 
ATOM     20  C   UNL A   1      32.333  21.463  25.472  1.00  0.00     0.138 A 
ATOM     21  F   UNL A   1      35.093  23.424  26.780  1.00  0.00    -0.206 F 
ATOM     22  C   UNL A   1      35.099  21.352  25.661  1.00  0.00     0.040 A 
ATOM     23  C   UNL A   1      33.012  20.365  24.953  1.00  0.00     0.040 A 
ATOM     24  F   UNL A   1      30.996  21.495  25.357  1.00  0.00    -0.206 F 
ATOM     25  C   UNL A   1      34.404  20.320  25.026  1.00  0.00     0.006 A 
ENDBRANCH  15  18
ENDBRANCH   8  14
ENDBRANCH   5   8
ENDBRANCH   3   4
ENDBRANCH   2   3
ENDBRANCH   1   2
BRANCH   1  26
ATOM     26  C   UNL A   1      31.617  30.789  26.105  1.00  0.00     0.002 C 
BRANCH  26  27
ATOM     27  C   UNL A   1      31.409  32.230  26.581  1.00  0.00     0.021 C 
BRANCH  27  28
ATOM     28  C   UNL A   1      32.613  32.822  27.302  1.00  0.00     0.116 C 
BRANCH  28  29
ATOM     29  N   UNL A   1      32.409  34.225  27.626  1.00  0.00    -0.352 N 
ATOM     30  C   UNL A   1      32.970  34.973  28.629  1.00  0.00     0.251 C 
ATOM     31  H   UNL A   1      31.778  34.706  27.042  1.00  0.00     0.163 HD
ATOM     32  O   UNL A   1      32.524  36.079  28.906  1.00  0.00    -0.269 OA
BRANCH  30  33
ATOM     33  C   UNL A   1      34.113  34.424  29.385  1.00  0.00     0.039 A 
ATOM     34  C   UNL A   1      33.883  33.837  30.630  1.00  0.00     0.014 A 
ATOM     35  C   UNL A   1      35.406  34.488  28.859  1.00  0.00     0.014 A 
ATOM     36  C   UNL A   1      34.948  33.266  31.327  1.00  0.00     0.010 A 
ATOM     37  C   UNL A   1      36.449  33.847  29.515  1.00  0.00     0.010 A 
ATOM     38  C   UNL A   1      36.232  33.240  30.759  1.00  0.00    -0.014 A 
BRANCH  38  39
ATOM     39  C   UNL A   1      37.369  32.591  31.456  1.00  0.00     0.031 A 
ATOM     40  C   UNL A   1      38.079  31.432  30.814  1.00  0.00     0.074 A 
ATOM     41  C   UNL A   1      37.719  33.003  32.688  1.00  0.00     0.049 A 
ATOM     42  N   UNL A   1      39.040  30.683  31.293  1.00  0.00    -0.248 NA
ATOM     43  C   UNL A   1      37.631  31.045  29.467  1.00  0.00     0.031 C 
ATOM     44  C   UNL A   1      37.079  34.091  33.427  1.00  0.00     0.029 A 
ATOM     45  N   UNL A   1      38.694  32.549  33.541  1.00  0.00    -0.354 N 
ATOM     46  C   UNL A   1      39.301  29.735  30.313  1.00  0.00     0.074 A 
ATOM     47  C   UNL A   1      38.357  29.961  29.240  1.00  0.00     0.031 C 
ATOM     48  C   UNL A   1      37.697  34.243  34.609  1.00  0.00     0.029 A 
ATOM     49  C   UNL A   1      38.746  33.233  34.731  1.00  0.00     0.049 A 
ATOM     50  H   UNL A   1      39.299  31.805  33.321  1.00  0.00     0.167 HD
ATOM     51  C   UNL A   1      40.261  28.780  30.298  1.00  0.00     0.037 A 
ATOM     52  C   UNL A   1      39.542  33.060  35.803  1.00  0.00     0.037 A 
ATOM     53  C   UNL A   1      41.210  28.577  31.360  1.00  0.00     0.049 A 
ATOM     54  C   UNL A   1      40.584  31.976  35.774  1.00  0.00     0.074 A 
ATOM     55  C   UNL A   1      42.255  27.672  31.418  1.00  0.00     0.029 A 
ATOM     56  N   UNL A   1      41.227  29.285  32.554  1.00  0.00    -0.354 N 
ATOM     57  N   UNL A   1      40.862  31.121  34.820  1.00  0.00    -0.248 NA
ATOM     58  C   UNL A   1      41.425  31.832  36.970  1.00  0.00     0.031 C 
ATOM     59  C   UNL A   1      42.868  27.793  32.669  1.00  0.00     0.029 A 
ATOM     60  C   UNL A   1      42.247  28.816  33.367  1.00  0.00     0.049 A 
ATOM     61  H   UNL A   1      40.606  30.013  32.788  1.00  0.00     0.167 HD
ATOM     62  C   UNL A   1      41.919  30.354  35.288  1.00  0.00     0.074 A 
ATOM     63  C   UNL A   1      42.246  30.856  36.607  1.00  0.00     0.031 C 
ATOM     64  C   UNL A   1      42.559  29.324  34.680  1.00  0.00     0.037 A 
BRANCH  51  65
ATOM     65  C   UNL A   1      40.340  27.890  29.091  1.00  0.00     0.064 A 
ATOM     66  C   UNL A   1      41.095  28.272  27.971  1.00  0.00     0.173 A 
ATOM     67  C   UNL A   1      39.630  26.682  29.020  1.00  0.00     0.173 A 
ATOM     68  F   UNL A   1      41.789  29.419  27.982  1.00  0.00    -0.203 F 
ATOM     69  C   UNL A   1      41.128  27.481  26.825  1.00  0.00     0.198 A 
ATOM     70  C   UNL A   1      39.694  25.876  27.886  1.00  0.00     0.198 A 
ATOM     71  F   UNL A   1      38.901  26.263  30.067  1.00  0.00    -0.203 F 
ATOM     72  F   UNL A   1      41.831  27.883  25.757  1.00  0.00    -0.200 F 
ATOM     73  C   UNL A   1      40.435  26.281  26.786  1.00  0.00     0.200 A 
ATOM     74  F   UNL A   1      39.046  24.703  27.861  1.00  0.00    -0.200 F 
ATOM     75  F   UNL A   1      40.484  25.513  25.689  1.00  0.00    -0.200 F 
ENDBRANCH  51  65
BRANCH  52  76
ATOM     76  C   UNL A   1      39.402  33.969  36.971  1.00  0.00     0.064 A 
ATOM     77  C   UNL A   1      40.043  35.216  37.010  1.00  0.00     0.173 A 
ATOM     78  C   UNL A   1      38.658  33.582  38.093  1.00  0.00     0.173 A 
ATOM     79  F   UNL A   1      40.773  35.630  35.965  1.00  0.00    -0.203 F 
ATOM     80  C   UNL A   1      39.966  36.028  38.140  1.00  0.00     0.198 A 
ATOM     81  C   UNL A   1      38.558  34.408  39.211  1.00  0.00     0.198 A 
ATOM     82  F   UNL A   1      38.011  32.406  38.094  1.00  0.00    -0.203 F 
ATOM     83  F   UNL A   1      40.626  37.194  38.169  1.00  0.00    -0.200 F 
ATOM     84  C   UNL A   1      39.222  35.625  39.238  1.00  0.00     0.200 A 
ATOM     85  F   UNL A   1      37.820  34.024  40.261  1.00  0.00    -0.200 F 
ATOM     86  F   UNL A   1      39.145  36.409  40.322  1.00  0.00    -0.200 F 
ENDBRANCH  52  76
BRANCH  64  87
ATOM     87  C   UNL A   1      43.690  28.671  35.422  1.00  0.00     0.064 A 
ATOM     88  C   UNL A   1      45.012  29.100  35.224  1.00  0.00     0.173 A 
ATOM     89  C   UNL A   1      43.476  27.571  36.265  1.00  0.00     0.173 A 
ATOM     90  F   UNL A   1      45.273  30.142  34.420  1.00  0.00    -0.203 F 
ATOM     91  C   UNL A   1      46.079  28.440  35.829  1.00  0.00     0.198 A 
ATOM     92  C   UNL A   1      44.543  26.934  36.895  1.00  0.00     0.198 A 
ATOM     93  F   UNL A   1      42.231  27.130  36.497  1.00  0.00    -0.203 F 
ATOM     94  F   UNL A   1      47.335  28.842  35.591  1.00  0.00    -0.200 F 
ATOM     95  C   UNL A   1      45.843  27.361  36.667  1.00  0.00     0.200 A 
ATOM     96  F   UNL A   1      44.311  25.909  37.726  1.00  0.00    -0.200 F 
ATOM     97  F   UNL A   1      46.869  26.734  37.258  1.00  0.00    -0.200 F 
ENDBRANCH  64  87
ENDBRANCH  38  39
ENDBRANCH  30  33
ENDBRANCH  28  29
ENDBRANCH  27  28
ENDBRANCH  26  27
ENDBRANCH   1  26
TORSDOF 16
ENDMDL
MODEL 2
REMARK VINA RESULT:     -12.1      5.526     11.022
REMARK SMILES C[C@](NC(=O)c1c(F)cccc1F)(C(=O)NCCCCCCNC(=O)c1ccc(-c2c3nc(c(-c4c(F)c(F)c(F)c(F)c4F)c4ccc([nH]4)c(-c4c(F)c(F)c(F)c(F)c4F)c4nc(c(-c5c(F)c(F)c(F)c(F)c5F)c5ccc2[nH]5)C=C4)C=C3)cc1)C(F)(F)F
REMARK SMILES IDX 19 1 18 2 17 3 16 4 14 5 15 6 2 8 1 9 89 10 90 11 91 12
REMARK SMILES IDX 92 13 3 14 4 15 5 17 6 18 7 19 12 20 8 21 9 22 11 23 13 24
REMARK SMILES IDX 10 25 20 26 21 27 22 28 23 29 24 30 25 32 26 33 27 34 88 35
REMARK SMILES IDX 28 36 87 37 29 38 30 39 31 40 81 41 32 42 86 43 80 44 82 45
REMARK SMILES IDX 33 46 85 47 79 48 78 49 34 51 66 52 46 53 65 54 47 55 50 56
REMARK SMILES IDX 64 57 83 58 48 59 49 60 63 62 84 63 51 64 35 65 36 66 44 67
REMARK SMILES IDX 37 68 38 69 42 70 45 71 39 72 40 73 43 74 41 75 67 76 68 77
REMARK SMILES IDX 76 78 69 79 70 80 74 81 77 82 71 83 72 84 75 85 73 86 52 87
REMARK SMILES IDX 53 88 61 89 54 90 55 91 59 92 62 93 56 94 57 95 60 96 58 97
REMARK H PARENT 16 7 3 16 23 31 82 50 50 61
REMARK Flexibility Score: inf
ROOT
ATOM      1  C   UNL A   1      37.303  21.981  24.695  1.00  0.00     0.002 C 
ENDROOT
BRANCH   1   2
ATOM      2  C   UNL A   1      36.675  22.569  23.429  1.00  0.00     0.021 C 
BRANCH   2   3
ATOM      3  C   UNL A   1      35.469  23.449  23.728  1.00  0.00     0.116 C 
BRANCH   3   4
ATOM      4  N   UNL A   1      34.292  22.654  24.013  1.00  0.00    -0.354 N 
ATOM      5  C   UNL A   1      33.029  23.035  24.382  1.00  0.00     0.254 C 
ATOM      6  O   UNL A   1      32.212  22.122  24.508  1.00  0.00    -0.272 OA
ATOM      7  H   UNL A   1      34.421  21.682  23.927  1.00  0.00     0.163 HD
BRANCH   5   8
ATOM      8  C   UNL A   1      32.641  24.529  24.462  1.00  0.00     0.212 C 
ATOM      9  C   UNL A   1      31.115  24.569  24.636  1.00  0.00     0.056 C 
BRANCH   8  10
ATOM     10  C   UNL A   1      33.289  25.092  25.748  1.00  0.00     0.420 C 
ATOM     11  F   UNL A   1      34.474  25.694  25.488  1.00  0.00    -0.168 F 
ATOM     12  F   UNL A   1      32.486  26.043  26.296  1.00  0.00    -0.168 F 
ATOM     13  F   UNL A   1      33.483  24.162  26.708  1.00  0.00    -0.168 F 
ENDBRANCH   8  10
BRANCH   8  14
ATOM     14  N   UNL A   1      33.230  25.230  23.257  1.00  0.00    -0.330 N 
ATOM     15  C   UNL A   1      33.286  26.495  22.741  1.00  0.00     0.258 C 
ATOM     16  H   UNL A   1      33.711  24.593  22.680  1.00  0.00     0.165 HD
ATOM     17  O   UNL A   1      33.969  26.700  21.741  1.00  0.00    -0.269 OA
BRANCH  15  18
ATOM     18  C   UNL A   1      32.474  27.593  23.257  1.00  0.00     0.111 A 
ATOM     19  C   UNL A   1      32.975  28.499  24.177  1.00  0.00     0.138 A 
ATOM     20  C   UNL A   1      31.170  27.748  22.786  1.00  0.00     0.138 A 
ATOM     21  F   UNL A   1      34.240  28.405  24.609  1.00  0.00    -0.206 F 
ATOM     22  C   UNL A   1      32.146  29.476  24.726  1.00  0.00     0.040 A 
ATOM     23  C   UNL A   1      30.336  28.730  23.313  1.00  0.00     0.040 A 
ATOM     24  F   UNL A   1      30.668  26.920  21.857  1.00  0.00    -0.206 F 
ATOM     25  C   UNL A   1      30.818  29.583  24.305  1.00  0.00     0.006 A 
ENDBRANCH  15  18
ENDBRANCH   8  14
ENDBRANCH   5   8
ENDBRANCH   3   4
ENDBRANCH   2   3
ENDBRANCH   1   2
BRANCH   1  26
ATOM     26  C   UNL A   1      36.939  20.515  24.959  1.00  0.00     0.002 C 
BRANCH  26  27
ATOM     27  C   UNL A   1      38.130  19.554  24.984  1.00  0.00     0.021 C 
BRANCH  27  28
ATOM     28  C   UNL A   1      39.328  20.076  25.767  1.00  0.00     0.116 C 
BRANCH  28  29
ATOM     29  N   UNL A   1      40.350  19.054  25.928  1.00  0.00    -0.352 N 
ATOM     30  C   UNL A   1      41.702  19.201  26.108  1.00  0.00     0.251 C 
ATOM     31  H   UNL A   1      40.025  18.124  25.906  1.00  0.00     0.163 HD
ATOM     32  O   UNL A   1      42.453  18.240  26.002  1.00  0.00    -0.269 OA
BRANCH  30  33
ATOM     33  C   UNL A   1      42.247  20.538  26.416  1.00  0.00     0.039 A 
ATOM     34  C   UNL A   1      42.742  21.324  25.375  1.00  0.00     0.014 A 
ATOM     35  C   UNL A   1      42.263  21.009  27.731  1.00  0.00     0.014 A 
ATOM     36  C   UNL A   1      43.208  22.610  25.649  1.00  0.00     0.010 A 
ATOM     37  C   UNL A   1      42.650  22.318  27.989  1.00  0.00     0.010 A 
ATOM     38  C   UNL A   1      43.136  23.127  26.953  1.00  0.00    -0.014 A 
BRANCH  38  39
ATOM     39  C   UNL A   1      43.575  24.510  27.259  1.00  0.00     0.031 A 
ATOM     40  C   UNL A   1      42.584  25.513  27.780  1.00  0.00     0.074 A 
ATOM     41  C   UNL A   1      44.845  24.878  27.009  1.00  0.00     0.049 A 
ATOM     42  N   UNL A   1      42.751  26.786  28.033  1.00  0.00    -0.248 NA
ATOM     43  C   UNL A   1      41.216  25.027  28.024  1.00  0.00     0.031 C 
ATOM     44  C   UNL A   1      45.885  24.003  26.468  1.00  0.00     0.029 A 
ATOM     45  N   UNL A   1      45.475  26.086  27.169  1.00  0.00    -0.354 N 
ATOM     46  C   UNL A   1      41.513  27.251  28.452  1.00  0.00     0.074 A 
ATOM     47  C   UNL A   1      40.588  26.143  28.360  1.00  0.00     0.031 C 
ATOM     48  C   UNL A   1      47.032  24.693  26.370  1.00  0.00     0.029 A 
ATOM     49  C   UNL A   1      46.797  26.071  26.796  1.00  0.00     0.049 A 
ATOM     50  H   UNL A   1      45.024  26.888  27.517  1.00  0.00     0.167 HD
ATOM     51  C   UNL A   1      41.184  28.486  28.900  1.00  0.00     0.037 A 
ATOM     52  C   UNL A   1      47.714  27.057  26.791  1.00  0.00     0.037 A 
ATOM     53  C   UNL A   1      42.116  29.577  29.009  1.00  0.00     0.049 A 
ATOM     54  C   UNL A   1      47.319  28.427  27.268  1.00  0.00     0.074 A 
ATOM     55  C   UNL A   1      41.894  30.852  29.501  1.00  0.00     0.029 A 
ATOM     56  N   UNL A   1      43.446  29.526  28.616  1.00  0.00    -0.354 N 
ATOM     57  N   UNL A   1      46.160  28.844  27.717  1.00  0.00    -0.248 NA
ATOM     58  C   UNL A   1      48.358  29.464  27.240  1.00  0.00     0.031 C 
ATOM     59  C   UNL A   1      43.073  31.588  29.352  1.00  0.00     0.029 A 
ATOM     60  C   UNL A   1      44.049  30.756  28.826  1.00  0.00     0.049 A 
ATOM     61  H   UNL A   1      43.894  28.732  28.242  1.00  0.00     0.167 HD
ATOM     62  C   UNL A   1      46.334  30.181  28.044  1.00  0.00     0.074 A 
ATOM     63  C   UNL A   1      47.717  30.503  27.760  1.00  0.00     0.031 C 
ATOM     64  C   UNL A   1      45.427  31.063  28.535  1.00  0.00     0.037 A 
BRANCH  51  65
ATOM     65  C   UNL A   1      39.760  28.721  29.317  1.00  0.00     0.064 A 
ATOM     66  C   UNL A   1      38.823  29.226  28.403  1.00  0.00     0.173 A 
ATOM     67  C   UNL A   1      39.332  28.494  30.634  1.00  0.00     0.173 A 
ATOM     68  F   UNL A   1      39.179  29.467  27.132  1.00  0.00    -0.203 F 
ATOM     69  C   UNL A   1      37.516  29.502  28.794  1.00  0.00     0.198 A 
ATOM     70  C   UNL A   1      38.014  28.738  31.013  1.00  0.00     0.198 A 
ATOM     71  F   UNL A   1      40.184  28.001  31.547  1.00  0.00    -0.203 F 
ATOM     72  F   UNL A   1      36.648  30.014  27.910  1.00  0.00    -0.200 F 
ATOM     73  C   UNL A   1      37.110  29.251  30.095  1.00  0.00     0.200 A 
ATOM     74  F   UNL A   1      37.617  28.467  32.265  1.00  0.00    -0.200 F 
ATOM     75  F   UNL A   1      35.846  29.499  30.465  1.00  0.00    -0.200 F 
ENDBRANCH  51  65
BRANCH  52  76
ATOM     76  C   UNL A   1      49.103  26.760  26.352  1.00  0.00     0.064 A 
ATOM     77  C   UNL A   1      49.507  26.948  25.022  1.00  0.00     0.173 A 
ATOM     78  C   UNL A   1      50.041  26.235  27.251  1.00  0.00     0.173 A 
ATOM     79  F   UNL A   1      48.646  27.441  24.121  1.00  0.00    -0.203 F 
ATOM     80  C   UNL A   1      50.788  26.596  24.604  1.00  0.00     0.198 A 
ATOM     81  C   UNL A   1      51.331  25.910  26.838  1.00  0.00     0.198 A 
ATOM     82  F   UNL A   1      49.706  26.055  28.538  1.00  0.00    -0.203 F 
ATOM     83  F   UNL A   1      51.135  26.743  23.317  1.00  0.00    -0.200 F 
ATOM     84  C   UNL A   1      51.700  26.080  25.512  1.00  0.00     0.200 A 
ATOM     85  F   UNL A   1      52.215  25.433  27.724  1.00  0.00    -0.200 F 
ATOM     86  F   UNL A   1      52.934  25.746  25.109  1.00  0.00    -0.200 F 
ENDBRANCH  52  76
BRANCH  64  87
ATOM     87  C   UNL A   1      45.896  32.463  28.811  1.00  0.00     0.064 A 
ATOM     88  C   UNL A   1      45.825  33.447  27.812  1.00  0.00     0.173 A 
ATOM     89  C   UNL A   1      46.489  32.810  30.033  1.00  0.00     0.173 A 
ATOM     90  F   UNL A   1      45.275  33.164  26.622  1.00  0.00    -0.203 F 
ATOM     91  C   UNL A   1      46.345  34.721  28.021  1.00  0.00     0.198 A 
ATOM     92  C   UNL A   1      46.979  34.096  30.251  1.00  0.00     0.198 A 
ATOM     93  F   UNL A   1      46.571  31.911  31.025  1.00  0.00    -0.203 F 
ATOM     94  F   UNL A   1      46.303  35.630  27.038  1.00  0.00    -0.200 F 
ATOM     95  C   UNL A   1      46.918  35.045  29.242  1.00  0.00     0.200 A 
ATOM     96  F   UNL A   1      47.508  34.416  31.439  1.00  0.00    -0.200 F 
ATOM     97  F   UNL A   1      47.409  36.276  29.446  1.00  0.00    -0.200 F 
ENDBRANCH  64  87
ENDBRANCH  38  39
ENDBRANCH  30  33
ENDBRANCH  28  29
ENDBRANCH  27  28
ENDBRANCH  26  27
ENDBRANCH   1  26
TORSDOF 16
ENDMDL
MODEL 3
REMARK VINA RESULT:     -12.1      1.107      2.398
REMARK SMILES C[C@](NC(=O)c1c(F)cccc1F)(C(=O)NCCCCCCNC(=O)c1ccc(-c2c3nc(c(-c4c(F)c(F)c(F)c(F)c4F)c4ccc([nH]4)c(-c4c(F)c(F)c(F)c(F)c4F)c4nc(c(-c5c(F)c(F)c(F)c(F)c5F)c5ccc2[nH]5)C=C4)C=C3)cc1)C(F)(F)F
REMARK SMILES IDX 19 1 18 2 17 3 16 4 14 5 15 6 2 8 1 9 89 10 90 11 91 12
REMARK SMILES IDX 92 13 3 14 4 15 5 17 6 18 7 19 12 20 8 21 9 22 11 23 13 24
REMARK SMILES IDX 10 25 20 26 21 27 22 28 23 29 24 30 25 32 26 33 27 34 88 35
REMARK SMILES IDX 28 36 87 37 29 38 30 39 31 40 81 41 32 42 86 43 80 44 82 45
REMARK SMILES IDX 33 46 85 47 79 48 78 49 34 51 66 52 46 53 65 54 47 55 50 56
REMARK SMILES IDX 64 57 83 58 48 59 49 60 63 62 84 63 51 64 35 65 36 66 44 67
REMARK SMILES IDX 37 68 38 69 42 70 45 71 39 72 40 73 43 74 41 75 67 76 68 77
REMARK SMILES IDX 76 78 69 79 70 80 74 81 77 82 71 83 72 84 75 85 73 86 52 87
REMARK SMILES IDX 53 88 61 89 54 90 55 91 59 92 62 93 56 94 57 95 60 96 58 97
REMARK H PARENT 16 7 3 16 23 31 82 50 50 61
REMARK Flexibility Score: inf
ROOT
ATOM      1  C   UNL A   1      32.518  29.966  26.984  1.00  0.00     0.002 C 
ENDROOT
BRANCH   1   2
ATOM      2  C   UNL A   1      31.876  28.733  27.626  1.00  0.00     0.021 C 
BRANCH   2   3
ATOM      3  C   UNL A   1      32.208  27.446  26.885  1.00  0.00     0.116 C 
BRANCH   3   4
ATOM      4  N   UNL A   1      31.014  26.684  26.586  1.00  0.00    -0.354 N 
ATOM      5  C   UNL A   1      30.563  26.163  25.403  1.00  0.00     0.254 C 
ATOM      6  O   UNL A   1      29.521  25.510  25.469  1.00  0.00    -0.272 OA
ATOM      7  H   UNL A   1      30.430  26.513  27.360  1.00  0.00     0.163 HD
BRANCH   5   8
ATOM      8  C   UNL A   1      31.415  26.261  24.116  1.00  0.00     0.212 C 
ATOM      9  C   UNL A   1      30.760  25.320  23.093  1.00  0.00     0.056 C 
BRANCH   8  10
ATOM     10  C   UNL A   1      31.277  27.710  23.596  1.00  0.00     0.420 C 
ATOM     11  F   UNL A   1      30.956  27.741  22.281  1.00  0.00    -0.168 F 
ATOM     12  F   UNL A   1      30.271  28.347  24.252  1.00  0.00    -0.168 F 
ATOM     13  F   UNL A   1      32.385  28.460  23.784  1.00  0.00    -0.168 F 
ENDBRANCH   8  10
BRANCH   8  14
ATOM     14  N   UNL A   1      32.858  25.998  24.490  1.00  0.00    -0.330 N 
ATOM     15  C   UNL A   1      33.695  24.925  24.625  1.00  0.00     0.258 C 
ATOM     16  H   UNL A   1      33.327  26.839  24.693  1.00  0.00     0.165 HD
ATOM     17  O   UNL A   1      34.883  25.126  24.867  1.00  0.00    -0.269 OA
BRANCH  15  18
ATOM     18  C   UNL A   1      33.217  23.547  24.614  1.00  0.00     0.111 A 
ATOM     19  C   UNL A   1      33.401  22.721  23.517  1.00  0.00     0.138 A 
ATOM     20  C   UNL A   1      32.586  23.040  25.751  1.00  0.00     0.138 A 
ATOM     21  F   UNL A   1      34.049  23.164  22.431  1.00  0.00    -0.206 F 
ATOM     22  C   UNL A   1      32.848  21.442  23.497  1.00  0.00     0.040 A 
ATOM     23  C   UNL A   1      32.042  21.759  25.751  1.00  0.00     0.040 A 
ATOM     24  F   UNL A   1      32.435  23.795  26.850  1.00  0.00    -0.206 F 
ATOM     25  C   UNL A   1      32.152  20.964  24.611  1.00  0.00     0.006 A 
ENDBRANCH  15  18
ENDBRANCH   8  14
ENDBRANCH   5   8
ENDBRANCH   3   4
ENDBRANCH   2   3
ENDBRANCH   1   2
BRANCH   1  26
ATOM     26  C   UNL A   1      31.573  30.779  26.093  1.00  0.00     0.002 C 
BRANCH  26  27
ATOM     27  C   UNL A   1      31.403  32.243  26.508  1.00  0.00     0.021 C 
BRANCH  27  28
ATOM     28  C   UNL A   1      32.589  32.807  27.281  1.00  0.00     0.116 C 
BRANCH  28  29
ATOM     29  N   UNL A   1      32.389  34.205  27.626  1.00  0.00    -0.352 N 
ATOM     30  C   UNL A   1      32.971  34.943  28.626  1.00  0.00     0.251 C 
ATOM     31  H   UNL A   1      31.745  34.692  27.062  1.00  0.00     0.163 HD
ATOM     32  O   UNL A   1      32.530  36.045  28.925  1.00  0.00    -0.269 OA
BRANCH  30  33
ATOM     33  C   UNL A   1      34.131  34.387  29.350  1.00  0.00     0.039 A 
ATOM     34  C   UNL A   1      33.918  33.708  30.551  1.00  0.00     0.014 A 
ATOM     35  C   UNL A   1      35.423  34.535  28.838  1.00  0.00     0.014 A 
ATOM     36  C   UNL A   1      35.002  33.132  31.214  1.00  0.00     0.010 A 
ATOM     37  C   UNL A   1      36.487  33.891  29.456  1.00  0.00     0.010 A 
ATOM     38  C   UNL A   1      36.288  33.192  30.655  1.00  0.00    -0.014 A 
BRANCH  38  39
ATOM     39  C   UNL A   1      37.446  32.541  31.314  1.00  0.00     0.031 A 
ATOM     40  C   UNL A   1      38.171  31.421  30.621  1.00  0.00     0.074 A 
ATOM     41  C   UNL A   1      37.803  32.913  32.557  1.00  0.00     0.049 A 
ATOM     42  N   UNL A   1      39.152  30.675  31.060  1.00  0.00    -0.248 NA
ATOM     43  C   UNL A   1      37.714  31.077  29.265  1.00  0.00     0.031 C 
ATOM     44  C   UNL A   1      37.151  33.960  33.343  1.00  0.00     0.029 A 
ATOM     45  N   UNL A   1      38.797  32.448  33.380  1.00  0.00    -0.354 N 
ATOM     46  C   UNL A   1      39.420  29.770  30.042  1.00  0.00     0.074 A 
ATOM     47  C   UNL A   1      38.459  30.017  28.989  1.00  0.00     0.031 C 
ATOM     48  C   UNL A   1      37.780  34.080  34.523  1.00  0.00     0.029 A 
ATOM     49  C   UNL A   1      38.849  33.087  34.595  1.00  0.00     0.049 A 
ATOM     50  H   UNL A   1      39.413  31.725  33.126  1.00  0.00     0.167 HD
ATOM     51  C   UNL A   1      40.398  28.836  29.980  1.00  0.00     0.037 A 
ATOM     52  C   UNL A   1      39.662  32.890  35.650  1.00  0.00     0.037 A 
ATOM     53  C   UNL A   1      41.364  28.612  31.023  1.00  0.00     0.049 A 
ATOM     54  C   UNL A   1      40.725  31.829  35.569  1.00  0.00     0.074 A 
ATOM     55  C   UNL A   1      42.427  27.726  31.034  1.00  0.00     0.029 A 
ATOM     56  N   UNL A   1      41.381  29.275  32.242  1.00  0.00    -0.354 N 
ATOM     57  N   UNL A   1      41.007  31.017  34.580  1.00  0.00    -0.248 NA
ATOM     58  C   UNL A   1      41.583  31.658  36.749  1.00  0.00     0.031 C 
ATOM     59  C   UNL A   1      43.052  27.812  32.282  1.00  0.00     0.029 A 
ATOM     60  C   UNL A   1      42.420  28.796  33.025  1.00  0.00     0.049 A 
ATOM     61  H   UNL A   1      40.749  29.981  32.510  1.00  0.00     0.167 HD
ATOM     62  C   UNL A   1      42.086  30.254  35.007  1.00  0.00     0.074 A 
ATOM     63  C   UNL A   1      42.419  30.713  36.339  1.00  0.00     0.031 C 
ATOM     64  C   UNL A   1      42.738  29.261  34.353  1.00  0.00     0.037 A 
BRANCH  51  65
ATOM     65  C   UNL A   1      40.480  27.993  28.739  1.00  0.00     0.064 A 
ATOM     66  C   UNL A   1      39.818  26.757  28.672  1.00  0.00     0.173 A 
ATOM     67  C   UNL A   1      41.255  28.381  27.636  1.00  0.00     0.173 A 
ATOM     68  F   UNL A   1      39.069  26.333  29.700  1.00  0.00    -0.203 F 
ATOM     69  C   UNL A   1      39.935  25.941  27.549  1.00  0.00     0.198 A 
ATOM     70  C   UNL A   1      41.341  27.579  26.501  1.00  0.00     0.198 A 
ATOM     71  F   UNL A   1      41.900  29.558  27.643  1.00  0.00    -0.203 F 
ATOM     72  F   UNL A   1      39.318  24.751  27.522  1.00  0.00    -0.200 F 
ATOM     73  C   UNL A   1      40.689  26.355  26.463  1.00  0.00     0.200 A 
ATOM     74  F   UNL A   1      42.047  27.995  25.440  1.00  0.00    -0.200 F 
ATOM     75  F   UNL A   1      40.785  25.577  25.376  1.00  0.00    -0.200 F 
ENDBRANCH  51  65
BRANCH  52  76
ATOM     76  C   UNL A   1      39.518  33.751  36.853  1.00  0.00     0.064 A 
ATOM     77  C   UNL A   1      38.729  33.358  37.945  1.00  0.00     0.173 A 
ATOM     78  C   UNL A   1      40.131  35.010  36.911  1.00  0.00     0.173 A 
ATOM     79  F   UNL A   1      38.115  32.167  37.936  1.00  0.00    -0.203 F 
ATOM     80  C   UNL A   1      38.539  34.204  39.036  1.00  0.00     0.198 A 
ATOM     81  C   UNL A   1      39.963  35.843  38.015  1.00  0.00     0.198 A 
ATOM     82  F   UNL A   1      40.910  35.422  35.899  1.00  0.00    -0.203 F 
ATOM     83  F   UNL A   1      37.744  33.823  40.045  1.00  0.00    -0.200 F 
ATOM     84  C   UNL A   1      39.158  35.444  39.072  1.00  0.00     0.200 A 
ATOM     85  F   UNL A   1      40.581  37.031  38.055  1.00  0.00    -0.200 F 
ATOM     86  F   UNL A   1      38.978  36.255  40.123  1.00  0.00    -0.200 F 
ENDBRANCH  52  76
BRANCH  64  87
ATOM     87  C   UNL A   1      43.891  28.603  35.057  1.00  0.00     0.064 A 
ATOM     88  C   UNL A   1      43.675  27.500  35.898  1.00  0.00     0.173 A 
ATOM     89  C   UNL A   1      45.194  29.112  34.964  1.00  0.00     0.173 A 
ATOM     90  F   UNL A   1      42.445  26.980  36.030  1.00  0.00    -0.203 F 
ATOM     91  C   UNL A   1      44.718  26.943  36.633  1.00  0.00     0.198 A 
ATOM     92  C   UNL A   1      46.241  28.531  35.675  1.00  0.00     0.198 A 
ATOM     93  F   UNL A   1      45.456  30.157  34.164  1.00  0.00    -0.203 F 
ATOM     94  F   UNL A   1      44.478  25.918  37.461  1.00  0.00    -0.200 F 
ATOM     95  C   UNL A   1      46.000  27.456  36.517  1.00  0.00     0.200 A 
ATOM     96  F   UNL A   1      47.485  29.011  35.541  1.00  0.00    -0.200 F 
ATOM     97  F   UNL A   1      47.006  26.912  37.216  1.00  0.00    -0.200 F 
ENDBRANCH  64  87
ENDBRANCH  38  39
ENDBRANCH  30  33
ENDBRANCH  28  29
ENDBRANCH  27  28
ENDBRANCH  26  27
ENDBRANCH   1  26
TORSDOF 16
ENDMDL
