MODEL 1
REMARK VINA RESULT:      -9.0      0.000      0.000
REMARK SMILES C[C@H](CC(=O)NCCCCCCNC(=O)c1ccc(-c2c3nc(c(-c4c(F)c(F)c(F)c(F)c4F)c4ccc([nH]4)c(-c4c(F)c(F)c(F)c(F)c4F)c4nc(c(-c5c(F)c(F)c(F)c(F)c5F)c5ccc2[nH]5)C=C4)C=C3)cc1)c1ccc(O)cc1
REMARK SMILES IDX 9 1 8 2 7 3 6 4 4 5 5 6 3 8 2 9 1 10 79 11 80 12 85 13 81 14
REMARK SMILES IDX 84 15 82 16 83 17 10 19 11 20 12 21 13 22 14 23 15 25 16 26
REMARK SMILES IDX 17 27 78 28 18 29 77 30 19 31 20 32 21 33 71 34 22 35 76 36
REMARK SMILES IDX 70 37 72 38 23 39 75 40 69 41 68 42 24 44 56 45 36 46 55 47
REMARK SMILES IDX 37 48 40 49 54 50 73 51 38 52 39 53 53 55 74 56 41 57 25 58
REMARK SMILES IDX 26 59 34 60 27 61 28 62 32 63 35 64 29 65 30 66 33 67 31 68
REMARK SMILES IDX 57 69 58 70 66 71 59 72 60 73 64 74 67 75 61 76 62 77 65 78
REMARK SMILES IDX 63 79 42 80 43 81 51 82 44 83 45 84 49 85 52 86 46 87 47 88
REMARK SMILES IDX 50 89 48 90
REMARK H PARENT 6 7 83 18 13 24 72 43 40 54
REMARK Flexibility Score: inf
ROOT
ATOM      1  C   UNL A   1      37.301  33.202  29.293  1.00  0.00     0.002 C 
ENDROOT
BRANCH   1   2
ATOM      2  C   UNL A   1      38.445  34.181  29.563  1.00  0.00     0.021 C 
BRANCH   2   3
ATOM      3  C   UNL A   1      38.677  34.439  31.055  1.00  0.00     0.116 C 
BRANCH   3   4
ATOM      4  N   UNL A   1      37.482  34.945  31.700  1.00  0.00    -0.356 N 
ATOM      5  C   UNL A   1      36.909  34.605  32.889  1.00  0.00     0.220 C 
ATOM      6  O   UNL A   1      35.860  35.163  33.211  1.00  0.00    -0.275 OA
ATOM      7  H   UNL A   1      37.007  35.647  31.199  1.00  0.00     0.163 HD
BRANCH   5   8
ATOM      8  C   UNL A   1      37.550  33.565  33.789  1.00  0.00     0.108 C 
BRANCH   8   9
ATOM      9  C   UNL A   1      37.040  32.113  33.626  1.00  0.00     0.025 C 
ATOM     10  C   UNL A   1      36.002  31.889  32.519  1.00  0.00     0.013 C 
BRANCH   9  11
ATOM     11  C   UNL A   1      38.128  31.039  33.573  1.00  0.00    -0.044 A 
ATOM     12  C   UNL A   1      37.831  29.814  32.949  1.00  0.00     0.008 A 
ATOM     13  C   UNL A   1      39.419  31.208  34.092  1.00  0.00     0.008 A 
ATOM     14  C   UNL A   1      38.781  28.793  32.872  1.00  0.00     0.046 A 
ATOM     15  C   UNL A   1      40.374  30.186  34.020  1.00  0.00     0.046 A 
ATOM     16  C   UNL A   1      40.044  28.984  33.413  1.00  0.00     0.115 A 
BRANCH  16  17
ATOM     17  O   UNL A   1      40.938  27.960  33.327  1.00  0.00    -0.508 OA
ATOM     18  H   UNL A   1      40.637  27.087  33.166  1.00  0.00     0.293 HD
ENDBRANCH  16  17
ENDBRANCH   9  11
ENDBRANCH   8   9
ENDBRANCH   5   8
ENDBRANCH   3   4
ENDBRANCH   2   3
ENDBRANCH   1   2
BRANCH   1  19
ATOM     19  C   UNL A   1      36.422  33.577  28.098  1.00  0.00     0.002 C 
BRANCH  19  20
ATOM     20  C   UNL A   1      34.914  33.524  28.357  1.00  0.00     0.021 C 
BRANCH  20  21
ATOM     21  C   UNL A   1      34.444  32.345  29.205  1.00  0.00     0.116 C 
BRANCH  21  22
ATOM     22  N   UNL A   1      33.913  31.264  28.389  1.00  0.00    -0.352 N 
ATOM     23  C   UNL A   1      34.555  30.216  27.790  1.00  0.00     0.251 C 
ATOM     24  H   UNL A   1      32.940  31.291  28.245  1.00  0.00     0.163 HD
ATOM     25  O   UNL A   1      33.964  29.536  26.948  1.00  0.00    -0.269 OA
BRANCH  23  26
ATOM     26  C   UNL A   1      35.952  29.888  28.138  1.00  0.00     0.039 A 
ATOM     27  C   UNL A   1      36.950  30.078  27.178  1.00  0.00     0.014 A 
ATOM     28  C   UNL A   1      36.273  29.333  29.381  1.00  0.00     0.014 A 
ATOM     29  C   UNL A   1      38.271  29.743  27.474  1.00  0.00     0.010 A 
ATOM     30  C   UNL A   1      37.602  29.066  29.702  1.00  0.00     0.010 A 
ATOM     31  C   UNL A   1      38.611  29.248  28.743  1.00  0.00    -0.014 A 
BRANCH  31  32
ATOM     32  C   UNL A   1      40.010  28.876  29.068  1.00  0.00     0.031 A 
ATOM     33  C   UNL A   1      40.874  29.815  29.863  1.00  0.00     0.074 A 
ATOM     34  C   UNL A   1      40.513  27.712  28.614  1.00  0.00     0.049 A 
ATOM     35  N   UNL A   1      42.128  29.689  30.218  1.00  0.00    -0.248 NA
ATOM     36  C   UNL A   1      40.255  31.080  30.293  1.00  0.00     0.031 C 
ATOM     37  C   UNL A   1      39.788  26.740  27.795  1.00  0.00     0.029 A 
ATOM     38  N   UNL A   1      41.755  27.152  28.775  1.00  0.00    -0.354 N 
ATOM     39  C   UNL A   1      42.448  30.858  30.895  1.00  0.00     0.074 A 
ATOM     40  C   UNL A   1      41.278  31.706  30.854  1.00  0.00     0.031 C 
ATOM     41  C   UNL A   1      40.590  25.694  27.544  1.00  0.00     0.029 A 
ATOM     42  C   UNL A   1      41.892  25.933  28.160  1.00  0.00     0.049 A 
ATOM     43  H   UNL A   1      42.480  27.585  29.282  1.00  0.00     0.167 HD
ATOM     44  C   UNL A   1      43.606  31.185  31.518  1.00  0.00     0.037 A 
ATOM     45  C   UNL A   1      42.950  25.102  28.104  1.00  0.00     0.037 A 
ATOM     46  C   UNL A   1      44.759  30.325  31.583  1.00  0.00     0.049 A 
ATOM     47  C   UNL A   1      44.218  25.479  28.820  1.00  0.00     0.074 A 
ATOM     48  C   UNL A   1      45.961  30.539  32.233  1.00  0.00     0.029 A 
ATOM     49  N   UNL A   1      44.849  29.082  30.974  1.00  0.00    -0.354 N 
ATOM     50  N   UNL A   1      44.488  26.558  29.513  1.00  0.00    -0.248 NA
ATOM     51  C   UNL A   1      45.324  24.514  28.757  1.00  0.00     0.031 C 
ATOM     52  C   UNL A   1      46.794  29.442  31.986  1.00  0.00     0.029 A 
ATOM     53  C   UNL A   1      46.092  28.522  31.224  1.00  0.00     0.049 A 
ATOM     54  H   UNL A   1      44.136  28.659  30.444  1.00  0.00     0.167 HD
ATOM     55  C   UNL A   1      45.778  26.389  29.996  1.00  0.00     0.074 A 
ATOM     56  C   UNL A   1      46.232  25.096  29.527  1.00  0.00     0.031 C 
ATOM     57  C   UNL A   1      46.521  27.227  30.759  1.00  0.00     0.037 A 
BRANCH  44  58
ATOM     58  C   UNL A   1      43.680  32.528  32.184  1.00  0.00     0.064 A 
ATOM     59  C   UNL A   1      43.968  33.695  31.457  1.00  0.00     0.173 A 
ATOM     60  C   UNL A   1      43.435  32.658  33.559  1.00  0.00     0.173 A 
ATOM     61  F   UNL A   1      44.222  33.625  30.142  1.00  0.00    -0.203 F 
ATOM     62  C   UNL A   1      44.039  34.935  32.088  1.00  0.00     0.198 A 
ATOM     63  C   UNL A   1      43.477  33.903  34.181  1.00  0.00     0.198 A 
ATOM     64  F   UNL A   1      43.152  31.576  34.301  1.00  0.00    -0.203 F 
ATOM     65  F   UNL A   1      44.367  36.025  31.382  1.00  0.00    -0.200 F 
ATOM     66  C   UNL A   1      43.786  35.039  33.448  1.00  0.00     0.200 A 
ATOM     67  F   UNL A   1      43.220  34.005  35.492  1.00  0.00    -0.200 F 
ATOM     68  F   UNL A   1      43.850  36.233  34.052  1.00  0.00    -0.200 F 
ENDBRANCH  44  58
BRANCH  45  69
ATOM     69  C   UNL A   1      42.840  23.810  27.376  1.00  0.00     0.064 A 
ATOM     70  C   UNL A   1      42.354  22.663  28.019  1.00  0.00     0.173 A 
ATOM     71  C   UNL A   1      43.219  23.694  26.031  1.00  0.00     0.173 A 
ATOM     72  F   UNL A   1      41.996  22.720  29.310  1.00  0.00    -0.203 F 
ATOM     73  C   UNL A   1      42.274  21.443  27.350  1.00  0.00     0.198 A 
ATOM     74  C   UNL A   1      43.111  22.481  25.356  1.00  0.00     0.198 A 
ATOM     75  F   UNL A   1      43.682  24.766  25.369  1.00  0.00    -0.203 F 
ATOM     76  F   UNL A   1      41.849  20.352  28.002  1.00  0.00    -0.200 F 
ATOM     77  C   UNL A   1      42.647  21.354  26.018  1.00  0.00     0.200 A 
ATOM     78  F   UNL A   1      43.458  22.402  24.064  1.00  0.00    -0.200 F 
ATOM     79  F   UNL A   1      42.566  20.181  25.375  1.00  0.00    -0.200 F 
ENDBRANCH  45  69
BRANCH  57  80
ATOM     80  C   UNL A   1      47.884  26.754  31.172  1.00  0.00     0.064 A 
ATOM     81  C   UNL A   1      48.079  25.977  32.323  1.00  0.00     0.173 A 
ATOM     82  C   UNL A   1      49.006  27.059  30.387  1.00  0.00     0.173 A 
ATOM     83  F   UNL A   1      47.040  25.670  33.114  1.00  0.00    -0.203 F 
ATOM     84  C   UNL A   1      49.352  25.550  32.690  1.00  0.00     0.198 A 
ATOM     85  C   UNL A   1      50.273  26.606  30.741  1.00  0.00     0.198 A 
ATOM     86  F   UNL A   1      48.873  27.794  29.273  1.00  0.00    -0.203 F 
ATOM     87  F   UNL A   1      49.522  24.853  33.823  1.00  0.00    -0.200 F 
ATOM     88  C   UNL A   1      50.447  25.858  31.896  1.00  0.00     0.200 A 
ATOM     89  F   UNL A   1      51.328  26.894  29.966  1.00  0.00    -0.200 F 
ATOM     90  F   UNL A   1      51.670  25.444  32.250  1.00  0.00    -0.200 F 
ENDBRANCH  57  80
ENDBRANCH  31  32
ENDBRANCH  23  26
ENDBRANCH  21  22
ENDBRANCH  20  21
ENDBRANCH  19  20
ENDBRANCH   1  19
TORSDOF 16
ENDMDL
MODEL 2
REMARK VINA RESULT:      -9.0      4.504     10.251
REMARK SMILES C[C@H](CC(=O)NCCCCCCNC(=O)c1ccc(-c2c3nc(c(-c4c(F)c(F)c(F)c(F)c4F)c4ccc([nH]4)c(-c4c(F)c(F)c(F)c(F)c4F)c4nc(c(-c5c(F)c(F)c(F)c(F)c5F)c5ccc2[nH]5)C=C4)C=C3)cc1)c1ccc(O)cc1
REMARK SMILES IDX 9 1 8 2 7 3 6 4 4 5 5 6 3 8 2 9 1 10 79 11 80 12 85 13 81 14
REMARK SMILES IDX 84 15 82 16 83 17 10 19 11 20 12 21 13 22 14 23 15 25 16 26
REMARK SMILES IDX 17 27 78 28 18 29 77 30 19 31 20 32 21 33 71 34 22 35 76 36
REMARK SMILES IDX 70 37 72 38 23 39 75 40 69 41 68 42 24 44 56 45 36 46 55 47
REMARK SMILES IDX 37 48 40 49 54 50 73 51 38 52 39 53 53 55 74 56 41 57 25 58
REMARK SMILES IDX 26 59 34 60 27 61 28 62 32 63 35 64 29 65 30 66 33 67 31 68
REMARK SMILES IDX 57 69 58 70 66 71 59 72 60 73 64 74 67 75 61 76 62 77 65 78
REMARK SMILES IDX 63 79 42 80 43 81 51 82 44 83 45 84 49 85 52 86 46 87 47 88
REMARK SMILES IDX 50 89 48 90
REMARK H PARENT 6 7 83 18 13 24 72 43 40 54
REMARK Flexibility Score: inf
ROOT
ATOM      1  C   UNL A   1      33.961  22.243  23.572  1.00  0.00     0.002 C 
ENDROOT
BRANCH   1   2
ATOM      2  C   UNL A   1      32.618  21.854  24.192  1.00  0.00     0.021 C 
BRANCH   2   3
ATOM      3  C   UNL A   1      32.671  21.740  25.719  1.00  0.00     0.116 C 
BRANCH   3   4
ATOM      4  N   UNL A   1      31.426  22.165  26.329  1.00  0.00    -0.356 N 
ATOM      5  C   UNL A   1      31.041  23.389  26.786  1.00  0.00     0.220 C 
ATOM      6  O   UNL A   1      29.927  23.494  27.301  1.00  0.00    -0.275 OA
ATOM      7  H   UNL A   1      30.751  21.455  26.429  1.00  0.00     0.163 HD
BRANCH   5   8
ATOM      8  C   UNL A   1      31.962  24.588  26.663  1.00  0.00     0.108 C 
BRANCH   8   9
ATOM      9  C   UNL A   1      31.404  25.800  25.878  1.00  0.00     0.025 C 
ATOM     10  C   UNL A   1      31.423  27.142  26.619  1.00  0.00     0.013 C 
BRANCH   9  11
ATOM     11  C   UNL A   1      31.941  25.960  24.455  1.00  0.00    -0.044 A 
ATOM     12  C   UNL A   1      31.267  25.307  23.407  1.00  0.00     0.008 A 
ATOM     13  C   UNL A   1      33.058  26.739  24.123  1.00  0.00     0.008 A 
ATOM     14  C   UNL A   1      31.709  25.412  22.086  1.00  0.00     0.046 A 
ATOM     15  C   UNL A   1      33.508  26.844  22.801  1.00  0.00     0.046 A 
ATOM     16  C   UNL A   1      32.830  26.175  21.793  1.00  0.00     0.115 A 
BRANCH  16  17
ATOM     17  O   UNL A   1      33.236  26.242  20.495  1.00  0.00    -0.508 OA
ATOM     18  H   UNL A   1      33.520  27.058  20.134  1.00  0.00     0.293 HD
ENDBRANCH  16  17
ENDBRANCH   9  11
ENDBRANCH   8   9
ENDBRANCH   5   8
ENDBRANCH   3   4
ENDBRANCH   2   3
ENDBRANCH   1   2
BRANCH   1  19
ATOM     19  C   UNL A   1      34.589  23.503  24.171  1.00  0.00     0.002 C 
BRANCH  19  20
ATOM     20  C   UNL A   1      36.114  23.469  24.310  1.00  0.00     0.021 C 
BRANCH  20  21
ATOM     21  C   UNL A   1      36.634  23.546  25.743  1.00  0.00     0.116 C 
BRANCH  21  22
ATOM     22  N   UNL A   1      37.724  22.613  25.978  1.00  0.00    -0.352 N 
ATOM     23  C   UNL A   1      39.005  22.843  26.400  1.00  0.00     0.251 C 
ATOM     24  H   UNL A   1      37.508  21.668  25.806  1.00  0.00     0.163 HD
ATOM     25  O   UNL A   1      39.848  21.947  26.315  1.00  0.00    -0.269 OA
BRANCH  23  26
ATOM     26  C   UNL A   1      39.392  24.155  26.957  1.00  0.00     0.039 A 
ATOM     27  C   UNL A   1      40.042  25.074  26.128  1.00  0.00     0.014 A 
ATOM     28  C   UNL A   1      39.176  24.457  28.305  1.00  0.00     0.014 A 
ATOM     29  C   UNL A   1      40.447  26.306  26.642  1.00  0.00     0.010 A 
ATOM     30  C   UNL A   1      39.515  25.715  28.798  1.00  0.00     0.010 A 
ATOM     31  C   UNL A   1      40.174  26.643  27.977  1.00  0.00    -0.014 A 
BRANCH  31  32
ATOM     32  C   UNL A   1      40.609  27.944  28.540  1.00  0.00     0.031 A 
ATOM     33  C   UNL A   1      42.055  28.168  28.887  1.00  0.00     0.074 A 
ATOM     34  C   UNL A   1      39.699  28.908  28.777  1.00  0.00     0.049 A 
ATOM     35  N   UNL A   1      42.628  29.219  29.420  1.00  0.00    -0.248 NA
ATOM     36  C   UNL A   1      42.979  27.052  28.626  1.00  0.00     0.031 C 
ATOM     37  C   UNL A   1      38.261  28.792  28.526  1.00  0.00     0.029 A 
ATOM     38  N   UNL A   1      39.848  30.173  29.286  1.00  0.00    -0.354 N 
ATOM     39  C   UNL A   1      43.967  28.884  29.571  1.00  0.00     0.074 A 
ATOM     40  C   UNL A   1      44.114  27.516  29.127  1.00  0.00     0.031 C 
ATOM     41  C   UNL A   1      37.665  29.947  28.860  1.00  0.00     0.029 A 
ATOM     42  C   UNL A   1      38.670  30.872  29.373  1.00  0.00     0.049 A 
ATOM     43  H   UNL A   1      40.717  30.543  29.562  1.00  0.00     0.167 HD
ATOM     44  C   UNL A   1      44.987  29.656  30.016  1.00  0.00     0.037 A 
ATOM     45  C   UNL A   1      38.432  32.122  29.816  1.00  0.00     0.037 A 
ATOM     46  C   UNL A   1      44.842  31.028  30.428  1.00  0.00     0.049 A 
ATOM     47  C   UNL A   1      39.585  32.966  30.286  1.00  0.00     0.074 A 
ATOM     48  C   UNL A   1      45.820  31.913  30.844  1.00  0.00     0.029 A 
ATOM     49  N   UNL A   1      43.637  31.713  30.472  1.00  0.00    -0.354 N 
ATOM     50  N   UNL A   1      40.857  32.661  30.362  1.00  0.00    -0.248 NA
ATOM     51  C   UNL A   1      39.269  34.334  30.719  1.00  0.00     0.031 C 
ATOM     52  C   UNL A   1      45.202  33.124  31.178  1.00  0.00     0.029 A 
ATOM     53  C   UNL A   1      43.845  33.007  30.921  1.00  0.00     0.049 A 
ATOM     54  H   UNL A   1      42.763  31.336  30.222  1.00  0.00     0.167 HD
ATOM     55  C   UNL A   1      41.497  33.805  30.817  1.00  0.00     0.074 A 
ATOM     56  C   UNL A   1      40.474  34.815  30.988  1.00  0.00     0.031 C 
ATOM     57  C   UNL A   1      42.814  34.003  31.072  1.00  0.00     0.037 A 
BRANCH  44  58
ATOM     58  C   UNL A   1      46.353  29.035  30.073  1.00  0.00     0.064 A 
ATOM     59  C   UNL A   1      46.819  28.388  31.229  1.00  0.00     0.173 A 
ATOM     60  C   UNL A   1      47.197  29.062  28.953  1.00  0.00     0.173 A 
ATOM     61  F   UNL A   1      46.057  28.346  32.332  1.00  0.00    -0.203 F 
ATOM     62  C   UNL A   1      48.090  27.821  31.271  1.00  0.00     0.198 A 
ATOM     63  C   UNL A   1      48.455  28.466  28.989  1.00  0.00     0.198 A 
ATOM     64  F   UNL A   1      46.800  29.662  27.821  1.00  0.00    -0.203 F 
ATOM     65  F   UNL A   1      48.532  27.257  32.403  1.00  0.00    -0.200 F 
ATOM     66  C   UNL A   1      48.904  27.854  30.149  1.00  0.00     0.200 A 
ATOM     67  F   UNL A   1      49.236  28.487  27.900  1.00  0.00    -0.200 F 
ATOM     68  F   UNL A   1      50.125  27.303  30.190  1.00  0.00    -0.200 F 
ENDBRANCH  44  58
BRANCH  45  69
ATOM     69  C   UNL A   1      37.048  32.664  29.794  1.00  0.00     0.064 A 
ATOM     70  C   UNL A   1      36.204  32.525  30.904  1.00  0.00     0.173 A 
ATOM     71  C   UNL A   1      36.541  33.327  28.667  1.00  0.00     0.173 A 
ATOM     72  F   UNL A   1      36.639  31.882  31.998  1.00  0.00    -0.203 F 
ATOM     73  C   UNL A   1      34.897  33.007  30.880  1.00  0.00     0.198 A 
ATOM     74  C   UNL A   1      35.243  33.834  28.655  1.00  0.00     0.198 A 
ATOM     75  F   UNL A   1      37.312  33.494  27.582  1.00  0.00    -0.203 F 
ATOM     76  F   UNL A   1      34.097  32.820  31.938  1.00  0.00    -0.200 F 
ATOM     77  C   UNL A   1      34.420  33.666  29.758  1.00  0.00     0.200 A 
ATOM     78  F   UNL A   1      34.791  34.484  27.574  1.00  0.00    -0.200 F 
ATOM     79  F   UNL A   1      33.164  34.133  29.737  1.00  0.00    -0.200 F 
ENDBRANCH  45  69
BRANCH  57  80
ATOM     80  C   UNL A   1      43.228  35.375  31.518  1.00  0.00     0.064 A 
ATOM     81  C   UNL A   1      43.221  35.745  32.871  1.00  0.00     0.173 A 
ATOM     82  C   UNL A   1      43.665  36.322  30.579  1.00  0.00     0.173 A 
ATOM     83  F   UNL A   1      42.798  34.880  33.805  1.00  0.00    -0.203 F 
ATOM     84  C   UNL A   1      43.605  37.024  33.264  1.00  0.00     0.198 A 
ATOM     85  C   UNL A   1      44.077  37.589  30.979  1.00  0.00     0.198 A 
ATOM     86  F   UNL A   1      43.697  36.015  29.274  1.00  0.00    -0.203 F 
ATOM     87  F   UNL A   1      43.540  37.373  34.557  1.00  0.00    -0.200 F 
ATOM     88  C   UNL A   1      44.040  37.942  32.319  1.00  0.00     0.200 A 
ATOM     89  F   UNL A   1      44.509  38.471  30.066  1.00  0.00    -0.200 F 
ATOM     90  F   UNL A   1      44.413  39.171  32.700  1.00  0.00    -0.200 F 
ENDBRANCH  57  80
ENDBRANCH  31  32
ENDBRANCH  23  26
ENDBRANCH  21  22
ENDBRANCH  20  21
ENDBRANCH  19  20
ENDBRANCH   1  19
TORSDOF 16
ENDMDL
MODEL 3
REMARK VINA RESULT:      -8.8      4.276      7.790
REMARK SMILES C[C@H](CC(=O)NCCCCCCNC(=O)c1ccc(-c2c3nc(c(-c4c(F)c(F)c(F)c(F)c4F)c4ccc([nH]4)c(-c4c(F)c(F)c(F)c(F)c4F)c4nc(c(-c5c(F)c(F)c(F)c(F)c5F)c5ccc2[nH]5)C=C4)C=C3)cc1)c1ccc(O)cc1
REMARK SMILES IDX 9 1 8 2 7 3 6 4 4 5 5 6 3 8 2 9 1 10 79 11 80 12 85 13 81 14
REMARK SMILES IDX 84 15 82 16 83 17 10 19 11 20 12 21 13 22 14 23 15 25 16 26
REMARK SMILES IDX 17 27 78 28 18 29 77 30 19 31 20 32 21 33 71 34 22 35 76 36
REMARK SMILES IDX 70 37 72 38 23 39 75 40 69 41 68 42 24 44 56 45 36 46 55 47
REMARK SMILES IDX 37 48 40 49 54 50 73 51 38 52 39 53 53 55 74 56 41 57 25 58
REMARK SMILES IDX 26 59 34 60 27 61 28 62 32 63 35 64 29 65 30 66 33 67 31 68
REMARK SMILES IDX 57 69 58 70 66 71 59 72 60 73 64 74 67 75 61 76 62 77 65 78
REMARK SMILES IDX 63 79 42 80 43 81 51 82 44 83 45 84 49 85 52 86 46 87 47 88
REMARK SMILES IDX 50 89 48 90
REMARK H PARENT 6 7 83 18 13 24 72 43 40 54
REMARK Flexibility Score: inf
ROOT
ATOM      1  C   UNL A   1      32.851  29.993  26.294  1.00  0.00     0.002 C 
ENDROOT
BRANCH   1   2
ATOM      2  C   UNL A   1      33.325  29.393  24.968  1.00  0.00     0.021 C 
BRANCH   2   3
ATOM      3  C   UNL A   1      33.241  27.864  24.936  1.00  0.00     0.116 C 
BRANCH   3   4
ATOM      4  N   UNL A   1      32.776  27.382  23.651  1.00  0.00    -0.356 N 
ATOM      5  C   UNL A   1      31.523  27.366  23.115  1.00  0.00     0.220 C 
ATOM      6  O   UNL A   1      31.374  26.867  21.999  1.00  0.00    -0.275 OA
ATOM      7  H   UNL A   1      33.478  27.006  23.072  1.00  0.00     0.163 HD
BRANCH   5   8
ATOM      8  C   UNL A   1      30.347  27.948  23.876  1.00  0.00     0.108 C 
BRANCH   8   9
ATOM      9  C   UNL A   1      29.059  28.198  23.055  1.00  0.00     0.025 C 
ATOM     10  C   UNL A   1      27.796  27.488  23.558  1.00  0.00     0.013 C 
BRANCH   9  11
ATOM     11  C   UNL A   1      28.763  29.664  22.733  1.00  0.00    -0.044 A 
ATOM     12  C   UNL A   1      28.194  29.975  21.485  1.00  0.00     0.008 A 
ATOM     13  C   UNL A   1      29.006  30.724  23.618  1.00  0.00     0.008 A 
ATOM     14  C   UNL A   1      27.903  31.295  21.131  1.00  0.00     0.046 A 
ATOM     15  C   UNL A   1      28.721  32.049  23.266  1.00  0.00     0.046 A 
ATOM     16  C   UNL A   1      28.174  32.323  22.021  1.00  0.00     0.115 A 
BRANCH  16  17
ATOM     17  O   UNL A   1      27.887  33.596  21.634  1.00  0.00    -0.508 OA
ATOM     18  H   UNL A   1      27.125  34.028  21.967  1.00  0.00     0.293 HD
ENDBRANCH  16  17
ENDBRANCH   9  11
ENDBRANCH   8   9
ENDBRANCH   5   8
ENDBRANCH   3   4
ENDBRANCH   2   3
ENDBRANCH   1   2
BRANCH   1  19
ATOM     19  C   UNL A   1      31.460  30.627  26.236  1.00  0.00     0.002 C 
BRANCH  19  20
ATOM     20  C   UNL A   1      31.384  32.075  26.728  1.00  0.00     0.021 C 
BRANCH  20  21
ATOM     21  C   UNL A   1      32.732  32.752  26.958  1.00  0.00     0.116 C 
BRANCH  21  22
ATOM     22  N   UNL A   1      32.589  34.041  27.617  1.00  0.00    -0.352 N 
ATOM     23  C   UNL A   1      33.215  34.536  28.727  1.00  0.00     0.251 C 
ATOM     24  H   UNL A   1      31.941  34.653  27.199  1.00  0.00     0.163 HD
ATOM     25  O   UNL A   1      32.789  35.561  29.264  1.00  0.00    -0.269 OA
BRANCH  23  26
ATOM     26  C   UNL A   1      34.397  33.857  29.293  1.00  0.00     0.039 A 
ATOM     27  C   UNL A   1      34.204  32.781  30.165  1.00  0.00     0.014 A 
ATOM     28  C   UNL A   1      35.691  34.315  29.022  1.00  0.00     0.014 A 
ATOM     29  C   UNL A   1      35.306  32.146  30.739  1.00  0.00     0.010 A 
ATOM     30  C   UNL A   1      36.792  33.635  29.537  1.00  0.00     0.010 A 
ATOM     31  C   UNL A   1      36.609  32.557  30.418  1.00  0.00    -0.014 A 
BRANCH  31  32
ATOM     32  C   UNL A   1      37.790  31.900  31.029  1.00  0.00     0.031 A 
ATOM     33  C   UNL A   1      38.230  32.281  32.415  1.00  0.00     0.074 A 
ATOM     34  C   UNL A   1      38.488  30.991  30.322  1.00  0.00     0.049 A 
ATOM     35  N   UNL A   1      39.254  31.848  33.109  1.00  0.00    -0.248 NA
ATOM     36  C   UNL A   1      37.430  33.305  33.105  1.00  0.00     0.031 C 
ATOM     37  C   UNL A   1      38.188  30.573  28.952  1.00  0.00     0.029 A 
ATOM     38  N   UNL A   1      39.598  30.258  30.658  1.00  0.00    -0.354 N 
ATOM     39  C   UNL A   1      39.226  32.557  34.303  1.00  0.00     0.074 A 
ATOM     40  C   UNL A   1      38.122  33.486  34.220  1.00  0.00     0.031 C 
ATOM     41  C   UNL A   1      39.076  29.641  28.573  1.00  0.00     0.029 A 
ATOM     42  C   UNL A   1      40.024  29.416  29.660  1.00  0.00     0.049 A 
ATOM     43  H   UNL A   1      40.047  30.329  31.532  1.00  0.00     0.167 HD
ATOM     44  C   UNL A   1      40.035  32.426  35.383  1.00  0.00     0.037 A 
ATOM     45  C   UNL A   1      41.062  28.559  29.631  1.00  0.00     0.037 A 
ATOM     46  C   UNL A   1      41.115  31.479  35.474  1.00  0.00     0.049 A 
ATOM     47  C   UNL A   1      41.933  28.419  30.849  1.00  0.00     0.074 A 
ATOM     48  C   UNL A   1      41.958  31.230  36.541  1.00  0.00     0.029 A 
ATOM     49  N   UNL A   1      41.496  30.620  34.453  1.00  0.00    -0.354 N 
ATOM     50  N   UNL A   1      41.858  29.047  31.997  1.00  0.00    -0.248 NA
ATOM     51  C   UNL A   1      43.025  27.439  30.772  1.00  0.00     0.031 C 
ATOM     52  C   UNL A   1      42.877  30.247  36.154  1.00  0.00     0.029 A 
ATOM     53  C   UNL A   1      42.572  29.848  34.862  1.00  0.00     0.049 A 
ATOM     54  H   UNL A   1      41.066  30.566  33.569  1.00  0.00     0.167 HD
ATOM     55  C   UNL A   1      42.867  28.516  32.789  1.00  0.00     0.074 A 
ATOM     56  C   UNL A   1      43.533  27.506  31.994  1.00  0.00     0.031 C 
ATOM     57  C   UNL A   1      43.213  28.837  34.060  1.00  0.00     0.037 A 
BRANCH  44  58
ATOM     58  C   UNL A   1      39.777  33.328  36.555  1.00  0.00     0.064 A 
ATOM     59  C   UNL A   1      40.435  34.560  36.695  1.00  0.00     0.173 A 
ATOM     60  C   UNL A   1      38.841  32.971  37.538  1.00  0.00     0.173 A 
ATOM     61  F   UNL A   1      41.348  34.943  35.790  1.00  0.00    -0.203 F 
ATOM     62  C   UNL A   1      40.190  35.385  37.790  1.00  0.00     0.198 A 
ATOM     63  C   UNL A   1      38.577  33.812  38.616  1.00  0.00     0.198 A 
ATOM     64  F   UNL A   1      38.180  31.806  37.452  1.00  0.00    -0.203 F 
ATOM     65  F   UNL A   1      40.871  36.531  37.929  1.00  0.00    -0.200 F 
ATOM     66  C   UNL A   1      39.257  35.013  38.746  1.00  0.00     0.200 A 
ATOM     67  F   UNL A   1      37.665  33.459  39.532  1.00  0.00    -0.200 F 
ATOM     68  F   UNL A   1      39.019  35.811  39.797  1.00  0.00    -0.200 F 
ENDBRANCH  44  58
BRANCH  45  69
ATOM     69  C   UNL A   1      41.308  27.736  28.418  1.00  0.00     0.064 A 
ATOM     70  C   UNL A   1      42.206  28.162  27.430  1.00  0.00     0.173 A 
ATOM     71  C   UNL A   1      40.651  26.512  28.220  1.00  0.00     0.173 A 
ATOM     72  F   UNL A   1      42.845  29.333  27.567  1.00  0.00    -0.203 F 
ATOM     73  C   UNL A   1      42.421  27.407  26.279  1.00  0.00     0.198 A 
ATOM     74  C   UNL A   1      40.888  25.746  27.082  1.00  0.00     0.198 A 
ATOM     75  F   UNL A   1      39.788  26.056  29.141  1.00  0.00    -0.203 F 
ATOM     76  F   UNL A   1      43.250  27.860  25.329  1.00  0.00    -0.200 F 
ATOM     77  C   UNL A   1      41.766  26.198  26.108  1.00  0.00     0.200 A 
ATOM     78  F   UNL A   1      40.265  24.569  26.928  1.00  0.00    -0.200 F 
ATOM     79  F   UNL A   1      41.975  25.470  25.002  1.00  0.00    -0.200 F 
ENDBRANCH  45  69
BRANCH  57  80
ATOM     80  C   UNL A   1      44.332  28.056  34.685  1.00  0.00     0.064 A 
ATOM     81  C   UNL A   1      45.662  28.497  34.629  1.00  0.00     0.173 A 
ATOM     82  C   UNL A   1      44.063  26.863  35.373  1.00  0.00     0.173 A 
ATOM     83  F   UNL A   1      45.972  29.624  33.970  1.00  0.00    -0.203 F 
ATOM     84  C   UNL A   1      46.686  27.756  35.211  1.00  0.00     0.198 A 
ATOM     85  C   UNL A   1      45.086  26.140  35.980  1.00  0.00     0.198 A 
ATOM     86  F   UNL A   1      42.808  26.401  35.460  1.00  0.00    -0.203 F 
ATOM     87  F   UNL A   1      47.957  28.170  35.100  1.00  0.00    -0.200 F 
ATOM     88  C   UNL A   1      46.397  26.583  35.892  1.00  0.00     0.200 A 
ATOM     89  F   UNL A   1      44.803  25.013  36.648  1.00  0.00    -0.200 F 
ATOM     90  F   UNL A   1      47.384  25.873  36.455  1.00  0.00    -0.200 F 
ENDBRANCH  57  80
ENDBRANCH  31  32
ENDBRANCH  23  26
ENDBRANCH  21  22
ENDBRANCH  20  21
ENDBRANCH  19  20
ENDBRANCH   1  19
TORSDOF 16
ENDMDL
