MODEL 1
REMARK VINA RESULT:     -11.8      0.000      0.000
REMARK SMILES COC(=O)[C@H]1CCN(S(=O)(=O)N2CCC[C@H](C(=O)NCCCCCCNC(=O)c3ccc(-c4c5nc(c(-c6c(F)c(F)c(F)c(F)c6F)c6ccc([nH]6)c(-c6c(F)c(F)c(F)c(F)c6F)c6nc(c(-c7c(F)c(F)c(F)c(F)c7F)c7ccc4[nH]7)C=C6)C=C5)cc3)C2)C1
REMARK SMILES IDX 21 1 20 2 19 3 17 4 18 5 16 7 12 8 13 9 92 10 14 11 15 12
REMARK SMILES IDX 9 13 10 14 11 15 8 16 5 17 6 18 93 19 7 20 3 21 4 22 2 23
REMARK SMILES IDX 1 24 22 25 23 26 24 27 25 28 26 29 27 30 28 32 29 33 30 34
REMARK SMILES IDX 91 35 31 36 90 37 32 38 33 39 34 40 84 41 35 42 89 43 83 44
REMARK SMILES IDX 85 45 36 46 88 47 82 48 81 49 37 51 69 52 49 53 68 54 50 55
REMARK SMILES IDX 53 56 67 57 86 58 51 59 52 60 66 62 87 63 54 64 38 65 39 66
REMARK SMILES IDX 47 67 40 68 41 69 45 70 48 71 42 72 43 73 46 74 44 75 70 76
REMARK SMILES IDX 71 77 79 78 72 79 73 80 77 81 80 82 74 83 75 84 78 85 76 86
REMARK SMILES IDX 55 87 56 88 64 89 57 90 58 91 62 92 65 93 59 94 60 95 63 96
REMARK SMILES IDX 61 97
REMARK H PARENT 19 6 26 31 85 50 53 61
REMARK Flexibility Score: inf
ROOT
ATOM      1  C   UNL A   1      35.802  31.760  28.104  1.00  0.00     0.021 C 
ENDROOT
BRANCH   1   2
ATOM      2  C   UNL A   1      35.177  30.370  28.034  1.00  0.00     0.116 C 
BRANCH   2   3
ATOM      3  N   UNL A   1      33.785  30.433  27.663  1.00  0.00    -0.356 N 
ATOM      4  C   UNL A   1      33.088  29.805  26.689  1.00  0.00     0.224 C 
ATOM      5  O   UNL A   1      31.879  30.060  26.630  1.00  0.00    -0.275 OA
ATOM      6  H   UNL A   1      33.246  31.042  28.219  1.00  0.00     0.163 HD
BRANCH   4   7
ATOM      7  C   UNL A   1      33.692  28.819  25.688  1.00  0.00     0.094 C 
ATOM      8  N   UNL A   1      32.080  28.076  23.934  1.00  0.00    -0.188 NA
ATOM      9  C   UNL A   1      32.298  26.646  24.201  1.00  0.00     0.103 C 
ATOM     10  C   UNL A   1      33.199  28.978  24.260  1.00  0.00     0.117 C 
ATOM     11  C   UNL A   1      32.737  26.419  25.650  1.00  0.00     0.018 C 
ATOM     12  C   UNL A   1      33.831  27.365  26.134  1.00  0.00     0.016 C 
BRANCH   8  13
ATOM     13  S   UNL A   1      30.988  28.515  22.742  1.00  0.00     0.282 S 
ATOM     14  O   UNL A   1      30.639  27.351  21.966  1.00  0.00    -0.195 OA
ATOM     15  O   UNL A   1      31.502  29.703  22.095  1.00  0.00    -0.195 OA
BRANCH  13  16
ATOM     16  N   UNL A   1      29.612  28.990  23.613  1.00  0.00    -0.188 NA
ATOM     17  C   UNL A   1      28.190  30.917  23.150  1.00  0.00     0.116 C 
ATOM     18  C   UNL A   1      27.761  29.720  22.319  1.00  0.00     0.033 C 
ATOM     19  C   UNL A   1      29.522  30.491  23.769  1.00  0.00     0.118 C 
ATOM     20  C   UNL A   1      28.284  28.560  23.128  1.00  0.00     0.104 C 
BRANCH  17  21
ATOM     21  C   UNL A   1      28.322  32.162  22.308  1.00  0.00     0.310 C 
ATOM     22  O   UNL A   1      28.401  33.300  22.748  1.00  0.00    -0.252 OA
BRANCH  21  23
ATOM     23  O   UNL A   1      28.426  31.830  20.991  1.00  0.00    -0.469 OA
ATOM     24  C   UNL A   1      27.714  32.716  20.125  1.00  0.00     0.282 C 
ENDBRANCH  21  23
ENDBRANCH  17  21
ENDBRANCH  13  16
ENDBRANCH   8  13
ENDBRANCH   4   7
ENDBRANCH   2   3
ENDBRANCH   1   2
BRANCH   1  25
ATOM     25  C   UNL A   1      34.791  32.888  27.903  1.00  0.00     0.002 C 
BRANCH  25  26
ATOM     26  C   UNL A   1      34.503  33.719  29.160  1.00  0.00     0.002 C 
BRANCH  26  27
ATOM     27  C   UNL A   1      33.242  34.586  29.090  1.00  0.00     0.021 C 
BRANCH  27  28
ATOM     28  C   UNL A   1      33.441  36.016  29.577  1.00  0.00     0.116 C 
BRANCH  28  29
ATOM     29  N   UNL A   1      32.535  36.343  30.669  1.00  0.00    -0.352 N 
ATOM     30  C   UNL A   1      32.521  35.866  31.954  1.00  0.00     0.251 C 
ATOM     31  H   UNL A   1      31.833  36.999  30.454  1.00  0.00     0.163 HD
ATOM     32  O   UNL A   1      31.552  36.051  32.682  1.00  0.00    -0.269 OA
BRANCH  30  33
ATOM     33  C   UNL A   1      33.691  35.121  32.453  1.00  0.00     0.039 A 
ATOM     34  C   UNL A   1      33.528  33.803  32.886  1.00  0.00     0.014 A 
ATOM     35  C   UNL A   1      34.948  35.731  32.487  1.00  0.00     0.014 A 
ATOM     36  C   UNL A   1      34.644  33.075  33.300  1.00  0.00     0.010 A 
ATOM     37  C   UNL A   1      36.066  34.982  32.826  1.00  0.00     0.010 A 
ATOM     38  C   UNL A   1      35.924  33.649  33.243  1.00  0.00    -0.014 A 
BRANCH  38  39
ATOM     39  C   UNL A   1      37.136  32.887  33.629  1.00  0.00     0.031 A 
ATOM     40  C   UNL A   1      37.825  33.193  34.928  1.00  0.00     0.074 A 
ATOM     41  C   UNL A   1      37.658  31.984  32.777  1.00  0.00     0.049 A 
ATOM     42  N   UNL A   1      38.957  32.732  35.396  1.00  0.00    -0.248 NA
ATOM     43  C   UNL A   1      37.167  34.174  35.807  1.00  0.00     0.031 C 
ATOM     44  C   UNL A   1      37.097  31.628  31.473  1.00  0.00     0.029 A 
ATOM     45  N   UNL A   1      38.790  31.213  32.873  1.00  0.00    -0.354 N 
ATOM     46  C   UNL A   1      39.152  33.374  36.612  1.00  0.00     0.074 A 
ATOM     47  C   UNL A   1      38.055  34.302  36.781  1.00  0.00     0.031 C 
ATOM     48  C   UNL A   1      37.875  30.695  30.899  1.00  0.00     0.029 A 
ATOM     49  C   UNL A   1      39.014  30.426  31.771  1.00  0.00     0.049 A 
ATOM     50  H   UNL A   1      39.384  31.224  33.658  1.00  0.00     0.167 HD
ATOM     51  C   UNL A   1      40.143  33.189  37.514  1.00  0.00     0.037 A 
ATOM     52  C   UNL A   1      40.036  29.593  31.489  1.00  0.00     0.037 A 
ATOM     53  C   UNL A   1      41.221  32.251  37.344  1.00  0.00     0.049 A 
ATOM     54  C   UNL A   1      41.146  29.434  32.494  1.00  0.00     0.074 A 
ATOM     55  C   UNL A   1      42.252  31.954  38.217  1.00  0.00     0.029 A 
ATOM     56  N   UNL A   1      41.409  31.462  36.217  1.00  0.00    -0.354 N 
ATOM     57  N   UNL A   1      41.292  30.002  33.666  1.00  0.00    -0.248 NA
ATOM     58  C   UNL A   1      42.235  28.514  32.137  1.00  0.00     0.031 C 
ATOM     59  C   UNL A   1      43.095  31.028  37.597  1.00  0.00     0.029 A 
ATOM     60  C   UNL A   1      42.554  30.696  36.364  1.00  0.00     0.049 A 
ATOM     61  H   UNL A   1      40.816  31.449  35.431  1.00  0.00     0.167 HD
ATOM     62  C   UNL A   1      42.461  29.481  34.203  1.00  0.00     0.074 A 
ATOM     63  C   UNL A   1      42.984  28.545  33.230  1.00  0.00     0.031 C 
ATOM     64  C   UNL A   1      43.047  29.752  35.395  1.00  0.00     0.037 A 
BRANCH  51  65
ATOM     65  C   UNL A   1      40.109  34.018  38.767  1.00  0.00     0.064 A 
ATOM     66  C   UNL A   1      39.430  33.588  39.918  1.00  0.00     0.173 A 
ATOM     67  C   UNL A   1      40.792  35.242  38.830  1.00  0.00     0.173 A 
ATOM     68  F   UNL A   1      38.752  32.430  39.908  1.00  0.00    -0.203 F 
ATOM     69  C   UNL A   1      39.409  34.367  41.071  1.00  0.00     0.198 A 
ATOM     70  C   UNL A   1      40.799  36.001  39.998  1.00  0.00     0.198 A 
ATOM     71  F   UNL A   1      41.463  35.699  37.762  1.00  0.00    -0.203 F 
ATOM     72  F   UNL A   1      38.707  33.959  42.139  1.00  0.00    -0.200 F 
ATOM     73  C   UNL A   1      40.100  35.567  41.114  1.00  0.00     0.200 A 
ATOM     74  F   UNL A   1      41.481  37.153  40.041  1.00  0.00    -0.200 F 
ATOM     75  F   UNL A   1      40.087  36.311  42.228  1.00  0.00    -0.200 F 
ENDBRANCH  51  65
BRANCH  52  76
ATOM     76  C   UNL A   1      40.051  28.836  30.210  1.00  0.00     0.064 A 
ATOM     77  C   UNL A   1      40.654  29.375  29.064  1.00  0.00     0.173 A 
ATOM     78  C   UNL A   1      39.454  27.572  30.097  1.00  0.00     0.173 A 
ATOM     79  F   UNL A   1      41.222  30.589  29.114  1.00  0.00    -0.203 F 
ATOM     80  C   UNL A   1      40.634  28.692  27.850  1.00  0.00     0.198 A 
ATOM     81  C   UNL A   1      39.463  26.875  28.890  1.00  0.00     0.198 A 
ATOM     82  F   UNL A   1      38.866  27.009  31.163  1.00  0.00    -0.203 F 
ATOM     83  F   UNL A   1      41.167  29.255  26.757  1.00  0.00    -0.200 F 
ATOM     84  C   UNL A   1      40.044  27.440  27.765  1.00  0.00     0.200 A 
ATOM     85  F   UNL A   1      38.904  25.660  28.817  1.00  0.00    -0.200 F 
ATOM     86  F   UNL A   1      40.023  26.784  26.597  1.00  0.00    -0.200 F 
ENDBRANCH  52  76
BRANCH  64  87
ATOM     87  C   UNL A   1      44.292  28.987  35.747  1.00  0.00     0.064 A 
ATOM     88  C   UNL A   1      44.241  27.761  36.426  1.00  0.00     0.173 A 
ATOM     89  C   UNL A   1      45.548  29.460  35.338  1.00  0.00     0.173 A 
ATOM     90  F   UNL A   1      43.066  27.273  36.851  1.00  0.00    -0.203 F 
ATOM     91  C   UNL A   1      45.405  27.047  36.699  1.00  0.00     0.198 A 
ATOM     92  C   UNL A   1      46.706  28.728  35.582  1.00  0.00     0.198 A 
ATOM     93  F   UNL A   1      45.651  30.624  34.679  1.00  0.00    -0.203 F 
ATOM     94  F   UNL A   1      45.338  25.898  37.386  1.00  0.00    -0.200 F 
ATOM     95  C   UNL A   1      46.634  27.525  36.267  1.00  0.00     0.200 A 
ATOM     96  F   UNL A   1      47.889  29.182  35.148  1.00  0.00    -0.200 F 
ATOM     97  F   UNL A   1      47.750  26.827  36.515  1.00  0.00    -0.200 F 
ENDBRANCH  64  87
ENDBRANCH  38  39
ENDBRANCH  30  33
ENDBRANCH  28  29
ENDBRANCH  27  28
ENDBRANCH  26  27
ENDBRANCH  25  26
ENDBRANCH   1  25
TORSDOF 17
ENDMDL
MODEL 2
REMARK VINA RESULT:     -11.4      2.910      8.621
REMARK SMILES COC(=O)[C@H]1CCN(S(=O)(=O)N2CCC[C@H](C(=O)NCCCCCCNC(=O)c3ccc(-c4c5nc(c(-c6c(F)c(F)c(F)c(F)c6F)c6ccc([nH]6)c(-c6c(F)c(F)c(F)c(F)c6F)c6nc(c(-c7c(F)c(F)c(F)c(F)c7F)c7ccc4[nH]7)C=C6)C=C5)cc3)C2)C1
REMARK SMILES IDX 21 1 20 2 19 3 17 4 18 5 16 7 12 8 13 9 92 10 14 11 15 12
REMARK SMILES IDX 9 13 10 14 11 15 8 16 5 17 6 18 93 19 7 20 3 21 4 22 2 23
REMARK SMILES IDX 1 24 22 25 23 26 24 27 25 28 26 29 27 30 28 32 29 33 30 34
REMARK SMILES IDX 91 35 31 36 90 37 32 38 33 39 34 40 84 41 35 42 89 43 83 44
REMARK SMILES IDX 85 45 36 46 88 47 82 48 81 49 37 51 69 52 49 53 68 54 50 55
REMARK SMILES IDX 53 56 67 57 86 58 51 59 52 60 66 62 87 63 54 64 38 65 39 66
REMARK SMILES IDX 47 67 40 68 41 69 45 70 48 71 42 72 43 73 46 74 44 75 70 76
REMARK SMILES IDX 71 77 79 78 72 79 73 80 77 81 80 82 74 83 75 84 78 85 76 86
REMARK SMILES IDX 55 87 56 88 64 89 57 90 58 91 62 92 65 93 59 94 60 95 63 96
REMARK SMILES IDX 61 97
REMARK H PARENT 19 6 26 31 85 50 53 61
REMARK Flexibility Score: inf
ROOT
ATOM      1  C   UNL A   1      32.304  28.509  27.310  1.00  0.00     0.021 C 
ENDROOT
BRANCH   1   2
ATOM      2  C   UNL A   1      32.392  27.222  26.497  1.00  0.00     0.116 C 
BRANCH   2   3
ATOM      3  N   UNL A   1      31.291  26.337  26.785  1.00  0.00    -0.356 N 
ATOM      4  C   UNL A   1      30.405  25.716  25.973  1.00  0.00     0.224 C 
ATOM      5  O   UNL A   1      29.566  24.996  26.528  1.00  0.00    -0.275 OA
ATOM      6  H   UNL A   1      31.160  26.152  27.743  1.00  0.00     0.163 HD
BRANCH   4   7
ATOM      7  C   UNL A   1      30.385  25.846  24.450  1.00  0.00     0.094 C 
ATOM      8  N   UNL A   1      32.290  24.683  23.332  1.00  0.00    -0.188 NA
ATOM      9  C   UNL A   1      32.715  25.882  22.592  1.00  0.00     0.103 C 
ATOM     10  C   UNL A   1      30.864  24.615  23.698  1.00  0.00     0.117 C 
ATOM     11  C   UNL A   1      32.313  27.157  23.337  1.00  0.00     0.018 C 
ATOM     12  C   UNL A   1      30.878  27.162  23.853  1.00  0.00     0.016 C 
BRANCH   8  13
ATOM     13  S   UNL A   1      33.159  23.265  23.134  1.00  0.00     0.282 S 
ATOM     14  O   UNL A   1      34.479  23.580  22.650  1.00  0.00    -0.195 OA
ATOM     15  O   UNL A   1      32.316  22.334  22.414  1.00  0.00    -0.195 OA
BRANCH  13  16
ATOM     16  N   UNL A   1      33.312  22.664  24.712  1.00  0.00    -0.188 NA
ATOM     17  C   UNL A   1      33.088  20.338  25.413  1.00  0.00     0.116 C 
ATOM     18  C   UNL A   1      34.502  20.623  24.939  1.00  0.00     0.033 C 
ATOM     19  C   UNL A   1      32.297  21.586  25.017  1.00  0.00     0.118 C 
ATOM     20  C   UNL A   1      34.618  22.113  25.136  1.00  0.00     0.104 C 
BRANCH  17  21
ATOM     21  C   UNL A   1      32.532  19.084  24.785  1.00  0.00     0.310 C 
ATOM     22  O   UNL A   1      32.219  18.073  25.398  1.00  0.00    -0.252 OA
BRANCH  21  23
ATOM     23  O   UNL A   1      32.348  19.270  23.448  1.00  0.00    -0.469 OA
ATOM     24  C   UNL A   1      32.530  18.078  22.680  1.00  0.00     0.282 C 
ENDBRANCH  21  23
ENDBRANCH  17  21
ENDBRANCH  13  16
ENDBRANCH   8  13
ENDBRANCH   4   7
ENDBRANCH   2   3
ENDBRANCH   1   2
BRANCH   1  25
ATOM     25  C   UNL A   1      32.803  29.738  26.551  1.00  0.00     0.002 C 
BRANCH  25  26
ATOM     26  C   UNL A   1      31.698  30.563  25.876  1.00  0.00     0.002 C 
BRANCH  26  27
ATOM     27  C   UNL A   1      31.414  31.920  26.527  1.00  0.00     0.021 C 
BRANCH  27  28
ATOM     28  C   UNL A   1      32.609  32.527  27.251  1.00  0.00     0.116 C 
BRANCH  28  29
ATOM     29  N   UNL A   1      32.411  33.944  27.524  1.00  0.00    -0.352 N 
ATOM     30  C   UNL A   1      32.980  34.727  28.494  1.00  0.00     0.251 C 
ATOM     31  H   UNL A   1      31.778  34.404  26.927  1.00  0.00     0.163 HD
ATOM     32  O   UNL A   1      32.530  35.838  28.749  1.00  0.00    -0.269 OA
BRANCH  30  33
ATOM     33  C   UNL A   1      34.146  34.213  29.235  1.00  0.00     0.039 A 
ATOM     34  C   UNL A   1      33.943  33.451  30.388  1.00  0.00     0.014 A 
ATOM     35  C   UNL A   1      35.440  34.485  28.781  1.00  0.00     0.014 A 
ATOM     36  C   UNL A   1      35.042  32.912  31.056  1.00  0.00     0.010 A 
ATOM     37  C   UNL A   1      36.526  33.884  29.402  1.00  0.00     0.010 A 
ATOM     38  C   UNL A   1      36.339  33.098  30.549  1.00  0.00    -0.014 A 
BRANCH  38  39
ATOM     39  C   UNL A   1      37.525  32.497  31.207  1.00  0.00     0.031 A 
ATOM     40  C   UNL A   1      38.258  31.372  30.534  1.00  0.00     0.074 A 
ATOM     41  C   UNL A   1      37.887  32.908  32.437  1.00  0.00     0.049 A 
ATOM     42  N   UNL A   1      39.237  30.632  30.987  1.00  0.00    -0.248 NA
ATOM     43  C   UNL A   1      37.809  31.010  29.180  1.00  0.00     0.031 C 
ATOM     44  C   UNL A   1      37.230  33.968  33.203  1.00  0.00     0.029 A 
ATOM     45  N   UNL A   1      38.888  32.470  33.268  1.00  0.00    -0.354 N 
ATOM     46  C   UNL A   1      39.510  29.713  29.983  1.00  0.00     0.074 A 
ATOM     47  C   UNL A   1      38.554  29.946  28.923  1.00  0.00     0.031 C 
ATOM     48  C   UNL A   1      37.857  34.110  34.383  1.00  0.00     0.029 A 
ATOM     49  C   UNL A   1      38.925  33.121  34.476  1.00  0.00     0.049 A 
ATOM     50  H   UNL A   1      39.520  31.756  33.020  1.00  0.00     0.167 HD
ATOM     51  C   UNL A   1      40.484  28.774  29.940  1.00  0.00     0.037 A 
ATOM     52  C   UNL A   1      39.721  32.926  35.546  1.00  0.00     0.037 A 
ATOM     53  C   UNL A   1      41.442  28.561  30.993  1.00  0.00     0.049 A 
ATOM     54  C   UNL A   1      40.772  31.849  35.487  1.00  0.00     0.074 A 
ATOM     55  C   UNL A   1      42.496  27.667  31.031  1.00  0.00     0.029 A 
ATOM     56  N   UNL A   1      41.454  29.248  32.199  1.00  0.00    -0.354 N 
ATOM     57  N   UNL A   1      41.060  31.023  34.511  1.00  0.00    -0.248 NA
ATOM     58  C   UNL A   1      41.613  31.680  36.680  1.00  0.00     0.031 C 
ATOM     59  C   UNL A   1      43.112  27.772  32.281  1.00  0.00     0.029 A 
ATOM     60  C   UNL A   1      42.484  28.779  32.998  1.00  0.00     0.049 A 
ATOM     61  H   UNL A   1      40.824  29.962  32.449  1.00  0.00     0.167 HD
ATOM     62  C   UNL A   1      42.136  30.266  34.953  1.00  0.00     0.074 A 
ATOM     63  C   UNL A   1      42.455  30.735  36.286  1.00  0.00     0.031 C 
ATOM     64  C   UNL A   1      42.802  29.274  34.313  1.00  0.00     0.037 A 
BRANCH  51  65
ATOM     65  C   UNL A   1      40.563  27.906  28.716  1.00  0.00     0.064 A 
ATOM     66  C   UNL A   1      41.340  28.269  27.604  1.00  0.00     0.173 A 
ATOM     67  C   UNL A   1      39.883  26.681  28.666  1.00  0.00     0.173 A 
ATOM     68  F   UNL A   1      42.003  29.436  27.595  1.00  0.00    -0.203 F 
ATOM     69  C   UNL A   1      41.404  27.454  26.477  1.00  0.00     0.198 A 
ATOM     70  C   UNL A   1      39.979  25.851  27.552  1.00  0.00     0.198 A 
ATOM     71  F   UNL A   1      39.131  26.281  29.703  1.00  0.00    -0.203 F 
ATOM     72  F   UNL A   1      42.108  27.850  25.407  1.00  0.00    -0.200 F 
ATOM     73  C   UNL A   1      40.732  26.243  26.455  1.00  0.00     0.200 A 
ATOM     74  F   UNL A   1      39.341  24.673  27.539  1.00  0.00    -0.200 F 
ATOM     75  F   UNL A   1      40.803  25.454  25.374  1.00  0.00    -0.200 F 
ENDBRANCH  51  65
BRANCH  52  76
ATOM     76  C   UNL A   1      39.566  33.775  36.756  1.00  0.00     0.064 A 
ATOM     77  C   UNL A   1      38.767  33.356  37.830  1.00  0.00     0.173 A 
ATOM     78  C   UNL A   1      40.195  35.024  36.862  1.00  0.00     0.173 A 
ATOM     79  F   UNL A   1      38.128  32.178  37.769  1.00  0.00    -0.203 F 
ATOM     80  C   UNL A   1      38.580  34.165  38.949  1.00  0.00     0.198 A 
ATOM     81  C   UNL A   1      40.034  35.818  37.996  1.00  0.00     0.198 A 
ATOM     82  F   UNL A   1      40.972  35.471  35.866  1.00  0.00    -0.203 F 
ATOM     83  F   UNL A   1      37.766  33.765  39.935  1.00  0.00    -0.200 F 
ATOM     84  C   UNL A   1      39.219  35.393  39.034  1.00  0.00     0.200 A 
ATOM     85  F   UNL A   1      40.664  36.998  38.080  1.00  0.00    -0.200 F 
ATOM     86  F   UNL A   1      39.038  36.172  40.109  1.00  0.00    -0.200 F 
ENDBRANCH  52  76
BRANCH  64  87
ATOM     87  C   UNL A   1      43.981  28.662  35.015  1.00  0.00     0.064 A 
ATOM     88  C   UNL A   1      43.845  27.556  35.866  1.00  0.00     0.173 A 
ATOM     89  C   UNL A   1      45.274  29.153  34.776  1.00  0.00     0.173 A 
ATOM     90  F   UNL A   1      42.629  27.058  36.138  1.00  0.00    -0.203 F 
ATOM     91  C   UNL A   1      44.959  26.977  36.468  1.00  0.00     0.198 A 
ATOM     92  C   UNL A   1      46.388  28.550  35.352  1.00  0.00     0.198 A 
ATOM     93  F   UNL A   1      45.459  30.205  33.965  1.00  0.00    -0.203 F 
ATOM     94  F   UNL A   1      44.802  25.947  37.312  1.00  0.00    -0.200 F 
ATOM     95  C   UNL A   1      46.230  27.467  36.202  1.00  0.00     0.200 A 
ATOM     96  F   UNL A   1      47.615  29.014  35.079  1.00  0.00    -0.200 F 
ATOM     97  F   UNL A   1      47.301  26.896  36.768  1.00  0.00    -0.200 F 
ENDBRANCH  64  87
ENDBRANCH  38  39
ENDBRANCH  30  33
ENDBRANCH  28  29
ENDBRANCH  27  28
ENDBRANCH  26  27
ENDBRANCH  25  26
ENDBRANCH   1  25
TORSDOF 17
ENDMDL
MODEL 3
REMARK VINA RESULT:     -11.4      2.532      8.453
REMARK SMILES COC(=O)[C@H]1CCN(S(=O)(=O)N2CCC[C@H](C(=O)NCCCCCCNC(=O)c3ccc(-c4c5nc(c(-c6c(F)c(F)c(F)c(F)c6F)c6ccc([nH]6)c(-c6c(F)c(F)c(F)c(F)c6F)c6nc(c(-c7c(F)c(F)c(F)c(F)c7F)c7ccc4[nH]7)C=C6)C=C5)cc3)C2)C1
REMARK SMILES IDX 21 1 20 2 19 3 17 4 18 5 16 7 12 8 13 9 92 10 14 11 15 12
REMARK SMILES IDX 9 13 10 14 11 15 8 16 5 17 6 18 93 19 7 20 3 21 4 22 2 23
REMARK SMILES IDX 1 24 22 25 23 26 24 27 25 28 26 29 27 30 28 32 29 33 30 34
REMARK SMILES IDX 91 35 31 36 90 37 32 38 33 39 34 40 84 41 35 42 89 43 83 44
REMARK SMILES IDX 85 45 36 46 88 47 82 48 81 49 37 51 69 52 49 53 68 54 50 55
REMARK SMILES IDX 53 56 67 57 86 58 51 59 52 60 66 62 87 63 54 64 38 65 39 66
REMARK SMILES IDX 47 67 40 68 41 69 45 70 48 71 42 72 43 73 46 74 44 75 70 76
REMARK SMILES IDX 71 77 79 78 72 79 73 80 77 81 80 82 74 83 75 84 78 85 76 86
REMARK SMILES IDX 55 87 56 88 64 89 57 90 58 91 62 92 65 93 59 94 60 95 63 96
REMARK SMILES IDX 61 97
REMARK H PARENT 19 6 26 31 85 50 53 61
REMARK Flexibility Score: inf
ROOT
ATOM      1  C   UNL A   1      32.108  28.565  27.292  1.00  0.00     0.021 C 
ENDROOT
BRANCH   1   2
ATOM      2  C   UNL A   1      31.909  27.497  26.222  1.00  0.00     0.116 C 
BRANCH   2   3
ATOM      3  N   UNL A   1      30.942  26.509  26.632  1.00  0.00    -0.356 N 
ATOM      4  C   UNL A   1      29.982  25.854  25.941  1.00  0.00     0.224 C 
ATOM      5  O   UNL A   1      29.305  25.040  26.581  1.00  0.00    -0.275 OA
ATOM      6  H   UNL A   1      30.989  26.269  27.586  1.00  0.00     0.163 HD
BRANCH   4   7
ATOM      7  C   UNL A   1      29.696  26.054  24.452  1.00  0.00     0.094 C 
ATOM      8  N   UNL A   1      31.747  25.990  23.032  1.00  0.00    -0.188 NA
ATOM      9  C   UNL A   1      31.471  27.291  22.403  1.00  0.00     0.103 C 
ATOM     10  C   UNL A   1      30.576  25.239  23.518  1.00  0.00     0.117 C 
ATOM     11  C   UNL A   1      30.637  28.181  23.328  1.00  0.00     0.018 C 
ATOM     12  C   UNL A   1      29.445  27.481  23.972  1.00  0.00     0.016 C 
BRANCH   8  13
ATOM     13  S   UNL A   1      33.132  25.158  22.587  1.00  0.00     0.282 S 
ATOM     14  O   UNL A   1      34.259  26.055  22.633  1.00  0.00    -0.195 OA
ATOM     15  O   UNL A   1      32.828  24.420  21.380  1.00  0.00    -0.195 OA
BRANCH  13  16
ATOM     16  N   UNL A   1      33.327  24.014  23.823  1.00  0.00    -0.188 NA
ATOM     17  C   UNL A   1      35.358  22.764  24.341  1.00  0.00     0.116 C 
ATOM     18  C   UNL A   1      35.371  24.119  25.026  1.00  0.00     0.033 C 
ATOM     19  C   UNL A   1      34.165  22.834  23.385  1.00  0.00     0.118 C 
ATOM     20  C   UNL A   1      33.903  24.455  25.112  1.00  0.00     0.104 C 
BRANCH  17  21
ATOM     21  C   UNL A   1      36.654  22.490  23.621  1.00  0.00     0.310 C 
ATOM     22  O   UNL A   1      37.056  23.106  22.643  1.00  0.00    -0.252 OA
BRANCH  21  23
ATOM     23  O   UNL A   1      37.353  21.515  24.265  1.00  0.00    -0.469 OA
ATOM     24  C   UNL A   1      36.534  20.673  25.080  1.00  0.00     0.282 C 
ENDBRANCH  21  23
ENDBRANCH  17  21
ENDBRANCH  13  16
ENDBRANCH   8  13
ENDBRANCH   4   7
ENDBRANCH   2   3
ENDBRANCH   1   2
BRANCH   1  25
ATOM     25  C   UNL A   1      32.672  29.874  26.741  1.00  0.00     0.002 C 
BRANCH  25  26
ATOM     26  C   UNL A   1      31.649  30.751  26.006  1.00  0.00     0.002 C 
BRANCH  26  27
ATOM     27  C   UNL A   1      31.391  32.119  26.644  1.00  0.00     0.021 C 
BRANCH  27  28
ATOM     28  C   UNL A   1      32.613  32.735  27.315  1.00  0.00     0.116 C 
BRANCH  28  29
ATOM     29  N   UNL A   1      32.417  34.149  27.599  1.00  0.00    -0.352 N 
ATOM     30  C   UNL A   1      32.988  34.924  28.574  1.00  0.00     0.251 C 
ATOM     31  H   UNL A   1      31.783  34.614  27.006  1.00  0.00     0.163 HD
ATOM     32  O   UNL A   1      32.539  36.034  28.837  1.00  0.00    -0.269 OA
BRANCH  30  33
ATOM     33  C   UNL A   1      34.155  34.404  29.309  1.00  0.00     0.039 A 
ATOM     34  C   UNL A   1      33.959  33.748  30.526  1.00  0.00     0.014 A 
ATOM     35  C   UNL A   1      35.441  34.565  28.786  1.00  0.00     0.014 A 
ATOM     36  C   UNL A   1      35.055  33.201  31.194  1.00  0.00     0.010 A 
ATOM     37  C   UNL A   1      36.518  33.953  29.412  1.00  0.00     0.010 A 
ATOM     38  C   UNL A   1      36.337  33.272  30.625  1.00  0.00    -0.014 A 
BRANCH  38  39
ATOM     39  C   UNL A   1      37.515  32.657  31.284  1.00  0.00     0.031 A 
ATOM     40  C   UNL A   1      38.234  31.522  30.613  1.00  0.00     0.074 A 
ATOM     41  C   UNL A   1      37.883  33.065  32.514  1.00  0.00     0.049 A 
ATOM     42  N   UNL A   1      39.204  30.770  31.067  1.00  0.00    -0.248 NA
ATOM     43  C   UNL A   1      37.781  31.163  29.259  1.00  0.00     0.031 C 
ATOM     44  C   UNL A   1      37.239  34.134  33.278  1.00  0.00     0.029 A 
ATOM     45  N   UNL A   1      38.878  32.615  33.345  1.00  0.00    -0.354 N 
ATOM     46  C   UNL A   1      39.465  29.846  30.064  1.00  0.00     0.074 A 
ATOM     47  C   UNL A   1      38.512  30.090  29.004  1.00  0.00     0.031 C 
ATOM     48  C   UNL A   1      37.867  34.270  34.458  1.00  0.00     0.029 A 
ATOM     49  C   UNL A   1      38.922  33.267  34.552  1.00  0.00     0.049 A 
ATOM     50  H   UNL A   1      39.501  31.893  33.098  1.00  0.00     0.167 HD
ATOM     51  C   UNL A   1      40.428  28.895  30.024  1.00  0.00     0.037 A 
ATOM     52  C   UNL A   1      39.716  33.064  35.622  1.00  0.00     0.037 A 
ATOM     53  C   UNL A   1      41.382  28.671  31.077  1.00  0.00     0.049 A 
ATOM     54  C   UNL A   1      40.754  31.974  35.566  1.00  0.00     0.074 A 
ATOM     55  C   UNL A   1      42.426  27.764  31.116  1.00  0.00     0.029 A 
ATOM     56  N   UNL A   1      41.403  29.360  32.282  1.00  0.00    -0.354 N 
ATOM     57  N   UNL A   1      41.031  31.144  34.591  1.00  0.00    -0.248 NA
ATOM     58  C   UNL A   1      41.592  31.796  36.759  1.00  0.00     0.031 C 
ATOM     59  C   UNL A   1      43.043  27.864  32.367  1.00  0.00     0.029 A 
ATOM     60  C   UNL A   1      42.428  28.880  33.081  1.00  0.00     0.049 A 
ATOM     61  H   UNL A   1      40.782  30.083  32.530  1.00  0.00     0.167 HD
ATOM     62  C   UNL A   1      42.098  30.374  35.034  1.00  0.00     0.074 A 
ATOM     63  C   UNL A   1      42.422  30.841  36.366  1.00  0.00     0.031 C 
ATOM     64  C   UNL A   1      42.751  29.372  34.396  1.00  0.00     0.037 A 
BRANCH  51  65
ATOM     65  C   UNL A   1      40.497  28.024  28.800  1.00  0.00     0.064 A 
ATOM     66  C   UNL A   1      39.797  26.810  28.719  1.00  0.00     0.173 A 
ATOM     67  C   UNL A   1      41.242  28.426  27.682  1.00  0.00     0.173 A 
ATOM     68  F   UNL A   1      39.077  26.374  29.764  1.00  0.00    -0.203 F 
ATOM     69  C   UNL A   1      39.869  26.016  27.578  1.00  0.00     0.198 A 
ATOM     70  C   UNL A   1      41.282  27.646  26.528  1.00  0.00     0.198 A 
ATOM     71  F   UNL A   1      41.925  29.580  27.702  1.00  0.00    -0.203 F 
ATOM     72  F   UNL A   1      39.237  24.834  27.546  1.00  0.00    -0.200 F 
ATOM     73  C   UNL A   1      40.603  26.438  26.481  1.00  0.00     0.200 A 
ATOM     74  F   UNL A   1      41.980  28.064  25.464  1.00  0.00    -0.200 F 
ATOM     75  F   UNL A   1      40.664  25.677  25.380  1.00  0.00    -0.200 F 
ENDBRANCH  51  65
BRANCH  52  76
ATOM     76  C   UNL A   1      39.571  33.917  36.832  1.00  0.00     0.064 A 
ATOM     77  C   UNL A   1      38.800  33.491  37.923  1.00  0.00     0.173 A 
ATOM     78  C   UNL A   1      40.183  35.176  36.919  1.00  0.00     0.173 A 
ATOM     79  F   UNL A   1      38.178  32.303  37.880  1.00  0.00    -0.203 F 
ATOM     80  C   UNL A   1      38.623  34.303  39.041  1.00  0.00     0.198 A 
ATOM     81  C   UNL A   1      40.032  35.974  38.053  1.00  0.00     0.198 A 
ATOM     82  F   UNL A   1      40.934  35.630  35.906  1.00  0.00    -0.203 F 
ATOM     83  F   UNL A   1      37.834  33.896  40.045  1.00  0.00    -0.200 F 
ATOM     84  C   UNL A   1      39.244  35.541  39.108  1.00  0.00     0.200 A 
ATOM     85  F   UNL A   1      40.645  37.163  38.118  1.00  0.00    -0.200 F 
ATOM     86  F   UNL A   1      39.072  36.323  40.183  1.00  0.00    -0.200 F 
ENDBRANCH  52  76
BRANCH  64  87
ATOM     87  C   UNL A   1      43.922  28.747  35.099  1.00  0.00     0.064 A 
ATOM     88  C   UNL A   1      45.223  29.254  34.968  1.00  0.00     0.173 A 
ATOM     89  C   UNL A   1      43.724  27.663  35.968  1.00  0.00     0.173 A 
ATOM     90  F   UNL A   1      45.468  30.279  34.138  1.00  0.00    -0.203 F 
ATOM     91  C   UNL A   1      46.284  28.686  35.667  1.00  0.00     0.198 A 
ATOM     92  C   UNL A   1      44.781  27.120  36.693  1.00  0.00     0.198 A 
ATOM     93  F   UNL A   1      42.498  27.145  36.134  1.00  0.00    -0.203 F 
ATOM     94  F   UNL A   1      47.527  29.160  35.495  1.00  0.00    -0.200 F 
ATOM     95  C   UNL A   1      46.061  27.628  36.537  1.00  0.00     0.200 A 
ATOM     96  F   UNL A   1      44.559  26.111  37.545  1.00  0.00    -0.200 F 
ATOM     97  F   UNL A   1      47.082  27.096  37.223  1.00  0.00    -0.200 F 
ENDBRANCH  64  87
ENDBRANCH  38  39
ENDBRANCH  30  33
ENDBRANCH  28  29
ENDBRANCH  27  28
ENDBRANCH  26  27
ENDBRANCH  25  26
ENDBRANCH   1  25
TORSDOF 17
ENDMDL
