MODEL 1
REMARK VINA RESULT:     -11.9      0.000      0.000
REMARK SMILES CC[NH2+][C@]1(C(=O)NCCCCCCNC(=O)c2ccc(-c3c4nc(c(-c5c(F)c(F)c(F)c(F)c5F)c5ccc([nH]5)c(-c5c(F)c(F)c(F)c(F)c5F)c5nc(c(-c6c(F)c(F)c(F)c(F)c6F)c6ccc3[nH]6)C=C5)C=C4)cc2)CCC[C@H]1CCSc1n[nH]c(=O)n1C
REMARK SMILES IDX 9 1 8 2 7 3 5 4 6 5 4 7 80 8 83 9 81 10 82 11 3 12 2 15 1 16
REMARK SMILES IDX 84 17 85 18 86 19 87 20 88 21 92 22 89 23 90 24 93 25 91 27
REMARK SMILES IDX 10 28 11 29 12 30 13 31 14 32 15 33 16 35 17 36 18 37 79 38
REMARK SMILES IDX 19 39 78 40 20 41 21 42 22 43 72 44 23 45 77 46 71 47 73 48
REMARK SMILES IDX 24 49 76 50 70 51 69 52 25 54 57 55 37 56 56 57 38 58 41 59
REMARK SMILES IDX 55 60 74 61 39 62 40 63 54 65 75 66 42 67 26 68 27 69 35 70
REMARK SMILES IDX 28 71 29 72 33 73 36 74 30 75 31 76 34 77 32 78 58 79 59 80
REMARK SMILES IDX 67 81 60 82 61 83 65 84 68 85 62 86 63 87 66 88 64 89 43 90
REMARK SMILES IDX 44 91 52 92 45 93 46 94 50 95 53 96 47 97 48 98 51 99 49 100
REMARK H PARENT 7 6 3 13 3 14 89 26 14 34 73 53 41 64
REMARK Flexibility Score: inf
ROOT
ATOM      1  C   UNL A   1      31.626  28.437  27.524  1.00  0.00     0.021 C 
ENDROOT
BRANCH   1   2
ATOM      2  C   UNL A   1      32.209  27.040  27.224  1.00  0.00     0.116 C 
BRANCH   2   3
ATOM      3  N   UNL A   1      31.313  25.972  26.850  1.00  0.00    -0.351 N 
ATOM      4  C   UNL A   1      31.399  24.994  25.890  1.00  0.00     0.281 C 
ATOM      5  O   UNL A   1      30.316  24.436  25.659  1.00  0.00    -0.268 OA
ATOM      6  H   UNL A   1      30.487  25.938  27.384  1.00  0.00     0.163 HD
BRANCH   4   7
ATOM      7  C   UNL A   1      32.742  24.525  25.186  1.00  0.00     0.178 C 
ATOM      8  C   UNL A   1      32.469  23.313  24.261  1.00  0.00     0.079 C 
ATOM      9  C   UNL A   1      33.491  25.560  24.253  1.00  0.00     0.061 C 
ATOM     10  C   UNL A   1      33.672  23.265  23.336  1.00  0.00     0.008 C 
ATOM     11  C   UNL A   1      33.981  24.726  23.042  1.00  0.00     0.011 C 
BRANCH   7  12
ATOM     12  N   UNL A   1      33.646  23.952  26.259  1.00  0.00    -0.334 N 
ATOM     13  H   UNL A   1      34.486  23.610  25.794  1.00  0.00     0.347 HD
ATOM     14  H   UNL A   1      33.776  24.725  26.913  1.00  0.00     0.347 HD
BRANCH  12  15
ATOM     15  C   UNL A   1      33.142  22.868  27.087  1.00  0.00     0.257 C 
ATOM     16  C   UNL A   1      34.194  21.822  27.413  1.00  0.00     0.071 C 
ENDBRANCH  12  15
ENDBRANCH   7  12
BRANCH   9  17
ATOM     17  C   UNL A   1      32.854  26.870  23.760  1.00  0.00     0.022 C 
BRANCH  17  18
ATOM     18  C   UNL A   1      31.724  26.761  22.743  1.00  0.00     0.079 C 
BRANCH  18  19
ATOM     19  S   UNL A   1      30.040  27.138  23.244  1.00  0.00    -0.086 SA
BRANCH  19  20
ATOM     20  C   UNL A   1      29.788  28.669  22.504  1.00  0.00     0.191 A 
ATOM     21  N   UNL A   1      30.763  29.274  21.893  1.00  0.00    -0.146 NA
ATOM     22  N   UNL A   1      28.593  29.304  22.454  1.00  0.00    -0.273 N 
ATOM     23  N   UNL A   1      30.179  30.391  21.382  1.00  0.00    -0.226 N 
ATOM     24  C   UNL A   1      28.830  30.429  21.706  1.00  0.00     0.343 A 
ATOM     25  C   UNL A   1      27.293  29.038  23.033  1.00  0.00     0.157 C 
ATOM     26  H   UNL A   1      30.647  31.078  20.855  1.00  0.00     0.195 HD
ATOM     27  O   UNL A   1      28.047  31.313  21.396  1.00  0.00    -0.246 OA
ENDBRANCH  19  20
ENDBRANCH  18  19
ENDBRANCH  17  18
ENDBRANCH   9  17
ENDBRANCH   4   7
ENDBRANCH   2   3
ENDBRANCH   1   2
BRANCH   1  28
ATOM     28  C   UNL A   1      32.348  29.731  27.118  1.00  0.00     0.002 C 
BRANCH  28  29
ATOM     29  C   UNL A   1      31.630  30.715  26.171  1.00  0.00     0.002 C 
BRANCH  29  30
ATOM     30  C   UNL A   1      31.420  32.160  26.642  1.00  0.00     0.021 C 
BRANCH  30  31
ATOM     31  C   UNL A   1      32.639  32.829  27.260  1.00  0.00     0.116 C 
BRANCH  31  32
ATOM     32  N   UNL A   1      32.383  34.209  27.639  1.00  0.00    -0.352 N 
ATOM     33  C   UNL A   1      32.974  34.972  28.618  1.00  0.00     0.251 C 
ATOM     34  H   UNL A   1      31.684  34.664  27.117  1.00  0.00     0.163 HD
ATOM     35  O   UNL A   1      32.505  36.068  28.911  1.00  0.00    -0.269 OA
BRANCH  33  36
ATOM     36  C   UNL A   1      34.167  34.470  29.336  1.00  0.00     0.039 A 
ATOM     37  C   UNL A   1      34.008  33.852  30.580  1.00  0.00     0.014 A 
ATOM     38  C   UNL A   1      35.443  34.622  28.789  1.00  0.00     0.014 A 
ATOM     39  C   UNL A   1      35.123  33.328  31.246  1.00  0.00     0.010 A 
ATOM     40  C   UNL A   1      36.536  34.027  29.409  1.00  0.00     0.010 A 
ATOM     41  C   UNL A   1      36.390  33.382  30.649  1.00  0.00    -0.014 A 
BRANCH  41  42
ATOM     42  C   UNL A   1      37.602  32.815  31.294  1.00  0.00     0.031 A 
ATOM     43  C   UNL A   1      38.325  31.678  30.625  1.00  0.00     0.074 A 
ATOM     44  C   UNL A   1      37.983  33.234  32.516  1.00  0.00     0.049 A 
ATOM     45  N   UNL A   1      39.260  30.893  31.095  1.00  0.00    -0.248 NA
ATOM     46  C   UNL A   1      37.905  31.355  29.252  1.00  0.00     0.031 C 
ATOM     47  C   UNL A   1      37.355  34.316  33.274  1.00  0.00     0.029 A 
ATOM     48  N   UNL A   1      38.974  32.776  33.349  1.00  0.00    -0.354 N 
ATOM     49  C   UNL A   1      39.516  29.969  30.090  1.00  0.00     0.074 A 
ATOM     50  C   UNL A   1      38.601  30.256  29.007  1.00  0.00     0.031 C 
ATOM     51  C   UNL A   1      37.979  34.442  34.456  1.00  0.00     0.029 A 
ATOM     52  C   UNL A   1      39.012  33.417  34.563  1.00  0.00     0.049 A 
ATOM     53  H   UNL A   1      39.598  32.056  33.099  1.00  0.00     0.167 HD
ATOM     54  C   UNL A   1      40.443  28.982  30.067  1.00  0.00     0.037 A 
ATOM     55  C   UNL A   1      39.778  33.185  35.648  1.00  0.00     0.037 A 
ATOM     56  C   UNL A   1      41.367  28.724  31.138  1.00  0.00     0.049 A 
ATOM     57  C   UNL A   1      40.782  32.062  35.610  1.00  0.00     0.074 A 
ATOM     58  C   UNL A   1      42.377  27.780  31.199  1.00  0.00     0.029 A 
ATOM     59  N   UNL A   1      41.394  29.417  32.340  1.00  0.00    -0.354 N 
ATOM     60  N   UNL A   1      41.043  31.217  34.643  1.00  0.00    -0.248 NA
ATOM     61  C   UNL A   1      41.600  31.860  36.816  1.00  0.00     0.031 C 
ATOM     62  C   UNL A   1      42.980  27.866  32.457  1.00  0.00     0.029 A 
ATOM     63  C   UNL A   1      42.390  28.908  33.156  1.00  0.00     0.049 A 
ATOM     64  H   UNL A   1      40.794  30.161  32.577  1.00  0.00     0.167 HD
ATOM     65  C   UNL A   1      42.081  30.417  35.102  1.00  0.00     0.074 A 
ATOM     66  C   UNL A   1      42.401  30.874  36.438  1.00  0.00     0.031 C 
ATOM     67  C   UNL A   1      42.716  29.399  34.471  1.00  0.00     0.037 A 
BRANCH  54  68
ATOM     68  C   UNL A   1      40.499  28.107  28.846  1.00  0.00     0.064 A 
ATOM     69  C   UNL A   1      41.275  28.447  27.728  1.00  0.00     0.173 A 
ATOM     70  C   UNL A   1      39.785  26.899  28.805  1.00  0.00     0.173 A 
ATOM     71  F   UNL A   1      41.968  29.594  27.710  1.00  0.00    -0.203 F 
ATOM     72  C   UNL A   1      41.304  27.631  26.599  1.00  0.00     0.198 A 
ATOM     73  C   UNL A   1      39.845  26.067  27.689  1.00  0.00     0.198 A 
ATOM     74  F   UNL A   1      39.032  26.521  29.848  1.00  0.00    -0.203 F 
ATOM     75  F   UNL A   1      42.002  28.009  25.519  1.00  0.00    -0.200 F 
ATOM     76  C   UNL A   1      40.595  26.439  26.583  1.00  0.00     0.200 A 
ATOM     77  F   UNL A   1      39.173  24.908  27.682  1.00  0.00    -0.200 F 
ATOM     78  F   UNL A   1      40.628  25.653  25.499  1.00  0.00    -0.200 F 
ENDBRANCH  54  68
BRANCH  55  79
ATOM     79  C   UNL A   1      39.636  34.039  36.857  1.00  0.00     0.064 A 
ATOM     80  C   UNL A   1      40.312  35.265  36.952  1.00  0.00     0.173 A 
ATOM     81  C   UNL A   1      38.836  33.653  37.942  1.00  0.00     0.173 A 
ATOM     82  F   UNL A   1      41.106  35.670  35.951  1.00  0.00    -0.203 F 
ATOM     83  C   UNL A   1      40.209  36.059  38.092  1.00  0.00     0.198 A 
ATOM     84  C   UNL A   1      38.710  34.462  39.070  1.00  0.00     0.198 A 
ATOM     85  F   UNL A   1      38.165  32.492  37.902  1.00  0.00    -0.203 F 
ATOM     86  F   UNL A   1      40.906  37.200  38.176  1.00  0.00    -0.200 F 
ATOM     87  C   UNL A   1      39.404  35.660  39.148  1.00  0.00     0.200 A 
ATOM     88  F   UNL A   1      37.918  34.080  40.081  1.00  0.00    -0.200 F 
ATOM     89  F   UNL A   1      39.304  36.425  40.244  1.00  0.00    -0.200 F 
ENDBRANCH  55  79
BRANCH  67  90
ATOM     90  C   UNL A   1      43.872  28.751  35.176  1.00  0.00     0.064 A 
ATOM     91  C   UNL A   1      43.697  27.671  36.053  1.00  0.00     0.173 A 
ATOM     92  C   UNL A   1      45.184  29.167  34.897  1.00  0.00     0.173 A 
ATOM     93  F   UNL A   1      42.463  27.245  36.362  1.00  0.00    -0.203 F 
ATOM     94  C   UNL A   1      44.794  27.038  36.631  1.00  0.00     0.198 A 
ATOM     95  C   UNL A   1      46.278  28.511  35.452  1.00  0.00     0.198 A 
ATOM     96  F   UNL A   1      45.404  30.190  34.058  1.00  0.00    -0.203 F 
ATOM     97  F   UNL A   1      44.603  26.028  37.491  1.00  0.00    -0.200 F 
ATOM     98  C   UNL A   1      46.082  27.449  36.322  1.00  0.00     0.200 A 
ATOM     99  F   UNL A   1      47.522  28.899  35.137  1.00  0.00    -0.200 F 
ATOM    100  F   UNL A   1      47.136  26.822  36.862  1.00  0.00    -0.200 F 
ENDBRANCH  67  90
ENDBRANCH  41  42
ENDBRANCH  33  36
ENDBRANCH  31  32
ENDBRANCH  30  31
ENDBRANCH  29  30
ENDBRANCH  28  29
ENDBRANCH   1  28
TORSDOF 19
ENDMDL
MODEL 2
REMARK VINA RESULT:     -11.4      2.006      8.167
REMARK SMILES CC[NH2+][C@]1(C(=O)NCCCCCCNC(=O)c2ccc(-c3c4nc(c(-c5c(F)c(F)c(F)c(F)c5F)c5ccc([nH]5)c(-c5c(F)c(F)c(F)c(F)c5F)c5nc(c(-c6c(F)c(F)c(F)c(F)c6F)c6ccc3[nH]6)C=C5)C=C4)cc2)CCC[C@H]1CCSc1n[nH]c(=O)n1C
REMARK SMILES IDX 9 1 8 2 7 3 5 4 6 5 4 7 80 8 83 9 81 10 82 11 3 12 2 15 1 16
REMARK SMILES IDX 84 17 85 18 86 19 87 20 88 21 92 22 89 23 90 24 93 25 91 27
REMARK SMILES IDX 10 28 11 29 12 30 13 31 14 32 15 33 16 35 17 36 18 37 79 38
REMARK SMILES IDX 19 39 78 40 20 41 21 42 22 43 72 44 23 45 77 46 71 47 73 48
REMARK SMILES IDX 24 49 76 50 70 51 69 52 25 54 57 55 37 56 56 57 38 58 41 59
REMARK SMILES IDX 55 60 74 61 39 62 40 63 54 65 75 66 42 67 26 68 27 69 35 70
REMARK SMILES IDX 28 71 29 72 33 73 36 74 30 75 31 76 34 77 32 78 58 79 59 80
REMARK SMILES IDX 67 81 60 82 61 83 65 84 68 85 62 86 63 87 66 88 64 89 43 90
REMARK SMILES IDX 44 91 52 92 45 93 46 94 50 95 53 96 47 97 48 98 51 99 49 100
REMARK H PARENT 7 6 3 13 3 14 89 26 14 34 73 53 41 64
REMARK Flexibility Score: inf
ROOT
ATOM      1  C   UNL A   1      33.617  31.536  27.627  1.00  0.00     0.021 C 
ENDROOT
BRANCH   1   2
ATOM      2  C   UNL A   1      33.970  30.068  27.310  1.00  0.00     0.116 C 
BRANCH   2   3
ATOM      3  N   UNL A   1      33.014  29.033  27.625  1.00  0.00    -0.351 N 
ATOM      4  C   UNL A   1      32.185  28.275  26.836  1.00  0.00     0.281 C 
ATOM      5  O   UNL A   1      31.293  27.696  27.473  1.00  0.00    -0.268 OA
ATOM      6  H   UNL A   1      32.945  28.832  28.586  1.00  0.00     0.163 HD
BRANCH   4   7
ATOM      7  C   UNL A   1      32.365  28.056  25.274  1.00  0.00     0.178 C 
ATOM      8  C   UNL A   1      33.259  29.170  24.675  1.00  0.00     0.079 C 
ATOM      9  C   UNL A   1      33.044  26.714  24.786  1.00  0.00     0.061 C 
ATOM     10  C   UNL A   1      33.716  28.609  23.340  1.00  0.00     0.008 C 
ATOM     11  C   UNL A   1      33.969  27.135  23.616  1.00  0.00     0.011 C 
BRANCH   7  12
ATOM     12  N   UNL A   1      31.018  28.295  24.620  1.00  0.00    -0.334 N 
ATOM     13  H   UNL A   1      30.995  27.739  23.766  1.00  0.00     0.347 HD
ATOM     14  H   UNL A   1      30.343  28.041  25.341  1.00  0.00     0.347 HD
BRANCH  12  15
ATOM     15  C   UNL A   1      30.653  29.655  24.256  1.00  0.00     0.257 C 
ATOM     16  C   UNL A   1      29.710  29.727  23.068  1.00  0.00     0.071 C 
ENDBRANCH  12  15
ENDBRANCH   7  12
BRANCH   9  17
ATOM     17  C   UNL A   1      33.796  25.756  25.726  1.00  0.00     0.022 C 
BRANCH  17  18
ATOM     18  C   UNL A   1      33.231  24.350  25.893  1.00  0.00     0.079 C 
BRANCH  18  19
ATOM     19  S   UNL A   1      33.059  23.287  24.455  1.00  0.00    -0.086 SA
BRANCH  19  20
ATOM     20  C   UNL A   1      34.697  22.915  24.094  1.00  0.00     0.191 A 
ATOM     21  N   UNL A   1      35.256  23.380  23.016  1.00  0.00    -0.146 NA
ATOM     22  N   UNL A   1      35.510  22.192  24.899  1.00  0.00    -0.273 N 
ATOM     23  N   UNL A   1      36.543  22.949  23.109  1.00  0.00    -0.226 N 
ATOM     24  C   UNL A   1      36.731  22.220  24.273  1.00  0.00     0.343 A 
ATOM     25  C   UNL A   1      35.304  21.453  26.127  1.00  0.00     0.157 C 
ATOM     26  H   UNL A   1      37.245  23.131  22.442  1.00  0.00     0.195 HD
ATOM     27  O   UNL A   1      37.776  21.697  24.627  1.00  0.00    -0.246 OA
ENDBRANCH  19  20
ENDBRANCH  18  19
ENDBRANCH  17  18
ENDBRANCH   9  17
ENDBRANCH   4   7
ENDBRANCH   2   3
ENDBRANCH   1   2
BRANCH   1  28
ATOM     28  C   UNL A   1      34.686  32.573  28.002  1.00  0.00     0.002 C 
BRANCH  28  29
ATOM     29  C   UNL A   1      34.354  33.624  29.082  1.00  0.00     0.002 C 
BRANCH  29  30
ATOM     30  C   UNL A   1      33.177  34.578  28.835  1.00  0.00     0.021 C 
BRANCH  30  31
ATOM     31  C   UNL A   1      33.398  36.016  29.278  1.00  0.00     0.116 C 
BRANCH  31  32
ATOM     32  N   UNL A   1      32.528  36.398  30.379  1.00  0.00    -0.352 N 
ATOM     33  C   UNL A   1      32.546  35.989  31.691  1.00  0.00     0.251 C 
ATOM     34  H   UNL A   1      31.823  37.045  30.151  1.00  0.00     0.163 HD
ATOM     35  O   UNL A   1      31.621  36.285  32.441  1.00  0.00    -0.269 OA
BRANCH  33  36
ATOM     36  C   UNL A   1      33.672  35.174  32.202  1.00  0.00     0.039 A 
ATOM     37  C   UNL A   1      33.420  33.889  32.693  1.00  0.00     0.014 A 
ATOM     38  C   UNL A   1      34.972  35.683  32.212  1.00  0.00     0.014 A 
ATOM     39  C   UNL A   1      34.482  33.090  33.132  1.00  0.00     0.010 A 
ATOM     40  C   UNL A   1      36.033  34.860  32.569  1.00  0.00     0.010 A 
ATOM     41  C   UNL A   1      35.800  33.558  33.042  1.00  0.00    -0.014 A 
BRANCH  41  42
ATOM     42  C   UNL A   1      36.968  32.742  33.464  1.00  0.00     0.031 A 
ATOM     43  C   UNL A   1      37.637  33.045  34.776  1.00  0.00     0.074 A 
ATOM     44  C   UNL A   1      37.492  31.821  32.633  1.00  0.00     0.049 A 
ATOM     45  N   UNL A   1      38.782  32.619  35.247  1.00  0.00    -0.248 NA
ATOM     46  C   UNL A   1      36.939  33.991  35.662  1.00  0.00     0.031 C 
ATOM     47  C   UNL A   1      36.945  31.448  31.329  1.00  0.00     0.029 A 
ATOM     48  N   UNL A   1      38.623  31.052  32.752  1.00  0.00    -0.354 N 
ATOM     49  C   UNL A   1      38.952  33.267  36.463  1.00  0.00     0.074 A 
ATOM     50  C   UNL A   1      37.823  34.155  36.634  1.00  0.00     0.031 C 
ATOM     51  C   UNL A   1      37.737  30.518  30.771  1.00  0.00     0.029 A 
ATOM     52  C   UNL A   1      38.875  30.270  31.650  1.00  0.00     0.049 A 
ATOM     53  H   UNL A   1      39.200  31.061  33.551  1.00  0.00     0.167 HD
ATOM     54  C   UNL A   1      39.954  33.120  37.364  1.00  0.00     0.037 A 
ATOM     55  C   UNL A   1      39.920  29.464  31.373  1.00  0.00     0.037 A 
ATOM     56  C   UNL A   1      41.057  32.213  37.197  1.00  0.00     0.049 A 
ATOM     57  C   UNL A   1      41.037  29.340  32.378  1.00  0.00     0.074 A 
ATOM     58  C   UNL A   1      42.100  31.953  38.068  1.00  0.00     0.029 A 
ATOM     59  N   UNL A   1      41.259  31.415  36.080  1.00  0.00    -0.354 N 
ATOM     60  N   UNL A   1      41.173  29.928  33.541  1.00  0.00    -0.248 NA
ATOM     61  C   UNL A   1      42.146  28.439  32.031  1.00  0.00     0.031 C 
ATOM     62  C   UNL A   1      42.960  31.037  37.457  1.00  0.00     0.029 A 
ATOM     63  C   UNL A   1      42.420  30.676  36.232  1.00  0.00     0.049 A 
ATOM     64  H   UNL A   1      40.664  31.379  35.296  1.00  0.00     0.167 HD
ATOM     65  C   UNL A   1      42.353  29.436  34.084  1.00  0.00     0.074 A 
ATOM     66  C   UNL A   1      42.898  28.503  33.121  1.00  0.00     0.031 C 
ATOM     67  C   UNL A   1      42.930  29.727  35.276  1.00  0.00     0.037 A 
BRANCH  54  68
ATOM     68  C   UNL A   1      39.901  33.964  38.606  1.00  0.00     0.064 A 
ATOM     69  C   UNL A   1      40.545  35.209  38.683  1.00  0.00     0.173 A 
ATOM     70  C   UNL A   1      39.176  33.534  39.728  1.00  0.00     0.173 A 
ATOM     71  F   UNL A   1      41.261  35.664  37.644  1.00  0.00    -0.203 F 
ATOM     72  C   UNL A   1      40.497  35.971  39.847  1.00  0.00     0.198 A 
ATOM     73  C   UNL A   1      39.099  34.316  40.878  1.00  0.00     0.198 A 
ATOM     74  F   UNL A   1      38.535  32.355  39.708  1.00  0.00    -0.203 F 
ATOM     75  F   UNL A   1      41.174  37.127  39.917  1.00  0.00    -0.200 F 
ATOM     76  C   UNL A   1      39.769  35.528  40.941  1.00  0.00     0.200 A 
ATOM     77  F   UNL A   1      38.381  33.893  41.927  1.00  0.00    -0.200 F 
ATOM     78  F   UNL A   1      39.720  36.266  42.059  1.00  0.00    -0.200 F 
ENDBRANCH  54  68
BRANCH  55  79
ATOM     79  C   UNL A   1      39.956  28.702  30.097  1.00  0.00     0.064 A 
ATOM     80  C   UNL A   1      40.555  29.248  28.952  1.00  0.00     0.173 A 
ATOM     81  C   UNL A   1      39.390  27.423  29.987  1.00  0.00     0.173 A 
ATOM     82  F   UNL A   1      41.092  30.476  29.000  1.00  0.00    -0.203 F 
ATOM     83  C   UNL A   1      40.569  28.555  27.744  1.00  0.00     0.198 A 
ATOM     84  C   UNL A   1      39.431  26.718  28.786  1.00  0.00     0.198 A 
ATOM     85  F   UNL A   1      38.807  26.853  31.052  1.00  0.00    -0.203 F 
ATOM     86  F   UNL A   1      41.104  29.123  26.654  1.00  0.00    -0.200 F 
ATOM     87  C   UNL A   1      40.011  27.288  27.662  1.00  0.00     0.200 A 
ATOM     88  F   UNL A   1      38.904  25.487  28.715  1.00  0.00    -0.200 F 
ATOM     89  F   UNL A   1      40.026  26.620  26.501  1.00  0.00    -0.200 F 
ENDBRANCH  55  79
BRANCH  67  90
ATOM     90  C   UNL A   1      44.176  28.980  35.651  1.00  0.00     0.064 A 
ATOM     91  C   UNL A   1      45.456  29.485  35.379  1.00  0.00     0.173 A 
ATOM     92  C   UNL A   1      44.082  27.779  36.373  1.00  0.00     0.173 A 
ATOM     93  F   UNL A   1      45.598  30.621  34.680  1.00  0.00    -0.203 F 
ATOM     94  C   UNL A   1      46.594  28.810  35.809  1.00  0.00     0.198 A 
ATOM     95  C   UNL A   1      45.222  27.124  36.828  1.00  0.00     0.198 A 
ATOM     96  F   UNL A   1      42.881  27.259  36.665  1.00  0.00    -0.203 F 
ATOM     97  F   UNL A   1      47.809  29.294  35.511  1.00  0.00    -0.200 F 
ATOM     98  C   UNL A   1      46.478  27.638  36.542  1.00  0.00     0.200 A 
ATOM     99  F   UNL A   1      45.105  26.002  37.552  1.00  0.00    -0.200 F 
ATOM    100  F   UNL A   1      47.576  27.004  36.975  1.00  0.00    -0.200 F 
ENDBRANCH  67  90
ENDBRANCH  41  42
ENDBRANCH  33  36
ENDBRANCH  31  32
ENDBRANCH  30  31
ENDBRANCH  29  30
ENDBRANCH  28  29
ENDBRANCH   1  28
TORSDOF 19
ENDMDL
MODEL 3
REMARK VINA RESULT:     -11.2      5.651     10.499
REMARK SMILES CC[NH2+][C@]1(C(=O)NCCCCCCNC(=O)c2ccc(-c3c4nc(c(-c5c(F)c(F)c(F)c(F)c5F)c5ccc([nH]5)c(-c5c(F)c(F)c(F)c(F)c5F)c5nc(c(-c6c(F)c(F)c(F)c(F)c6F)c6ccc3[nH]6)C=C5)C=C4)cc2)CCC[C@H]1CCSc1n[nH]c(=O)n1C
REMARK SMILES IDX 9 1 8 2 7 3 5 4 6 5 4 7 80 8 83 9 81 10 82 11 3 12 2 15 1 16
REMARK SMILES IDX 84 17 85 18 86 19 87 20 88 21 92 22 89 23 90 24 93 25 91 27
REMARK SMILES IDX 10 28 11 29 12 30 13 31 14 32 15 33 16 35 17 36 18 37 79 38
REMARK SMILES IDX 19 39 78 40 20 41 21 42 22 43 72 44 23 45 77 46 71 47 73 48
REMARK SMILES IDX 24 49 76 50 70 51 69 52 25 54 57 55 37 56 56 57 38 58 41 59
REMARK SMILES IDX 55 60 74 61 39 62 40 63 54 65 75 66 42 67 26 68 27 69 35 70
REMARK SMILES IDX 28 71 29 72 33 73 36 74 30 75 31 76 34 77 32 78 58 79 59 80
REMARK SMILES IDX 67 81 60 82 61 83 65 84 68 85 62 86 63 87 66 88 64 89 43 90
REMARK SMILES IDX 44 91 52 92 45 93 46 94 50 95 53 96 47 97 48 98 51 99 49 100
REMARK H PARENT 7 6 3 13 3 14 89 26 14 34 73 53 41 64
REMARK Flexibility Score: inf
ROOT
ATOM      1  C   UNL A   1      38.010  23.514  26.256  1.00  0.00     0.021 C 
ENDROOT
BRANCH   1   2
ATOM      2  C   UNL A   1      36.491  23.514  25.988  1.00  0.00     0.116 C 
BRANCH   2   3
ATOM      3  N   UNL A   1      36.013  23.795  24.655  1.00  0.00    -0.351 N 
ATOM      4  C   UNL A   1      34.751  23.818  24.116  1.00  0.00     0.281 C 
ATOM      5  O   UNL A   1      34.745  23.809  22.876  1.00  0.00    -0.268 OA
ATOM      6  H   UNL A   1      36.727  24.013  24.012  1.00  0.00     0.163 HD
BRANCH   4   7
ATOM      7  C   UNL A   1      33.406  23.938  24.951  1.00  0.00     0.178 C 
ATOM      8  C   UNL A   1      32.205  24.177  24.004  1.00  0.00     0.079 C 
ATOM      9  C   UNL A   1      32.965  22.698  25.828  1.00  0.00     0.061 C 
ATOM     10  C   UNL A   1      30.988  23.819  24.839  1.00  0.00     0.008 C 
ATOM     11  C   UNL A   1      31.428  22.605  25.646  1.00  0.00     0.011 C 
BRANCH   7  12
ATOM     12  N   UNL A   1      33.481  25.220  25.757  1.00  0.00    -0.334 N 
ATOM     13  H   UNL A   1      32.617  25.289  26.294  1.00  0.00     0.347 HD
ATOM     14  H   UNL A   1      34.341  25.125  26.298  1.00  0.00     0.347 HD
BRANCH  12  15
ATOM     15  C   UNL A   1      33.645  26.479  25.048  1.00  0.00     0.257 C 
ATOM     16  C   UNL A   1      33.117  27.676  25.818  1.00  0.00     0.071 C 
ENDBRANCH  12  15
ENDBRANCH   7  12
BRANCH   9  17
ATOM     17  C   UNL A   1      33.591  21.299  25.691  1.00  0.00     0.022 C 
BRANCH  17  18
ATOM     18  C   UNL A   1      33.637  20.685  24.297  1.00  0.00     0.079 C 
BRANCH  18  19
ATOM     19  S   UNL A   1      32.383  19.492  23.812  1.00  0.00    -0.086 SA
BRANCH  19  20
ATOM     20  C   UNL A   1      32.847  18.107  24.716  1.00  0.00     0.191 A 
ATOM     21  N   UNL A   1      32.489  17.982  25.960  1.00  0.00    -0.146 NA
ATOM     22  N   UNL A   1      33.537  17.060  24.207  1.00  0.00    -0.273 N 
ATOM     23  N   UNL A   1      32.962  16.756  26.310  1.00  0.00    -0.226 N 
ATOM     24  C   UNL A   1      33.607  16.157  25.238  1.00  0.00     0.343 A 
ATOM     25  C   UNL A   1      34.172  16.804  22.931  1.00  0.00     0.157 C 
ATOM     26  H   UNL A   1      32.861  16.348  27.201  1.00  0.00     0.195 HD
ATOM     27  O   UNL A   1      34.143  15.060  25.250  1.00  0.00    -0.246 OA
ENDBRANCH  19  20
ENDBRANCH  18  19
ENDBRANCH  17  18
ENDBRANCH   9  17
ENDBRANCH   4   7
ENDBRANCH   2   3
ENDBRANCH   1   2
BRANCH   1  28
ATOM     28  C   UNL A   1      38.883  22.272  26.025  1.00  0.00     0.002 C 
BRANCH  28  29
ATOM     29  C   UNL A   1      38.290  21.084  25.238  1.00  0.00     0.002 C 
BRANCH  29  30
ATOM     30  C   UNL A   1      39.037  19.744  25.265  1.00  0.00     0.021 C 
BRANCH  30  31
ATOM     31  C   UNL A   1      40.002  19.557  26.427  1.00  0.00     0.116 C 
BRANCH  31  32
ATOM     32  N   UNL A   1      41.193  18.816  26.046  1.00  0.00    -0.352 N 
ATOM     33  C   UNL A   1      42.470  19.271  25.817  1.00  0.00     0.251 C 
ATOM     34  H   UNL A   1      41.066  17.847  25.935  1.00  0.00     0.163 HD
ATOM     35  O   UNL A   1      43.312  18.522  25.330  1.00  0.00    -0.269 OA
BRANCH  33  36
ATOM     36  C   UNL A   1      42.833  20.669  26.140  1.00  0.00     0.039 A 
ATOM     37  C   UNL A   1      43.305  21.507  25.124  1.00  0.00     0.014 A 
ATOM     38  C   UNL A   1      42.722  21.150  27.446  1.00  0.00     0.014 A 
ATOM     39  C   UNL A   1      43.603  22.845  25.405  1.00  0.00     0.010 A 
ATOM     40  C   UNL A   1      42.937  22.498  27.706  1.00  0.00     0.010 A 
ATOM     41  C   UNL A   1      43.389  23.359  26.692  1.00  0.00    -0.014 A 
BRANCH  41  42
ATOM     42  C   UNL A   1      43.659  24.778  27.040  1.00  0.00     0.031 A 
ATOM     43  C   UNL A   1      45.083  25.246  27.158  1.00  0.00     0.074 A 
ATOM     44  C   UNL A   1      42.645  25.605  27.360  1.00  0.00     0.049 A 
ATOM     45  N   UNL A   1      45.556  26.361  27.652  1.00  0.00    -0.248 NA
ATOM     46  C   UNL A   1      46.119  24.308  26.692  1.00  0.00     0.031 C 
ATOM     47  C   UNL A   1      41.224  25.266  27.301  1.00  0.00     0.029 A 
ATOM     48  N   UNL A   1      42.660  26.896  27.828  1.00  0.00    -0.354 N 
ATOM     49  C   UNL A   1      46.939  26.245  27.584  1.00  0.00     0.074 A 
ATOM     50  C   UNL A   1      47.230  24.932  27.053  1.00  0.00     0.031 C 
ATOM     51  C   UNL A   1      40.503  26.323  27.711  1.00  0.00     0.029 A 
ATOM     52  C   UNL A   1      41.411  27.393  28.113  1.00  0.00     0.049 A 
ATOM     53  H   UNL A   1      43.488  27.416  27.948  1.00  0.00     0.167 HD
ATOM     54  C   UNL A   1      47.880  27.161  27.919  1.00  0.00     0.037 A 
ATOM     55  C   UNL A   1      41.044  28.568  28.661  1.00  0.00     0.037 A 
ATOM     56  C   UNL A   1      47.579  28.475  28.419  1.00  0.00     0.049 A 
ATOM     57  C   UNL A   1      42.110  29.559  29.053  1.00  0.00     0.074 A 
ATOM     58  C   UNL A   1      48.453  29.496  28.745  1.00  0.00     0.029 A 
ATOM     59  N   UNL A   1      46.299  28.950  28.665  1.00  0.00    -0.354 N 
ATOM     60  N   UNL A   1      43.413  29.457  28.953  1.00  0.00    -0.248 NA
ATOM     61  C   UNL A   1      41.654  30.830  29.635  1.00  0.00     0.031 C 
ATOM     62  C   UNL A   1      47.707  30.569  29.237  1.00  0.00     0.029 A 
ATOM     63  C   UNL A   1      46.362  30.243  29.156  1.00  0.00     0.049 A 
ATOM     64  H   UNL A   1      45.468  28.444  28.511  1.00  0.00     0.167 HD
ATOM     65  C   UNL A   1      43.929  30.661  29.413  1.00  0.00     0.074 A 
ATOM     66  C   UNL A   1      42.799  31.480  29.798  1.00  0.00     0.031 C 
ATOM     67  C   UNL A   1      45.223  31.055  29.502  1.00  0.00     0.037 A 
BRANCH  54  68
ATOM     68  C   UNL A   1      49.321  26.767  27.759  1.00  0.00     0.064 A 
ATOM     69  C   UNL A   1      50.110  26.388  28.856  1.00  0.00     0.173 A 
ATOM     70  C   UNL A   1      49.915  26.746  26.488  1.00  0.00     0.173 A 
ATOM     71  F   UNL A   1      49.597  26.400  30.094  1.00  0.00    -0.203 F 
ATOM     72  C   UNL A   1      51.449  26.040  28.691  1.00  0.00     0.198 A 
ATOM     73  C   UNL A   1      51.244  26.361  26.322  1.00  0.00     0.198 A 
ATOM     74  F   UNL A   1      49.206  27.093  25.403  1.00  0.00    -0.203 F 
ATOM     75  F   UNL A   1      52.198  25.742  29.761  1.00  0.00    -0.200 F 
ATOM     76  C   UNL A   1      52.012  26.020  27.424  1.00  0.00     0.200 A 
ATOM     77  F   UNL A   1      51.781  26.327  25.095  1.00  0.00    -0.200 F 
ATOM     78  F   UNL A   1      53.299  25.679  27.266  1.00  0.00    -0.200 F 
ENDBRANCH  54  68
BRANCH  55  79
ATOM     79  C   UNL A   1      39.604  28.881  28.860  1.00  0.00     0.064 A 
ATOM     80  C   UNL A   1      39.002  28.717  30.117  1.00  0.00     0.173 A 
ATOM     81  C   UNL A   1      38.797  29.339  27.809  1.00  0.00     0.173 A 
ATOM     82  F   UNL A   1      39.725  28.261  31.150  1.00  0.00    -0.203 F 
ATOM     83  C   UNL A   1      37.647  28.979  30.308  1.00  0.00     0.198 A 
ATOM     84  C   UNL A   1      37.449  29.630  28.007  1.00  0.00     0.198 A 
ATOM     85  F   UNL A   1      39.323  29.516  26.587  1.00  0.00    -0.203 F 
ATOM     86  F   UNL A   1      37.089  28.765  31.507  1.00  0.00    -0.200 F 
ATOM     87  C   UNL A   1      36.872  29.440  29.255  1.00  0.00     0.200 A 
ATOM     88  F   UNL A   1      36.708  30.090  26.991  1.00  0.00    -0.200 F 
ATOM     89  F   UNL A   1      35.570  29.695  29.439  1.00  0.00    -0.200 F 
ENDBRANCH  55  79
BRANCH  67  90
ATOM     90  C   UNL A   1      45.497  32.456  29.965  1.00  0.00     0.064 A 
ATOM     91  C   UNL A   1      45.524  33.541  29.077  1.00  0.00     0.173 A 
ATOM     92  C   UNL A   1      45.648  32.723  31.335  1.00  0.00     0.173 A 
ATOM     93  F   UNL A   1      45.398  33.336  27.757  1.00  0.00    -0.203 F 
ATOM     94  C   UNL A   1      45.701  34.840  29.544  1.00  0.00     0.198 A 
ATOM     95  C   UNL A   1      45.793  34.026  31.801  1.00  0.00     0.198 A 
ATOM     96  F   UNL A   1      45.622  31.721  32.226  1.00  0.00    -0.203 F 
ATOM     97  F   UNL A   1      45.755  35.859  28.675  1.00  0.00    -0.200 F 
ATOM     98  C   UNL A   1      45.823  35.084  30.904  1.00  0.00     0.200 A 
ATOM     99  F   UNL A   1      45.893  34.260  33.117  1.00  0.00    -0.200 F 
ATOM    100  F   UNL A   1      45.969  36.338  31.352  1.00  0.00    -0.200 F 
ENDBRANCH  67  90
ENDBRANCH  41  42
ENDBRANCH  33  36
ENDBRANCH  31  32
ENDBRANCH  30  31
ENDBRANCH  29  30
ENDBRANCH  28  29
ENDBRANCH   1  28
TORSDOF 19
ENDMDL
