MODEL 1
REMARK VINA RESULT:     -11.4      0.000      0.000
REMARK SMILES CCc1ccc(CNC(=O)CCC(=O)NCCCCCCNC(=O)c2ccc(-c3c4nc(c(-c5c(F)c(F)c(F)c(F)c5F)c5ccc([nH]5)c(-c5c(F)c(F)c(F)c(F)c5F)c5nc(c(-c6c(F)c(F)c(F)c(F)c6F)c6ccc3[nH]6)C=C5)C=C4)cc2)cc1
REMARK SMILES IDX 17 1 16 2 15 3 13 4 14 5 12 7 11 8 9 9 8 10 10 12 7 13 6 14
REMARK SMILES IDX 3 15 4 16 89 17 5 18 88 19 2 20 1 21 18 22 19 23 20 24 21 25
REMARK SMILES IDX 22 26 23 27 24 29 25 30 26 31 87 32 27 33 86 34 28 35 29 36
REMARK SMILES IDX 30 37 80 38 31 39 85 40 79 41 81 42 32 43 84 44 78 45 77 46
REMARK SMILES IDX 33 48 65 49 45 50 64 51 46 52 49 53 63 54 82 55 47 56 48 57
REMARK SMILES IDX 62 59 83 60 50 61 34 62 35 63 43 64 36 65 37 66 41 67 44 68
REMARK SMILES IDX 38 69 39 70 42 71 40 72 66 73 67 74 75 75 68 76 69 77 73 78
REMARK SMILES IDX 76 79 70 80 71 81 74 82 72 83 51 84 52 85 60 86 53 87 54 88
REMARK SMILES IDX 58 89 61 90 55 91 56 92 59 93 57 94
REMARK H PARENT 15 6 8 11 22 28 81 47 49 58
REMARK Flexibility Score: inf
ROOT
ATOM      1  C   UNL A   1      33.754  28.976  26.663  1.00  0.00     0.021 C 
ENDROOT
BRANCH   1   2
ATOM      2  C   UNL A   1      33.039  27.866  25.884  1.00  0.00     0.116 C 
BRANCH   2   3
ATOM      3  N   UNL A   1      33.683  26.567  25.850  1.00  0.00    -0.356 N 
ATOM      4  C   UNL A   1      33.770  25.646  24.846  1.00  0.00     0.220 C 
ATOM      5  O   UNL A   1      34.723  24.866  24.802  1.00  0.00    -0.275 OA
ATOM      6  H   UNL A   1      34.129  26.308  26.688  1.00  0.00     0.163 HD
BRANCH   4   7
ATOM      7  C   UNL A   1      32.636  25.460  23.884  1.00  0.00     0.110 C 
BRANCH   7   8
ATOM      8  C   UNL A   1      31.645  24.464  24.489  1.00  0.00     0.110 C 
BRANCH   8   9
ATOM      9  C   UNL A   1      30.676  25.135  25.440  1.00  0.00     0.220 C 
ATOM     10  N   UNL A   1      29.528  25.750  25.023  1.00  0.00    -0.352 N 
ATOM     11  H   UNL A   1      28.876  25.897  25.745  1.00  0.00     0.163 HD
ATOM     12  O   UNL A   1      30.897  25.077  26.655  1.00  0.00    -0.275 OA
BRANCH  10  13
ATOM     13  C   UNL A   1      29.075  26.234  23.714  1.00  0.00     0.151 C 
BRANCH  13  14
ATOM     14  C   UNL A   1      28.981  27.752  23.538  1.00  0.00    -0.029 A 
ATOM     15  C   UNL A   1      28.701  30.586  23.134  1.00  0.00    -0.048 A 
ATOM     16  C   UNL A   1      27.609  29.732  23.034  1.00  0.00     0.004 A 
ATOM     17  C   UNL A   1      29.945  30.013  23.435  1.00  0.00     0.004 A 
ATOM     18  C   UNL A   1      27.769  28.347  23.169  1.00  0.00     0.006 A 
ATOM     19  C   UNL A   1      30.079  28.619  23.658  1.00  0.00     0.006 A 
BRANCH  15  20
ATOM     20  C   UNL A   1      28.503  32.065  22.883  1.00  0.00     0.032 C 
ATOM     21  C   UNL A   1      28.115  32.397  21.448  1.00  0.00     0.009 C 
ENDBRANCH  15  20
ENDBRANCH  13  14
ENDBRANCH  10  13
ENDBRANCH   8   9
ENDBRANCH   7   8
ENDBRANCH   4   7
ENDBRANCH   2   3
ENDBRANCH   1   2
BRANCH   1  22
ATOM     22  C   UNL A   1      32.907  30.082  27.305  1.00  0.00     0.002 C 
BRANCH  22  23
ATOM     23  C   UNL A   1      31.743  30.653  26.499  1.00  0.00     0.002 C 
BRANCH  23  24
ATOM     24  C   UNL A   1      31.559  32.161  26.606  1.00  0.00     0.021 C 
BRANCH  24  25
ATOM     25  C   UNL A   1      32.725  32.906  27.245  1.00  0.00     0.116 C 
BRANCH  25  26
ATOM     26  N   UNL A   1      32.394  34.272  27.625  1.00  0.00    -0.352 N 
ATOM     27  C   UNL A   1      32.960  35.020  28.630  1.00  0.00     0.251 C 
ATOM     28  H   UNL A   1      31.685  34.710  27.102  1.00  0.00     0.163 HD
ATOM     29  O   UNL A   1      32.499  36.113  28.952  1.00  0.00    -0.269 OA
BRANCH  27  30
ATOM     30  C   UNL A   1      34.126  34.466  29.346  1.00  0.00     0.039 A 
ATOM     31  C   UNL A   1      33.923  33.707  30.500  1.00  0.00     0.014 A 
ATOM     32  C   UNL A   1      35.410  34.629  28.818  1.00  0.00     0.014 A 
ATOM     33  C   UNL A   1      35.007  33.056  31.092  1.00  0.00     0.010 A 
ATOM     34  C   UNL A   1      36.472  33.914  29.361  1.00  0.00     0.010 A 
ATOM     35  C   UNL A   1      36.283  33.126  30.506  1.00  0.00    -0.014 A 
BRANCH  35  36
ATOM     36  C   UNL A   1      37.435  32.390  31.087  1.00  0.00     0.031 A 
ATOM     37  C   UNL A   1      37.948  32.756  32.452  1.00  0.00     0.074 A 
ATOM     38  C   UNL A   1      38.051  31.432  30.367  1.00  0.00     0.049 A 
ATOM     39  N   UNL A   1      38.962  32.262  33.118  1.00  0.00    -0.248 NA
ATOM     40  C   UNL A   1      37.246  33.843  33.152  1.00  0.00     0.031 C 
ATOM     41  C   UNL A   1      37.679  31.021  29.012  1.00  0.00     0.029 A 
ATOM     42  N   UNL A   1      39.125  30.632  30.672  1.00  0.00    -0.354 N 
ATOM     43  C   UNL A   1      39.023  32.985  34.301  1.00  0.00     0.074 A 
ATOM     44  C   UNL A   1      37.988  33.993  34.237  1.00  0.00     0.031 C 
ATOM     45  C   UNL A   1      38.490  30.025  28.616  1.00  0.00     0.029 A 
ATOM     46  C   UNL A   1      39.462  29.754  29.671  1.00  0.00     0.049 A 
ATOM     47  H   UNL A   1      39.608  30.683  31.529  1.00  0.00     0.167 HD
ATOM     48  C   UNL A   1      39.849  32.806  35.360  1.00  0.00     0.037 A 
ATOM     49  C   UNL A   1      40.447  28.837  29.611  1.00  0.00     0.037 A 
ATOM     50  C   UNL A   1      40.865  31.789  35.426  1.00  0.00     0.049 A 
ATOM     51  C   UNL A   1      41.364  28.670  30.795  1.00  0.00     0.074 A 
ATOM     52  C   UNL A   1      41.713  31.484  36.474  1.00  0.00     0.029 A 
ATOM     53  N   UNL A   1      41.174  30.914  34.393  1.00  0.00    -0.354 N 
ATOM     54  N   UNL A   1      41.360  29.304  31.943  1.00  0.00    -0.248 NA
ATOM     55  C   UNL A   1      42.419  27.654  30.675  1.00  0.00     0.031 C 
ATOM     56  C   UNL A   1      42.577  30.465  36.056  1.00  0.00     0.029 A 
ATOM     57  C   UNL A   1      42.221  30.090  34.770  1.00  0.00     0.049 A 
ATOM     58  H   UNL A   1      40.716  30.884  33.522  1.00  0.00     0.167 HD
ATOM     59  C   UNL A   1      42.384  28.741  32.694  1.00  0.00     0.074 A 
ATOM     60  C   UNL A   1      42.978  27.704  31.875  1.00  0.00     0.031 C 
ATOM     61  C   UNL A   1      42.795  29.055  33.947  1.00  0.00     0.037 A 
BRANCH  48  62
ATOM     62  C   UNL A   1      39.690  33.736  36.530  1.00  0.00     0.064 A 
ATOM     63  C   UNL A   1      38.844  33.429  37.607  1.00  0.00     0.173 A 
ATOM     64  C   UNL A   1      40.414  34.936  36.590  1.00  0.00     0.173 A 
ATOM     65  F   UNL A   1      38.120  32.300  37.597  1.00  0.00    -0.203 F 
ATOM     66  C   UNL A   1      38.702  34.305  38.680  1.00  0.00     0.198 A 
ATOM     67  C   UNL A   1      40.297  35.792  37.681  1.00  0.00     0.198 A 
ATOM     68  F   UNL A   1      41.243  35.276  35.591  1.00  0.00    -0.203 F 
ATOM     69  F   UNL A   1      37.842  34.018  39.668  1.00  0.00    -0.200 F 
ATOM     70  C   UNL A   1      39.433  35.482  38.720  1.00  0.00     0.200 A 
ATOM     71  F   UNL A   1      41.018  36.921  37.725  1.00  0.00    -0.200 F 
ATOM     72  F   UNL A   1      39.301  36.321  39.756  1.00  0.00    -0.200 F 
ENDBRANCH  48  62
BRANCH  49  73
ATOM     73  C   UNL A   1      40.603  27.984  28.402  1.00  0.00     0.064 A 
ATOM     74  C   UNL A   1      40.001  26.719  28.330  1.00  0.00     0.173 A 
ATOM     75  C   UNL A   1      41.364  28.405  27.302  1.00  0.00     0.173 A 
ATOM     76  F   UNL A   1      39.279  26.262  29.364  1.00  0.00    -0.203 F 
ATOM     77  C   UNL A   1      40.177  25.898  27.218  1.00  0.00     0.198 A 
ATOM     78  C   UNL A   1      41.513  27.597  26.177  1.00  0.00     0.198 A 
ATOM     79  F   UNL A   1      41.957  29.607  27.315  1.00  0.00    -0.203 F 
ATOM     80  F   UNL A   1      39.635  24.673  27.200  1.00  0.00    -0.200 F 
ATOM     81  C   UNL A   1      40.928  26.340  26.140  1.00  0.00     0.200 A 
ATOM     82  F   UNL A   1      42.226  28.034  25.130  1.00  0.00    -0.200 F 
ATOM     83  F   UNL A   1      41.095  25.551  25.069  1.00  0.00    -0.200 F 
ENDBRANCH  49  73
BRANCH  61  84
ATOM     84  C   UNL A   1      43.913  28.238  34.530  1.00  0.00     0.064 A 
ATOM     85  C   UNL A   1      45.253  28.644  34.440  1.00  0.00     0.173 A 
ATOM     86  C   UNL A   1      43.634  27.050  35.224  1.00  0.00     0.173 A 
ATOM     87  F   UNL A   1      45.577  29.764  33.777  1.00  0.00    -0.203 F 
ATOM     88  C   UNL A   1      46.273  27.875  34.995  1.00  0.00     0.198 A 
ATOM     89  C   UNL A   1      44.653  26.302  35.808  1.00  0.00     0.198 A 
ATOM     90  F   UNL A   1      42.369  26.619  35.347  1.00  0.00    -0.203 F 
ATOM     91  F   UNL A   1      47.550  28.253  34.848  1.00  0.00    -0.200 F 
ATOM     92  C   UNL A   1      45.971  26.710  35.686  1.00  0.00     0.200 A 
ATOM     93  F   UNL A   1      44.356  25.187  36.490  1.00  0.00    -0.200 F 
ATOM     94  F   UNL A   1      46.953  25.976  36.225  1.00  0.00    -0.200 F 
ENDBRANCH  61  84
ENDBRANCH  35  36
ENDBRANCH  27  30
ENDBRANCH  25  26
ENDBRANCH  24  25
ENDBRANCH  23  24
ENDBRANCH  22  23
ENDBRANCH   1  22
TORSDOF 18
ENDMDL
MODEL 2
REMARK VINA RESULT:     -11.3      0.881      2.187
REMARK SMILES CCc1ccc(CNC(=O)CCC(=O)NCCCCCCNC(=O)c2ccc(-c3c4nc(c(-c5c(F)c(F)c(F)c(F)c5F)c5ccc([nH]5)c(-c5c(F)c(F)c(F)c(F)c5F)c5nc(c(-c6c(F)c(F)c(F)c(F)c6F)c6ccc3[nH]6)C=C5)C=C4)cc2)cc1
REMARK SMILES IDX 17 1 16 2 15 3 13 4 14 5 12 7 11 8 9 9 8 10 10 12 7 13 6 14
REMARK SMILES IDX 3 15 4 16 89 17 5 18 88 19 2 20 1 21 18 22 19 23 20 24 21 25
REMARK SMILES IDX 22 26 23 27 24 29 25 30 26 31 87 32 27 33 86 34 28 35 29 36
REMARK SMILES IDX 30 37 80 38 31 39 85 40 79 41 81 42 32 43 84 44 78 45 77 46
REMARK SMILES IDX 33 48 65 49 45 50 64 51 46 52 49 53 63 54 82 55 47 56 48 57
REMARK SMILES IDX 62 59 83 60 50 61 34 62 35 63 43 64 36 65 37 66 41 67 44 68
REMARK SMILES IDX 38 69 39 70 42 71 40 72 66 73 67 74 75 75 68 76 69 77 73 78
REMARK SMILES IDX 76 79 70 80 71 81 74 82 72 83 51 84 52 85 60 86 53 87 54 88
REMARK SMILES IDX 58 89 61 90 55 91 56 92 59 93 57 94
REMARK H PARENT 15 6 8 11 22 28 81 47 49 58
REMARK Flexibility Score: inf
ROOT
ATOM      1  C   UNL A   1      31.236  27.806  26.446  1.00  0.00     0.021 C 
ENDROOT
BRANCH   1   2
ATOM      2  C   UNL A   1      32.055  26.510  26.488  1.00  0.00     0.116 C 
BRANCH   2   3
ATOM      3  N   UNL A   1      31.317  25.271  26.637  1.00  0.00    -0.356 N 
ATOM      4  C   UNL A   1      31.752  24.009  26.928  1.00  0.00     0.220 C 
ATOM      5  O   UNL A   1      31.001  23.210  27.490  1.00  0.00    -0.275 OA
ATOM      6  H   UNL A   1      30.346  25.353  26.506  1.00  0.00     0.163 HD
BRANCH   4   7
ATOM      7  C   UNL A   1      33.078  23.527  26.426  1.00  0.00     0.110 C 
BRANCH   7   8
ATOM      8  C   UNL A   1      32.949  23.218  24.933  1.00  0.00     0.110 C 
BRANCH   8   9
ATOM      9  C   UNL A   1      33.767  24.171  24.085  1.00  0.00     0.220 C 
ATOM     10  N   UNL A   1      33.205  25.073  23.226  1.00  0.00    -0.352 N 
ATOM     11  H   UNL A   1      33.818  25.792  22.954  1.00  0.00     0.163 HD
ATOM     12  O   UNL A   1      34.996  24.177  24.213  1.00  0.00    -0.275 OA
BRANCH  10  13
ATOM     13  C   UNL A   1      31.869  25.183  22.628  1.00  0.00     0.151 C 
BRANCH  13  14
ATOM     14  C   UNL A   1      31.132  26.509  22.834  1.00  0.00    -0.029 A 
ATOM     15  C   UNL A   1      29.859  29.057  23.239  1.00  0.00    -0.048 A 
ATOM     16  C   UNL A   1      31.178  28.969  22.806  1.00  0.00     0.004 A 
ATOM     17  C   UNL A   1      29.175  27.855  23.475  1.00  0.00     0.004 A 
ATOM     18  C   UNL A   1      31.806  27.725  22.674  1.00  0.00     0.006 A 
ATOM     19  C   UNL A   1      29.794  26.600  23.252  1.00  0.00     0.006 A 
BRANCH  15  20
ATOM     20  C   UNL A   1      29.247  30.422  23.464  1.00  0.00     0.032 C 
ATOM     21  C   UNL A   1      27.743  30.466  23.233  1.00  0.00     0.009 C 
ENDBRANCH  15  20
ENDBRANCH  13  14
ENDBRANCH  10  13
ENDBRANCH   8   9
ENDBRANCH   7   8
ENDBRANCH   4   7
ENDBRANCH   2   3
ENDBRANCH   1   2
BRANCH   1  22
ATOM     22  C   UNL A   1      31.844  29.076  27.053  1.00  0.00     0.002 C 
BRANCH  22  23
ATOM     23  C   UNL A   1      32.005  30.297  26.150  1.00  0.00     0.002 C 
BRANCH  23  24
ATOM     24  C   UNL A   1      31.667  31.632  26.800  1.00  0.00     0.021 C 
BRANCH  24  25
ATOM     25  C   UNL A   1      32.870  32.510  27.124  1.00  0.00     0.116 C 
BRANCH  25  26
ATOM     26  N   UNL A   1      32.505  33.875  27.475  1.00  0.00    -0.352 N 
ATOM     27  C   UNL A   1      33.034  34.649  28.481  1.00  0.00     0.251 C 
ATOM     28  H   UNL A   1      31.799  34.292  26.930  1.00  0.00     0.163 HD
ATOM     29  O   UNL A   1      32.546  35.737  28.777  1.00  0.00    -0.269 OA
BRANCH  27  30
ATOM     30  C   UNL A   1      34.194  34.127  29.232  1.00  0.00     0.039 A 
ATOM     31  C   UNL A   1      33.980  33.265  30.308  1.00  0.00     0.014 A 
ATOM     32  C   UNL A   1      35.491  34.429  28.806  1.00  0.00     0.014 A 
ATOM     33  C   UNL A   1      35.075  32.651  30.922  1.00  0.00     0.010 A 
ATOM     34  C   UNL A   1      36.570  33.754  29.365  1.00  0.00     0.010 A 
ATOM     35  C   UNL A   1      36.375  32.863  30.432  1.00  0.00    -0.014 A 
BRANCH  35  36
ATOM     36  C   UNL A   1      37.544  32.171  31.032  1.00  0.00     0.031 A 
ATOM     37  C   UNL A   1      38.017  32.554  32.407  1.00  0.00     0.074 A 
ATOM     38  C   UNL A   1      38.210  31.239  30.322  1.00  0.00     0.049 A 
ATOM     39  N   UNL A   1      39.037  32.098  33.091  1.00  0.00    -0.248 NA
ATOM     40  C   UNL A   1      37.260  33.612  33.095  1.00  0.00     0.031 C 
ATOM     41  C   UNL A   1      37.878  30.817  28.960  1.00  0.00     0.029 A 
ATOM     42  N   UNL A   1      39.308  30.481  30.646  1.00  0.00    -0.354 N 
ATOM     43  C   UNL A   1      39.048  32.820  34.276  1.00  0.00     0.074 A 
ATOM     44  C   UNL A   1      37.977  33.787  34.195  1.00  0.00     0.031 C 
ATOM     45  C   UNL A   1      38.734  29.854  28.578  1.00  0.00     0.029 A 
ATOM     46  C   UNL A   1      39.697  29.619  29.650  1.00  0.00     0.049 A 
ATOM     47  H   UNL A   1      39.773  30.549  31.511  1.00  0.00     0.167 HD
ATOM     48  C   UNL A   1      39.861  32.672  35.349  1.00  0.00     0.037 A 
ATOM     49  C   UNL A   1      40.717  28.741  29.607  1.00  0.00     0.037 A 
ATOM     50  C   UNL A   1      40.914  31.694  35.432  1.00  0.00     0.049 A 
ATOM     51  C   UNL A   1      41.618  28.607  30.807  1.00  0.00     0.074 A 
ATOM     52  C   UNL A   1      41.755  31.419  36.496  1.00  0.00     0.029 A 
ATOM     53  N   UNL A   1      41.276  30.834  34.404  1.00  0.00    -0.354 N 
ATOM     54  N   UNL A   1      41.568  29.237  31.955  1.00  0.00    -0.248 NA
ATOM     55  C   UNL A   1      42.714  27.632  30.705  1.00  0.00     0.031 C 
ATOM     56  C   UNL A   1      42.664  30.436  36.092  1.00  0.00     0.029 A 
ATOM     57  C   UNL A   1      42.347  30.050  34.799  1.00  0.00     0.049 A 
ATOM     58  H   UNL A   1      40.835  30.788  33.525  1.00  0.00     0.167 HD
ATOM     59  C   UNL A   1      42.600  28.713  32.724  1.00  0.00     0.074 A 
ATOM     60  C   UNL A   1      43.248  27.701  31.915  1.00  0.00     0.031 C 
ATOM     61  C   UNL A   1      42.976  29.040  33.985  1.00  0.00     0.037 A 
BRANCH  48  62
ATOM     62  C   UNL A   1      39.645  33.591  36.518  1.00  0.00     0.064 A 
ATOM     63  C   UNL A   1      38.836  33.227  37.605  1.00  0.00     0.173 A 
ATOM     64  C   UNL A   1      40.278  34.842  36.565  1.00  0.00     0.173 A 
ATOM     65  F   UNL A   1      38.197  32.047  37.606  1.00  0.00    -0.203 F 
ATOM     66  C   UNL A   1      38.639  34.095  38.676  1.00  0.00     0.198 A 
ATOM     67  C   UNL A   1      40.108  35.692  37.655  1.00  0.00     0.198 A 
ATOM     68  F   UNL A   1      41.069  35.240  35.557  1.00  0.00    -0.203 F 
ATOM     69  F   UNL A   1      37.813  33.749  39.674  1.00  0.00    -0.200 F 
ATOM     70  C   UNL A   1      39.280  35.323  38.704  1.00  0.00     0.200 A 
ATOM     71  F   UNL A   1      40.743  36.873  37.688  1.00  0.00    -0.200 F 
ATOM     72  F   UNL A   1      39.097  36.154  39.739  1.00  0.00    -0.200 F 
ENDBRANCH  48  62
BRANCH  49  73
ATOM     73  C   UNL A   1      40.928  27.897  28.399  1.00  0.00     0.064 A 
ATOM     74  C   UNL A   1      41.695  28.363  27.321  1.00  0.00     0.173 A 
ATOM     75  C   UNL A   1      40.360  26.621  28.289  1.00  0.00     0.173 A 
ATOM     76  F   UNL A   1      42.242  29.587  27.367  1.00  0.00    -0.203 F 
ATOM     77  C   UNL A   1      41.861  27.595  26.169  1.00  0.00     0.198 A 
ATOM     78  C   UNL A   1      40.555  25.840  27.151  1.00  0.00     0.198 A 
ATOM     79  F   UNL A   1      39.622  26.124  29.293  1.00  0.00    -0.203 F 
ATOM     80  F   UNL A   1      42.553  28.088  25.133  1.00  0.00    -0.200 F 
ATOM     81  C   UNL A   1      41.296  26.332  26.088  1.00  0.00     0.200 A 
ATOM     82  F   UNL A   1      40.020  24.613  27.083  1.00  0.00    -0.200 F 
ATOM     83  F   UNL A   1      41.459  25.593  24.982  1.00  0.00    -0.200 F 
ENDBRANCH  49  73
BRANCH  61  84
ATOM     84  C   UNL A   1      44.114  28.265  34.588  1.00  0.00     0.064 A 
ATOM     85  C   UNL A   1      43.908  27.059  35.274  1.00  0.00     0.173 A 
ATOM     86  C   UNL A   1      45.433  28.719  34.440  1.00  0.00     0.173 A 
ATOM     87  F   UNL A   1      42.666  26.587  35.454  1.00  0.00    -0.203 F 
ATOM     88  C   UNL A   1      44.979  26.354  35.817  1.00  0.00     0.198 A 
ATOM     89  C   UNL A   1      46.505  27.993  34.954  1.00  0.00     0.198 A 
ATOM     90  F   UNL A   1      45.688  29.863  33.786  1.00  0.00    -0.203 F 
ATOM     91  F   UNL A   1      44.754  25.233  36.518  1.00  0.00    -0.200 F 
ATOM     92  C   UNL A   1      46.276  26.816  35.650  1.00  0.00     0.200 A 
ATOM     93  F   UNL A   1      47.758  28.433  34.775  1.00  0.00    -0.200 F 
ATOM     94  F   UNL A   1      47.305  26.131  36.166  1.00  0.00    -0.200 F 
ENDBRANCH  61  84
ENDBRANCH  35  36
ENDBRANCH  27  30
ENDBRANCH  25  26
ENDBRANCH  24  25
ENDBRANCH  23  24
ENDBRANCH  22  23
ENDBRANCH   1  22
TORSDOF 18
ENDMDL
MODEL 3
REMARK VINA RESULT:     -11.3      5.404     10.869
REMARK SMILES CCc1ccc(CNC(=O)CCC(=O)NCCCCCCNC(=O)c2ccc(-c3c4nc(c(-c5c(F)c(F)c(F)c(F)c5F)c5ccc([nH]5)c(-c5c(F)c(F)c(F)c(F)c5F)c5nc(c(-c6c(F)c(F)c(F)c(F)c6F)c6ccc3[nH]6)C=C5)C=C4)cc2)cc1
REMARK SMILES IDX 17 1 16 2 15 3 13 4 14 5 12 7 11 8 9 9 8 10 10 12 7 13 6 14
REMARK SMILES IDX 3 15 4 16 89 17 5 18 88 19 2 20 1 21 18 22 19 23 20 24 21 25
REMARK SMILES IDX 22 26 23 27 24 29 25 30 26 31 87 32 27 33 86 34 28 35 29 36
REMARK SMILES IDX 30 37 80 38 31 39 85 40 79 41 81 42 32 43 84 44 78 45 77 46
REMARK SMILES IDX 33 48 65 49 45 50 64 51 46 52 49 53 63 54 82 55 47 56 48 57
REMARK SMILES IDX 62 59 83 60 50 61 34 62 35 63 43 64 36 65 37 66 41 67 44 68
REMARK SMILES IDX 38 69 39 70 42 71 40 72 66 73 67 74 75 75 68 76 69 77 73 78
REMARK SMILES IDX 76 79 70 80 71 81 74 82 72 83 51 84 52 85 60 86 53 87 54 88
REMARK SMILES IDX 58 89 61 90 55 91 56 92 59 93 57 94
REMARK H PARENT 15 6 8 11 22 28 81 47 49 58
REMARK Flexibility Score: inf
ROOT
ATOM      1  C   UNL A   1      36.580  23.202  24.789  1.00  0.00     0.021 C 
ENDROOT
BRANCH   1   2
ATOM      2  C   UNL A   1      35.965  23.863  26.029  1.00  0.00     0.116 C 
BRANCH   2   3
ATOM      3  N   UNL A   1      35.279  22.993  26.965  1.00  0.00    -0.356 N 
ATOM      4  C   UNL A   1      33.975  22.587  27.007  1.00  0.00     0.220 C 
ATOM      5  O   UNL A   1      33.678  21.511  27.529  1.00  0.00    -0.275 OA
ATOM      6  H   UNL A   1      35.845  22.639  27.687  1.00  0.00     0.163 HD
BRANCH   4   7
ATOM      7  C   UNL A   1      32.878  23.509  26.570  1.00  0.00     0.110 C 
BRANCH   7   8
ATOM      8  C   UNL A   1      31.612  22.682  26.341  1.00  0.00     0.110 C 
BRANCH   8   9
ATOM      9  C   UNL A   1      30.358  23.454  26.700  1.00  0.00     0.220 C 
ATOM     10  N   UNL A   1      29.929  24.545  25.997  1.00  0.00    -0.352 N 
ATOM     11  H   UNL A   1      28.987  24.774  26.164  1.00  0.00     0.163 HD
ATOM     12  O   UNL A   1      29.656  23.049  27.633  1.00  0.00    -0.275 OA
BRANCH  10  13
ATOM     13  C   UNL A   1      30.591  25.443  25.045  1.00  0.00     0.151 C 
BRANCH  13  14
ATOM     14  C   UNL A   1      30.978  26.830  25.563  1.00  0.00    -0.029 A 
ATOM     15  C   UNL A   1      31.742  29.469  26.418  1.00  0.00    -0.048 A 
ATOM     16  C   UNL A   1      31.386  29.212  25.097  1.00  0.00     0.004 A 
ATOM     17  C   UNL A   1      31.717  28.392  27.315  1.00  0.00     0.004 A 
ATOM     18  C   UNL A   1      31.079  27.911  24.680  1.00  0.00     0.006 A 
ATOM     19  C   UNL A   1      31.318  27.096  26.899  1.00  0.00     0.006 A 
BRANCH  15  20
ATOM     20  C   UNL A   1      32.163  30.869  26.807  1.00  0.00     0.032 C 
ATOM     21  C   UNL A   1      33.584  30.953  27.348  1.00  0.00     0.009 C 
ENDBRANCH  15  20
ENDBRANCH  13  14
ENDBRANCH  10  13
ENDBRANCH   8   9
ENDBRANCH   7   8
ENDBRANCH   4   7
ENDBRANCH   2   3
ENDBRANCH   1   2
BRANCH   1  22
ATOM     22  C   UNL A   1      37.615  22.088  24.991  1.00  0.00     0.002 C 
BRANCH  22  23
ATOM     23  C   UNL A   1      37.127  20.642  24.964  1.00  0.00     0.002 C 
BRANCH  23  24
ATOM     24  C   UNL A   1      38.223  19.587  25.017  1.00  0.00     0.021 C 
BRANCH  24  25
ATOM     25  C   UNL A   1      39.475  20.000  25.781  1.00  0.00     0.116 C 
BRANCH  25  26
ATOM     26  N   UNL A   1      40.453  18.929  25.903  1.00  0.00    -0.352 N 
ATOM     27  C   UNL A   1      41.804  19.052  26.126  1.00  0.00     0.251 C 
ATOM     28  H   UNL A   1      40.108  18.011  25.816  1.00  0.00     0.163 HD
ATOM     29  O   UNL A   1      42.555  18.081  26.066  1.00  0.00    -0.269 OA
BRANCH  27  30
ATOM     30  C   UNL A   1      42.349  20.394  26.411  1.00  0.00     0.039 A 
ATOM     31  C   UNL A   1      42.744  21.211  25.351  1.00  0.00     0.014 A 
ATOM     32  C   UNL A   1      42.382  20.868  27.726  1.00  0.00     0.014 A 
ATOM     33  C   UNL A   1      43.115  22.533  25.606  1.00  0.00     0.010 A 
ATOM     34  C   UNL A   1      42.673  22.206  27.967  1.00  0.00     0.010 A 
ATOM     35  C   UNL A   1      43.048  23.051  26.911  1.00  0.00    -0.014 A 
BRANCH  35  36
ATOM     36  C   UNL A   1      43.379  24.471  27.191  1.00  0.00     0.031 A 
ATOM     37  C   UNL A   1      44.768  24.983  26.929  1.00  0.00     0.074 A 
ATOM     38  C   UNL A   1      42.449  25.284  27.731  1.00  0.00     0.049 A 
ATOM     39  N   UNL A   1      45.267  26.175  27.141  1.00  0.00    -0.248 NA
ATOM     40  C   UNL A   1      45.735  24.018  26.381  1.00  0.00     0.031 C 
ATOM     41  C   UNL A   1      41.082  24.891  28.078  1.00  0.00     0.029 A 
ATOM     42  N   UNL A   1      42.513  26.608  28.087  1.00  0.00    -0.354 N 
ATOM     43  C   UNL A   1      46.601  26.097  26.765  1.00  0.00     0.074 A 
ATOM     44  C   UNL A   1      46.853  24.728  26.374  1.00  0.00     0.031 C 
ATOM     45  C   UNL A   1      40.428  25.959  28.566  1.00  0.00     0.029 A 
ATOM     46  C   UNL A   1      41.339  27.099  28.604  1.00  0.00     0.049 A 
ATOM     47  H   UNL A   1      43.326  27.155  27.981  1.00  0.00     0.167 HD
ATOM     48  C   UNL A   1      47.527  27.084  26.723  1.00  0.00     0.037 A 
ATOM     49  C   UNL A   1      41.035  28.330  29.059  1.00  0.00     0.037 A 
ATOM     50  C   UNL A   1      47.266  28.450  27.096  1.00  0.00     0.049 A 
ATOM     51  C   UNL A   1      42.088  29.406  29.018  1.00  0.00     0.074 A 
ATOM     52  C   UNL A   1      48.116  29.539  27.032  1.00  0.00     0.029 A 
ATOM     53  N   UNL A   1      46.063  28.911  27.611  1.00  0.00    -0.354 N 
ATOM     54  N   UNL A   1      43.324  29.341  28.583  1.00  0.00    -0.248 NA
ATOM     55  C   UNL A   1      41.700  30.730  29.526  1.00  0.00     0.031 C 
ATOM     56  C   UNL A   1      47.448  30.647  27.565  1.00  0.00     0.029 A 
ATOM     57  C   UNL A   1      46.158  30.262  27.898  1.00  0.00     0.049 A 
ATOM     58  H   UNL A   1      45.260  28.358  27.751  1.00  0.00     0.167 HD
ATOM     59  C   UNL A   1      43.849  30.619  28.731  1.00  0.00     0.074 A 
ATOM     60  C   UNL A   1      42.791  31.441  29.282  1.00  0.00     0.031 C 
ATOM     61  C   UNL A   1      45.093  31.070  28.437  1.00  0.00     0.037 A 
BRANCH  48  62
ATOM     62  C   UNL A   1      48.911  26.721  26.261  1.00  0.00     0.064 A 
ATOM     63  C   UNL A   1      49.845  26.126  27.124  1.00  0.00     0.173 A 
ATOM     64  C   UNL A   1      49.299  26.945  24.932  1.00  0.00     0.173 A 
ATOM     65  F   UNL A   1      49.530  25.900  28.408  1.00  0.00    -0.203 F 
ATOM     66  C   UNL A   1      51.126  25.804  26.683  1.00  0.00     0.198 A 
ATOM     67  C   UNL A   1      50.569  26.588  24.485  1.00  0.00     0.198 A 
ATOM     68  F   UNL A   1      48.445  27.504  24.062  1.00  0.00    -0.203 F 
ATOM     69  F   UNL A   1      52.020  25.293  27.541  1.00  0.00    -0.200 F 
ATOM     70  C   UNL A   1      51.484  26.029  25.363  1.00  0.00     0.200 A 
ATOM     71  F   UNL A   1      50.908  26.790  23.204  1.00  0.00    -0.200 F 
ATOM     72  F   UNL A   1      52.715  25.711  24.937  1.00  0.00    -0.200 F 
ENDBRANCH  48  62
BRANCH  49  73
ATOM     73  C   UNL A   1      39.668  28.622  29.567  1.00  0.00     0.064 A 
ATOM     74  C   UNL A   1      38.690  29.173  28.726  1.00  0.00     0.173 A 
ATOM     75  C   UNL A   1      39.313  28.374  30.900  1.00  0.00     0.173 A 
ATOM     76  F   UNL A   1      38.985  29.449  27.447  1.00  0.00    -0.203 F 
ATOM     77  C   UNL A   1      37.419  29.488  29.206  1.00  0.00     0.198 A 
ATOM     78  C   UNL A   1      38.032  28.659  31.371  1.00  0.00     0.198 A 
ATOM     79  F   UNL A   1      40.207  27.843  31.747  1.00  0.00    -0.203 F 
ATOM     80  F   UNL A   1      36.523  30.064  28.393  1.00  0.00    -0.200 F 
ATOM     81  C   UNL A   1      37.090  29.225  30.526  1.00  0.00     0.200 A 
ATOM     82  F   UNL A   1      37.713  28.388  32.644  1.00  0.00    -0.200 F 
ATOM     83  F   UNL A   1      35.868  29.526  30.986  1.00  0.00    -0.200 F 
ENDBRANCH  49  73
BRANCH  61  84
ATOM     84  C   UNL A   1      45.368  32.530  28.663  1.00  0.00     0.064 A 
ATOM     85  C   UNL A   1      45.086  33.497  27.687  1.00  0.00     0.173 A 
ATOM     86  C   UNL A   1      45.885  32.970  29.891  1.00  0.00     0.173 A 
ATOM     87  F   UNL A   1      44.603  33.129  26.491  1.00  0.00    -0.203 F 
ATOM     88  C   UNL A   1      45.342  34.845  27.921  1.00  0.00     0.198 A 
ATOM     89  C   UNL A   1      46.106  34.323  30.135  1.00  0.00     0.198 A 
ATOM     90  F   UNL A   1      46.165  32.088  30.863  1.00  0.00    -0.203 F 
ATOM     91  F   UNL A   1      45.118  35.745  26.953  1.00  0.00    -0.200 F 
ATOM     92  C   UNL A   1      45.844  35.258  29.147  1.00  0.00     0.200 A 
ATOM     93  F   UNL A   1      46.573  34.720  31.326  1.00  0.00    -0.200 F 
ATOM     94  F   UNL A   1      46.081  36.557  29.372  1.00  0.00    -0.200 F 
ENDBRANCH  61  84
ENDBRANCH  35  36
ENDBRANCH  27  30
ENDBRANCH  25  26
ENDBRANCH  24  25
ENDBRANCH  23  24
ENDBRANCH  22  23
ENDBRANCH   1  22
TORSDOF 18
ENDMDL
