MODEL 1
REMARK VINA RESULT:     -11.6      0.000      0.000
REMARK SMILES O=C(NCCCCCCNC(=O)[C@H](CO)NC(=O)[C@H](CS)NC(=O)[C@H](Cc1c[nH]c2ccccc12)NC(=O)c1ccc(F)cc1)c1ccc(-c2c3nc(c(-c4c(F)c(F)c(F)c(F)c4F)c4ccc([nH]4)c(-c4c(F)c(F)c(F)c(F)c4F)c4nc(c(-c5c(F)c(F)c(F)c(F)c5F)c5ccc2[nH]5)C=C4)C=C3)cc1
REMARK SMILES IDX 8 1 7 2 6 3 5 4 4 5 3 6 1 7 2 8 46 10 47 11 108 12 48 13
REMARK SMILES IDX 107 14 49 15 50 16 51 17 101 18 52 19 106 20 100 21 102 22
REMARK SMILES IDX 53 23 105 24 99 25 98 26 54 28 86 29 66 30 85 31 67 32 70 33
REMARK SMILES IDX 84 34 103 35 68 36 69 37 83 39 104 40 71 41 55 42 56 43
REMARK SMILES IDX 64 44 57 45 58 46 62 47 65 48 59 49 60 50 63 51 61 52 87 53
REMARK SMILES IDX 88 54 96 55 89 56 90 57 94 58 97 59 91 60 92 61 95 62 93 63
REMARK SMILES IDX 72 64 73 65 81 66 74 67 75 68 79 69 82 70 76 71 77 72 80 73
REMARK SMILES IDX 78 74 9 75 10 76 11 77 12 79 13 80 16 81 17 82 18 84 19 85
REMARK SMILES IDX 22 86 23 87 24 89 25 90 36 91 37 92 38 94 39 95 40 96 45 97
REMARK SMILES IDX 41 98 44 99 42 100 43 101 26 102 27 103 28 104 35 105 29 106
REMARK SMILES IDX 30 107 34 108 31 110 33 111 32 112 20 113 21 114 14 116
REMARK SMILES IDX 15 117
REMARK H PARENT 3 9 102 27 70 38 10 78 16 83 22 88 36 93 29 109 21 115 15 118
REMARK Flexibility Score: inf
ROOT
ATOM      1  C   UNL A   1      39.462  23.535  26.522  1.00  0.00     0.021 C 
ENDROOT
BRANCH   1   2
ATOM      2  C   UNL A   1      39.976  22.166  26.976  1.00  0.00     0.002 C 
BRANCH   2   3
ATOM      3  C   UNL A   1      41.112  21.584  26.128  1.00  0.00     0.002 C 
BRANCH   3   4
ATOM      4  C   UNL A   1      41.177  20.054  26.035  1.00  0.00     0.021 C 
BRANCH   4   5
ATOM      5  C   UNL A   1      42.539  19.416  26.314  1.00  0.00     0.116 C 
BRANCH   5   6
ATOM      6  N   UNL A   1      43.281  19.109  25.100  1.00  0.00    -0.352 N 
ATOM      7  O   UNL A   1      44.634  19.446  23.329  1.00  0.00    -0.269 OA
ATOM      8  C   UNL A   1      44.175  19.869  24.383  1.00  0.00     0.251 C 
ATOM      9  H   UNL A   1      43.118  18.210  24.733  1.00  0.00     0.163 HD
BRANCH   8  10
ATOM     10  C   UNL A   1      44.565  21.218  24.854  1.00  0.00     0.039 A 
ATOM     11  C   UNL A   1      45.270  21.399  26.045  1.00  0.00     0.014 A 
ATOM     12  C   UNL A   1      44.234  22.326  24.064  1.00  0.00     0.014 A 
ATOM     13  C   UNL A   1      45.518  22.690  26.515  1.00  0.00     0.010 A 
ATOM     14  C   UNL A   1      44.530  23.618  24.512  1.00  0.00     0.010 A 
ATOM     15  C   UNL A   1      45.132  23.811  25.764  1.00  0.00    -0.014 A 
BRANCH  15  16
ATOM     16  C   UNL A   1      45.342  25.175  26.314  1.00  0.00     0.031 A 
ATOM     17  C   UNL A   1      46.692  25.833  26.227  1.00  0.00     0.074 A 
ATOM     18  C   UNL A   1      44.306  25.843  26.852  1.00  0.00     0.049 A 
ATOM     19  N   UNL A   1      47.050  27.039  26.597  1.00  0.00    -0.248 NA
ATOM     20  C   UNL A   1      47.784  25.035  25.649  1.00  0.00     0.031 C 
ATOM     21  C   UNL A   1      42.952  25.311  27.001  1.00  0.00     0.029 A 
ATOM     22  N   UNL A   1      44.225  27.116  27.358  1.00  0.00    -0.354 N 
ATOM     23  C   UNL A   1      48.404  27.141  26.301  1.00  0.00     0.074 A 
ATOM     24  C   UNL A   1      48.813  25.866  25.753  1.00  0.00     0.031 C 
ATOM     25  C   UNL A   1      42.165  26.262  27.529  1.00  0.00     0.029 A 
ATOM     26  C   UNL A   1      42.966  27.457  27.786  1.00  0.00     0.049 A 
ATOM     27  H   UNL A   1      44.996  27.727  27.410  1.00  0.00     0.167 HD
ATOM     28  C   UNL A   1      49.225  28.206  26.458  1.00  0.00     0.037 A 
ATOM     29  C   UNL A   1      42.505  28.603  28.323  1.00  0.00     0.037 A 
ATOM     30  C   UNL A   1      48.817  29.479  26.997  1.00  0.00     0.049 A 
ATOM     31  C   UNL A   1      43.440  29.766  28.503  1.00  0.00     0.074 A 
ATOM     32  C   UNL A   1      49.577  30.622  27.177  1.00  0.00     0.029 A 
ATOM     33  N   UNL A   1      47.539  29.775  27.443  1.00  0.00    -0.354 N 
ATOM     34  N   UNL A   1      44.710  29.859  28.194  1.00  0.00    -0.248 NA
ATOM     35  C   UNL A   1      42.877  30.984  29.103  1.00  0.00     0.031 C 
ATOM     36  C   UNL A   1      48.768  31.598  27.768  1.00  0.00     0.029 A 
ATOM     37  C   UNL A   1      47.492  31.078  27.912  1.00  0.00     0.049 A 
ATOM     38  H   UNL A   1      46.777  29.152  27.429  1.00  0.00     0.167 HD
ATOM     39  C   UNL A   1      45.095  31.145  28.547  1.00  0.00     0.074 A 
ATOM     40  C   UNL A   1      43.920  31.803  29.078  1.00  0.00     0.031 C 
ATOM     41  C   UNL A   1      46.316  31.724  28.440  1.00  0.00     0.037 A 
BRANCH  28  42
ATOM     42  C   UNL A   1      50.658  28.049  26.042  1.00  0.00     0.064 A 
ATOM     43  C   UNL A   1      51.016  28.083  24.685  1.00  0.00     0.173 A 
ATOM     44  C   UNL A   1      51.670  27.802  26.982  1.00  0.00     0.173 A 
ATOM     45  F   UNL A   1      50.085  28.308  23.746  1.00  0.00    -0.203 F 
ATOM     46  C   UNL A   1      52.332  27.866  24.285  1.00  0.00     0.198 A 
ATOM     47  C   UNL A   1      52.990  27.611  26.579  1.00  0.00     0.198 A 
ATOM     48  F   UNL A   1      51.382  27.770  28.292  1.00  0.00    -0.203 F 
ATOM     49  F   UNL A   1      52.645  27.876  22.982  1.00  0.00    -0.200 F 
ATOM     50  C   UNL A   1      53.319  27.635  25.232  1.00  0.00     0.200 A 
ATOM     51  F   UNL A   1      53.945  27.410  27.497  1.00  0.00    -0.200 F 
ATOM     52  F   UNL A   1      54.586  27.439  24.847  1.00  0.00    -0.200 F 
ENDBRANCH  28  42
BRANCH  29  53
ATOM     53  C   UNL A   1      41.071  28.705  28.692  1.00  0.00     0.064 A 
ATOM     54  C   UNL A   1      40.625  28.361  29.976  1.00  0.00     0.173 A 
ATOM     55  C   UNL A   1      40.113  29.099  27.749  1.00  0.00     0.173 A 
ATOM     56  F   UNL A   1      41.505  27.973  30.910  1.00  0.00    -0.203 F 
ATOM     57  C   UNL A   1      39.270  28.382  30.295  1.00  0.00     0.198 A 
ATOM     58  C   UNL A   1      38.759  29.142  28.077  1.00  0.00     0.198 A 
ATOM     59  F   UNL A   1      40.496  29.454  26.513  1.00  0.00    -0.203 F 
ATOM     60  F   UNL A   1      38.865  28.009  31.517  1.00  0.00    -0.200 F 
ATOM     61  C   UNL A   1      38.338  28.774  29.346  1.00  0.00     0.200 A 
ATOM     62  F   UNL A   1      37.864  29.539  27.163  1.00  0.00    -0.200 F 
ATOM     63  F   UNL A   1      37.034  28.795  29.652  1.00  0.00    -0.200 F 
ENDBRANCH  29  53
BRANCH  41  64
ATOM     64  C   UNL A   1      46.449  33.149  28.889  1.00  0.00     0.064 A 
ATOM     65  C   UNL A   1      46.258  34.201  27.980  1.00  0.00     0.173 A 
ATOM     66  C   UNL A   1      46.830  33.472  30.199  1.00  0.00     0.173 A 
ATOM     67  F   UNL A   1      45.899  33.944  26.713  1.00  0.00    -0.203 F 
ATOM     68  C   UNL A   1      46.452  35.525  28.366  1.00  0.00     0.198 A 
ATOM     69  C   UNL A   1      46.999  34.798  30.588  1.00  0.00     0.198 A 
ATOM     70  F   UNL A   1      47.013  32.501  31.107  1.00  0.00    -0.203 F 
ATOM     71  F   UNL A   1      46.288  36.512  27.474  1.00  0.00    -0.200 F 
ATOM     72  C   UNL A   1      46.819  35.822  29.670  1.00  0.00     0.200 A 
ATOM     73  F   UNL A   1      47.332  35.086  31.853  1.00  0.00    -0.200 F 
ATOM     74  F   UNL A   1      46.994  37.097  30.042  1.00  0.00    -0.200 F 
ENDBRANCH  41  64
ENDBRANCH  15  16
ENDBRANCH   8  10
ENDBRANCH   5   6
ENDBRANCH   4   5
ENDBRANCH   3   4
ENDBRANCH   2   3
ENDBRANCH   1   2
BRANCH   1  75
ATOM     75  C   UNL A   1      37.952  23.580  26.291  1.00  0.00     0.116 C 
BRANCH  75  76
ATOM     76  N   UNL A   1      37.650  23.742  24.882  1.00  0.00    -0.354 N 
ATOM     77  C   UNL A   1      36.758  23.059  24.099  1.00  0.00     0.244 C 
ATOM     78  H   UNL A   1      38.161  24.446  24.421  1.00  0.00     0.163 HD
ATOM     79  O   UNL A   1      36.936  23.114  22.881  1.00  0.00    -0.273 OA
BRANCH  77  80
ATOM     80  C   UNL A   1      35.689  22.145  24.750  1.00  0.00     0.197 C 
BRANCH  80  81
ATOM     81  N   UNL A   1      34.487  22.078  23.914  1.00  0.00    -0.340 N 
ATOM     82  C   UNL A   1      33.246  21.574  24.126  1.00  0.00     0.244 C 
ATOM     83  H   UNL A   1      34.605  22.478  23.022  1.00  0.00     0.164 HD
ATOM     84  O   UNL A   1      32.593  21.329  23.107  1.00  0.00    -0.273 OA
BRANCH  82  85
ATOM     85  C   UNL A   1      32.738  21.155  25.533  1.00  0.00     0.181 C 
BRANCH  85  86
ATOM     86  N   UNL A   1      31.329  21.493  25.808  1.00  0.00    -0.342 N 
ATOM     87  C   UNL A   1      30.625  22.638  26.013  1.00  0.00     0.243 C 
ATOM     88  H   UNL A   1      30.758  20.693  25.853  1.00  0.00     0.164 HD
ATOM     89  O   UNL A   1      29.622  22.480  26.718  1.00  0.00    -0.273 OA
BRANCH  87  90
ATOM     90  C   UNL A   1      31.021  24.050  25.491  1.00  0.00     0.176 C 
BRANCH  90  91
ATOM     91  N   UNL A   1      29.929  24.745  24.801  1.00  0.00    -0.340 N 
ATOM     92  C   UNL A   1      29.886  25.803  23.940  1.00  0.00     0.251 C 
ATOM     93  H   UNL A   1      29.042  24.369  25.001  1.00  0.00     0.164 HD
ATOM     94  O   UNL A   1      28.773  26.216  23.617  1.00  0.00    -0.269 OA
BRANCH  92  95
ATOM     95  C   UNL A   1      31.089  26.447  23.361  1.00  0.00     0.040 A 
ATOM     96  C   UNL A   1      32.036  25.769  22.586  1.00  0.00     0.017 A 
ATOM     97  C   UNL A   1      31.206  27.838  23.520  1.00  0.00     0.017 A 
ATOM     98  C   UNL A   1      33.099  26.463  22.004  1.00  0.00     0.040 A 
ATOM     99  C   UNL A   1      32.269  28.531  22.939  1.00  0.00     0.040 A 
ATOM    100  C   UNL A   1      33.208  27.836  22.188  1.00  0.00     0.123 A 
ATOM    101  F   UNL A   1      34.224  28.497  21.621  1.00  0.00    -0.207 F 
ENDBRANCH  92  95
ENDBRANCH  90  91
BRANCH  90 102
ATOM    102  C   UNL A   1      31.481  24.962  26.659  1.00  0.00     0.072 C 
BRANCH 102 103
ATOM    103  C   UNL A   1      32.602  25.915  26.369  1.00  0.00    -0.020 A 
ATOM    104  C   UNL A   1      33.808  25.618  25.763  1.00  0.00     0.087 A 
ATOM    105  C   UNL A   1      32.612  27.326  26.633  1.00  0.00     0.003 A 
ATOM    106  N   UNL A   1      34.554  26.767  25.700  1.00  0.00    -0.361 N 
ATOM    107  C   UNL A   1      33.855  27.822  26.237  1.00  0.00     0.046 A 
ATOM    108  C   UNL A   1      31.676  28.234  27.173  1.00  0.00     0.010 A 
ATOM    109  H   UNL A   1      35.461  26.827  25.323  1.00  0.00     0.166 HD
ATOM    110  C   UNL A   1      34.222  29.165  26.389  1.00  0.00     0.026 A 
ATOM    111  C   UNL A   1      32.023  29.582  27.323  1.00  0.00     0.001 A 
ATOM    112  C   UNL A   1      33.284  30.036  26.950  1.00  0.00     0.002 A 
ENDBRANCH 102 103
ENDBRANCH  90 102
ENDBRANCH  87  90
ENDBRANCH  85  86
BRANCH  85 113
ATOM    113  C   UNL A   1      32.941  19.624  25.696  1.00  0.00     0.101 C 
BRANCH 113 114
ATOM    114  S   UNL A   1      32.532  18.661  24.187  1.00  0.00    -0.177 SA
ATOM    115  H   UNL A   1      33.312  19.081  23.156  1.00  0.00     0.102 HD
ENDBRANCH 113 114
ENDBRANCH  85 113
ENDBRANCH  82  85
ENDBRANCH  80  81
BRANCH  80 116
ATOM    116  C   UNL A   1      36.245  20.721  24.963  1.00  0.00     0.191 C 
BRANCH 116 117
ATOM    117  O   UNL A   1      37.633  20.640  24.633  1.00  0.00    -0.394 OA
ATOM    118  H   UNL A   1      37.805  19.809  24.163  1.00  0.00     0.210 HD
ENDBRANCH 116 117
ENDBRANCH  80 116
ENDBRANCH  77  80
ENDBRANCH  75  76
ENDBRANCH   1  75
TORSDOF 25
ENDMDL
MODEL 2
REMARK VINA RESULT:     -11.4      1.041      2.176
REMARK SMILES O=C(NCCCCCCNC(=O)[C@H](CO)NC(=O)[C@H](CS)NC(=O)[C@H](Cc1c[nH]c2ccccc12)NC(=O)c1ccc(F)cc1)c1ccc(-c2c3nc(c(-c4c(F)c(F)c(F)c(F)c4F)c4ccc([nH]4)c(-c4c(F)c(F)c(F)c(F)c4F)c4nc(c(-c5c(F)c(F)c(F)c(F)c5F)c5ccc2[nH]5)C=C4)C=C3)cc1
REMARK SMILES IDX 8 1 7 2 6 3 5 4 4 5 3 6 1 7 2 8 46 10 47 11 108 12 48 13
REMARK SMILES IDX 107 14 49 15 50 16 51 17 101 18 52 19 106 20 100 21 102 22
REMARK SMILES IDX 53 23 105 24 99 25 98 26 54 28 86 29 66 30 85 31 67 32 70 33
REMARK SMILES IDX 84 34 103 35 68 36 69 37 83 39 104 40 71 41 55 42 56 43
REMARK SMILES IDX 64 44 57 45 58 46 62 47 65 48 59 49 60 50 63 51 61 52 87 53
REMARK SMILES IDX 88 54 96 55 89 56 90 57 94 58 97 59 91 60 92 61 95 62 93 63
REMARK SMILES IDX 72 64 73 65 81 66 74 67 75 68 79 69 82 70 76 71 77 72 80 73
REMARK SMILES IDX 78 74 9 75 10 76 11 77 12 79 13 80 16 81 17 82 18 84 19 85
REMARK SMILES IDX 22 86 23 87 24 89 25 90 36 91 37 92 38 94 39 95 40 96 45 97
REMARK SMILES IDX 41 98 44 99 42 100 43 101 26 102 27 103 28 104 35 105 29 106
REMARK SMILES IDX 30 107 34 108 31 110 33 111 32 112 20 113 21 114 14 116
REMARK SMILES IDX 15 117
REMARK H PARENT 3 9 102 27 70 38 10 78 16 83 22 88 36 93 29 109 21 115 15 118
REMARK Flexibility Score: inf
ROOT
ATOM      1  C   UNL A   1      39.358  23.436  26.470  1.00  0.00     0.021 C 
ENDROOT
BRANCH   1   2
ATOM      2  C   UNL A   1      40.060  22.212  27.062  1.00  0.00     0.002 C 
BRANCH   2   3
ATOM      3  C   UNL A   1      41.193  21.634  26.206  1.00  0.00     0.002 C 
BRANCH   3   4
ATOM      4  C   UNL A   1      41.188  20.113  26.007  1.00  0.00     0.021 C 
BRANCH   4   5
ATOM      5  C   UNL A   1      42.499  19.386  26.311  1.00  0.00     0.116 C 
BRANCH   5   6
ATOM      6  N   UNL A   1      43.268  19.077  25.114  1.00  0.00    -0.352 N 
ATOM      7  O   UNL A   1      44.649  19.413  23.365  1.00  0.00    -0.269 OA
ATOM      8  C   UNL A   1      44.166  19.840  24.407  1.00  0.00     0.251 C 
ATOM      9  H   UNL A   1      43.121  18.172  24.752  1.00  0.00     0.163 HD
BRANCH   8  10
ATOM     10  C   UNL A   1      44.532  21.198  24.873  1.00  0.00     0.039 A 
ATOM     11  C   UNL A   1      45.276  21.393  26.038  1.00  0.00     0.014 A 
ATOM     12  C   UNL A   1      44.139  22.300  24.104  1.00  0.00     0.014 A 
ATOM     13  C   UNL A   1      45.503  22.688  26.508  1.00  0.00     0.010 A 
ATOM     14  C   UNL A   1      44.412  23.598  24.549  1.00  0.00     0.010 A 
ATOM     15  C   UNL A   1      45.054  23.801  25.779  1.00  0.00    -0.014 A 
BRANCH  15  16
ATOM     16  C   UNL A   1      45.244  25.167  26.331  1.00  0.00     0.031 A 
ATOM     17  C   UNL A   1      46.585  25.843  26.252  1.00  0.00     0.074 A 
ATOM     18  C   UNL A   1      44.196  25.822  26.864  1.00  0.00     0.049 A 
ATOM     19  N   UNL A   1      46.926  27.053  26.624  1.00  0.00    -0.248 NA
ATOM     20  C   UNL A   1      47.691  25.060  25.679  1.00  0.00     0.031 C 
ATOM     21  C   UNL A   1      42.848  25.272  27.005  1.00  0.00     0.029 A 
ATOM     22  N   UNL A   1      44.095  27.093  27.370  1.00  0.00    -0.354 N 
ATOM     23  C   UNL A   1      48.279  27.174  26.335  1.00  0.00     0.074 A 
ATOM     24  C   UNL A   1      48.708  25.904  25.789  1.00  0.00     0.031 C 
ATOM     25  C   UNL A   1      42.046  26.212  27.530  1.00  0.00     0.029 A 
ATOM     26  C   UNL A   1      42.829  27.417  27.792  1.00  0.00     0.049 A 
ATOM     27  H   UNL A   1      44.858  27.714  27.427  1.00  0.00     0.167 HD
ATOM     28  C   UNL A   1      49.085  28.250  26.497  1.00  0.00     0.037 A 
ATOM     29  C   UNL A   1      42.351  28.557  28.326  1.00  0.00     0.037 A 
ATOM     30  C   UNL A   1      48.658  29.517  27.034  1.00  0.00     0.049 A 
ATOM     31  C   UNL A   1      43.270  29.732  28.512  1.00  0.00     0.074 A 
ATOM     32  C   UNL A   1      49.402  30.669  27.218  1.00  0.00     0.029 A 
ATOM     33  N   UNL A   1      47.373  29.796  27.474  1.00  0.00    -0.354 N 
ATOM     34  N   UNL A   1      44.540  29.842  28.209  1.00  0.00    -0.248 NA
ATOM     35  C   UNL A   1      42.687  30.942  29.109  1.00  0.00     0.031 C 
ATOM     36  C   UNL A   1      48.576  31.634  27.805  1.00  0.00     0.029 A 
ATOM     37  C   UNL A   1      47.307  31.098  27.943  1.00  0.00     0.049 A 
ATOM     38  H   UNL A   1      46.620  29.163  27.455  1.00  0.00     0.167 HD
ATOM     39  C   UNL A   1      44.906  31.133  28.565  1.00  0.00     0.074 A 
ATOM     40  C   UNL A   1      43.720  31.775  29.090  1.00  0.00     0.031 C 
ATOM     41  C   UNL A   1      46.120  31.728  28.464  1.00  0.00     0.037 A 
BRANCH  28  42
ATOM     42  C   UNL A   1      50.523  28.111  26.088  1.00  0.00     0.064 A 
ATOM     43  C   UNL A   1      50.886  28.141  24.733  1.00  0.00     0.173 A 
ATOM     44  C   UNL A   1      51.534  27.887  27.034  1.00  0.00     0.173 A 
ATOM     45  F   UNL A   1      49.956  28.345  23.788  1.00  0.00    -0.203 F 
ATOM     46  C   UNL A   1      52.207  27.941  24.340  1.00  0.00     0.198 A 
ATOM     47  C   UNL A   1      52.858  27.713  26.639  1.00  0.00     0.198 A 
ATOM     48  F   UNL A   1      51.240  27.859  28.343  1.00  0.00    -0.203 F 
ATOM     49  F   UNL A   1      52.526  27.947  23.038  1.00  0.00    -0.200 F 
ATOM     50  C   UNL A   1      53.193  27.732  25.293  1.00  0.00     0.200 A 
ATOM     51  F   UNL A   1      53.812  27.533  27.563  1.00  0.00    -0.200 F 
ATOM     52  F   UNL A   1      54.465  27.553  24.915  1.00  0.00    -0.200 F 
ENDBRANCH  28  42
BRANCH  29  53
ATOM     53  C   UNL A   1      40.914  28.640  28.688  1.00  0.00     0.064 A 
ATOM     54  C   UNL A   1      39.958  29.095  27.768  1.00  0.00     0.173 A 
ATOM     55  C   UNL A   1      40.478  28.314  29.979  1.00  0.00     0.173 A 
ATOM     56  F   UNL A   1      40.329  29.422  26.522  1.00  0.00    -0.203 F 
ATOM     57  C   UNL A   1      38.624  29.246  28.135  1.00  0.00     0.198 A 
ATOM     58  C   UNL A   1      39.138  28.443  30.337  1.00  0.00     0.198 A 
ATOM     59  F   UNL A   1      41.354  27.858  30.886  1.00  0.00    -0.203 F 
ATOM     60  F   UNL A   1      37.737  29.722  27.249  1.00  0.00    -0.200 F 
ATOM     61  C   UNL A   1      38.214  28.919  29.418  1.00  0.00     0.200 A 
ATOM     62  F   UNL A   1      38.743  28.109  31.573  1.00  0.00    -0.200 F 
ATOM     63  F   UNL A   1      36.930  29.064  29.772  1.00  0.00    -0.200 F 
ENDBRANCH  29  53
BRANCH  41  64
ATOM     64  C   UNL A   1      46.232  33.154  28.914  1.00  0.00     0.064 A 
ATOM     65  C   UNL A   1      46.023  34.204  28.007  1.00  0.00     0.173 A 
ATOM     66  C   UNL A   1      46.609  33.481  30.225  1.00  0.00     0.173 A 
ATOM     67  F   UNL A   1      45.667  33.942  26.741  1.00  0.00    -0.203 F 
ATOM     68  C   UNL A   1      46.198  35.530  28.394  1.00  0.00     0.198 A 
ATOM     69  C   UNL A   1      46.759  34.810  30.615  1.00  0.00     0.198 A 
ATOM     70  F   UNL A   1      46.808  32.513  31.131  1.00  0.00    -0.203 F 
ATOM     71  F   UNL A   1      46.017  36.516  27.504  1.00  0.00    -0.200 F 
ATOM     72  C   UNL A   1      46.561  35.832  29.698  1.00  0.00     0.200 A 
ATOM     73  F   UNL A   1      47.090  35.101  31.880  1.00  0.00    -0.200 F 
ATOM     74  F   UNL A   1      46.717  37.109  30.071  1.00  0.00    -0.200 F 
ENDBRANCH  41  64
ENDBRANCH  15  16
ENDBRANCH   8  10
ENDBRANCH   5   6
ENDBRANCH   4   5
ENDBRANCH   3   4
ENDBRANCH   2   3
ENDBRANCH   1   2
BRANCH   1  75
ATOM     75  C   UNL A   1      37.880  23.204  26.152  1.00  0.00     0.116 C 
BRANCH  75  76
ATOM     76  N   UNL A   1      37.607  23.458  24.750  1.00  0.00    -0.354 N 
ATOM     77  C   UNL A   1      36.643  22.921  23.940  1.00  0.00     0.244 C 
ATOM     78  H   UNL A   1      38.202  24.113  24.319  1.00  0.00     0.163 HD
ATOM     79  O   UNL A   1      36.832  23.004  22.725  1.00  0.00    -0.273 OA
BRANCH  77  80
ATOM     80  C   UNL A   1      35.468  22.117  24.553  1.00  0.00     0.197 C 
BRANCH  80  81
ATOM     81  N   UNL A   1      34.303  22.147  23.664  1.00  0.00    -0.340 N 
ATOM     82  C   UNL A   1      33.078  21.567  23.733  1.00  0.00     0.244 C 
ATOM     83  H   UNL A   1      34.435  22.696  22.858  1.00  0.00     0.164 HD
ATOM     84  O   UNL A   1      32.476  21.473  22.660  1.00  0.00    -0.273 OA
BRANCH  82  85
ATOM     85  C   UNL A   1      32.538  20.896  25.027  1.00  0.00     0.181 C 
BRANCH  85  86
ATOM     86  N   UNL A   1      31.327  21.523  25.588  1.00  0.00    -0.342 N 
ATOM     87  C   UNL A   1      30.942  22.789  25.901  1.00  0.00     0.243 C 
ATOM     88  H   UNL A   1      30.624  20.863  25.783  1.00  0.00     0.164 HD
ATOM     89  O   UNL A   1      30.107  22.839  26.812  1.00  0.00    -0.273 OA
BRANCH  87  90
ATOM     90  C   UNL A   1      31.503  24.091  25.256  1.00  0.00     0.176 C 
BRANCH  90  91
ATOM     91  N   UNL A   1      32.934  24.295  25.504  1.00  0.00    -0.340 N 
ATOM     92  C   UNL A   1      33.716  25.407  25.623  1.00  0.00     0.251 C 
ATOM     93  H   UNL A   1      33.434  23.454  25.605  1.00  0.00     0.164 HD
ATOM     94  O   UNL A   1      34.929  25.229  25.727  1.00  0.00    -0.269 OA
BRANCH  92  95
ATOM     95  C   UNL A   1      33.185  26.791  25.664  1.00  0.00     0.040 A 
ATOM     96  C   UNL A   1      33.663  27.829  24.857  1.00  0.00     0.017 A 
ATOM     97  C   UNL A   1      32.068  27.021  26.483  1.00  0.00     0.017 A 
ATOM     98  C   UNL A   1      33.055  29.086  24.891  1.00  0.00     0.040 A 
ATOM     99  C   UNL A   1      31.460  28.277  26.517  1.00  0.00     0.040 A 
ATOM    100  C   UNL A   1      31.962  29.299  25.722  1.00  0.00     0.123 A 
ATOM    101  F   UNL A   1      31.377  30.503  25.745  1.00  0.00    -0.207 F 
ENDBRANCH  92  95
ENDBRANCH  90  91
BRANCH  90 102
ATOM    102  C   UNL A   1      31.299  24.077  23.718  1.00  0.00     0.072 C 
BRANCH 102 103
ATOM    103  C   UNL A   1      31.415  25.394  23.011  1.00  0.00    -0.020 A 
ATOM    104  C   UNL A   1      32.384  25.765  22.099  1.00  0.00     0.087 A 
ATOM    105  C   UNL A   1      30.510  26.504  23.122  1.00  0.00     0.003 A 
ATOM    106  N   UNL A   1      32.133  27.053  21.702  1.00  0.00    -0.361 N 
ATOM    107  C   UNL A   1      31.004  27.534  22.321  1.00  0.00     0.046 A 
ATOM    108  C   UNL A   1      29.311  26.730  23.830  1.00  0.00     0.010 A 
ATOM    109  H   UNL A   1      32.683  27.561  21.063  1.00  0.00     0.166 HD
ATOM    110  C   UNL A   1      30.384  28.786  22.225  1.00  0.00     0.026 A 
ATOM    111  C   UNL A   1      28.673  27.973  23.737  1.00  0.00     0.001 A 
ATOM    112  C   UNL A   1      29.212  28.991  22.957  1.00  0.00     0.002 A 
ENDBRANCH 102 103
ENDBRANCH  90 102
ENDBRANCH  87  90
ENDBRANCH  85  86
BRANCH  85 113
ATOM    113  C   UNL A   1      32.250  19.400  24.725  1.00  0.00     0.101 C 
BRANCH 113 114
ATOM    114  S   UNL A   1      33.043  18.242  25.908  1.00  0.00    -0.177 SA
ATOM    115  H   UNL A   1      33.193  17.025  25.321  1.00  0.00     0.102 HD
ENDBRANCH 113 114
ENDBRANCH  85 113
ENDBRANCH  82  85
ENDBRANCH  80  81
BRANCH  80 116
ATOM    116  C   UNL A   1      35.882  20.653  24.806  1.00  0.00     0.191 C 
BRANCH 116 117
ATOM    117  O   UNL A   1      37.269  20.439  24.531  1.00  0.00    -0.394 OA
ATOM    118  H   UNL A   1      37.619  21.193  24.032  1.00  0.00     0.210 HD
ENDBRANCH 116 117
ENDBRANCH  80 116
ENDBRANCH  77  80
ENDBRANCH  75  76
ENDBRANCH   1  75
TORSDOF 25
ENDMDL
MODEL 3
REMARK VINA RESULT:     -10.8      1.505      6.945
REMARK SMILES O=C(NCCCCCCNC(=O)[C@H](CO)NC(=O)[C@H](CS)NC(=O)[C@H](Cc1c[nH]c2ccccc12)NC(=O)c1ccc(F)cc1)c1ccc(-c2c3nc(c(-c4c(F)c(F)c(F)c(F)c4F)c4ccc([nH]4)c(-c4c(F)c(F)c(F)c(F)c4F)c4nc(c(-c5c(F)c(F)c(F)c(F)c5F)c5ccc2[nH]5)C=C4)C=C3)cc1
REMARK SMILES IDX 8 1 7 2 6 3 5 4 4 5 3 6 1 7 2 8 46 10 47 11 108 12 48 13
REMARK SMILES IDX 107 14 49 15 50 16 51 17 101 18 52 19 106 20 100 21 102 22
REMARK SMILES IDX 53 23 105 24 99 25 98 26 54 28 86 29 66 30 85 31 67 32 70 33
REMARK SMILES IDX 84 34 103 35 68 36 69 37 83 39 104 40 71 41 55 42 56 43
REMARK SMILES IDX 64 44 57 45 58 46 62 47 65 48 59 49 60 50 63 51 61 52 87 53
REMARK SMILES IDX 88 54 96 55 89 56 90 57 94 58 97 59 91 60 92 61 95 62 93 63
REMARK SMILES IDX 72 64 73 65 81 66 74 67 75 68 79 69 82 70 76 71 77 72 80 73
REMARK SMILES IDX 78 74 9 75 10 76 11 77 12 79 13 80 16 81 17 82 18 84 19 85
REMARK SMILES IDX 22 86 23 87 24 89 25 90 36 91 37 92 38 94 39 95 40 96 45 97
REMARK SMILES IDX 41 98 44 99 42 100 43 101 26 102 27 103 28 104 35 105 29 106
REMARK SMILES IDX 30 107 34 108 31 110 33 111 32 112 20 113 21 114 14 116
REMARK SMILES IDX 15 117
REMARK H PARENT 3 9 102 27 70 38 10 78 16 83 22 88 36 93 29 109 21 115 15 118
REMARK Flexibility Score: inf
ROOT
ATOM      1  C   UNL A   1      39.402  23.884  26.570  1.00  0.00     0.021 C 
ENDROOT
BRANCH   1   2
ATOM      2  C   UNL A   1      40.022  22.635  27.203  1.00  0.00     0.002 C 
BRANCH   2   3
ATOM      3  C   UNL A   1      41.200  22.032  26.430  1.00  0.00     0.002 C 
BRANCH   3   4
ATOM      4  C   UNL A   1      41.075  20.553  26.042  1.00  0.00     0.021 C 
BRANCH   4   5
ATOM      5  C   UNL A   1      42.223  19.640  26.474  1.00  0.00     0.116 C 
BRANCH   5   6
ATOM      6  N   UNL A   1      43.035  19.180  25.356  1.00  0.00    -0.352 N 
ATOM      7  O   UNL A   1      44.526  19.279  23.670  1.00  0.00    -0.269 OA
ATOM      8  C   UNL A   1      44.014  19.826  24.639  1.00  0.00     0.251 C 
ATOM      9  H   UNL A   1      42.854  18.257  25.068  1.00  0.00     0.163 HD
BRANCH   8  10
ATOM     10  C   UNL A   1      44.435  21.198  25.004  1.00  0.00     0.039 A 
ATOM     11  C   UNL A   1      45.085  21.466  26.210  1.00  0.00     0.014 A 
ATOM     12  C   UNL A   1      44.192  22.238  24.098  1.00  0.00     0.014 A 
ATOM     13  C   UNL A   1      45.362  22.785  26.572  1.00  0.00     0.010 A 
ATOM     14  C   UNL A   1      44.518  23.555  24.439  1.00  0.00     0.010 A 
ATOM     15  C   UNL A   1      45.062  23.843  25.700  1.00  0.00    -0.014 A 
BRANCH  15  16
ATOM     16  C   UNL A   1      45.301  25.244  26.132  1.00  0.00     0.031 A 
ATOM     17  C   UNL A   1      44.190  26.055  26.742  1.00  0.00     0.074 A 
ATOM     18  C   UNL A   1      46.532  25.775  26.020  1.00  0.00     0.049 A 
ATOM     19  N   UNL A   1      44.224  27.270  27.232  1.00  0.00    -0.248 NA
ATOM     20  C   UNL A   1      42.865  25.420  26.810  1.00  0.00     0.031 C 
ATOM     21  C   UNL A   1      47.689  25.094  25.440  1.00  0.00     0.029 A 
ATOM     22  N   UNL A   1      47.019  27.000  26.402  1.00  0.00    -0.354 N 
ATOM     23  C   UNL A   1      42.932  27.544  27.662  1.00  0.00     0.074 A 
ATOM     24  C   UNL A   1      42.128  26.384  27.344  1.00  0.00     0.031 C 
ATOM     25  C   UNL A   1      48.761  25.897  25.535  1.00  0.00     0.029 A 
ATOM     26  C   UNL A   1      48.359  27.160  26.152  1.00  0.00     0.049 A 
ATOM     27  H   UNL A   1      46.461  27.698  26.815  1.00  0.00     0.167 HD
ATOM     28  C   UNL A   1      42.465  28.655  28.279  1.00  0.00     0.037 A 
ATOM     29  C   UNL A   1      49.176  28.203  26.394  1.00  0.00     0.037 A 
ATOM     30  C   UNL A   1      43.267  29.808  28.602  1.00  0.00     0.049 A 
ATOM     31  C   UNL A   1      48.629  29.433  27.063  1.00  0.00     0.074 A 
ATOM     32  C   UNL A   1      42.881  30.973  29.242  1.00  0.00     0.029 A 
ATOM     33  N   UNL A   1      44.614  29.941  28.308  1.00  0.00    -0.354 N 
ATOM     34  N   UNL A   1      47.413  29.668  27.490  1.00  0.00    -0.248 NA
ATOM     35  C   UNL A   1      49.570  30.539  27.290  1.00  0.00     0.031 C 
ATOM     36  C   UNL A   1      43.988  31.827  29.302  1.00  0.00     0.029 A 
ATOM     37  C   UNL A   1      45.074  31.175  28.741  1.00  0.00     0.049 A 
ATOM     38  H   UNL A   1      45.165  29.260  27.858  1.00  0.00     0.167 HD
ATOM     39  C   UNL A   1      47.443  30.940  28.046  1.00  0.00     0.074 A 
ATOM     40  C   UNL A   1      48.803  31.420  27.919  1.00  0.00     0.031 C 
ATOM     41  C   UNL A   1      46.430  31.643  28.609  1.00  0.00     0.037 A 
BRANCH  28  42
ATOM     42  C   UNL A   1      41.011  28.687  28.650  1.00  0.00     0.064 A 
ATOM     43  C   UNL A   1      40.049  29.130  27.731  1.00  0.00     0.173 A 
ATOM     44  C   UNL A   1      40.577  28.336  29.937  1.00  0.00     0.173 A 
ATOM     45  F   UNL A   1      40.412  29.485  26.489  1.00  0.00    -0.203 F 
ATOM     46  C   UNL A   1      38.707  29.231  28.090  1.00  0.00     0.198 A 
ATOM     47  C   UNL A   1      39.230  28.413  30.285  1.00  0.00     0.198 A 
ATOM     48  F   UNL A   1      41.456  27.895  30.850  1.00  0.00    -0.203 F 
ATOM     49  F   UNL A   1      37.809  29.684  27.203  1.00  0.00    -0.200 F 
ATOM     50  C   UNL A   1      38.298  28.868  29.364  1.00  0.00     0.200 A 
ATOM     51  F   UNL A   1      38.834  28.041  31.510  1.00  0.00    -0.200 F 
ATOM     52  F   UNL A   1      37.005  28.953  29.705  1.00  0.00    -0.200 F 
ENDBRANCH  28  42
BRANCH  29  53
ATOM     53  C   UNL A   1      50.609  28.102  26.024  1.00  0.00     0.064 A 
ATOM     54  C   UNL A   1      51.598  27.895  26.997  1.00  0.00     0.173 A 
ATOM     55  C   UNL A   1      51.022  28.263  24.695  1.00  0.00     0.173 A 
ATOM     56  F   UNL A   1      51.250  27.740  28.283  1.00  0.00    -0.203 F 
ATOM     57  C   UNL A   1      52.948  27.879  26.658  1.00  0.00     0.198 A 
ATOM     58  C   UNL A   1      52.372  28.223  24.354  1.00  0.00     0.198 A 
ATOM     59  F   UNL A   1      50.110  28.446  23.728  1.00  0.00    -0.203 F 
ATOM     60  F   UNL A   1      53.875  27.720  27.612  1.00  0.00    -0.200 F 
ATOM     61  C   UNL A   1      53.334  28.041  25.336  1.00  0.00     0.200 A 
ATOM     62  F   UNL A   1      52.740  28.362  23.073  1.00  0.00    -0.200 F 
ATOM     63  F   UNL A   1      54.633  28.025  25.008  1.00  0.00    -0.200 F 
ENDBRANCH  29  53
BRANCH  41  64
ATOM     64  C   UNL A   1      46.750  33.005  29.151  1.00  0.00     0.064 A 
ATOM     65  C   UNL A   1      47.158  33.161  30.484  1.00  0.00     0.173 A 
ATOM     66  C   UNL A   1      46.590  34.159  28.371  1.00  0.00     0.173 A 
ATOM     67  F   UNL A   1      47.319  32.088  31.272  1.00  0.00    -0.203 F 
ATOM     68  C   UNL A   1      47.385  34.427  31.020  1.00  0.00     0.198 A 
ATOM     69  C   UNL A   1      46.841  35.422  28.903  1.00  0.00     0.198 A 
ATOM     70  F   UNL A   1      46.213  34.060  27.088  1.00  0.00    -0.203 F 
ATOM     71  F   UNL A   1      47.749  34.554  32.303  1.00  0.00    -0.200 F 
ATOM     72  C   UNL A   1      47.230  35.554  30.228  1.00  0.00     0.200 A 
ATOM     73  F   UNL A   1      46.712  36.509  28.132  1.00  0.00    -0.200 F 
ATOM     74  F   UNL A   1      47.460  36.770  30.742  1.00  0.00    -0.200 F 
ENDBRANCH  41  64
ENDBRANCH  15  16
ENDBRANCH   8  10
ENDBRANCH   5   6
ENDBRANCH   4   5
ENDBRANCH   3   4
ENDBRANCH   2   3
ENDBRANCH   1   2
BRANCH   1  75
ATOM     75  C   UNL A   1      37.987  23.664  26.033  1.00  0.00     0.116 C 
BRANCH  75  76
ATOM     76  N   UNL A   1      37.872  22.364  25.399  1.00  0.00    -0.354 N 
ATOM     77  C   UNL A   1      36.752  21.695  24.982  1.00  0.00     0.244 C 
ATOM     78  H   UNL A   1      38.724  21.894  25.247  1.00  0.00     0.163 HD
ATOM     79  O   UNL A   1      36.864  20.479  24.817  1.00  0.00    -0.273 OA
BRANCH  77  80
ATOM     80  C   UNL A   1      35.393  22.434  24.887  1.00  0.00     0.197 C 
BRANCH  80  81
ATOM     81  N   UNL A   1      34.479  21.720  23.991  1.00  0.00    -0.340 N 
ATOM     82  C   UNL A   1      33.333  22.085  23.364  1.00  0.00     0.244 C 
ATOM     83  H   UNL A   1      34.751  20.791  23.808  1.00  0.00     0.164 HD
ATOM     84  O   UNL A   1      32.608  21.154  23.000  1.00  0.00    -0.273 OA
BRANCH  82  85
ATOM     85  C   UNL A   1      32.862  23.563  23.268  1.00  0.00     0.181 C 
BRANCH  85  86
ATOM     86  N   UNL A   1      33.105  24.205  21.963  1.00  0.00    -0.342 N 
ATOM     87  C   UNL A   1      32.686  25.341  21.344  1.00  0.00     0.243 C 
ATOM     88  H   UNL A   1      33.724  23.683  21.403  1.00  0.00     0.164 HD
ATOM     89  O   UNL A   1      32.680  25.255  20.110  1.00  0.00    -0.273 OA
BRANCH  87  90
ATOM     90  C   UNL A   1      32.193  26.632  22.059  1.00  0.00     0.176 C 
BRANCH  90  91
ATOM     91  N   UNL A   1      31.212  26.374  23.119  1.00  0.00    -0.340 N 
ATOM     92  C   UNL A   1      30.127  27.061  23.581  1.00  0.00     0.251 C 
ATOM     93  H   UNL A   1      31.371  25.528  23.597  1.00  0.00     0.164 HD
ATOM     94  O   UNL A   1      29.564  26.611  24.578  1.00  0.00    -0.269 OA
BRANCH  92  95
ATOM     95  C   UNL A   1      29.585  28.281  22.936  1.00  0.00     0.040 A 
ATOM     96  C   UNL A   1      30.356  29.158  22.166  1.00  0.00     0.017 A 
ATOM     97  C   UNL A   1      28.199  28.487  23.025  1.00  0.00     0.017 A 
ATOM     98  C   UNL A   1      29.756  30.242  21.519  1.00  0.00     0.040 A 
ATOM     99  C   UNL A   1      27.600  29.570  22.379  1.00  0.00     0.040 A 
ATOM    100  C   UNL A   1      28.386  30.439  21.634  1.00  0.00     0.123 A 
ATOM    101  F   UNL A   1      27.815  31.474  21.006  1.00  0.00    -0.207 F 
ENDBRANCH  92  95
ENDBRANCH  90  91
BRANCH  90 102
ATOM    102  C   UNL A   1      33.380  27.393  22.707  1.00  0.00     0.072 C 
BRANCH 102 103
ATOM    103  C   UNL A   1      33.476  27.346  24.202  1.00  0.00    -0.020 A 
ATOM    104  C   UNL A   1      34.027  26.336  24.966  1.00  0.00     0.087 A 
ATOM    105  C   UNL A   1      33.048  28.366  25.117  1.00  0.00     0.003 A 
ATOM    106  N   UNL A   1      33.902  26.678  26.288  1.00  0.00    -0.361 N 
ATOM    107  C   UNL A   1      33.295  27.905  26.410  1.00  0.00     0.046 A 
ATOM    108  C   UNL A   1      32.471  29.645  24.966  1.00  0.00     0.010 A 
ATOM    109  H   UNL A   1      34.205  26.124  27.043  1.00  0.00     0.166 HD
ATOM    110  C   UNL A   1      32.959  28.637  27.556  1.00  0.00     0.026 A 
ATOM    111  C   UNL A   1      32.139  30.395  26.101  1.00  0.00     0.001 A 
ATOM    112  C   UNL A   1      32.366  29.890  27.377  1.00  0.00     0.002 A 
ENDBRANCH 102 103
ENDBRANCH  90 102
ENDBRANCH  87  90
ENDBRANCH  85  86
BRANCH  85 113
ATOM    113  C   UNL A   1      31.344  23.621  23.595  1.00  0.00     0.101 C 
BRANCH 113 114
ATOM    114  S   UNL A   1      30.953  23.250  25.350  1.00  0.00    -0.177 SA
ATOM    115  H   UNL A   1      31.338  21.979  25.643  1.00  0.00     0.102 HD
ENDBRANCH 113 114
ENDBRANCH  85 113
ENDBRANCH  82  85
ENDBRANCH  80  81
BRANCH  80 116
ATOM    116  C   UNL A   1      34.745  22.567  26.280  1.00  0.00     0.191 C 
BRANCH 116 117
ATOM    117  O   UNL A   1      35.154  21.515  27.157  1.00  0.00    -0.394 OA
ATOM    118  H   UNL A   1      34.761  21.653  28.033  1.00  0.00     0.210 HD
ENDBRANCH 116 117
ENDBRANCH  80 116
ENDBRANCH  77  80
ENDBRANCH  75  76
ENDBRANCH   1  75
TORSDOF 25
ENDMDL
