MODEL 1
REMARK VINA RESULT:     -12.4      0.000      0.000
REMARK SMILES Cc1c(C(=O)NCCCCCCNC(=O)c2ccc(-c3c4nc(c(-c5c(F)c(F)c(F)c(F)c5F)c5ccc([nH]5)c(-c5c(F)c(F)c(F)c(F)c5F)c5nc(c(-c6c(F)c(F)c(F)c(F)c6F)c6ccc3[nH]6)C=C5)C=C4)cc2)cccc1N1[C@@H](C)C=C(/C=C(\C#N)C(=O)NCCc2c[nH]c3ccccc23)[C@@H]1C
REMARK SMILES IDX 7 1 6 2 4 3 5 4 3 6 1 7 2 8 82 9 79 10 81 11 80 12 83 13
REMARK SMILES IDX 84 14 106 15 86 16 85 17 87 18 107 19 88 20 89 21 90 22
REMARK SMILES IDX 91 23 92 24 93 25 94 26 95 28 96 29 97 30 98 31 105 32 99 33
REMARK SMILES IDX 100 34 104 35 101 37 103 38 102 39 8 40 9 41 10 42 11 43
REMARK SMILES IDX 12 44 13 45 14 46 15 48 16 49 17 50 78 51 18 52 77 53 19 54
REMARK SMILES IDX 20 55 21 56 71 57 22 58 76 59 70 60 72 61 23 62 75 63 69 64
REMARK SMILES IDX 68 65 24 67 56 68 36 69 55 70 37 71 40 72 54 73 73 74 38 75
REMARK SMILES IDX 39 76 53 78 74 79 41 80 25 81 26 82 34 83 27 84 28 85 32 86
REMARK SMILES IDX 35 87 29 88 30 89 33 90 31 91 57 92 58 93 66 94 59 95 60 96
REMARK SMILES IDX 64 97 67 98 61 99 62 100 65 101 63 102 42 103 43 104 51 105
REMARK SMILES IDX 44 106 45 107 49 108 52 109 46 110 47 111 50 112 48 113
REMARK H PARENT 6 5 94 27 99 36 13 47 72 66 40 77
REMARK Flexibility Score: inf
ROOT
ATOM      1  C   UNL A   1      37.441  33.530  28.794  1.00  0.00     0.116 C 
ENDROOT
BRANCH   1   2
ATOM      2  N   UNL A   1      36.072  33.863  28.541  1.00  0.00    -0.352 N 
ATOM      3  C   UNL A   1      34.978  33.206  28.072  1.00  0.00     0.251 C 
ATOM      4  O   UNL A   1      33.961  33.913  28.079  1.00  0.00    -0.269 OA
ATOM      5  H   UNL A   1      35.874  34.802  28.762  1.00  0.00     0.163 HD
BRANCH   3   6
ATOM      6  C   UNL A   1      34.859  31.769  27.622  1.00  0.00     0.044 A 
ATOM      7  C   UNL A   1      32.336  31.498  27.157  1.00  0.00     0.047 C 
ATOM      8  C   UNL A   1      33.756  31.012  27.139  1.00  0.00    -0.015 A 
ATOM      9  C   UNL A   1      33.946  29.650  26.751  1.00  0.00     0.041 A 
ATOM     10  C   UNL A   1      36.076  31.075  27.835  1.00  0.00     0.014 A 
ATOM     11  C   UNL A   1      35.180  29.029  26.994  1.00  0.00     0.026 A 
ATOM     12  C   UNL A   1      36.232  29.724  27.559  1.00  0.00     0.003 A 
BRANCH   9  13
ATOM     13  N   UNL A   1      32.909  28.853  26.310  1.00  0.00    -0.358 N 
ATOM     14  C   UNL A   1      32.483  28.917  24.909  1.00  0.00     0.103 C 
ATOM     15  C   UNL A   1      32.315  27.726  27.045  1.00  0.00     0.110 C 
ATOM     16  C   UNL A   1      31.767  27.615  24.769  1.00  0.00     0.003 C 
ATOM     17  C   UNL A   1      33.645  28.927  23.909  1.00  0.00     0.035 C 
ATOM     18  C   UNL A   1      31.786  26.887  25.895  1.00  0.00    -0.026 C 
ATOM     19  C   UNL A   1      31.186  28.225  27.952  1.00  0.00     0.036 C 
BRANCH  18  20
ATOM     20  C   UNL A   1      31.372  25.507  26.058  1.00  0.00     0.031 C 
ATOM     21  C   UNL A   1      32.145  24.397  26.101  1.00  0.00     0.117 C 
BRANCH  21  22
ATOM     22  C   UNL A   1      33.563  24.423  25.979  1.00  0.00     0.105 C 
ATOM     23  N   UNL A   1      34.714  24.426  25.872  1.00  0.00    -0.192 NA
ENDBRANCH  21  22
BRANCH  21  24
ATOM     24  C   UNL A   1      31.428  23.093  26.046  1.00  0.00     0.261 C 
ATOM     25  O   UNL A   1      30.896  22.618  27.053  1.00  0.00    -0.268 OA
ATOM     26  N   UNL A   1      31.150  22.512  24.851  1.00  0.00    -0.351 N 
ATOM     27  H   UNL A   1      30.204  22.258  24.750  1.00  0.00     0.163 HD
BRANCH  26  28
ATOM     28  C   UNL A   1      31.971  22.183  23.674  1.00  0.00     0.121 C 
BRANCH  28  29
ATOM     29  C   UNL A   1      33.475  21.895  23.977  1.00  0.00     0.059 C 
BRANCH  29  30
ATOM     30  C   UNL A   1      33.717  20.878  25.095  1.00  0.00    -0.021 A 
ATOM     31  C   UNL A   1      34.897  20.834  25.835  1.00  0.00     0.087 A 
ATOM     32  C   UNL A   1      33.433  19.477  25.008  1.00  0.00     0.003 A 
ATOM     33  N   UNL A   1      35.600  19.883  25.088  1.00  0.00    -0.361 N 
ATOM     34  C   UNL A   1      34.679  18.934  24.688  1.00  0.00     0.046 A 
ATOM     35  C   UNL A   1      32.329  18.611  25.084  1.00  0.00     0.010 A 
ATOM     36  H   UNL A   1      36.564  19.888  24.886  1.00  0.00     0.166 HD
ATOM     37  C   UNL A   1      34.850  17.659  24.161  1.00  0.00     0.026 A 
ATOM     38  C   UNL A   1      32.529  17.257  24.768  1.00  0.00     0.001 A 
ATOM     39  C   UNL A   1      33.744  16.813  24.238  1.00  0.00     0.002 A 
ENDBRANCH  29  30
ENDBRANCH  28  29
ENDBRANCH  26  28
ENDBRANCH  21  24
ENDBRANCH  18  20
ENDBRANCH   9  13
ENDBRANCH   3   6
ENDBRANCH   1   2
BRANCH   1  40
ATOM     40  C   UNL A   1      37.667  33.334  30.302  1.00  0.00     0.021 C 
BRANCH  40  41
ATOM     41  C   UNL A   1      38.069  31.906  30.666  1.00  0.00     0.002 C 
BRANCH  41  42
ATOM     42  C   UNL A   1      36.969  31.113  31.380  1.00  0.00     0.002 C 
BRANCH  42  43
ATOM     43  C   UNL A   1      37.029  29.603  31.155  1.00  0.00     0.021 C 
BRANCH  43  44
ATOM     44  C   UNL A   1      38.445  29.069  31.211  1.00  0.00     0.116 C 
BRANCH  44  45
ATOM     45  N   UNL A   1      38.613  27.998  30.240  1.00  0.00    -0.352 N 
ATOM     46  C   UNL A   1      39.020  28.043  28.925  1.00  0.00     0.251 C 
ATOM     47  H   UNL A   1      38.401  27.098  30.577  1.00  0.00     0.163 HD
ATOM     48  O   UNL A   1      38.693  27.144  28.157  1.00  0.00    -0.269 OA
BRANCH  46  49
ATOM     49  C   UNL A   1      40.083  29.000  28.534  1.00  0.00     0.039 A 
ATOM     50  C   UNL A   1      40.451  28.882  27.183  1.00  0.00     0.014 A 
ATOM     51  C   UNL A   1      41.001  29.414  29.486  1.00  0.00     0.014 A 
ATOM     52  C   UNL A   1      41.791  28.801  26.862  1.00  0.00     0.010 A 
ATOM     53  C   UNL A   1      42.312  29.149  29.221  1.00  0.00     0.010 A 
ATOM     54  C   UNL A   1      42.680  28.782  27.923  1.00  0.00    -0.014 A 
BRANCH  54  55
ATOM     55  C   UNL A   1      44.090  28.535  27.797  1.00  0.00     0.031 A 
ATOM     56  C   UNL A   1      44.871  29.725  27.436  1.00  0.00     0.074 A 
ATOM     57  C   UNL A   1      44.528  27.361  28.303  1.00  0.00     0.049 A 
ATOM     58  N   UNL A   1      46.085  29.710  27.041  1.00  0.00    -0.248 NA
ATOM     59  C   UNL A   1      44.304  31.079  27.442  1.00  0.00     0.031 C 
ATOM     60  C   UNL A   1      45.864  26.958  28.720  1.00  0.00     0.029 A 
ATOM     61  N   UNL A   1      43.782  26.169  28.383  1.00  0.00    -0.354 N 
ATOM     62  C   UNL A   1      46.557  31.003  27.141  1.00  0.00     0.074 A 
ATOM     63  C   UNL A   1      45.385  31.828  27.221  1.00  0.00     0.031 C 
ATOM     64  C   UNL A   1      45.946  25.614  28.669  1.00  0.00     0.029 A 
ATOM     65  C   UNL A   1      44.701  25.135  28.087  1.00  0.00     0.049 A 
ATOM     66  H   UNL A   1      42.826  26.075  28.598  1.00  0.00     0.167 HD
ATOM     67  C   UNL A   1      47.896  31.154  27.343  1.00  0.00     0.037 A 
ATOM     68  C   UNL A   1      44.601  24.486  26.885  1.00  0.00     0.037 A 
ATOM     69  C   UNL A   1      48.528  29.836  27.240  1.00  0.00     0.049 A 
ATOM     70  C   UNL A   1      45.776  24.822  25.990  1.00  0.00     0.074 A 
ATOM     71  C   UNL A   1      48.911  28.911  28.198  1.00  0.00     0.029 A 
ATOM     72  N   UNL A   1      48.414  29.140  26.041  1.00  0.00    -0.354 N 
ATOM     73  N   UNL A   1      46.433  25.953  26.035  1.00  0.00    -0.248 NA
ATOM     74  C   UNL A   1      46.363  23.864  25.061  1.00  0.00     0.031 C 
ATOM     75  C   UNL A   1      48.931  27.631  27.574  1.00  0.00     0.029 A 
ATOM     76  C   UNL A   1      48.573  27.782  26.242  1.00  0.00     0.049 A 
ATOM     77  H   UNL A   1      48.242  29.558  25.166  1.00  0.00     0.167 HD
ATOM     78  C   UNL A   1      47.538  25.868  25.227  1.00  0.00     0.074 A 
ATOM     79  C   UNL A   1      47.441  24.545  24.634  1.00  0.00     0.031 C 
ATOM     80  C   UNL A   1      48.476  26.859  25.120  1.00  0.00     0.037 A 
BRANCH  67  81
ATOM     81  C   UNL A   1      48.610  32.372  27.894  1.00  0.00     0.064 A 
ATOM     82  C   UNL A   1      48.730  33.526  27.085  1.00  0.00     0.173 A 
ATOM     83  C   UNL A   1      49.248  32.476  29.147  1.00  0.00     0.173 A 
ATOM     84  F   UNL A   1      48.140  33.602  25.884  1.00  0.00    -0.203 F 
ATOM     85  C   UNL A   1      49.466  34.651  27.471  1.00  0.00     0.198 A 
ATOM     86  C   UNL A   1      49.983  33.604  29.534  1.00  0.00     0.198 A 
ATOM     87  F   UNL A   1      49.185  31.513  30.066  1.00  0.00    -0.203 F 
ATOM     88  F   UNL A   1      49.558  35.699  26.640  1.00  0.00    -0.200 F 
ATOM     89  C   UNL A   1      50.099  34.689  28.692  1.00  0.00     0.200 A 
ATOM     90  F   UNL A   1      50.581  33.624  30.735  1.00  0.00    -0.200 F 
ATOM     91  F   UNL A   1      50.806  35.764  29.063  1.00  0.00    -0.200 F 
ENDBRANCH  67  81
BRANCH  68  92
ATOM     92  C   UNL A   1      43.168  24.308  26.487  1.00  0.00     0.064 A 
ATOM     93  C   UNL A   1      42.453  23.288  27.155  1.00  0.00     0.173 A 
ATOM     94  C   UNL A   1      42.417  25.345  25.919  1.00  0.00     0.173 A 
ATOM     95  F   UNL A   1      43.116  22.249  27.689  1.00  0.00    -0.203 F 
ATOM     96  C   UNL A   1      41.093  23.414  27.432  1.00  0.00     0.198 A 
ATOM     97  C   UNL A   1      41.040  25.437  26.154  1.00  0.00     0.198 A 
ATOM     98  F   UNL A   1      43.023  26.339  25.255  1.00  0.00    -0.203 F 
ATOM     99  F   UNL A   1      40.489  22.526  28.236  1.00  0.00    -0.200 F 
ATOM    100  C   UNL A   1      40.394  24.510  26.962  1.00  0.00     0.200 A 
ATOM    101  F   UNL A   1      40.352  26.489  25.685  1.00  0.00    -0.200 F 
ATOM    102  F   UNL A   1      39.115  24.693  27.318  1.00  0.00    -0.200 F 
ENDBRANCH  68  92
BRANCH  80 103
ATOM    103  C   UNL A   1      49.465  27.011  23.983  1.00  0.00     0.064 A 
ATOM    104  C   UNL A   1      49.129  27.511  22.715  1.00  0.00     0.173 A 
ATOM    105  C   UNL A   1      50.855  26.804  24.194  1.00  0.00     0.173 A 
ATOM    106  F   UNL A   1      47.885  27.910  22.423  1.00  0.00    -0.203 F 
ATOM    107  C   UNL A   1      50.081  27.686  21.710  1.00  0.00     0.198 A 
ATOM    108  C   UNL A   1      51.812  27.080  23.223  1.00  0.00     0.198 A 
ATOM    109  F   UNL A   1      51.342  26.362  25.362  1.00  0.00    -0.203 F 
ATOM    110  F   UNL A   1      49.688  28.085  20.492  1.00  0.00    -0.200 F 
ATOM    111  C   UNL A   1      51.423  27.487  21.968  1.00  0.00     0.200 A 
ATOM    112  F   UNL A   1      53.114  26.965  23.522  1.00  0.00    -0.200 F 
ATOM    113  F   UNL A   1      52.338  27.709  21.016  1.00  0.00    -0.200 F 
ENDBRANCH  80 103
ENDBRANCH  54  55
ENDBRANCH  46  49
ENDBRANCH  44  45
ENDBRANCH  43  44
ENDBRANCH  42  43
ENDBRANCH  41  42
ENDBRANCH  40  41
ENDBRANCH   1  40
TORSDOF 20
ENDMDL
MODEL 2
REMARK VINA RESULT:     -12.1      1.346      2.077
REMARK SMILES Cc1c(C(=O)NCCCCCCNC(=O)c2ccc(-c3c4nc(c(-c5c(F)c(F)c(F)c(F)c5F)c5ccc([nH]5)c(-c5c(F)c(F)c(F)c(F)c5F)c5nc(c(-c6c(F)c(F)c(F)c(F)c6F)c6ccc3[nH]6)C=C5)C=C4)cc2)cccc1N1[C@@H](C)C=C(/C=C(\C#N)C(=O)NCCc2c[nH]c3ccccc23)[C@@H]1C
REMARK SMILES IDX 7 1 6 2 4 3 5 4 3 6 1 7 2 8 82 9 79 10 81 11 80 12 83 13
REMARK SMILES IDX 84 14 106 15 86 16 85 17 87 18 107 19 88 20 89 21 90 22
REMARK SMILES IDX 91 23 92 24 93 25 94 26 95 28 96 29 97 30 98 31 105 32 99 33
REMARK SMILES IDX 100 34 104 35 101 37 103 38 102 39 8 40 9 41 10 42 11 43
REMARK SMILES IDX 12 44 13 45 14 46 15 48 16 49 17 50 78 51 18 52 77 53 19 54
REMARK SMILES IDX 20 55 21 56 71 57 22 58 76 59 70 60 72 61 23 62 75 63 69 64
REMARK SMILES IDX 68 65 24 67 56 68 36 69 55 70 37 71 40 72 54 73 73 74 38 75
REMARK SMILES IDX 39 76 53 78 74 79 41 80 25 81 26 82 34 83 27 84 28 85 32 86
REMARK SMILES IDX 35 87 29 88 30 89 33 90 31 91 57 92 58 93 66 94 59 95 60 96
REMARK SMILES IDX 64 97 67 98 61 99 62 100 65 101 63 102 42 103 43 104 51 105
REMARK SMILES IDX 44 106 45 107 49 108 52 109 46 110 47 111 50 112 48 113
REMARK H PARENT 6 5 94 27 99 36 13 47 72 66 40 77
REMARK Flexibility Score: inf
ROOT
ATOM      1  C   UNL A   1      36.994  33.402  28.804  1.00  0.00     0.116 C 
ENDROOT
BRANCH   1   2
ATOM      2  N   UNL A   1      35.606  33.691  28.606  1.00  0.00    -0.352 N 
ATOM      3  C   UNL A   1      34.524  33.013  28.138  1.00  0.00     0.251 C 
ATOM      4  O   UNL A   1      33.482  33.677  28.208  1.00  0.00    -0.269 OA
ATOM      5  H   UNL A   1      35.378  34.610  28.876  1.00  0.00     0.163 HD
BRANCH   3   6
ATOM      6  C   UNL A   1      34.447  31.594  27.625  1.00  0.00     0.044 A 
ATOM      7  C   UNL A   1      31.953  31.310  27.031  1.00  0.00     0.047 C 
ATOM      8  C   UNL A   1      33.380  30.844  27.061  1.00  0.00    -0.015 A 
ATOM      9  C   UNL A   1      33.607  29.501  26.626  1.00  0.00     0.041 A 
ATOM     10  C   UNL A   1      35.664  30.908  27.866  1.00  0.00     0.014 A 
ATOM     11  C   UNL A   1      34.838  28.887  26.902  1.00  0.00     0.026 A 
ATOM     12  C   UNL A   1      35.852  29.572  27.543  1.00  0.00     0.003 A 
BRANCH   9  13
ATOM     13  N   UNL A   1      32.604  28.710  26.105  1.00  0.00    -0.358 N 
ATOM     14  C   UNL A   1      32.126  28.942  24.739  1.00  0.00     0.103 C 
ATOM     15  C   UNL A   1      32.104  27.456  26.689  1.00  0.00     0.110 C 
ATOM     16  C   UNL A   1      31.483  27.630  24.435  1.00  0.00     0.003 C 
ATOM     17  C   UNL A   1      33.248  29.166  23.720  1.00  0.00     0.035 C 
ATOM     18  C   UNL A   1      31.585  26.754  25.445  1.00  0.00    -0.026 C 
ATOM     19  C   UNL A   1      30.981  27.751  27.688  1.00  0.00     0.036 C 
BRANCH  18  20
ATOM     20  C   UNL A   1      31.259  25.342  25.423  1.00  0.00     0.031 C 
ATOM     21  C   UNL A   1      32.075  24.287  25.652  1.00  0.00     0.117 C 
BRANCH  21  22
ATOM     22  C   UNL A   1      33.458  24.418  25.963  1.00  0.00     0.105 C 
ATOM     23  N   UNL A   1      34.581  24.505  26.221  1.00  0.00    -0.192 NA
ENDBRANCH  21  22
BRANCH  21  24
ATOM     24  C   UNL A   1      31.519  22.943  25.334  1.00  0.00     0.261 C 
ATOM     25  O   UNL A   1      30.798  22.347  26.138  1.00  0.00    -0.268 OA
ATOM     26  N   UNL A   1      31.605  22.445  24.073  1.00  0.00    -0.351 N 
ATOM     27  H   UNL A   1      30.743  22.131  23.717  1.00  0.00     0.163 HD
BRANCH  26  28
ATOM     28  C   UNL A   1      32.723  22.278  23.130  1.00  0.00     0.121 C 
BRANCH  28  29
ATOM     29  C   UNL A   1      34.128  22.117  23.791  1.00  0.00     0.059 C 
BRANCH  29  30
ATOM     30  C   UNL A   1      34.177  21.117  24.949  1.00  0.00    -0.021 A 
ATOM     31  C   UNL A   1      35.317  20.914  25.725  1.00  0.00     0.087 A 
ATOM     32  C   UNL A   1      33.674  19.778  24.902  1.00  0.00     0.003 A 
ATOM     33  N   UNL A   1      35.875  19.834  25.032  1.00  0.00    -0.361 N 
ATOM     34  C   UNL A   1      34.823  19.031  24.637  1.00  0.00     0.046 A 
ATOM     35  C   UNL A   1      32.443  19.103  24.975  1.00  0.00     0.010 A 
ATOM     36  H   UNL A   1      36.831  19.678  24.857  1.00  0.00     0.166 HD
ATOM     37  C   UNL A   1      34.799  17.725  24.158  1.00  0.00     0.026 A 
ATOM     38  C   UNL A   1      32.430  17.723  24.711  1.00  0.00     0.001 A 
ATOM     39  C   UNL A   1      33.570  17.070  24.232  1.00  0.00     0.002 A 
ENDBRANCH  29  30
ENDBRANCH  28  29
ENDBRANCH  26  28
ENDBRANCH  21  24
ENDBRANCH  18  20
ENDBRANCH   9  13
ENDBRANCH   3   6
ENDBRANCH   1   2
BRANCH   1  40
ATOM     40  C   UNL A   1      37.293  33.249  30.303  1.00  0.00     0.021 C 
BRANCH  40  41
ATOM     41  C   UNL A   1      37.821  31.863  30.670  1.00  0.00     0.002 C 
BRANCH  41  42
ATOM     42  C   UNL A   1      36.776  30.953  31.325  1.00  0.00     0.002 C 
BRANCH  42  43
ATOM     43  C   UNL A   1      36.973  29.464  31.049  1.00  0.00     0.021 C 
BRANCH  43  44
ATOM     44  C   UNL A   1      38.436  29.071  31.022  1.00  0.00     0.116 C 
BRANCH  44  45
ATOM     45  N   UNL A   1      38.650  28.015  30.044  1.00  0.00    -0.352 N 
ATOM     46  C   UNL A   1      38.995  28.090  28.713  1.00  0.00     0.251 C 
ATOM     47  H   UNL A   1      38.530  27.102  30.389  1.00  0.00     0.163 HD
ATOM     48  O   UNL A   1      38.712  27.165  27.959  1.00  0.00    -0.269 OA
BRANCH  46  49
ATOM     49  C   UNL A   1      39.956  29.132  28.277  1.00  0.00     0.039 A 
ATOM     50  C   UNL A   1      40.546  28.843  27.034  1.00  0.00     0.014 A 
ATOM     51  C   UNL A   1      40.644  29.859  29.236  1.00  0.00     0.014 A 
ATOM     52  C   UNL A   1      41.916  28.938  26.908  1.00  0.00     0.010 A 
ATOM     53  C   UNL A   1      42.004  29.781  29.197  1.00  0.00     0.010 A 
ATOM     54  C   UNL A   1      42.621  29.259  28.055  1.00  0.00    -0.014 A 
BRANCH  54  55
ATOM     55  C   UNL A   1      44.054  29.240  28.162  1.00  0.00     0.031 A 
ATOM     56  C   UNL A   1      44.713  30.380  27.509  1.00  0.00     0.074 A 
ATOM     57  C   UNL A   1      44.564  28.378  29.067  1.00  0.00     0.049 A 
ATOM     58  N   UNL A   1      45.963  30.459  27.266  1.00  0.00    -0.248 NA
ATOM     59  C   UNL A   1      43.973  31.546  27.011  1.00  0.00     0.031 C 
ATOM     60  C   UNL A   1      45.863  28.367  29.727  1.00  0.00     0.029 A 
ATOM     61  N   UNL A   1      43.984  27.156  29.460  1.00  0.00    -0.354 N 
ATOM     62  C   UNL A   1      46.234  31.783  26.982  1.00  0.00     0.074 A 
ATOM     63  C   UNL A   1      44.963  32.370  26.667  1.00  0.00     0.031 C 
ATOM     64  C   UNL A   1      46.133  27.110  30.130  1.00  0.00     0.029 A 
ATOM     65  C   UNL A   1      45.069  26.261  29.615  1.00  0.00     0.049 A 
ATOM     66  H   UNL A   1      43.028  26.964  29.596  1.00  0.00     0.167 HD
ATOM     67  C   UNL A   1      47.494  32.224  27.257  1.00  0.00     0.037 A 
ATOM     68  C   UNL A   1      45.243  25.267  28.691  1.00  0.00     0.037 A 
ATOM     69  C   UNL A   1      48.308  31.073  27.658  1.00  0.00     0.049 A 
ATOM     70  C   UNL A   1      46.484  25.513  27.859  1.00  0.00     0.074 A 
ATOM     71  C   UNL A   1      48.660  30.572  28.901  1.00  0.00     0.029 A 
ATOM     72  N   UNL A   1      48.473  30.032  26.751  1.00  0.00    -0.354 N 
ATOM     73  N   UNL A   1      46.968  26.700  27.595  1.00  0.00    -0.248 NA
ATOM     74  C   UNL A   1      47.331  24.435  27.361  1.00  0.00     0.031 C 
ATOM     75  C   UNL A   1      48.950  29.187  28.739  1.00  0.00     0.029 A 
ATOM     76  C   UNL A   1      48.782  28.853  27.403  1.00  0.00     0.049 A 
ATOM     77  H   UNL A   1      48.383  30.122  25.774  1.00  0.00     0.167 HD
ATOM     78  C   UNL A   1      48.185  26.567  26.976  1.00  0.00     0.074 A 
ATOM     79  C   UNL A   1      48.359  25.131  26.845  1.00  0.00     0.031 C 
ATOM     80  C   UNL A   1      48.984  27.627  26.644  1.00  0.00     0.037 A 
BRANCH  67  81
ATOM     81  C   UNL A   1      47.943  33.659  27.445  1.00  0.00     0.064 A 
ATOM     82  C   UNL A   1      49.013  34.156  26.665  1.00  0.00     0.173 A 
ATOM     83  C   UNL A   1      47.441  34.580  28.388  1.00  0.00     0.173 A 
ATOM     84  F   UNL A   1      49.569  33.418  25.693  1.00  0.00    -0.203 F 
ATOM     85  C   UNL A   1      49.563  35.428  26.850  1.00  0.00     0.198 A 
ATOM     86  C   UNL A   1      47.991  35.855  28.572  1.00  0.00     0.198 A 
ATOM     87  F   UNL A   1      46.392  34.309  29.166  1.00  0.00    -0.203 F 
ATOM     88  F   UNL A   1      50.595  35.820  26.090  1.00  0.00    -0.200 F 
ATOM     89  C   UNL A   1      49.057  36.276  27.809  1.00  0.00     0.200 A 
ATOM     90  F   UNL A   1      47.473  36.670  29.503  1.00  0.00    -0.200 F 
ATOM     91  F   UNL A   1      49.583  37.494  27.989  1.00  0.00    -0.200 F 
ENDBRANCH  67  81
BRANCH  68  92
ATOM     92  C   UNL A   1      43.925  24.723  28.230  1.00  0.00     0.064 A 
ATOM     93  C   UNL A   1      43.458  25.186  26.978  1.00  0.00     0.173 A 
ATOM     94  C   UNL A   1      43.427  23.494  28.680  1.00  0.00     0.173 A 
ATOM     95  F   UNL A   1      43.873  26.375  26.510  1.00  0.00    -0.203 F 
ATOM     96  C   UNL A   1      42.714  24.367  26.131  1.00  0.00     0.198 A 
ATOM     97  C   UNL A   1      42.633  22.698  27.845  1.00  0.00     0.198 A 
ATOM     98  F   UNL A   1      43.810  22.998  29.865  1.00  0.00    -0.203 F 
ATOM     99  F   UNL A   1      42.456  24.764  24.875  1.00  0.00    -0.200 F 
ATOM    100  C   UNL A   1      42.333  23.107  26.551  1.00  0.00     0.200 A 
ATOM    101  F   UNL A   1      42.245  21.482  28.255  1.00  0.00    -0.200 F 
ATOM    102  F   UNL A   1      41.715  22.275  25.702  1.00  0.00    -0.200 F 
ENDBRANCH  68  92
BRANCH  80 103
ATOM    103  C   UNL A   1      50.106  27.594  25.626  1.00  0.00     0.064 A 
ATOM    104  C   UNL A   1      51.469  27.579  25.964  1.00  0.00     0.173 A 
ATOM    105  C   UNL A   1      49.831  27.405  24.246  1.00  0.00     0.173 A 
ATOM    106  F   UNL A   1      51.878  27.580  27.239  1.00  0.00    -0.203 F 
ATOM    107  C   UNL A   1      52.472  27.493  24.998  1.00  0.00     0.198 A 
ATOM    108  C   UNL A   1      50.832  27.215  23.299  1.00  0.00     0.198 A 
ATOM    109  F   UNL A   1      48.580  27.360  23.766  1.00  0.00    -0.203 F 
ATOM    110  F   UNL A   1      53.756  27.571  25.372  1.00  0.00    -0.200 F 
ATOM    111  C   UNL A   1      52.155  27.294  23.669  1.00  0.00     0.200 A 
ATOM    112  F   UNL A   1      50.502  26.935  22.030  1.00  0.00    -0.200 F 
ATOM    113  F   UNL A   1      53.122  27.158  22.753  1.00  0.00    -0.200 F 
ENDBRANCH  80 103
ENDBRANCH  54  55
ENDBRANCH  46  49
ENDBRANCH  44  45
ENDBRANCH  43  44
ENDBRANCH  42  43
ENDBRANCH  41  42
ENDBRANCH  40  41
ENDBRANCH   1  40
TORSDOF 20
ENDMDL
MODEL 3
REMARK VINA RESULT:     -12.0      6.502     11.371
REMARK SMILES Cc1c(C(=O)NCCCCCCNC(=O)c2ccc(-c3c4nc(c(-c5c(F)c(F)c(F)c(F)c5F)c5ccc([nH]5)c(-c5c(F)c(F)c(F)c(F)c5F)c5nc(c(-c6c(F)c(F)c(F)c(F)c6F)c6ccc3[nH]6)C=C5)C=C4)cc2)cccc1N1[C@@H](C)C=C(/C=C(\C#N)C(=O)NCCc2c[nH]c3ccccc23)[C@@H]1C
REMARK SMILES IDX 7 1 6 2 4 3 5 4 3 6 1 7 2 8 82 9 79 10 81 11 80 12 83 13
REMARK SMILES IDX 84 14 106 15 86 16 85 17 87 18 107 19 88 20 89 21 90 22
REMARK SMILES IDX 91 23 92 24 93 25 94 26 95 28 96 29 97 30 98 31 105 32 99 33
REMARK SMILES IDX 100 34 104 35 101 37 103 38 102 39 8 40 9 41 10 42 11 43
REMARK SMILES IDX 12 44 13 45 14 46 15 48 16 49 17 50 78 51 18 52 77 53 19 54
REMARK SMILES IDX 20 55 21 56 71 57 22 58 76 59 70 60 72 61 23 62 75 63 69 64
REMARK SMILES IDX 68 65 24 67 56 68 36 69 55 70 37 71 40 72 54 73 73 74 38 75
REMARK SMILES IDX 39 76 53 78 74 79 41 80 25 81 26 82 34 83 27 84 28 85 32 86
REMARK SMILES IDX 35 87 29 88 30 89 33 90 31 91 57 92 58 93 66 94 59 95 60 96
REMARK SMILES IDX 64 97 67 98 61 99 62 100 65 101 63 102 42 103 43 104 51 105
REMARK SMILES IDX 44 106 45 107 49 108 52 109 46 110 47 111 50 112 48 113
REMARK H PARENT 6 5 94 27 99 36 13 47 72 66 40 77
REMARK Flexibility Score: inf
ROOT
ATOM      1  C   UNL A   1      43.028  22.609  24.909  1.00  0.00     0.116 C 
ENDROOT
BRANCH   1   2
ATOM      2  N   UNL A   1      41.796  22.168  25.491  1.00  0.00    -0.352 N 
ATOM      3  C   UNL A   1      40.977  22.599  26.487  1.00  0.00     0.251 C 
ATOM      4  O   UNL A   1      39.959  21.903  26.598  1.00  0.00    -0.269 OA
ATOM      5  H   UNL A   1      41.458  21.349  25.062  1.00  0.00     0.163 HD
BRANCH   3   6
ATOM      6  C   UNL A   1      41.134  23.804  27.385  1.00  0.00     0.044 A 
ATOM      7  C   UNL A   1      39.687  25.600  26.231  1.00  0.00     0.047 C 
ATOM      8  C   UNL A   1      40.534  25.092  27.362  1.00  0.00    -0.015 A 
ATOM      9  C   UNL A   1      40.855  26.044  28.378  1.00  0.00     0.041 A 
ATOM     10  C   UNL A   1      42.149  23.580  28.349  1.00  0.00     0.014 A 
ATOM     11  C   UNL A   1      41.872  25.753  29.298  1.00  0.00     0.026 A 
ATOM     12  C   UNL A   1      42.538  24.543  29.270  1.00  0.00     0.003 A 
BRANCH   9  13
ATOM     13  N   UNL A   1      40.334  27.322  28.389  1.00  0.00    -0.358 N 
ATOM     14  C   UNL A   1      41.155  28.450  27.939  1.00  0.00     0.103 C 
ATOM     15  C   UNL A   1      38.919  27.674  28.578  1.00  0.00     0.110 C 
ATOM     16  C   UNL A   1      40.103  29.465  27.638  1.00  0.00     0.003 C 
ATOM     17  C   UNL A   1      41.929  28.173  26.645  1.00  0.00     0.035 C 
ATOM     18  C   UNL A   1      38.861  29.007  27.851  1.00  0.00    -0.026 C 
ATOM     19  C   UNL A   1      38.607  27.825  30.070  1.00  0.00     0.036 C 
BRANCH  18  20
ATOM     20  C   UNL A   1      37.612  29.642  27.477  1.00  0.00     0.031 C 
ATOM     21  C   UNL A   1      36.957  30.643  28.110  1.00  0.00     0.117 C 
BRANCH  21  22
ATOM     22  C   UNL A   1      37.424  31.254  29.308  1.00  0.00     0.105 C 
ATOM     23  N   UNL A   1      37.803  31.766  30.271  1.00  0.00    -0.192 NA
ENDBRANCH  21  22
BRANCH  21  24
ATOM     24  C   UNL A   1      35.580  30.937  27.625  1.00  0.00     0.261 C 
ATOM     25  O   UNL A   1      35.120  32.080  27.673  1.00  0.00    -0.268 OA
ATOM     26  N   UNL A   1      34.889  30.007  26.917  1.00  0.00    -0.351 N 
ATOM     27  H   UNL A   1      34.523  30.352  26.070  1.00  0.00     0.163 HD
BRANCH  26  28
ATOM     28  C   UNL A   1      34.573  28.588  27.154  1.00  0.00     0.121 C 
BRANCH  28  29
ATOM     29  C   UNL A   1      33.050  28.253  27.228  1.00  0.00     0.059 C 
BRANCH  29  30
ATOM     30  C   UNL A   1      32.543  27.336  26.112  1.00  0.00    -0.021 A 
ATOM     31  C   UNL A   1      31.218  26.913  26.025  1.00  0.00     0.087 A 
ATOM     32  C   UNL A   1      33.206  26.152  25.655  1.00  0.00     0.003 A 
ATOM     33  N   UNL A   1      31.322  25.696  26.707  1.00  0.00    -0.361 N 
ATOM     34  C   UNL A   1      32.535  25.142  26.347  1.00  0.00     0.046 A 
ATOM     35  C   UNL A   1      34.289  25.791  24.834  1.00  0.00     0.010 A 
ATOM     36  H   UNL A   1      30.660  25.309  27.325  1.00  0.00     0.166 HD
ATOM     37  C   UNL A   1      33.036  23.854  26.506  1.00  0.00     0.026 A 
ATOM     38  C   UNL A   1      34.675  24.441  24.807  1.00  0.00     0.001 A 
ATOM     39  C   UNL A   1      34.113  23.513  25.689  1.00  0.00     0.002 A 
ENDBRANCH  29  30
ENDBRANCH  28  29
ENDBRANCH  26  28
ENDBRANCH  21  24
ENDBRANCH  18  20
ENDBRANCH   9  13
ENDBRANCH   3   6
ENDBRANCH   1   2
BRANCH   1  40
ATOM     40  C   UNL A   1      44.218  21.997  25.665  1.00  0.00     0.021 C 
BRANCH  40  41
ATOM     41  C   UNL A   1      45.136  23.047  26.287  1.00  0.00     0.002 C 
BRANCH  41  42
ATOM     42  C   UNL A   1      44.688  24.492  26.037  1.00  0.00     0.002 C 
BRANCH  42  43
ATOM     43  C   UNL A   1      45.820  25.450  25.672  1.00  0.00     0.021 C 
BRANCH  43  44
ATOM     44  C   UNL A   1      47.098  25.147  26.426  1.00  0.00     0.116 C 
BRANCH  44  45
ATOM     45  N   UNL A   1      47.534  26.324  27.162  1.00  0.00    -0.352 N 
ATOM     46  C   UNL A   1      47.257  26.724  28.450  1.00  0.00     0.251 C 
ATOM     47  H   UNL A   1      48.122  26.932  26.657  1.00  0.00     0.163 HD
ATOM     48  O   UNL A   1      47.340  27.910  28.749  1.00  0.00    -0.269 OA
BRANCH  46  49
ATOM     49  C   UNL A   1      47.160  25.698  29.515  1.00  0.00     0.039 A 
ATOM     50  C   UNL A   1      45.933  25.012  29.501  1.00  0.00     0.014 A 
ATOM     51  C   UNL A   1      47.851  25.889  30.701  1.00  0.00     0.014 A 
ATOM     52  C   UNL A   1      45.234  24.872  30.683  1.00  0.00     0.010 A 
ATOM     53  C   UNL A   1      47.103  25.931  31.840  1.00  0.00     0.010 A 
ATOM     54  C   UNL A   1      45.780  25.481  31.799  1.00  0.00    -0.014 A 
BRANCH  54  55
ATOM     55  C   UNL A   1      45.121  25.587  33.071  1.00  0.00     0.031 A 
ATOM     56  C   UNL A   1      44.543  26.912  33.332  1.00  0.00     0.074 A 
ATOM     57  C   UNL A   1      44.867  24.419  33.701  1.00  0.00     0.049 A 
ATOM     58  N   UNL A   1      44.124  27.316  34.468  1.00  0.00    -0.248 NA
ATOM     59  C   UNL A   1      44.436  27.949  32.298  1.00  0.00     0.031 C 
ATOM     60  C   UNL A   1      43.901  24.104  34.744  1.00  0.00     0.029 A 
ATOM     61  N   UNL A   1      45.633  23.242  33.593  1.00  0.00    -0.354 N 
ATOM     62  C   UNL A   1      43.354  28.438  34.237  1.00  0.00     0.074 A 
ATOM     63  C   UNL A   1      43.720  28.884  32.922  1.00  0.00     0.031 C 
ATOM     64  C   UNL A   1      44.325  23.013  35.412  1.00  0.00     0.029 A 
ATOM     65  C   UNL A   1      45.645  22.685  34.894  1.00  0.00     0.049 A 
ATOM     66  H   UNL A   1      46.069  22.883  32.787  1.00  0.00     0.167 HD
ATOM     67  C   UNL A   1      42.366  28.700  35.138  1.00  0.00     0.037 A 
ATOM     68  C   UNL A   1      46.802  22.733  35.624  1.00  0.00     0.037 A 
ATOM     69  C   UNL A   1      42.495  27.755  36.251  1.00  0.00     0.049 A 
ATOM     70  C   UNL A   1      46.663  23.680  36.797  1.00  0.00     0.074 A 
ATOM     71  C   UNL A   1      41.859  26.556  36.530  1.00  0.00     0.029 A 
ATOM     72  N   UNL A   1      43.674  27.759  36.988  1.00  0.00    -0.354 N 
ATOM     73  N   UNL A   1      45.876  24.726  36.807  1.00  0.00    -0.248 NA
ATOM     74  C   UNL A   1      47.313  23.451  38.082  1.00  0.00     0.031 C 
ATOM     75  C   UNL A   1      42.722  25.800  37.373  1.00  0.00     0.029 A 
ATOM     76  C   UNL A   1      43.870  26.541  37.611  1.00  0.00     0.049 A 
ATOM     77  H   UNL A   1      44.288  28.526  37.057  1.00  0.00     0.167 HD
ATOM     78  C   UNL A   1      45.850  25.262  38.069  1.00  0.00     0.074 A 
ATOM     79  C   UNL A   1      46.774  24.433  38.824  1.00  0.00     0.031 C 
ATOM     80  C   UNL A   1      45.055  26.318  38.426  1.00  0.00     0.037 A 
BRANCH  67  81
ATOM     81  C   UNL A   1      41.143  29.572  34.932  1.00  0.00     0.064 A 
ATOM     82  C   UNL A   1      40.913  30.657  35.810  1.00  0.00     0.173 A 
ATOM     83  C   UNL A   1      40.133  29.387  33.966  1.00  0.00     0.173 A 
ATOM     84  F   UNL A   1      41.803  30.991  36.755  1.00  0.00    -0.203 F 
ATOM     85  C   UNL A   1      39.758  31.442  35.761  1.00  0.00     0.198 A 
ATOM     86  C   UNL A   1      38.976  30.176  33.916  1.00  0.00     0.198 A 
ATOM     87  F   UNL A   1      40.212  28.456  33.015  1.00  0.00    -0.203 F 
ATOM     88  F   UNL A   1      39.595  32.438  36.644  1.00  0.00    -0.200 F 
ATOM     89  C   UNL A   1      38.784  31.198  34.819  1.00  0.00     0.200 A 
ATOM     90  F   UNL A   1      38.047  29.929  32.980  1.00  0.00    -0.200 F 
ATOM     91  F   UNL A   1      37.676  31.948  34.771  1.00  0.00    -0.200 F 
ENDBRANCH  67  81
BRANCH  68  92
ATOM     92  C   UNL A   1      48.000  22.531  34.747  1.00  0.00     0.064 A 
ATOM     93  C   UNL A   1      48.832  23.658  34.554  1.00  0.00     0.173 A 
ATOM     94  C   UNL A   1      48.579  21.272  34.552  1.00  0.00     0.173 A 
ATOM     95  F   UNL A   1      48.324  24.894  34.691  1.00  0.00    -0.203 F 
ATOM     96  C   UNL A   1      50.211  23.526  34.396  1.00  0.00     0.198 A 
ATOM     97  C   UNL A   1      49.957  21.147  34.339  1.00  0.00     0.198 A 
ATOM     98  F   UNL A   1      47.849  20.158  34.701  1.00  0.00    -0.203 F 
ATOM     99  F   UNL A   1      50.993  24.616  34.413  1.00  0.00    -0.200 F 
ATOM    100  C   UNL A   1      50.778  22.268  34.326  1.00  0.00     0.200 A 
ATOM    101  F   UNL A   1      50.511  19.928  34.252  1.00  0.00    -0.200 F 
ATOM    102  F   UNL A   1      52.111  22.134  34.287  1.00  0.00    -0.200 F 
ENDBRANCH  68  92
BRANCH  80 103
ATOM    103  C   UNL A   1      45.265  27.201  39.640  1.00  0.00     0.064 A 
ATOM    104  C   UNL A   1      45.828  28.486  39.585  1.00  0.00     0.173 A 
ATOM    105  C   UNL A   1      44.738  26.833  40.907  1.00  0.00     0.173 A 
ATOM    106  F   UNL A   1      46.214  29.036  38.428  1.00  0.00    -0.203 F 
ATOM    107  C   UNL A   1      45.954  29.290  40.719  1.00  0.00     0.198 A 
ATOM    108  C   UNL A   1      44.773  27.680  42.010  1.00  0.00     0.198 A 
ATOM    109  F   UNL A   1      44.138  25.653  41.116  1.00  0.00    -0.203 F 
ATOM    110  F   UNL A   1      46.578  30.471  40.622  1.00  0.00    -0.200 F 
ATOM    111  C   UNL A   1      45.413  28.895  41.926  1.00  0.00     0.200 A 
ATOM    112  F   UNL A   1      44.164  27.315  43.147  1.00  0.00    -0.200 F 
ATOM    113  F   UNL A   1      45.488  29.694  42.998  1.00  0.00    -0.200 F 
ENDBRANCH  80 103
ENDBRANCH  54  55
ENDBRANCH  46  49
ENDBRANCH  44  45
ENDBRANCH  43  44
ENDBRANCH  42  43
ENDBRANCH  41  42
ENDBRANCH  40  41
ENDBRANCH   1  40
TORSDOF 20
ENDMDL
