MODEL 1
REMARK VINA RESULT:     -12.8      0.000      0.000
REMARK SMILES Cc1c(N[C@@H]2CC[C@@H]([NH3+])C2)cccc1C(=O)NCCCCCCNC(=O)c1ccc(-c2c3nc(c(-c4c(F)c(F)c(F)c(F)c4F)c4ccc([nH]4)c(-c4c(F)c(F)c(F)c(F)c4F)c4nc(c(-c5c(F)c(F)c(F)c(F)c5F)c5ccc2[nH]5)C=C4)C=C3)cc1
REMARK SMILES IDX 20 1 19 2 18 3 17 4 15 5 16 6 14 8 1 9 2 10 3 11 11 12 13 13
REMARK SMILES IDX 12 14 4 15 5 17 6 18 10 19 7 20 8 21 9 22 21 26 22 27 23 28
REMARK SMILES IDX 24 29 25 30 26 32 27 33 28 34 89 35 29 36 88 37 30 38 31 39
REMARK SMILES IDX 32 40 82 41 33 42 87 43 81 44 83 45 34 46 86 47 80 48 79 49
REMARK SMILES IDX 35 51 67 52 47 53 66 54 48 55 51 56 65 57 84 58 49 59 50 60
REMARK SMILES IDX 64 62 85 63 52 64 36 65 37 66 45 67 38 68 39 69 43 70 46 71
REMARK SMILES IDX 40 72 41 73 44 74 42 75 68 76 69 77 77 78 70 79 71 80 75 81
REMARK SMILES IDX 78 82 72 83 73 84 76 85 74 86 53 87 54 88 62 89 55 90 56 91
REMARK SMILES IDX 60 92 63 93 57 94 58 95 61 96 59 97
REMARK H PARENT 17 7 4 16 9 23 9 24 9 25 24 31 83 50 51 61
REMARK Flexibility Score: inf
ROOT
ATOM      1  C   UNL A   1      34.025  27.996  25.263  1.00  0.00     0.002 C 
ENDROOT
BRANCH   1   2
ATOM      2  C   UNL A   1      33.909  28.948  24.066  1.00  0.00     0.021 C 
BRANCH   2   3
ATOM      3  C   UNL A   1      33.713  28.270  22.701  1.00  0.00     0.116 C 
BRANCH   3   4
ATOM      4  N   UNL A   1      32.322  28.361  22.303  1.00  0.00    -0.352 N 
ATOM      5  C   UNL A   1      31.203  27.619  22.579  1.00  0.00     0.251 C 
ATOM      6  O   UNL A   1      30.167  27.959  22.001  1.00  0.00    -0.269 OA
ATOM      7  H   UNL A   1      32.142  29.120  21.702  1.00  0.00     0.163 HD
BRANCH   5   8
ATOM      8  C   UNL A   1      31.122  26.516  23.588  1.00  0.00     0.044 A 
ATOM      9  C   UNL A   1      32.384  24.721  22.284  1.00  0.00     0.047 C 
ATOM     10  C   UNL A   1      31.731  25.242  23.537  1.00  0.00    -0.015 A 
ATOM     11  C   UNL A   1      31.610  24.338  24.636  1.00  0.00     0.038 A 
ATOM     12  C   UNL A   1      30.652  24.623  25.611  1.00  0.00     0.026 A 
ATOM     13  C   UNL A   1      30.229  26.783  24.642  1.00  0.00     0.014 A 
ATOM     14  C   UNL A   1      29.961  25.831  25.616  1.00  0.00     0.003 A 
BRANCH  11  15
ATOM     15  N   UNL A   1      32.387  23.194  24.653  1.00  0.00    -0.382 N 
ATOM     16  H   UNL A   1      31.996  22.428  24.174  1.00  0.00     0.160 HD
BRANCH  15  17
ATOM     17  C   UNL A   1      33.681  22.928  25.257  1.00  0.00     0.085 C 
ATOM     18  C   UNL A   1      34.380  24.175  25.801  1.00  0.00     0.031 C 
ATOM     19  C   UNL A   1      34.688  22.184  24.384  1.00  0.00     0.089 C 
ATOM     20  C   UNL A   1      35.824  24.078  25.313  1.00  0.00     0.067 C 
ATOM     21  C   UNL A   1      36.046  22.608  24.950  1.00  0.00     0.182 C 
BRANCH  21  22
ATOM     22  N   UNL A   1      36.422  21.825  26.126  1.00  0.00    -0.355 N 
ATOM     23  H   UNL A   1      36.269  22.381  26.968  1.00  0.00     0.344 HD
ATOM     24  H   UNL A   1      37.407  21.567  26.063  1.00  0.00     0.344 HD
ATOM     25  H   UNL A   1      35.852  20.980  26.169  1.00  0.00     0.344 HD
ENDBRANCH  21  22
ENDBRANCH  15  17
ENDBRANCH  11  15
ENDBRANCH   5   8
ENDBRANCH   3   4
ENDBRANCH   2   3
ENDBRANCH   1   2
BRANCH   1  26
ATOM     26  C   UNL A   1      33.073  28.258  26.439  1.00  0.00     0.002 C 
BRANCH  26  27
ATOM     27  C   UNL A   1      33.665  29.027  27.623  1.00  0.00     0.021 C 
BRANCH  27  28
ATOM     28  C   UNL A   1      34.289  30.367  27.250  1.00  0.00     0.116 C 
BRANCH  28  29
ATOM     29  N   UNL A   1      34.728  31.153  28.397  1.00  0.00    -0.352 N 
ATOM     30  C   UNL A   1      35.752  30.909  29.290  1.00  0.00     0.251 C 
ATOM     31  H   UNL A   1      34.221  31.981  28.557  1.00  0.00     0.163 HD
ATOM     32  O   UNL A   1      35.942  31.672  30.235  1.00  0.00    -0.269 OA
BRANCH  30  33
ATOM     33  C   UNL A   1      36.695  29.794  29.043  1.00  0.00     0.039 A 
ATOM     34  C   UNL A   1      37.023  28.953  30.114  1.00  0.00     0.014 A 
ATOM     35  C   UNL A   1      37.368  29.672  27.829  1.00  0.00     0.014 A 
ATOM     36  C   UNL A   1      38.166  28.158  30.039  1.00  0.00     0.010 A 
ATOM     37  C   UNL A   1      38.546  28.953  27.781  1.00  0.00     0.010 A 
ATOM     38  C   UNL A   1      38.979  28.248  28.909  1.00  0.00    -0.014 A 
BRANCH  38  39
ATOM     39  C   UNL A   1      40.343  27.732  28.859  1.00  0.00     0.031 A 
ATOM     40  C   UNL A   1      40.612  26.332  28.469  1.00  0.00     0.074 A 
ATOM     41  C   UNL A   1      41.372  28.575  29.097  1.00  0.00     0.049 A 
ATOM     42  N   UNL A   1      41.708  25.703  28.732  1.00  0.00    -0.248 NA
ATOM     43  C   UNL A   1      39.632  25.513  27.769  1.00  0.00     0.031 C 
ATOM     44  C   UNL A   1      42.793  28.340  28.854  1.00  0.00     0.029 A 
ATOM     45  N   UNL A   1      41.339  29.767  29.840  1.00  0.00    -0.354 N 
ATOM     46  C   UNL A   1      41.682  24.502  28.062  1.00  0.00     0.074 A 
ATOM     47  C   UNL A   1      40.352  24.419  27.500  1.00  0.00     0.031 C 
ATOM     48  C   UNL A   1      43.504  29.128  29.675  1.00  0.00     0.029 A 
ATOM     49  C   UNL A   1      42.559  29.785  30.561  1.00  0.00     0.049 A 
ATOM     50  H   UNL A   1      40.625  30.443  29.857  1.00  0.00     0.167 HD
ATOM     51  C   UNL A   1      42.821  23.756  27.977  1.00  0.00     0.037 A 
ATOM     52  C   UNL A   1      42.565  29.704  31.924  1.00  0.00     0.037 A 
ATOM     53  C   UNL A   1      43.911  24.343  28.751  1.00  0.00     0.049 A 
ATOM     54  C   UNL A   1      43.302  28.508  32.486  1.00  0.00     0.074 A 
ATOM     55  C   UNL A   1      44.982  25.165  28.444  1.00  0.00     0.029 A 
ATOM     56  N   UNL A   1      43.815  24.337  30.130  1.00  0.00    -0.354 N 
ATOM     57  N   UNL A   1      43.773  27.529  31.767  1.00  0.00    -0.248 NA
ATOM     58  C   UNL A   1      43.465  28.273  33.923  1.00  0.00     0.031 C 
ATOM     59  C   UNL A   1      45.510  25.680  29.662  1.00  0.00     0.029 A 
ATOM     60  C   UNL A   1      44.760  25.166  30.703  1.00  0.00     0.049 A 
ATOM     61  H   UNL A   1      43.158  23.809  30.638  1.00  0.00     0.167 HD
ATOM     62  C   UNL A   1      44.243  26.548  32.596  1.00  0.00     0.074 A 
ATOM     63  C   UNL A   1      44.031  27.054  33.937  1.00  0.00     0.031 C 
ATOM     64  C   UNL A   1      44.741  25.367  32.137  1.00  0.00     0.037 A 
BRANCH  51  65
ATOM     65  C   UNL A   1      43.009  22.600  27.025  1.00  0.00     0.064 A 
ATOM     66  C   UNL A   1      42.284  21.401  27.196  1.00  0.00     0.173 A 
ATOM     67  C   UNL A   1      43.918  22.595  25.952  1.00  0.00     0.173 A 
ATOM     68  F   UNL A   1      41.316  21.293  28.115  1.00  0.00    -0.203 F 
ATOM     69  C   UNL A   1      42.533  20.259  26.432  1.00  0.00     0.198 A 
ATOM     70  C   UNL A   1      44.213  21.434  25.228  1.00  0.00     0.198 A 
ATOM     71  F   UNL A   1      44.507  23.723  25.536  1.00  0.00    -0.203 F 
ATOM     72  F   UNL A   1      41.814  19.147  26.642  1.00  0.00    -0.200 F 
ATOM     73  C   UNL A   1      43.528  20.263  25.476  1.00  0.00     0.200 A 
ATOM     74  F   UNL A   1      45.167  21.464  24.287  1.00  0.00    -0.200 F 
ATOM     75  F   UNL A   1      43.807  19.152  24.781  1.00  0.00    -0.200 F 
ENDBRANCH  51  65
BRANCH  52  76
ATOM     76  C   UNL A   1      41.364  30.323  32.547  1.00  0.00     0.064 A 
ATOM     77  C   UNL A   1      41.237  31.727  32.522  1.00  0.00     0.173 A 
ATOM     78  C   UNL A   1      40.215  29.575  32.828  1.00  0.00     0.173 A 
ATOM     79  F   UNL A   1      42.308  32.492  32.256  1.00  0.00    -0.203 F 
ATOM     80  C   UNL A   1      39.995  32.343  32.644  1.00  0.00     0.198 A 
ATOM     81  C   UNL A   1      38.976  30.199  32.977  1.00  0.00     0.198 A 
ATOM     82  F   UNL A   1      40.264  28.235  32.850  1.00  0.00    -0.203 F 
ATOM     83  F   UNL A   1      39.890  33.670  32.490  1.00  0.00    -0.200 F 
ATOM     84  C   UNL A   1      38.862  31.575  32.847  1.00  0.00     0.200 A 
ATOM     85  F   UNL A   1      37.876  29.453  33.149  1.00  0.00    -0.200 F 
ATOM     86  F   UNL A   1      37.654  32.155  32.876  1.00  0.00    -0.200 F 
ENDBRANCH  52  76
BRANCH  64  87
ATOM     87  C   UNL A   1      45.262  24.306  33.047  1.00  0.00     0.064 A 
ATOM     88  C   UNL A   1      44.464  23.227  33.454  1.00  0.00     0.173 A 
ATOM     89  C   UNL A   1      46.538  24.412  33.632  1.00  0.00     0.173 A 
ATOM     90  F   UNL A   1      43.224  23.075  32.965  1.00  0.00    -0.203 F 
ATOM     91  C   UNL A   1      44.926  22.292  34.380  1.00  0.00     0.198 A 
ATOM     92  C   UNL A   1      46.980  23.501  34.588  1.00  0.00     0.198 A 
ATOM     93  F   UNL A   1      47.385  25.388  33.272  1.00  0.00    -0.203 F 
ATOM     94  F   UNL A   1      44.153  21.252  34.718  1.00  0.00    -0.200 F 
ATOM     95  C   UNL A   1      46.177  22.438  34.956  1.00  0.00     0.200 A 
ATOM     96  F   UNL A   1      48.189  23.659  35.147  1.00  0.00    -0.200 F 
ATOM     97  F   UNL A   1      46.611  21.551  35.863  1.00  0.00    -0.200 F 
ENDBRANCH  64  87
ENDBRANCH  38  39
ENDBRANCH  30  33
ENDBRANCH  28  29
ENDBRANCH  27  28
ENDBRANCH  26  27
ENDBRANCH   1  26
TORSDOF 16
ENDMDL
MODEL 2
REMARK VINA RESULT:     -12.8      1.700      2.309
REMARK SMILES Cc1c(N[C@@H]2CC[C@@H]([NH3+])C2)cccc1C(=O)NCCCCCCNC(=O)c1ccc(-c2c3nc(c(-c4c(F)c(F)c(F)c(F)c4F)c4ccc([nH]4)c(-c4c(F)c(F)c(F)c(F)c4F)c4nc(c(-c5c(F)c(F)c(F)c(F)c5F)c5ccc2[nH]5)C=C4)C=C3)cc1
REMARK SMILES IDX 20 1 19 2 18 3 17 4 15 5 16 6 14 8 1 9 2 10 3 11 11 12 13 13
REMARK SMILES IDX 12 14 4 15 5 17 6 18 10 19 7 20 8 21 9 22 21 26 22 27 23 28
REMARK SMILES IDX 24 29 25 30 26 32 27 33 28 34 89 35 29 36 88 37 30 38 31 39
REMARK SMILES IDX 32 40 82 41 33 42 87 43 81 44 83 45 34 46 86 47 80 48 79 49
REMARK SMILES IDX 35 51 67 52 47 53 66 54 48 55 51 56 65 57 84 58 49 59 50 60
REMARK SMILES IDX 64 62 85 63 52 64 36 65 37 66 45 67 38 68 39 69 43 70 46 71
REMARK SMILES IDX 40 72 41 73 44 74 42 75 68 76 69 77 77 78 70 79 71 80 75 81
REMARK SMILES IDX 78 82 72 83 73 84 76 85 74 86 53 87 54 88 62 89 55 90 56 91
REMARK SMILES IDX 60 92 63 93 57 94 58 95 61 96 59 97
REMARK H PARENT 17 7 4 16 9 23 9 24 9 25 24 31 83 50 51 61
REMARK Flexibility Score: inf
ROOT
ATOM      1  C   UNL A   1      33.555  27.997  26.781  1.00  0.00     0.002 C 
ENDROOT
BRANCH   1   2
ATOM      2  C   UNL A   1      33.565  27.616  25.294  1.00  0.00     0.021 C 
BRANCH   2   3
ATOM      3  C   UNL A   1      32.837  26.309  24.945  1.00  0.00     0.116 C 
BRANCH   3   4
ATOM      4  N   UNL A   1      33.585  25.584  23.936  1.00  0.00    -0.352 N 
ATOM      5  C   UNL A   1      34.149  24.336  23.884  1.00  0.00     0.251 C 
ATOM      6  O   UNL A   1      34.782  24.066  22.860  1.00  0.00    -0.269 OA
ATOM      7  H   UNL A   1      33.718  26.102  23.109  1.00  0.00     0.163 HD
BRANCH   5   8
ATOM      8  C   UNL A   1      33.969  23.260  24.910  1.00  0.00     0.044 A 
ATOM      9  C   UNL A   1      32.247  21.842  23.670  1.00  0.00     0.047 C 
ATOM     10  C   UNL A   1      33.210  22.074  24.805  1.00  0.00    -0.015 A 
ATOM     11  C   UNL A   1      33.217  21.115  25.862  1.00  0.00     0.038 A 
ATOM     12  C   UNL A   1      33.744  21.508  27.095  1.00  0.00     0.026 A 
ATOM     13  C   UNL A   1      34.552  23.568  26.153  1.00  0.00     0.014 A 
ATOM     14  C   UNL A   1      34.402  22.725  27.246  1.00  0.00     0.003 A 
BRANCH  11  15
ATOM     15  N   UNL A   1      32.645  19.874  25.648  1.00  0.00    -0.382 N 
ATOM     16  H   UNL A   1      31.661  19.879  25.614  1.00  0.00     0.160 HD
BRANCH  15  17
ATOM     17  C   UNL A   1      33.246  18.564  25.466  1.00  0.00     0.085 C 
ATOM     18  C   UNL A   1      34.390  18.543  24.451  1.00  0.00     0.031 C 
ATOM     19  C   UNL A   1      32.290  17.433  25.099  1.00  0.00     0.089 C 
ATOM     20  C   UNL A   1      34.129  17.324  23.569  1.00  0.00     0.067 C 
ATOM     21  C   UNL A   1      33.178  16.426  24.364  1.00  0.00     0.182 C 
BRANCH  21  22
ATOM     22  N   UNL A   1      33.914  15.563  25.286  1.00  0.00    -0.355 N 
ATOM     23  H   UNL A   1      33.671  15.807  26.247  1.00  0.00     0.344 HD
ATOM     24  H   UNL A   1      34.916  15.692  25.146  1.00  0.00     0.344 HD
ATOM     25  H   UNL A   1      33.669  14.589  25.110  1.00  0.00     0.344 HD
ENDBRANCH  21  22
ENDBRANCH  15  17
ENDBRANCH  11  15
ENDBRANCH   5   8
ENDBRANCH   3   4
ENDBRANCH   2   3
ENDBRANCH   1   2
BRANCH   1  26
ATOM     26  C   UNL A   1      32.494  29.018  27.217  1.00  0.00     0.002 C 
BRANCH  26  27
ATOM     27  C   UNL A   1      32.939  30.483  27.233  1.00  0.00     0.021 C 
BRANCH  27  28
ATOM     28  C   UNL A   1      34.444  30.678  27.380  1.00  0.00     0.116 C 
BRANCH  28  29
ATOM     29  N   UNL A   1      34.834  31.355  28.611  1.00  0.00    -0.352 N 
ATOM     30  C   UNL A   1      35.787  31.003  29.544  1.00  0.00     0.251 C 
ATOM     31  H   UNL A   1      34.346  32.188  28.804  1.00  0.00     0.163 HD
ATOM     32  O   UNL A   1      35.941  31.682  30.557  1.00  0.00    -0.269 OA
BRANCH  30  33
ATOM     33  C   UNL A   1      36.706  29.874  29.269  1.00  0.00     0.039 A 
ATOM     34  C   UNL A   1      37.034  29.014  30.324  1.00  0.00     0.014 A 
ATOM     35  C   UNL A   1      37.358  29.756  28.044  1.00  0.00     0.014 A 
ATOM     36  C   UNL A   1      38.160  28.198  30.222  1.00  0.00     0.010 A 
ATOM     37  C   UNL A   1      38.522  29.015  27.969  1.00  0.00     0.010 A 
ATOM     38  C   UNL A   1      38.959  28.288  29.081  1.00  0.00    -0.014 A 
BRANCH  38  39
ATOM     39  C   UNL A   1      40.312  27.748  29.004  1.00  0.00     0.031 A 
ATOM     40  C   UNL A   1      40.549  26.344  28.607  1.00  0.00     0.074 A 
ATOM     41  C   UNL A   1      41.360  28.572  29.224  1.00  0.00     0.049 A 
ATOM     42  N   UNL A   1      41.637  25.695  28.849  1.00  0.00    -0.248 NA
ATOM     43  C   UNL A   1      39.540  25.544  27.924  1.00  0.00     0.031 C 
ATOM     44  C   UNL A   1      42.771  28.312  28.954  1.00  0.00     0.029 A 
ATOM     45  N   UNL A   1      41.363  29.763  29.970  1.00  0.00    -0.354 N 
ATOM     46  C   UNL A   1      41.577  24.496  28.177  1.00  0.00     0.074 A 
ATOM     47  C   UNL A   1      40.236  24.438  27.641  1.00  0.00     0.031 C 
ATOM     48  C   UNL A   1      43.512  29.085  29.762  1.00  0.00     0.029 A 
ATOM     49  C   UNL A   1      42.597  29.757  30.667  1.00  0.00     0.049 A 
ATOM     50  H   UNL A   1      40.662  30.452  30.001  1.00  0.00     0.167 HD
ATOM     51  C   UNL A   1      42.701  23.730  28.069  1.00  0.00     0.037 A 
ATOM     52  C   UNL A   1      42.627  29.674  32.029  1.00  0.00     0.037 A 
ATOM     53  C   UNL A   1      43.815  24.296  28.823  1.00  0.00     0.049 A 
ATOM     54  C   UNL A   1      43.353  28.463  32.575  1.00  0.00     0.074 A 
ATOM     55  C   UNL A   1      44.896  25.099  28.497  1.00  0.00     0.029 A 
ATOM     56  N   UNL A   1      43.746  24.288  30.203  1.00  0.00    -0.354 N 
ATOM     57  N   UNL A   1      43.792  27.478  31.846  1.00  0.00    -0.248 NA
ATOM     58  C   UNL A   1      43.539  28.223  34.008  1.00  0.00     0.031 C 
ATOM     59  C   UNL A   1      45.455  25.602  29.705  1.00  0.00     0.029 A 
ATOM     60  C   UNL A   1      44.716  25.100  30.759  1.00  0.00     0.049 A 
ATOM     61  H   UNL A   1      43.090  23.772  30.723  1.00  0.00     0.167 HD
ATOM     62  C   UNL A   1      44.261  26.487  32.664  1.00  0.00     0.074 A 
ATOM     63  C   UNL A   1      44.083  26.995  34.010  1.00  0.00     0.031 C 
ATOM     64  C   UNL A   1      44.729  25.298  32.194  1.00  0.00     0.037 A 
BRANCH  51  65
ATOM     65  C   UNL A   1      42.850  22.573  27.112  1.00  0.00     0.064 A 
ATOM     66  C   UNL A   1      42.107  21.386  27.295  1.00  0.00     0.173 A 
ATOM     67  C   UNL A   1      43.737  22.553  26.021  1.00  0.00     0.173 A 
ATOM     68  F   UNL A   1      41.155  21.293  28.232  1.00  0.00    -0.203 F 
ATOM     69  C   UNL A   1      42.321  20.241  26.524  1.00  0.00     0.198 A 
ATOM     70  C   UNL A   1      43.998  21.389  25.290  1.00  0.00     0.198 A 
ATOM     71  F   UNL A   1      44.339  23.671  25.596  1.00  0.00    -0.203 F 
ATOM     72  F   UNL A   1      41.586  19.142  26.747  1.00  0.00    -0.200 F 
ATOM     73  C   UNL A   1      43.297  20.229  25.549  1.00  0.00     0.200 A 
ATOM     74  F   UNL A   1      44.934  21.403  24.331  1.00  0.00    -0.200 F 
ATOM     75  F   UNL A   1      43.543  19.115  24.847  1.00  0.00    -0.200 F 
ENDBRANCH  51  65
BRANCH  52  76
ATOM     76  C   UNL A   1      41.449  30.314  32.676  1.00  0.00     0.064 A 
ATOM     77  C   UNL A   1      41.352  31.719  32.662  1.00  0.00     0.173 A 
ATOM     78  C   UNL A   1      40.291  29.587  32.972  1.00  0.00     0.173 A 
ATOM     79  F   UNL A   1      42.433  32.465  32.383  1.00  0.00    -0.203 F 
ATOM     80  C   UNL A   1      40.124  32.360  32.809  1.00  0.00     0.198 A 
ATOM     81  C   UNL A   1      39.068  30.235  33.145  1.00  0.00     0.198 A 
ATOM     82  F   UNL A   1      40.312  28.246  32.984  1.00  0.00    -0.203 F 
ATOM     83  F   UNL A   1      40.043  33.690  32.665  1.00  0.00    -0.200 F 
ATOM     84  C   UNL A   1      38.979  31.614  33.026  1.00  0.00     0.200 A 
ATOM     85  F   UNL A   1      37.955  29.511  33.332  1.00  0.00    -0.200 F 
ATOM     86  F   UNL A   1      37.784  32.218  33.079  1.00  0.00    -0.200 F 
ENDBRANCH  52  76
BRANCH  64  87
ATOM     87  C   UNL A   1      45.248  24.227  33.092  1.00  0.00     0.064 A 
ATOM     88  C   UNL A   1      44.452  23.138  33.477  1.00  0.00     0.173 A 
ATOM     89  C   UNL A   1      46.519  24.329  33.688  1.00  0.00     0.173 A 
ATOM     90  F   UNL A   1      43.217  22.987  32.976  1.00  0.00    -0.203 F 
ATOM     91  C   UNL A   1      44.912  22.192  34.392  1.00  0.00     0.198 A 
ATOM     92  C   UNL A   1      46.958  23.407  34.634  1.00  0.00     0.198 A 
ATOM     93  F   UNL A   1      47.364  25.315  33.349  1.00  0.00    -0.203 F 
ATOM     94  F   UNL A   1      44.141  21.143  34.709  1.00  0.00    -0.200 F 
ATOM     95  C   UNL A   1      46.158  22.334  34.980  1.00  0.00     0.200 A 
ATOM     96  F   UNL A   1      48.162  23.562  35.204  1.00  0.00    -0.200 F 
ATOM     97  F   UNL A   1      46.589  21.436  35.877  1.00  0.00    -0.200 F 
ENDBRANCH  64  87
ENDBRANCH  38  39
ENDBRANCH  30  33
ENDBRANCH  28  29
ENDBRANCH  27  28
ENDBRANCH  26  27
ENDBRANCH   1  26
TORSDOF 16
ENDMDL
MODEL 3
REMARK VINA RESULT:     -12.7      1.426      2.165
REMARK SMILES Cc1c(N[C@@H]2CC[C@@H]([NH3+])C2)cccc1C(=O)NCCCCCCNC(=O)c1ccc(-c2c3nc(c(-c4c(F)c(F)c(F)c(F)c4F)c4ccc([nH]4)c(-c4c(F)c(F)c(F)c(F)c4F)c4nc(c(-c5c(F)c(F)c(F)c(F)c5F)c5ccc2[nH]5)C=C4)C=C3)cc1
REMARK SMILES IDX 20 1 19 2 18 3 17 4 15 5 16 6 14 8 1 9 2 10 3 11 11 12 13 13
REMARK SMILES IDX 12 14 4 15 5 17 6 18 10 19 7 20 8 21 9 22 21 26 22 27 23 28
REMARK SMILES IDX 24 29 25 30 26 32 27 33 28 34 89 35 29 36 88 37 30 38 31 39
REMARK SMILES IDX 32 40 82 41 33 42 87 43 81 44 83 45 34 46 86 47 80 48 79 49
REMARK SMILES IDX 35 51 67 52 47 53 66 54 48 55 51 56 65 57 84 58 49 59 50 60
REMARK SMILES IDX 64 62 85 63 52 64 36 65 37 66 45 67 38 68 39 69 43 70 46 71
REMARK SMILES IDX 40 72 41 73 44 74 42 75 68 76 69 77 77 78 70 79 71 80 75 81
REMARK SMILES IDX 78 82 72 83 73 84 76 85 74 86 53 87 54 88 62 89 55 90 56 91
REMARK SMILES IDX 60 92 63 93 57 94 58 95 61 96 59 97
REMARK H PARENT 17 7 4 16 9 23 9 24 9 25 24 31 83 50 51 61
REMARK Flexibility Score: inf
ROOT
ATOM      1  C   UNL A   1      32.035  29.330  24.969  1.00  0.00     0.002 C 
ENDROOT
BRANCH   1   2
ATOM      2  C   UNL A   1      30.897  29.011  23.991  1.00  0.00     0.021 C 
BRANCH   2   3
ATOM      3  C   UNL A   1      30.929  27.601  23.380  1.00  0.00     0.116 C 
BRANCH   3   4
ATOM      4  N   UNL A   1      32.057  27.481  22.478  1.00  0.00    -0.352 N 
ATOM      5  C   UNL A   1      33.214  26.747  22.494  1.00  0.00     0.251 C 
ATOM      6  O   UNL A   1      34.000  26.947  21.563  1.00  0.00    -0.269 OA
ATOM      7  H   UNL A   1      31.974  28.053  21.681  1.00  0.00     0.163 HD
BRANCH   5   8
ATOM      8  C   UNL A   1      33.542  25.668  23.479  1.00  0.00     0.044 A 
ATOM      9  C   UNL A   1      32.878  23.651  22.061  1.00  0.00     0.047 C 
ATOM     10  C   UNL A   1      33.506  24.269  23.283  1.00  0.00    -0.015 A 
ATOM     11  C   UNL A   1      33.932  23.383  24.317  1.00  0.00     0.038 A 
ATOM     12  C   UNL A   1      34.098  23.910  25.600  1.00  0.00     0.026 A 
ATOM     13  C   UNL A   1      33.798  26.150  24.775  1.00  0.00     0.014 A 
ATOM     14  C   UNL A   1      34.028  25.280  25.834  1.00  0.00     0.003 A 
BRANCH  11  15
ATOM     15  N   UNL A   1      34.092  22.040  24.028  1.00  0.00    -0.382 N 
ATOM     16  H   UNL A   1      34.401  21.854  23.112  1.00  0.00     0.160 HD
BRANCH  15  17
ATOM     17  C   UNL A   1      33.881  20.856  24.843  1.00  0.00     0.085 C 
ATOM     18  C   UNL A   1      35.025  19.843  24.774  1.00  0.00     0.031 C 
ATOM     19  C   UNL A   1      32.582  20.094  24.596  1.00  0.00     0.089 C 
ATOM     20  C   UNL A   1      34.355  18.484  24.589  1.00  0.00     0.067 C 
ATOM     21  C   UNL A   1      32.904  18.666  25.042  1.00  0.00     0.182 C 
BRANCH  21  22
ATOM     22  N   UNL A   1      32.778  18.498  26.489  1.00  0.00    -0.355 N 
ATOM     23  H   UNL A   1      31.916  18.941  26.808  1.00  0.00     0.344 HD
ATOM     24  H   UNL A   1      33.575  18.932  26.953  1.00  0.00     0.344 HD
ATOM     25  H   UNL A   1      32.752  17.504  26.715  1.00  0.00     0.344 HD
ENDBRANCH  21  22
ENDBRANCH  15  17
ENDBRANCH  11  15
ENDBRANCH   5   8
ENDBRANCH   3   4
ENDBRANCH   2   3
ENDBRANCH   1   2
BRANCH   1  26
ATOM     26  C   UNL A   1      31.838  28.868  26.420  1.00  0.00     0.002 C 
BRANCH  26  27
ATOM     27  C   UNL A   1      33.013  29.118  27.369  1.00  0.00     0.021 C 
BRANCH  27  28
ATOM     28  C   UNL A   1      33.851  30.342  27.019  1.00  0.00     0.116 C 
BRANCH  28  29
ATOM     29  N   UNL A   1      34.165  31.190  28.163  1.00  0.00    -0.352 N 
ATOM     30  C   UNL A   1      35.184  31.078  29.086  1.00  0.00     0.251 C 
ATOM     31  H   UNL A   1      33.561  31.956  28.296  1.00  0.00     0.163 HD
ATOM     32  O   UNL A   1      35.259  31.871  30.023  1.00  0.00    -0.269 OA
BRANCH  30  33
ATOM     33  C   UNL A   1      36.257  30.077  28.882  1.00  0.00     0.039 A 
ATOM     34  C   UNL A   1      36.640  29.285  29.972  1.00  0.00     0.014 A 
ATOM     35  C   UNL A   1      36.981  30.026  27.694  1.00  0.00     0.014 A 
ATOM     36  C   UNL A   1      37.868  28.625  29.944  1.00  0.00     0.010 A 
ATOM     37  C   UNL A   1      38.234  29.445  27.693  1.00  0.00     0.010 A 
ATOM     38  C   UNL A   1      38.705  28.801  28.841  1.00  0.00    -0.014 A 
BRANCH  38  39
ATOM     39  C   UNL A   1      40.120  28.443  28.843  1.00  0.00     0.031 A 
ATOM     40  C   UNL A   1      40.571  27.124  28.352  1.00  0.00     0.074 A 
ATOM     41  C   UNL A   1      41.029  29.367  29.226  1.00  0.00     0.049 A 
ATOM     42  N   UNL A   1      41.714  26.596  28.636  1.00  0.00    -0.248 NA
ATOM     43  C   UNL A   1      39.735  26.273  27.515  1.00  0.00     0.031 C 
ATOM     44  C   UNL A   1      42.479  29.312  29.065  1.00  0.00     0.029 A 
ATOM     45  N   UNL A   1      40.815  30.472  30.067  1.00  0.00    -0.354 N 
ATOM     46  C   UNL A   1      41.867  25.468  27.864  1.00  0.00     0.074 A 
ATOM     47  C   UNL A   1      40.592  25.295  27.204  1.00  0.00     0.031 C 
ATOM     48  C   UNL A   1      43.044  30.091  30.000  1.00  0.00     0.029 A 
ATOM     49  C   UNL A   1      41.978  30.554  30.871  1.00  0.00     0.049 A 
ATOM     50  H   UNL A   1      40.027  31.062  30.092  1.00  0.00     0.167 HD
ATOM     51  C   UNL A   1      43.087  24.862  27.795  1.00  0.00     0.037 A 
ATOM     52  C   UNL A   1      41.911  30.346  32.218  1.00  0.00     0.037 A 
ATOM     53  C   UNL A   1      44.053  25.488  28.692  1.00  0.00     0.049 A 
ATOM     54  C   UNL A   1      42.745  29.189  32.724  1.00  0.00     0.074 A 
ATOM     55  C   UNL A   1      45.040  26.448  28.535  1.00  0.00     0.029 A 
ATOM     56  N   UNL A   1      43.876  25.341  30.055  1.00  0.00    -0.354 N 
ATOM     57  N   UNL A   1      43.368  28.340  31.957  1.00  0.00    -0.248 NA
ATOM     58  C   UNL A   1      42.847  28.838  34.143  1.00  0.00     0.031 C 
ATOM     59  C   UNL A   1      45.430  26.899  29.827  1.00  0.00     0.029 A 
ATOM     60  C   UNL A   1      44.682  26.210  30.763  1.00  0.00     0.049 A 
ATOM     61  H   UNL A   1      43.254  24.699  30.467  1.00  0.00     0.167 HD
ATOM     62  C   UNL A   1      43.897  27.342  32.728  1.00  0.00     0.074 A 
ATOM     63  C   UNL A   1      43.547  27.693  34.091  1.00  0.00     0.031 C 
ATOM     64  C   UNL A   1      44.554  26.271  32.205  1.00  0.00     0.037 A 
BRANCH  51  65
ATOM     65  C   UNL A   1      43.464  23.829  26.761  1.00  0.00     0.064 A 
ATOM     66  C   UNL A   1      43.026  22.493  26.885  1.00  0.00     0.173 A 
ATOM     67  C   UNL A   1      44.288  24.082  25.649  1.00  0.00     0.173 A 
ATOM     68  F   UNL A   1      42.159  22.125  27.837  1.00  0.00    -0.203 F 
ATOM     69  C   UNL A   1      43.471  21.476  26.036  1.00  0.00     0.198 A 
ATOM     70  C   UNL A   1      44.783  23.055  24.838  1.00  0.00     0.198 A 
ATOM     71  F   UNL A   1      44.594  25.332  25.283  1.00  0.00    -0.203 F 
ATOM     72  F   UNL A   1      43.022  20.225  26.205  1.00  0.00    -0.200 F 
ATOM     73  C   UNL A   1      44.383  21.750  25.039  1.00  0.00     0.200 A 
ATOM     74  F   UNL A   1      45.652  23.344  23.858  1.00  0.00    -0.200 F 
ATOM     75  F   UNL A   1      44.854  20.767  24.260  1.00  0.00    -0.200 F 
ENDBRANCH  51  65
BRANCH  52  76
ATOM     76  C   UNL A   1      40.611  30.769  32.806  1.00  0.00     0.064 A 
ATOM     77  C   UNL A   1      40.310  32.144  32.861  1.00  0.00     0.173 A 
ATOM     78  C   UNL A   1      39.554  29.867  32.973  1.00  0.00     0.173 A 
ATOM     79  F   UNL A   1      41.287  33.052  32.706  1.00  0.00    -0.203 F 
ATOM     80  C   UNL A   1      38.995  32.593  32.947  1.00  0.00     0.198 A 
ATOM     81  C   UNL A   1      38.240  30.322  33.087  1.00  0.00     0.198 A 
ATOM     82  F   UNL A   1      39.770  28.545  32.915  1.00  0.00    -0.203 F 
ATOM     83  F   UNL A   1      38.730  33.905  32.869  1.00  0.00    -0.200 F 
ATOM     84  C   UNL A   1      37.959  31.680  33.036  1.00  0.00     0.200 A 
ATOM     85  F   UNL A   1      37.235  29.437  33.148  1.00  0.00    -0.200 F 
ATOM     86  F   UNL A   1      36.688  32.103  33.029  1.00  0.00    -0.200 F 
ENDBRANCH  52  76
BRANCH  64  87
ATOM     87  C   UNL A   1      45.138  25.192  33.053  1.00  0.00     0.064 A 
ATOM     88  C   UNL A   1      46.491  25.194  33.420  1.00  0.00     0.173 A 
ATOM     89  C   UNL A   1      44.380  24.062  33.417  1.00  0.00     0.173 A 
ATOM     90  F   UNL A   1      47.287  26.220  33.084  1.00  0.00    -0.203 F 
ATOM     91  C   UNL A   1      47.050  24.133  34.132  1.00  0.00     0.198 A 
ATOM     92  C   UNL A   1      44.951  22.986  34.090  1.00  0.00     0.198 A 
ATOM     93  F   UNL A   1      43.068  23.993  33.144  1.00  0.00    -0.203 F 
ATOM     94  F   UNL A   1      48.337  24.184  34.500  1.00  0.00    -0.200 F 
ATOM     95  C   UNL A   1      46.285  23.025  34.453  1.00  0.00     0.200 A 
ATOM     96  F   UNL A   1      44.202  21.914  34.386  1.00  0.00    -0.200 F 
ATOM     97  F   UNL A   1      46.829  21.996  35.118  1.00  0.00    -0.200 F 
ENDBRANCH  64  87
ENDBRANCH  38  39
ENDBRANCH  30  33
ENDBRANCH  28  29
ENDBRANCH  27  28
ENDBRANCH  26  27
ENDBRANCH   1  26
TORSDOF 16
ENDMDL
