MODEL 1
REMARK VINA RESULT:     -12.8      0.000      0.000
REMARK SMILES Cc1ccc([C@@H](C(=O)N(CC(=O)NCCCCCCNC(=O)c2ccc(-c3c4nc(c(-c5c(F)c(F)c(F)c(F)c5F)c5ccc([nH]5)c(-c5c(F)c(F)c(F)c(F)c5F)c5nc(c(-c6c(F)c(F)c(F)c(F)c6F)c6ccc3[nH]6)C=C5)C=C4)cc2)C2CC[NH+](C)CC2)[NH+](C)C)cc1
REMARK SMILES IDX 15 1 14 2 13 3 11 4 12 5 10 7 9 8 7 9 8 10 6 11 5 12 1 13
REMARK SMILES IDX 2 14 3 15 97 16 4 17 96 18 93 19 94 20 95 21 86 23 87 24
REMARK SMILES IDX 92 25 88 26 91 27 89 28 90 29 16 31 17 32 18 33 19 34 20 35
REMARK SMILES IDX 21 36 22 38 23 39 24 40 85 41 25 42 84 43 26 44 27 45 28 46
REMARK SMILES IDX 78 47 29 48 83 49 77 50 79 51 30 52 82 53 76 54 75 55 31 57
REMARK SMILES IDX 63 58 43 59 62 60 44 61 47 62 61 63 80 64 45 65 46 66 60 68
REMARK SMILES IDX 81 69 48 70 32 71 33 72 41 73 34 74 35 75 39 76 42 77 36 78
REMARK SMILES IDX 37 79 40 80 38 81 64 82 65 83 73 84 66 85 67 86 71 87 74 88
REMARK SMILES IDX 68 89 69 90 72 91 70 92 49 93 50 94 58 95 51 96 52 97 56 98
REMARK SMILES IDX 59 99 53 100 54 101 57 102 55 103
REMARK H PARENT 13 6 93 22 89 30 20 37 79 56 47 67
REMARK Flexibility Score: inf
ROOT
ATOM      1  C   UNL A   1      31.312  28.536  26.065  1.00  0.00     0.021 C 
ENDROOT
BRANCH   1   2
ATOM      2  C   UNL A   1      32.022  27.293  26.594  1.00  0.00     0.116 C 
BRANCH   2   3
ATOM      3  N   UNL A   1      31.167  26.175  26.901  1.00  0.00    -0.355 N 
ATOM      4  C   UNL A   1      31.405  24.854  26.635  1.00  0.00     0.239 C 
ATOM      5  O   UNL A   1      30.829  24.014  27.334  1.00  0.00    -0.273 OA
ATOM      6  H   UNL A   1      30.316  26.384  27.351  1.00  0.00     0.163 HD
BRANCH   4   7
ATOM      7  C   UNL A   1      32.441  24.405  25.579  1.00  0.00     0.219 C 
BRANCH   7   8
ATOM      8  N   UNL A   1      31.952  23.995  24.255  1.00  0.00    -0.324 N 
BRANCH   8   9
ATOM      9  C   UNL A   1      31.135  24.832  23.450  1.00  0.00     0.286 C 
ATOM     10  O   UNL A   1      30.100  24.363  22.962  1.00  0.00    -0.267 OA
BRANCH   9  11
ATOM     11  C   UNL A   1      31.615  26.316  23.117  1.00  0.00     0.305 C 
BRANCH  11  12
ATOM     12  C   UNL A   1      30.473  27.327  22.922  1.00  0.00     0.019 A 
ATOM     13  C   UNL A   1      27.655  30.593  23.153  1.00  0.00     0.044 C 
ATOM     14  C   UNL A   1      28.572  29.429  22.915  1.00  0.00    -0.051 A 
ATOM     15  C   UNL A   1      28.235  28.162  23.393  1.00  0.00     0.004 A 
ATOM     16  C   UNL A   1      29.820  29.608  22.325  1.00  0.00     0.004 A 
ATOM     17  C   UNL A   1      29.186  27.137  23.440  1.00  0.00     0.011 A 
ATOM     18  C   UNL A   1      30.734  28.551  22.275  1.00  0.00     0.011 A 
ENDBRANCH  11  12
BRANCH  11  19
ATOM     19  N   UNL A   1      32.661  26.392  22.041  1.00  0.00    -0.326 N 
ATOM     20  C   UNL A   1      34.015  26.355  22.595  1.00  0.00     0.333 C 
ATOM     21  C   UNL A   1      32.543  25.427  20.949  1.00  0.00     0.333 C 
ATOM     22  H   UNL A   1      32.479  27.300  21.613  1.00  0.00     0.348 HD
ENDBRANCH  11  19
ENDBRANCH   9  11
ENDBRANCH   8   9
BRANCH   8  23
ATOM     23  C   UNL A   1      32.135  22.573  23.814  1.00  0.00     0.097 C 
ATOM     24  C   UNL A   1      32.182  21.451  24.877  1.00  0.00     0.086 C 
ATOM     25  C   UNL A   1      33.411  22.411  22.965  1.00  0.00     0.086 C 
ATOM     26  C   UNL A   1      33.481  21.397  25.687  1.00  0.00     0.264 C 
ATOM     27  C   UNL A   1      34.667  22.466  23.833  1.00  0.00     0.264 C 
ATOM     28  N   UNL A   1      34.681  21.401  24.843  1.00  0.00    -0.337 N 
ATOM     29  C   UNL A   1      35.882  21.513  25.676  1.00  0.00     0.332 C 
ATOM     30  H   UNL A   1      34.690  20.515  24.338  1.00  0.00     0.347 HD
ENDBRANCH   8  23
ENDBRANCH   7   8
ENDBRANCH   4   7
ENDBRANCH   2   3
ENDBRANCH   1   2
BRANCH   1  31
ATOM     31  C   UNL A   1      32.214  29.704  25.643  1.00  0.00     0.002 C 
BRANCH  31  32
ATOM     32  C   UNL A   1      32.503  30.795  26.689  1.00  0.00     0.002 C 
BRANCH  32  33
ATOM     33  C   UNL A   1      33.650  30.519  27.659  1.00  0.00     0.021 C 
BRANCH  33  34
ATOM     34  C   UNL A   1      34.821  31.486  27.593  1.00  0.00     0.116 C 
BRANCH  34  35
ATOM     35  N   UNL A   1      35.268  31.968  28.897  1.00  0.00    -0.352 N 
ATOM     36  C   UNL A   1      36.137  31.363  29.799  1.00  0.00     0.251 C 
ATOM     37  H   UNL A   1      34.904  32.839  29.177  1.00  0.00     0.163 HD
ATOM     38  O   UNL A   1      36.430  31.889  30.846  1.00  0.00    -0.269 OA
BRANCH  36  39
ATOM     39  C   UNL A   1      36.805  30.107  29.371  1.00  0.00     0.039 A 
ATOM     40  C   UNL A   1      37.101  29.165  30.361  1.00  0.00     0.014 A 
ATOM     41  C   UNL A   1      37.377  30.017  28.107  1.00  0.00     0.014 A 
ATOM     42  C   UNL A   1      38.181  28.308  30.171  1.00  0.00     0.010 A 
ATOM     43  C   UNL A   1      38.514  29.249  27.961  1.00  0.00     0.010 A 
ATOM     44  C   UNL A   1      38.962  28.457  29.025  1.00  0.00    -0.014 A 
BRANCH  44  45
ATOM     45  C   UNL A   1      40.318  27.933  28.915  1.00  0.00     0.031 A 
ATOM     46  C   UNL A   1      40.554  26.511  28.597  1.00  0.00     0.074 A 
ATOM     47  C   UNL A   1      41.371  28.779  29.006  1.00  0.00     0.049 A 
ATOM     48  N   UNL A   1      41.665  25.894  28.817  1.00  0.00    -0.248 NA
ATOM     49  C   UNL A   1      39.524  25.655  28.029  1.00  0.00     0.031 C 
ATOM     50  C   UNL A   1      42.762  28.505  28.651  1.00  0.00     0.029 A 
ATOM     51  N   UNL A   1      41.420  30.026  29.653  1.00  0.00    -0.354 N 
ATOM     52  C   UNL A   1      41.602  24.669  28.194  1.00  0.00     0.074 A 
ATOM     53  C   UNL A   1      40.226  24.547  27.770  1.00  0.00     0.031 C 
ATOM     54  C   UNL A   1      43.554  29.343  29.337  1.00  0.00     0.029 A 
ATOM     55  C   UNL A   1      42.705  30.086  30.248  1.00  0.00     0.049 A 
ATOM     56  H   UNL A   1      40.713  30.710  29.686  1.00  0.00     0.167 HD
ATOM     57  C   UNL A   1      42.756  23.958  28.016  1.00  0.00     0.037 A 
ATOM     58  C   UNL A   1      42.848  30.127  31.605  1.00  0.00     0.037 A 
ATOM     59  C   UNL A   1      43.890  24.601  28.683  1.00  0.00     0.049 A 
ATOM     60  C   UNL A   1      43.602  28.957  32.204  1.00  0.00     0.074 A 
ATOM     61  C   UNL A   1      44.965  25.373  28.271  1.00  0.00     0.029 A 
ATOM     62  N   UNL A   1      43.862  24.707  30.063  1.00  0.00    -0.354 N 
ATOM     63  N   UNL A   1      44.054  27.941  31.521  1.00  0.00    -0.248 NA
ATOM     64  C   UNL A   1      43.808  28.790  33.644  1.00  0.00     0.031 C 
ATOM     65  C   UNL A   1      45.584  25.934  29.427  1.00  0.00     0.029 A 
ATOM     66  C   UNL A   1      44.882  25.505  30.538  1.00  0.00     0.049 A 
ATOM     67  H   UNL A   1      43.194  24.266  30.636  1.00  0.00     0.167 HD
ATOM     68  C   UNL A   1      44.520  26.986  32.385  1.00  0.00     0.074 A 
ATOM     69  C   UNL A   1      44.354  27.565  33.703  1.00  0.00     0.031 C 
ATOM     70  C   UNL A   1      44.956  25.763  31.965  1.00  0.00     0.037 A 
BRANCH  57  71
ATOM     71  C   UNL A   1      42.911  22.793  27.059  1.00  0.00     0.064 A 
ATOM     72  C   UNL A   1      42.263  21.563  27.312  1.00  0.00     0.173 A 
ATOM     73  C   UNL A   1      43.718  22.795  25.907  1.00  0.00     0.173 A 
ATOM     74  F   UNL A   1      41.363  21.431  28.294  1.00  0.00    -0.203 F 
ATOM     75  C   UNL A   1      42.511  20.410  26.560  1.00  0.00     0.198 A 
ATOM     76  C   UNL A   1      44.014  21.631  25.189  1.00  0.00     0.198 A 
ATOM     77  F   UNL A   1      44.188  23.931  25.384  1.00  0.00    -0.203 F 
ATOM     78  F   UNL A   1      41.868  19.272  26.857  1.00  0.00    -0.200 F 
ATOM     79  C   UNL A   1      43.420  20.433  25.525  1.00  0.00     0.200 A 
ATOM     80  F   UNL A   1      44.873  21.686  24.161  1.00  0.00    -0.200 F 
ATOM     81  F   UNL A   1      43.696  19.321  24.833  1.00  0.00    -0.200 F 
ENDBRANCH  57  71
BRANCH  58  82
ATOM     82  C   UNL A   1      41.737  30.859  32.271  1.00  0.00     0.064 A 
ATOM     83  C   UNL A   1      41.754  32.268  32.245  1.00  0.00     0.173 A 
ATOM     84  C   UNL A   1      40.524  30.232  32.574  1.00  0.00     0.173 A 
ATOM     85  F   UNL A   1      42.893  32.919  31.957  1.00  0.00    -0.203 F 
ATOM     86  C   UNL A   1      40.585  33.009  32.387  1.00  0.00     0.198 A 
ATOM     87  C   UNL A   1      39.357  30.980  32.738  1.00  0.00     0.198 A 
ATOM     88  F   UNL A   1      40.436  28.894  32.590  1.00  0.00    -0.203 F 
ATOM     89  F   UNL A   1      40.613  34.340  32.232  1.00  0.00    -0.200 F 
ATOM     90  C   UNL A   1      39.381  32.361  32.608  1.00  0.00     0.200 A 
ATOM     91  F   UNL A   1      38.188  30.351  32.925  1.00  0.00    -0.200 F 
ATOM     92  F   UNL A   1      38.239  33.060  32.649  1.00  0.00    -0.200 F 
ENDBRANCH  58  82
BRANCH  70  93
ATOM     93  C   UNL A   1      45.471  24.699  32.890  1.00  0.00     0.064 A 
ATOM     94  C   UNL A   1      44.693  23.594  33.271  1.00  0.00     0.173 A 
ATOM     95  C   UNL A   1      46.729  24.819  33.520  1.00  0.00     0.173 A 
ATOM     96  F   UNL A   1      43.461  23.419  32.771  1.00  0.00    -0.203 F 
ATOM     97  C   UNL A   1      45.159  22.653  34.192  1.00  0.00     0.198 A 
ATOM     98  C   UNL A   1      47.169  23.909  34.478  1.00  0.00     0.198 A 
ATOM     99  F   UNL A   1      47.577  25.809  33.205  1.00  0.00    -0.203 F 
ATOM    100  F   UNL A   1      44.406  21.585  34.489  1.00  0.00    -0.200 F 
ATOM    101  C   UNL A   1      46.389  22.818  34.805  1.00  0.00     0.200 A 
ATOM    102  F   UNL A   1      48.354  24.093  35.076  1.00  0.00    -0.200 F 
ATOM    103  F   UNL A   1      46.825  21.926  35.706  1.00  0.00    -0.200 F 
ENDBRANCH  70  93
ENDBRANCH  44  45
ENDBRANCH  36  39
ENDBRANCH  34  35
ENDBRANCH  33  34
ENDBRANCH  32  33
ENDBRANCH  31  32
ENDBRANCH   1  31
TORSDOF 19
ENDMDL
MODEL 2
REMARK VINA RESULT:     -12.7      2.975      9.291
REMARK SMILES Cc1ccc([C@@H](C(=O)N(CC(=O)NCCCCCCNC(=O)c2ccc(-c3c4nc(c(-c5c(F)c(F)c(F)c(F)c5F)c5ccc([nH]5)c(-c5c(F)c(F)c(F)c(F)c5F)c5nc(c(-c6c(F)c(F)c(F)c(F)c6F)c6ccc3[nH]6)C=C5)C=C4)cc2)C2CC[NH+](C)CC2)[NH+](C)C)cc1
REMARK SMILES IDX 15 1 14 2 13 3 11 4 12 5 10 7 9 8 7 9 8 10 6 11 5 12 1 13
REMARK SMILES IDX 2 14 3 15 97 16 4 17 96 18 93 19 94 20 95 21 86 23 87 24
REMARK SMILES IDX 92 25 88 26 91 27 89 28 90 29 16 31 17 32 18 33 19 34 20 35
REMARK SMILES IDX 21 36 22 38 23 39 24 40 85 41 25 42 84 43 26 44 27 45 28 46
REMARK SMILES IDX 78 47 29 48 83 49 77 50 79 51 30 52 82 53 76 54 75 55 31 57
REMARK SMILES IDX 63 58 43 59 62 60 44 61 47 62 61 63 80 64 45 65 46 66 60 68
REMARK SMILES IDX 81 69 48 70 32 71 33 72 41 73 34 74 35 75 39 76 42 77 36 78
REMARK SMILES IDX 37 79 40 80 38 81 64 82 65 83 73 84 66 85 67 86 71 87 74 88
REMARK SMILES IDX 68 89 69 90 72 91 70 92 49 93 50 94 58 95 51 96 52 97 56 98
REMARK SMILES IDX 59 99 53 100 54 101 57 102 55 103
REMARK H PARENT 13 6 93 22 89 30 20 37 79 56 47 67
REMARK Flexibility Score: inf
ROOT
ATOM      1  C   UNL A   1      34.311  21.775  26.120  1.00  0.00     0.021 C 
ENDROOT
BRANCH   1   2
ATOM      2  C   UNL A   1      33.634  22.962  26.799  1.00  0.00     0.116 C 
BRANCH   2   3
ATOM      3  N   UNL A   1      32.367  23.357  26.237  1.00  0.00    -0.355 N 
ATOM      4  C   UNL A   1      32.031  24.586  25.738  1.00  0.00     0.239 C 
ATOM      5  O   UNL A   1      31.114  24.639  24.912  1.00  0.00    -0.273 OA
ATOM      6  H   UNL A   1      31.666  22.666  26.211  1.00  0.00     0.163 HD
BRANCH   4   7
ATOM      7  C   UNL A   1      32.830  25.860  26.093  1.00  0.00     0.219 C 
BRANCH   7   8
ATOM      8  N   UNL A   1      32.486  27.112  25.403  1.00  0.00    -0.324 N 
BRANCH   8   9
ATOM      9  C   UNL A   1      33.139  27.532  24.214  1.00  0.00     0.286 C 
ATOM     10  O   UNL A   1      34.199  28.162  24.307  1.00  0.00    -0.267 OA
BRANCH   9  11
ATOM     11  C   UNL A   1      32.447  27.269  22.801  1.00  0.00     0.305 C 
BRANCH  11  12
ATOM     12  C   UNL A   1      31.042  27.878  22.656  1.00  0.00     0.019 A 
ATOM     13  C   UNL A   1      27.335  30.057  23.060  1.00  0.00     0.044 C 
ATOM     14  C   UNL A   1      28.572  29.264  22.759  1.00  0.00    -0.051 A 
ATOM     15  C   UNL A   1      28.657  27.924  23.140  1.00  0.00     0.004 A 
ATOM     16  C   UNL A   1      29.697  29.871  22.206  1.00  0.00     0.004 A 
ATOM     17  C   UNL A   1      29.884  27.252  23.134  1.00  0.00     0.011 A 
ATOM     18  C   UNL A   1      30.899  29.164  22.101  1.00  0.00     0.011 A 
ENDBRANCH  11  12
BRANCH  11  19
ATOM     19  N   UNL A   1      32.523  25.841  22.341  1.00  0.00    -0.326 N 
ATOM     20  C   UNL A   1      32.226  25.712  20.914  1.00  0.00     0.333 C 
ATOM     21  C   UNL A   1      33.753  25.118  22.661  1.00  0.00     0.333 C 
ATOM     22  H   UNL A   1      31.797  25.386  22.896  1.00  0.00     0.348 HD
ENDBRANCH  11  19
ENDBRANCH   9  11
ENDBRANCH   8   9
BRANCH   8  23
ATOM     23  C   UNL A   1      31.569  28.091  26.074  1.00  0.00     0.097 C 
ATOM     24  C   UNL A   1      31.536  29.557  25.583  1.00  0.00     0.086 C 
ATOM     25  C   UNL A   1      31.833  28.155  27.591  1.00  0.00     0.086 C 
ATOM     26  C   UNL A   1      32.760  30.388  25.980  1.00  0.00     0.264 C 
ATOM     27  C   UNL A   1      33.122  28.915  27.899  1.00  0.00     0.264 C 
ATOM     28  N   UNL A   1      33.072  30.298  27.411  1.00  0.00    -0.337 N 
ATOM     29  C   UNL A   1      34.339  30.978  27.693  1.00  0.00     0.332 C 
ATOM     30  H   UNL A   1      32.311  30.760  27.909  1.00  0.00     0.347 HD
ENDBRANCH   8  23
ENDBRANCH   7   8
ENDBRANCH   4   7
ENDBRANCH   2   3
ENDBRANCH   1   2
BRANCH   1  31
ATOM     31  C   UNL A   1      35.676  22.052  25.473  1.00  0.00     0.002 C 
BRANCH  31  32
ATOM     32  C   UNL A   1      36.469  20.845  24.939  1.00  0.00     0.002 C 
BRANCH  32  33
ATOM     33  C   UNL A   1      37.987  20.910  25.089  1.00  0.00     0.021 C 
BRANCH  33  34
ATOM     34  C   UNL A   1      38.533  22.154  25.772  1.00  0.00     0.116 C 
BRANCH  34  35
ATOM     35  N   UNL A   1      39.976  22.125  25.992  1.00  0.00    -0.352 N 
ATOM     36  C   UNL A   1      40.819  23.161  26.383  1.00  0.00     0.251 C 
ATOM     37  H   UNL A   1      40.413  21.255  25.844  1.00  0.00     0.163 HD
ATOM     38  O   UNL A   1      42.004  22.988  26.540  1.00  0.00    -0.269 OA
BRANCH  36  39
ATOM     39  C   UNL A   1      40.192  24.461  26.734  1.00  0.00     0.039 A 
ATOM     40  C   UNL A   1      40.712  25.611  26.134  1.00  0.00     0.014 A 
ATOM     41  C   UNL A   1      39.343  24.551  27.832  1.00  0.00     0.014 A 
ATOM     42  C   UNL A   1      40.609  26.825  26.806  1.00  0.00     0.010 A 
ATOM     43  C   UNL A   1      39.336  25.727  28.554  1.00  0.00     0.010 A 
ATOM     44  C   UNL A   1      40.040  26.840  28.079  1.00  0.00    -0.014 A 
BRANCH  44  45
ATOM     45  C   UNL A   1      40.252  27.925  29.031  1.00  0.00     0.031 A 
ATOM     46  C   UNL A   1      39.288  29.037  29.134  1.00  0.00     0.074 A 
ATOM     47  C   UNL A   1      41.289  27.860  29.898  1.00  0.00     0.049 A 
ATOM     48  N   UNL A   1      39.553  30.180  29.671  1.00  0.00    -0.248 NA
ATOM     49  C   UNL A   1      37.938  28.956  28.596  1.00  0.00     0.031 C 
ATOM     50  C   UNL A   1      41.505  28.683  31.086  1.00  0.00     0.029 A 
ATOM     51  N   UNL A   1      42.492  27.147  29.750  1.00  0.00    -0.354 N 
ATOM     52  C   UNL A   1      38.373  30.875  29.798  1.00  0.00     0.074 A 
ATOM     53  C   UNL A   1      37.409  30.093  29.058  1.00  0.00     0.031 C 
ATOM     54  C   UNL A   1      42.816  28.695  31.370  1.00  0.00     0.029 A 
ATOM     55  C   UNL A   1      43.492  27.990  30.298  1.00  0.00     0.049 A 
ATOM     56  H   UNL A   1      42.613  26.256  29.351  1.00  0.00     0.167 HD
ATOM     57  C   UNL A   1      38.337  31.973  30.611  1.00  0.00     0.037 A 
ATOM     58  C   UNL A   1      44.480  28.508  29.511  1.00  0.00     0.037 A 
ATOM     59  C   UNL A   1      39.671  32.309  31.116  1.00  0.00     0.049 A 
ATOM     60  C   UNL A   1      44.505  30.022  29.431  1.00  0.00     0.074 A 
ATOM     61  C   UNL A   1      40.339  32.138  32.318  1.00  0.00     0.029 A 
ATOM     62  N   UNL A   1      40.637  32.695  30.204  1.00  0.00    -0.354 N 
ATOM     63  N   UNL A   1      43.640  30.807  30.011  1.00  0.00    -0.248 NA
ATOM     64  C   UNL A   1      45.451  30.763  28.594  1.00  0.00     0.031 C 
ATOM     65  C   UNL A   1      41.718  32.436  32.111  1.00  0.00     0.029 A 
ATOM     66  C   UNL A   1      41.886  32.785  30.784  1.00  0.00     0.049 A 
ATOM     67  H   UNL A   1      40.455  32.883  29.254  1.00  0.00     0.167 HD
ATOM     68  C   UNL A   1      43.843  32.094  29.590  1.00  0.00     0.074 A 
ATOM     69  C   UNL A   1      44.993  32.020  28.711  1.00  0.00     0.031 C 
ATOM     70  C   UNL A   1      43.020  33.123  29.943  1.00  0.00     0.037 A 
BRANCH  57  71
ATOM     71  C   UNL A   1      37.069  32.621  31.128  1.00  0.00     0.064 A 
ATOM     72  C   UNL A   1      36.260  33.404  30.274  1.00  0.00     0.173 A 
ATOM     73  C   UNL A   1      36.614  32.560  32.458  1.00  0.00     0.173 A 
ATOM     74  F   UNL A   1      36.482  33.461  28.954  1.00  0.00    -0.203 F 
ATOM     75  C   UNL A   1      35.181  34.162  30.740  1.00  0.00     0.198 A 
ATOM     76  C   UNL A   1      35.573  33.363  32.939  1.00  0.00     0.198 A 
ATOM     77  F   UNL A   1      37.104  31.670  33.325  1.00  0.00    -0.203 F 
ATOM     78  F   UNL A   1      34.459  34.889  29.877  1.00  0.00    -0.200 F 
ATOM     79  C   UNL A   1      34.864  34.175  32.080  1.00  0.00     0.200 A 
ATOM     80  F   UNL A   1      35.259  33.330  34.242  1.00  0.00    -0.200 F 
ATOM     81  F   UNL A   1      33.862  34.936  32.537  1.00  0.00    -0.200 F 
ENDBRANCH  57  71
BRANCH  58  82
ATOM     82  C   UNL A   1      44.871  27.588  28.409  1.00  0.00     0.064 A 
ATOM     83  C   UNL A   1      45.593  26.422  28.737  1.00  0.00     0.173 A 
ATOM     84  C   UNL A   1      44.243  27.631  27.161  1.00  0.00     0.173 A 
ATOM     85  F   UNL A   1      46.213  26.329  29.925  1.00  0.00    -0.203 F 
ATOM     86  C   UNL A   1      45.578  25.305  27.908  1.00  0.00     0.198 A 
ATOM     87  C   UNL A   1      44.249  26.515  26.322  1.00  0.00     0.198 A 
ATOM     88  F   UNL A   1      43.520  28.700  26.800  1.00  0.00    -0.203 F 
ATOM     89  F   UNL A   1      46.169  24.169  28.305  1.00  0.00    -0.200 F 
ATOM     90  C   UNL A   1      44.882  25.344  26.711  1.00  0.00     0.200 A 
ATOM     91  F   UNL A   1      43.553  26.544  25.177  1.00  0.00    -0.200 F 
ATOM     92  F   UNL A   1      44.783  24.242  25.956  1.00  0.00    -0.200 F 
ENDBRANCH  58  82
BRANCH  70  93
ATOM     93  C   UNL A   1      43.219  34.542  29.496  1.00  0.00     0.064 A 
ATOM     94  C   UNL A   1      43.471  35.586  30.399  1.00  0.00     0.173 A 
ATOM     95  C   UNL A   1      43.042  34.918  28.146  1.00  0.00     0.173 A 
ATOM     96  F   UNL A   1      43.600  35.341  31.711  1.00  0.00    -0.203 F 
ATOM     97  C   UNL A   1      43.577  36.913  29.975  1.00  0.00     0.198 A 
ATOM     98  C   UNL A   1      43.095  36.247  27.734  1.00  0.00     0.198 A 
ATOM     99  F   UNL A   1      42.839  34.004  27.186  1.00  0.00    -0.203 F 
ATOM    100  F   UNL A   1      43.871  37.873  30.862  1.00  0.00    -0.200 F 
ATOM    101  C   UNL A   1      43.376  37.244  28.646  1.00  0.00     0.200 A 
ATOM    102  F   UNL A   1      42.879  36.553  26.447  1.00  0.00    -0.200 F 
ATOM    103  F   UNL A   1      43.455  38.521  28.244  1.00  0.00    -0.200 F 
ENDBRANCH  70  93
ENDBRANCH  44  45
ENDBRANCH  36  39
ENDBRANCH  34  35
ENDBRANCH  33  34
ENDBRANCH  32  33
ENDBRANCH  31  32
ENDBRANCH   1  31
TORSDOF 19
ENDMDL
MODEL 3
REMARK VINA RESULT:     -12.5      3.312      9.465
REMARK SMILES Cc1ccc([C@@H](C(=O)N(CC(=O)NCCCCCCNC(=O)c2ccc(-c3c4nc(c(-c5c(F)c(F)c(F)c(F)c5F)c5ccc([nH]5)c(-c5c(F)c(F)c(F)c(F)c5F)c5nc(c(-c6c(F)c(F)c(F)c(F)c6F)c6ccc3[nH]6)C=C5)C=C4)cc2)C2CC[NH+](C)CC2)[NH+](C)C)cc1
REMARK SMILES IDX 15 1 14 2 13 3 11 4 12 5 10 7 9 8 7 9 8 10 6 11 5 12 1 13
REMARK SMILES IDX 2 14 3 15 97 16 4 17 96 18 93 19 94 20 95 21 86 23 87 24
REMARK SMILES IDX 92 25 88 26 91 27 89 28 90 29 16 31 17 32 18 33 19 34 20 35
REMARK SMILES IDX 21 36 22 38 23 39 24 40 85 41 25 42 84 43 26 44 27 45 28 46
REMARK SMILES IDX 78 47 29 48 83 49 77 50 79 51 30 52 82 53 76 54 75 55 31 57
REMARK SMILES IDX 63 58 43 59 62 60 44 61 47 62 61 63 80 64 45 65 46 66 60 68
REMARK SMILES IDX 81 69 48 70 32 71 33 72 41 73 34 74 35 75 39 76 42 77 36 78
REMARK SMILES IDX 37 79 40 80 38 81 64 82 65 83 73 84 66 85 67 86 71 87 74 88
REMARK SMILES IDX 68 89 69 90 72 91 70 92 49 93 50 94 58 95 51 96 52 97 56 98
REMARK SMILES IDX 59 99 53 100 54 101 57 102 55 103
REMARK H PARENT 13 6 93 22 89 30 20 37 79 56 47 67
REMARK Flexibility Score: inf
ROOT
ATOM      1  C   UNL A   1      35.244  21.825  26.166  1.00  0.00     0.021 C 
ENDROOT
BRANCH   1   2
ATOM      2  C   UNL A   1      33.720  21.882  26.125  1.00  0.00     0.116 C 
BRANCH   2   3
ATOM      3  N   UNL A   1      33.128  23.050  26.728  1.00  0.00    -0.355 N 
ATOM      4  C   UNL A   1      32.881  24.255  26.128  1.00  0.00     0.239 C 
ATOM      5  O   UNL A   1      31.995  24.966  26.612  1.00  0.00    -0.273 OA
ATOM      6  H   UNL A   1      32.874  22.972  27.676  1.00  0.00     0.163 HD
BRANCH   4   7
ATOM      7  C   UNL A   1      33.594  24.682  24.825  1.00  0.00     0.219 C 
BRANCH   7   8
ATOM      8  N   UNL A   1      32.941  25.684  23.970  1.00  0.00    -0.324 N 
BRANCH   8   9
ATOM      9  C   UNL A   1      32.924  27.066  24.291  1.00  0.00     0.286 C 
ATOM     10  O   UNL A   1      33.847  27.783  23.888  1.00  0.00    -0.267 OA
BRANCH   9  11
ATOM     11  C   UNL A   1      31.776  27.641  25.238  1.00  0.00     0.305 C 
BRANCH  11  12
ATOM     12  C   UNL A   1      30.659  28.396  24.499  1.00  0.00     0.019 A 
ATOM     13  C   UNL A   1      28.037  30.291  21.637  1.00  0.00     0.044 C 
ATOM     14  C   UNL A   1      28.819  29.649  22.745  1.00  0.00    -0.051 A 
ATOM     15  C   UNL A   1      29.719  30.406  23.497  1.00  0.00     0.004 A 
ATOM     16  C   UNL A   1      28.755  28.276  22.967  1.00  0.00     0.004 A 
ATOM     17  C   UNL A   1      30.659  29.786  24.327  1.00  0.00     0.011 A 
ATOM     18  C   UNL A   1      29.624  27.669  23.880  1.00  0.00     0.011 A 
ENDBRANCH  11  12
BRANCH  11  19
ATOM     19  N   UNL A   1      32.290  28.376  26.443  1.00  0.00    -0.326 N 
ATOM     20  C   UNL A   1      31.406  28.215  27.597  1.00  0.00     0.333 C 
ATOM     21  C   UNL A   1      33.673  28.103  26.832  1.00  0.00     0.333 C 
ATOM     22  H   UNL A   1      32.291  29.348  26.131  1.00  0.00     0.348 HD
ENDBRANCH  11  19
ENDBRANCH   9  11
ENDBRANCH   8   9
BRANCH   8  23
ATOM     23  C   UNL A   1      32.080  25.225  22.830  1.00  0.00     0.097 C 
ATOM     24  C   UNL A   1      30.818  24.382  23.127  1.00  0.00     0.086 C 
ATOM     25  C   UNL A   1      32.898  24.422  21.800  1.00  0.00     0.086 C 
ATOM     26  C   UNL A   1      31.102  22.933  23.532  1.00  0.00     0.264 C 
ATOM     27  C   UNL A   1      33.224  23.022  22.319  1.00  0.00     0.264 C 
ATOM     28  N   UNL A   1      32.011  22.249  22.606  1.00  0.00    -0.337 N 
ATOM     29  C   UNL A   1      32.369  20.929  23.136  1.00  0.00     0.332 C 
ATOM     30  H   UNL A   1      31.511  22.144  21.724  1.00  0.00     0.347 HD
ENDBRANCH   8  23
ENDBRANCH   7   8
ENDBRANCH   4   7
ENDBRANCH   2   3
ENDBRANCH   1   2
BRANCH   1  31
ATOM     31  C   UNL A   1      35.922  21.002  25.060  1.00  0.00     0.002 C 
BRANCH  31  32
ATOM     32  C   UNL A   1      37.280  21.499  24.535  1.00  0.00     0.002 C 
BRANCH  32  33
ATOM     33  C   UNL A   1      38.443  21.468  25.524  1.00  0.00     0.021 C 
BRANCH  33  34
ATOM     34  C   UNL A   1      38.837  22.808  26.126  1.00  0.00     0.116 C 
BRANCH  34  35
ATOM     35  N   UNL A   1      40.266  22.942  26.392  1.00  0.00    -0.352 N 
ATOM     36  C   UNL A   1      40.992  24.090  26.698  1.00  0.00     0.251 C 
ATOM     37  H   UNL A   1      40.788  22.109  26.350  1.00  0.00     0.163 HD
ATOM     38  O   UNL A   1      42.180  24.049  26.908  1.00  0.00    -0.269 OA
BRANCH  36  39
ATOM     39  C   UNL A   1      40.232  25.351  26.891  1.00  0.00     0.039 A 
ATOM     40  C   UNL A   1      40.724  26.502  26.269  1.00  0.00     0.014 A 
ATOM     41  C   UNL A   1      39.265  25.436  27.888  1.00  0.00     0.014 A 
ATOM     42  C   UNL A   1      40.455  27.742  26.841  1.00  0.00     0.010 A 
ATOM     43  C   UNL A   1      39.089  26.649  28.521  1.00  0.00     0.010 A 
ATOM     44  C   UNL A   1      39.752  27.787  28.045  1.00  0.00    -0.014 A 
BRANCH  44  45
ATOM     45  C   UNL A   1      39.776  28.941  28.936  1.00  0.00     0.031 A 
ATOM     46  C   UNL A   1      38.755  30.001  28.825  1.00  0.00     0.074 A 
ATOM     47  C   UNL A   1      40.683  28.993  29.940  1.00  0.00     0.049 A 
ATOM     48  N   UNL A   1      38.888  31.189  29.309  1.00  0.00    -0.248 NA
ATOM     49  C   UNL A   1      37.500  29.807  28.115  1.00  0.00     0.031 C 
ATOM     50  C   UNL A   1      40.691  29.903  31.083  1.00  0.00     0.029 A 
ATOM     51  N   UNL A   1      41.928  28.343  30.009  1.00  0.00    -0.354 N 
ATOM     52  C   UNL A   1      37.670  31.822  29.223  1.00  0.00     0.074 A 
ATOM     53  C   UNL A   1      36.857  30.939  28.416  1.00  0.00     0.031 C 
ATOM     54  C   UNL A   1      41.946  30.009  31.542  1.00  0.00     0.029 A 
ATOM     55  C   UNL A   1      42.800  29.276  30.626  1.00  0.00     0.049 A 
ATOM     56  H   UNL A   1      42.147  27.436  29.696  1.00  0.00     0.167 HD
ATOM     57  C   UNL A   1      37.467  32.967  29.941  1.00  0.00     0.037 A 
ATOM     58  C   UNL A   1      43.862  29.797  29.947  1.00  0.00     0.037 A 
ATOM     59  C   UNL A   1      38.699  33.412  30.599  1.00  0.00     0.049 A 
ATOM     60  C   UNL A   1      43.826  31.301  29.762  1.00  0.00     0.074 A 
ATOM     61  C   UNL A   1      39.199  33.357  31.890  1.00  0.00     0.029 A 
ATOM     62  N   UNL A   1      39.763  33.792  29.802  1.00  0.00    -0.354 N 
ATOM     63  N   UNL A   1      42.851  32.072  30.160  1.00  0.00    -0.248 NA
ATOM     64  C   UNL A   1      44.843  32.040  29.011  1.00  0.00     0.031 C 
ATOM     65  C   UNL A   1      40.577  33.721  31.853  1.00  0.00     0.029 A 
ATOM     66  C   UNL A   1      40.913  33.991  30.539  1.00  0.00     0.049 A 
ATOM     67  H   UNL A   1      39.708  33.907  28.825  1.00  0.00     0.167 HD
ATOM     68  C   UNL A   1      43.049  33.338  29.677  1.00  0.00     0.074 A 
ATOM     69  C   UNL A   1      44.314  33.273  28.972  1.00  0.00     0.031 C 
ATOM     70  C   UNL A   1      42.137  34.339  29.840  1.00  0.00     0.037 A 
BRANCH  57  71
ATOM     71  C   UNL A   1      36.109  33.573  30.231  1.00  0.00     0.064 A 
ATOM     72  C   UNL A   1      35.346  34.159  29.196  1.00  0.00     0.173 A 
ATOM     73  C   UNL A   1      35.518  33.661  31.506  1.00  0.00     0.173 A 
ATOM     74  F   UNL A   1      35.705  34.050  27.911  1.00  0.00    -0.203 F 
ATOM     75  C   UNL A   1      34.174  34.882  29.439  1.00  0.00     0.198 A 
ATOM     76  C   UNL A   1      34.379  34.434  31.759  1.00  0.00     0.198 A 
ATOM     77  F   UNL A   1      35.971  32.944  32.538  1.00  0.00    -0.203 F 
ATOM     78  F   UNL A   1      33.501  35.420  28.412  1.00  0.00    -0.200 F 
ATOM     79  C   UNL A   1      33.713  35.057  30.726  1.00  0.00     0.200 A 
ATOM     80  F   UNL A   1      33.928  34.557  33.016  1.00  0.00    -0.200 F 
ATOM     81  F   UNL A   1      32.618  35.788  30.966  1.00  0.00    -0.200 F 
ENDBRANCH  57  71
BRANCH  58  82
ATOM     82  C   UNL A   1      44.448  28.831  28.979  1.00  0.00     0.064 A 
ATOM     83  C   UNL A   1      45.198  27.750  29.484  1.00  0.00     0.173 A 
ATOM     84  C   UNL A   1      43.980  28.736  27.665  1.00  0.00     0.173 A 
ATOM     85  F   UNL A   1      45.669  27.790  30.742  1.00  0.00    -0.203 F 
ATOM     86  C   UNL A   1      45.361  26.577  28.754  1.00  0.00     0.198 A 
ATOM     87  C   UNL A   1      44.164  27.566  26.926  1.00  0.00     0.198 A 
ATOM     88  F   UNL A   1      43.240  29.719  27.133  1.00  0.00    -0.203 F 
ATOM     89  F   UNL A   1      45.971  25.521  29.309  1.00  0.00    -0.200 F 
ATOM     90  C   UNL A   1      44.819  26.476  27.483  1.00  0.00     0.200 A 
ATOM     91  F   UNL A   1      43.617  27.459  25.707  1.00  0.00    -0.200 F 
ATOM     92  F   UNL A   1      44.888  25.319  26.813  1.00  0.00    -0.200 F 
ENDBRANCH  58  82
BRANCH  70  93
ATOM     93  C   UNL A   1      42.328  35.735  29.322  1.00  0.00     0.064 A 
ATOM     94  C   UNL A   1      41.831  36.149  28.076  1.00  0.00     0.173 A 
ATOM     95  C   UNL A   1      43.127  36.672  30.013  1.00  0.00     0.173 A 
ATOM     96  F   UNL A   1      41.108  35.313  27.315  1.00  0.00    -0.203 F 
ATOM     97  C   UNL A   1      42.084  37.428  27.574  1.00  0.00     0.198 A 
ATOM     98  C   UNL A   1      43.422  37.927  29.487  1.00  0.00     0.198 A 
ATOM     99  F   UNL A   1      43.621  36.405  31.231  1.00  0.00    -0.203 F 
ATOM    100  F   UNL A   1      41.547  37.801  26.405  1.00  0.00    -0.200 F 
ATOM    101  C   UNL A   1      42.890  38.311  28.273  1.00  0.00     0.200 A 
ATOM    102  F   UNL A   1      44.219  38.763  30.167  1.00  0.00    -0.200 F 
ATOM    103  F   UNL A   1      43.150  39.529  27.779  1.00  0.00    -0.200 F 
ENDBRANCH  70  93
ENDBRANCH  44  45
ENDBRANCH  36  39
ENDBRANCH  34  35
ENDBRANCH  33  34
ENDBRANCH  32  33
ENDBRANCH  31  32
ENDBRANCH   1  31
TORSDOF 19
ENDMDL
