MODEL 1
REMARK VINA RESULT:     -12.5      0.000      0.000
REMARK SMILES Cc1nc2scc(C)n2c1CNc1ccc(C(=O)NCCCCCCNC(=O)c2ccc(-c3c4nc(c(-c5c(F)c(F)c(F)c(F)c5F)c5ccc([nH]5)c(-c5c(F)c(F)c(F)c(F)c5F)c5nc(c(-c6c(F)c(F)c(F)c(F)c6F)c6ccc3[nH]6)C=C5)C=C4)cc2)cc1
REMARK SMILES IDX 22 1 21 2 20 3 19 4 17 5 18 6 16 8 13 9 14 10 93 11 15 12
REMARK SMILES IDX 92 13 12 14 11 16 10 17 1 18 2 19 3 20 4 21 9 22 5 23 7 24
REMARK SMILES IDX 6 25 8 26 23 27 24 28 25 29 26 30 27 31 28 33 29 34 30 35
REMARK SMILES IDX 91 36 31 37 90 38 32 39 33 40 34 41 84 42 35 43 89 44 83 45
REMARK SMILES IDX 85 46 36 47 88 48 82 49 81 50 37 52 69 53 49 54 68 55 50 56
REMARK SMILES IDX 53 57 67 58 86 59 51 60 52 61 66 63 87 64 54 65 38 66 39 67
REMARK SMILES IDX 47 68 40 69 41 70 45 71 48 72 42 73 43 74 46 75 44 76 70 77
REMARK SMILES IDX 71 78 79 79 72 80 73 81 77 82 80 83 74 84 75 85 78 86 76 87
REMARK SMILES IDX 55 88 56 89 64 90 57 91 58 92 62 93 65 94 59 95 60 96 63 97
REMARK SMILES IDX 61 98
REMARK H PARENT 19 7 12 15 26 32 85 51 53 62
REMARK Flexibility Score: inf
ROOT
ATOM      1  C   UNL A   1      39.171  22.083  26.194  1.00  0.00     0.002 C 
ENDROOT
BRANCH   1   2
ATOM      2  C   UNL A   1      38.289  21.073  25.443  1.00  0.00     0.021 C 
BRANCH   2   3
ATOM      3  C   UNL A   1      36.816  21.485  25.390  1.00  0.00     0.116 C 
BRANCH   3   4
ATOM      4  N   UNL A   1      35.995  20.338  25.060  1.00  0.00    -0.352 N 
ATOM      5  C   UNL A   1      34.648  20.168  24.878  1.00  0.00     0.251 C 
ATOM      6  O   UNL A   1      34.257  19.025  24.638  1.00  0.00    -0.269 OA
ATOM      7  H   UNL A   1      36.513  19.509  24.942  1.00  0.00     0.163 HD
BRANCH   5   8
ATOM      8  C   UNL A   1      33.662  21.285  24.870  1.00  0.00     0.039 A 
ATOM      9  C   UNL A   1      31.563  23.181  25.030  1.00  0.00     0.034 A 
ATOM     10  C   UNL A   1      32.028  22.534  26.175  1.00  0.00     0.026 A 
ATOM     11  C   UNL A   1      32.225  22.942  23.825  1.00  0.00     0.026 A 
ATOM     12  C   UNL A   1      33.046  21.580  26.094  1.00  0.00     0.016 A 
ATOM     13  C   UNL A   1      33.299  22.041  23.756  1.00  0.00     0.016 A 
BRANCH   9  14
ATOM     14  N   UNL A   1      30.403  23.929  25.108  1.00  0.00    -0.379 N 
ATOM     15  H   UNL A   1      29.564  23.558  24.752  1.00  0.00     0.160 HD
BRANCH  14  16
ATOM     16  C   UNL A   1      30.403  25.251  25.703  1.00  0.00     0.169 C 
BRANCH  16  17
ATOM     17  C   UNL A   1      30.594  26.326  24.699  1.00  0.00     0.066 A 
ATOM     18  C   UNL A   1      28.188  26.763  23.826  1.00  0.00     0.069 C 
ATOM     19  C   UNL A   1      29.655  26.971  23.891  1.00  0.00     0.062 A 
ATOM     20  N   UNL A   1      30.251  27.897  23.062  1.00  0.00    -0.224 NA
ATOM     21  C   UNL A   1      31.511  27.812  23.371  1.00  0.00     0.194 A 
ATOM     22  N   UNL A   1      31.798  26.908  24.359  1.00  0.00    -0.290 N 
ATOM     23  S   UNL A   1      32.931  28.626  22.799  1.00  0.00    -0.105 S 
ATOM     24  C   UNL A   1      33.146  26.846  24.702  1.00  0.00     0.032 A 
ATOM     25  C   UNL A   1      33.878  27.704  23.960  1.00  0.00     0.090 A 
ATOM     26  C   UNL A   1      33.734  25.984  25.760  1.00  0.00     0.066 C 
ENDBRANCH  16  17
ENDBRANCH  14  16
ENDBRANCH   9  14
ENDBRANCH   5   8
ENDBRANCH   3   4
ENDBRANCH   2   3
ENDBRANCH   1   2
BRANCH   1  27
ATOM     27  C   UNL A   1      40.409  21.488  26.884  1.00  0.00     0.002 C 
BRANCH  27  28
ATOM     28  C   UNL A   1      40.977  20.210  26.250  1.00  0.00     0.021 C 
BRANCH  28  29
ATOM     29  C   UNL A   1      42.273  19.744  26.895  1.00  0.00     0.116 C 
BRANCH  29  30
ATOM     30  N   UNL A   1      43.315  19.495  25.905  1.00  0.00    -0.352 N 
ATOM     31  C   UNL A   1      43.981  20.411  25.116  1.00  0.00     0.251 C 
ATOM     32  H   UNL A   1      43.575  18.553  25.783  1.00  0.00     0.163 HD
ATOM     33  O   UNL A   1      44.549  20.066  24.095  1.00  0.00    -0.269 OA
BRANCH  31  34
ATOM     34  C   UNL A   1      43.982  21.825  25.529  1.00  0.00     0.039 A 
ATOM     35  C   UNL A   1      43.148  22.746  24.893  1.00  0.00     0.014 A 
ATOM     36  C   UNL A   1      44.809  22.218  26.581  1.00  0.00     0.014 A 
ATOM     37  C   UNL A   1      43.090  24.046  25.384  1.00  0.00     0.010 A 
ATOM     38  C   UNL A   1      44.655  23.464  27.144  1.00  0.00     0.010 A 
ATOM     39  C   UNL A   1      43.820  24.394  26.535  1.00  0.00    -0.014 A 
BRANCH  39  40
ATOM     40  C   UNL A   1      43.580  25.686  27.180  1.00  0.00     0.031 A 
ATOM     41  C   UNL A   1      44.575  26.734  26.820  1.00  0.00     0.074 A 
ATOM     42  C   UNL A   1      42.484  25.986  27.911  1.00  0.00     0.049 A 
ATOM     43  N   UNL A   1      45.439  27.289  27.603  1.00  0.00    -0.248 NA
ATOM     44  C   UNL A   1      44.726  27.116  25.406  1.00  0.00     0.031 C 
ATOM     45  C   UNL A   1      41.292  25.157  28.129  1.00  0.00     0.029 A 
ATOM     46  N   UNL A   1      42.164  27.147  28.556  1.00  0.00    -0.354 N 
ATOM     47  C   UNL A   1      46.119  28.226  26.831  1.00  0.00     0.074 A 
ATOM     48  C   UNL A   1      45.750  27.971  25.464  1.00  0.00     0.031 C 
ATOM     49  C   UNL A   1      40.301  25.910  28.653  1.00  0.00     0.029 A 
ATOM     50  C   UNL A   1      40.841  27.216  28.982  1.00  0.00     0.049 A 
ATOM     51  H   UNL A   1      42.812  27.872  28.706  1.00  0.00     0.167 HD
ATOM     52  C   UNL A   1      46.725  29.292  27.423  1.00  0.00     0.037 A 
ATOM     53  C   UNL A   1      40.224  28.258  29.587  1.00  0.00     0.037 A 
ATOM     54  C   UNL A   1      46.854  29.078  28.842  1.00  0.00     0.049 A 
ATOM     55  C   UNL A   1      41.274  29.082  30.223  1.00  0.00     0.074 A 
ATOM     56  C   UNL A   1      47.639  28.302  29.666  1.00  0.00     0.029 A 
ATOM     57  N   UNL A   1      45.755  29.459  29.565  1.00  0.00    -0.354 N 
ATOM     58  N   UNL A   1      41.985  28.675  31.237  1.00  0.00    -0.248 NA
ATOM     59  C   UNL A   1      41.789  30.252  29.525  1.00  0.00     0.031 C 
ATOM     60  C   UNL A   1      46.853  28.045  30.830  1.00  0.00     0.029 A 
ATOM     61  C   UNL A   1      45.634  28.709  30.703  1.00  0.00     0.049 A 
ATOM     62  H   UNL A   1      45.136  30.178  29.301  1.00  0.00     0.167 HD
ATOM     63  C   UNL A   1      43.227  29.237  31.022  1.00  0.00     0.074 A 
ATOM     64  C   UNL A   1      42.997  30.332  30.091  1.00  0.00     0.031 C 
ATOM     65  C   UNL A   1      44.359  28.558  31.367  1.00  0.00     0.037 A 
BRANCH  52  66
ATOM     66  C   UNL A   1      46.758  30.692  26.849  1.00  0.00     0.064 A 
ATOM     67  C   UNL A   1      47.965  31.424  26.888  1.00  0.00     0.173 A 
ATOM     68  C   UNL A   1      45.599  31.452  26.578  1.00  0.00     0.173 A 
ATOM     69  F   UNL A   1      49.126  30.811  27.164  1.00  0.00    -0.203 F 
ATOM     70  C   UNL A   1      47.994  32.814  26.734  1.00  0.00     0.198 A 
ATOM     71  C   UNL A   1      45.640  32.831  26.377  1.00  0.00     0.198 A 
ATOM     72  F   UNL A   1      44.373  30.918  26.615  1.00  0.00    -0.203 F 
ATOM     73  F   UNL A   1      49.146  33.480  26.897  1.00  0.00    -0.200 F 
ATOM     74  C   UNL A   1      46.831  33.517  26.484  1.00  0.00     0.200 A 
ATOM     75  F   UNL A   1      44.496  33.498  26.164  1.00  0.00    -0.200 F 
ATOM     76  F   UNL A   1      46.845  34.854  26.397  1.00  0.00    -0.200 F 
ENDBRANCH  52  66
BRANCH  53  77
ATOM     77  C   UNL A   1      38.812  28.687  29.526  1.00  0.00     0.064 A 
ATOM     78  C   UNL A   1      38.043  28.856  30.689  1.00  0.00     0.173 A 
ATOM     79  C   UNL A   1      38.283  29.225  28.337  1.00  0.00     0.173 A 
ATOM     80  F   UNL A   1      38.495  28.403  31.868  1.00  0.00    -0.203 F 
ATOM     81  C   UNL A   1      36.835  29.561  30.673  1.00  0.00     0.198 A 
ATOM     82  C   UNL A   1      37.076  29.927  28.323  1.00  0.00     0.198 A 
ATOM     83  F   UNL A   1      38.978  29.167  27.193  1.00  0.00    -0.203 F 
ATOM     84  F   UNL A   1      36.164  29.763  31.816  1.00  0.00    -0.200 F 
ATOM     85  C   UNL A   1      36.361  30.108  29.492  1.00  0.00     0.200 A 
ATOM     86  F   UNL A   1      36.648  30.487  27.182  1.00  0.00    -0.200 F 
ATOM     87  F   UNL A   1      35.243  30.848  29.490  1.00  0.00    -0.200 F 
ENDBRANCH  53  77
BRANCH  65  88
ATOM     88  C   UNL A   1      44.214  27.473  32.391  1.00  0.00     0.064 A 
ATOM     89  C   UNL A   1      44.038  27.693  33.767  1.00  0.00     0.173 A 
ATOM     90  C   UNL A   1      44.199  26.148  31.941  1.00  0.00     0.173 A 
ATOM     91  F   UNL A   1      43.960  28.932  34.265  1.00  0.00    -0.203 F 
ATOM     92  C   UNL A   1      43.905  26.627  34.656  1.00  0.00     0.198 A 
ATOM     93  C   UNL A   1      44.028  25.087  32.824  1.00  0.00     0.198 A 
ATOM     94  F   UNL A   1      44.321  25.881  30.631  1.00  0.00    -0.203 F 
ATOM     95  F   UNL A   1      43.768  26.859  35.970  1.00  0.00    -0.200 F 
ATOM     96  C   UNL A   1      43.895  25.325  34.182  1.00  0.00     0.200 A 
ATOM     97  F   UNL A   1      43.977  23.833  32.355  1.00  0.00    -0.200 F 
ATOM     98  F   UNL A   1      43.740  24.300  35.032  1.00  0.00    -0.200 F 
ENDBRANCH  65  88
ENDBRANCH  39  40
ENDBRANCH  31  34
ENDBRANCH  29  30
ENDBRANCH  28  29
ENDBRANCH  27  28
ENDBRANCH   1  27
TORSDOF 16
ENDMDL
MODEL 2
REMARK VINA RESULT:     -12.5      3.313      8.801
REMARK SMILES Cc1nc2scc(C)n2c1CNc1ccc(C(=O)NCCCCCCNC(=O)c2ccc(-c3c4nc(c(-c5c(F)c(F)c(F)c(F)c5F)c5ccc([nH]5)c(-c5c(F)c(F)c(F)c(F)c5F)c5nc(c(-c6c(F)c(F)c(F)c(F)c6F)c6ccc3[nH]6)C=C5)C=C4)cc2)cc1
REMARK SMILES IDX 22 1 21 2 20 3 19 4 17 5 18 6 16 8 13 9 14 10 93 11 15 12
REMARK SMILES IDX 92 13 12 14 11 16 10 17 1 18 2 19 3 20 4 21 9 22 5 23 7 24
REMARK SMILES IDX 6 25 8 26 23 27 24 28 25 29 26 30 27 31 28 33 29 34 30 35
REMARK SMILES IDX 91 36 31 37 90 38 32 39 33 40 34 41 84 42 35 43 89 44 83 45
REMARK SMILES IDX 85 46 36 47 88 48 82 49 81 50 37 52 69 53 49 54 68 55 50 56
REMARK SMILES IDX 53 57 67 58 86 59 51 60 52 61 66 63 87 64 54 65 38 66 39 67
REMARK SMILES IDX 47 68 40 69 41 70 45 71 48 72 42 73 43 74 46 75 44 76 70 77
REMARK SMILES IDX 71 78 79 79 72 80 73 81 77 82 80 83 74 84 75 85 78 86 76 87
REMARK SMILES IDX 55 88 56 89 64 90 57 91 58 92 62 93 65 94 59 95 60 96 63 97
REMARK SMILES IDX 61 98
REMARK H PARENT 19 7 12 15 26 32 85 51 53 62
REMARK Flexibility Score: inf
ROOT
ATOM      1  C   UNL A   1      33.152  28.563  27.080  1.00  0.00     0.002 C 
ENDROOT
BRANCH   1   2
ATOM      2  C   UNL A   1      32.143  28.603  25.923  1.00  0.00     0.021 C 
BRANCH   2   3
ATOM      3  C   UNL A   1      32.736  29.161  24.627  1.00  0.00     0.116 C 
BRANCH   3   4
ATOM      4  N   UNL A   1      31.685  29.361  23.651  1.00  0.00    -0.352 N 
ATOM      5  C   UNL A   1      31.042  28.524  22.778  1.00  0.00     0.251 C 
ATOM      6  O   UNL A   1      30.199  29.032  22.036  1.00  0.00    -0.269 OA
ATOM      7  H   UNL A   1      31.367  30.292  23.605  1.00  0.00     0.163 HD
BRANCH   5   8
ATOM      8  C   UNL A   1      31.242  27.048  22.739  1.00  0.00     0.039 A 
ATOM      9  C   UNL A   1      31.611  24.254  23.030  1.00  0.00     0.034 A 
ATOM     10  C   UNL A   1      30.537  24.899  23.643  1.00  0.00     0.026 A 
ATOM     11  C   UNL A   1      32.437  25.006  22.193  1.00  0.00     0.026 A 
ATOM     12  C   UNL A   1      30.367  26.281  23.521  1.00  0.00     0.016 A 
ATOM     13  C   UNL A   1      32.224  26.380  22.008  1.00  0.00     0.016 A 
BRANCH   9  14
ATOM     14  N   UNL A   1      31.885  22.943  23.367  1.00  0.00    -0.379 N 
ATOM     15  H   UNL A   1      31.857  22.248  22.670  1.00  0.00     0.160 HD
BRANCH  14  16
ATOM     16  C   UNL A   1      32.213  22.573  24.729  1.00  0.00     0.169 C 
BRANCH  16  17
ATOM     17  C   UNL A   1      33.546  21.929  24.839  1.00  0.00     0.066 A 
ATOM     18  C   UNL A   1      33.034  19.420  24.416  1.00  0.00     0.069 C 
ATOM     19  C   UNL A   1      33.902  20.585  24.712  1.00  0.00     0.062 A 
ATOM     20  N   UNL A   1      35.251  20.397  24.920  1.00  0.00    -0.224 NA
ATOM     21  C   UNL A   1      35.690  21.597  25.159  1.00  0.00     0.194 A 
ATOM     22  N   UNL A   1      34.735  22.577  25.108  1.00  0.00    -0.290 N 
ATOM     23  S   UNL A   1      37.262  22.237  25.518  1.00  0.00    -0.105 S 
ATOM     24  C   UNL A   1      35.220  23.862  25.336  1.00  0.00     0.032 A 
ATOM     25  C   UNL A   1      36.550  23.846  25.568  1.00  0.00     0.090 A 
ATOM     26  C   UNL A   1      34.417  25.111  25.305  1.00  0.00     0.066 C 
ENDBRANCH  16  17
ENDBRANCH  14  16
ENDBRANCH   9  14
ENDBRANCH   5   8
ENDBRANCH   3   4
ENDBRANCH   2   3
ENDBRANCH   1   2
BRANCH   1  27
ATOM     27  C   UNL A   1      34.200  29.689  27.078  1.00  0.00     0.002 C 
BRANCH  27  28
ATOM     28  C   UNL A   1      33.713  31.052  27.589  1.00  0.00     0.021 C 
BRANCH  28  29
ATOM     29  C   UNL A   1      34.845  32.035  27.850  1.00  0.00     0.116 C 
BRANCH  29  30
ATOM     30  N   UNL A   1      34.828  32.532  29.222  1.00  0.00    -0.352 N 
ATOM     31  C   UNL A   1      35.501  32.036  30.319  1.00  0.00     0.251 C 
ATOM     32  H   UNL A   1      34.263  33.321  29.385  1.00  0.00     0.163 HD
ATOM     33  O   UNL A   1      35.135  32.297  31.452  1.00  0.00    -0.269 OA
BRANCH  31  34
ATOM     34  C   UNL A   1      36.672  31.170  30.094  1.00  0.00     0.039 A 
ATOM     35  C   UNL A   1      37.942  31.728  29.942  1.00  0.00     0.014 A 
ATOM     36  C   UNL A   1      36.491  29.788  30.064  1.00  0.00     0.014 A 
ATOM     37  C   UNL A   1      39.039  30.879  29.848  1.00  0.00     0.010 A 
ATOM     38  C   UNL A   1      37.584  28.954  30.100  1.00  0.00     0.010 A 
ATOM     39  C   UNL A   1      38.860  29.488  29.963  1.00  0.00    -0.014 A 
BRANCH  39  40
ATOM     40  C   UNL A   1      40.030  28.617  30.094  1.00  0.00     0.031 A 
ATOM     41  C   UNL A   1      40.511  28.460  31.495  1.00  0.00     0.074 A 
ATOM     42  C   UNL A   1      40.553  27.880  29.090  1.00  0.00     0.049 A 
ATOM     43  N   UNL A   1      41.631  28.874  31.983  1.00  0.00    -0.248 NA
ATOM     44  C   UNL A   1      39.593  27.905  32.504  1.00  0.00     0.031 C 
ATOM     45  C   UNL A   1      40.031  27.714  27.727  1.00  0.00     0.029 A 
ATOM     46  N   UNL A   1      41.635  27.046  29.100  1.00  0.00    -0.354 N 
ATOM     47  C   UNL A   1      41.650  28.469  33.315  1.00  0.00     0.074 A 
ATOM     48  C   UNL A   1      40.319  28.017  33.620  1.00  0.00     0.031 C 
ATOM     49  C   UNL A   1      40.652  26.678  27.123  1.00  0.00     0.029 A 
ATOM     50  C   UNL A   1      41.738  26.232  27.977  1.00  0.00     0.049 A 
ATOM     51  H   UNL A   1      42.285  27.022  29.839  1.00  0.00     0.167 HD
ATOM     52  C   UNL A   1      42.835  28.306  33.965  1.00  0.00     0.037 A 
ATOM     53  C   UNL A   1      42.660  25.270  27.739  1.00  0.00     0.037 A 
ATOM     54  C   UNL A   1      43.905  28.934  33.234  1.00  0.00     0.049 A 
ATOM     55  C   UNL A   1      43.845  25.582  28.565  1.00  0.00     0.074 A 
ATOM     56  C   UNL A   1      44.329  30.224  32.998  1.00  0.00     0.029 A 
ATOM     57  N   UNL A   1      44.466  28.138  32.272  1.00  0.00    -0.354 N 
ATOM     58  N   UNL A   1      44.606  26.620  28.360  1.00  0.00    -0.248 NA
ATOM     59  C   UNL A   1      44.013  24.926  29.855  1.00  0.00     0.031 C 
ATOM     60  C   UNL A   1      44.972  30.199  31.724  1.00  0.00     0.029 A 
ATOM     61  C   UNL A   1      44.965  28.890  31.244  1.00  0.00     0.049 A 
ATOM     62  H   UNL A   1      44.505  27.155  32.314  1.00  0.00     0.167 HD
ATOM     63  C   UNL A   1      44.996  27.005  29.626  1.00  0.00     0.074 A 
ATOM     64  C   UNL A   1      44.776  25.836  30.467  1.00  0.00     0.031 C 
ATOM     65  C   UNL A   1      45.155  28.326  29.927  1.00  0.00     0.037 A 
BRANCH  52  66
ATOM     66  C   UNL A   1      43.125  27.203  34.961  1.00  0.00     0.064 A 
ATOM     67  C   UNL A   1      43.446  27.545  36.293  1.00  0.00     0.173 A 
ATOM     68  C   UNL A   1      43.428  25.875  34.589  1.00  0.00     0.173 A 
ATOM     69  F   UNL A   1      43.229  28.788  36.750  1.00  0.00    -0.203 F 
ATOM     70  C   UNL A   1      44.081  26.646  37.156  1.00  0.00     0.198 A 
ATOM     71  C   UNL A   1      44.016  24.967  35.469  1.00  0.00     0.198 A 
ATOM     72  F   UNL A   1      43.280  25.436  33.333  1.00  0.00    -0.203 F 
ATOM     73  F   UNL A   1      44.473  27.053  38.372  1.00  0.00    -0.200 F 
ATOM     74  C   UNL A   1      44.369  25.360  36.743  1.00  0.00     0.200 A 
ATOM     75  F   UNL A   1      44.314  23.733  35.039  1.00  0.00    -0.200 F 
ATOM     76  F   UNL A   1      45.031  24.515  37.545  1.00  0.00    -0.200 F 
ENDBRANCH  52  66
BRANCH  53  77
ATOM     77  C   UNL A   1      42.539  24.012  26.973  1.00  0.00     0.064 A 
ATOM     78  C   UNL A   1      43.334  23.759  25.843  1.00  0.00     0.173 A 
ATOM     79  C   UNL A   1      41.848  22.912  27.516  1.00  0.00     0.173 A 
ATOM     80  F   UNL A   1      44.051  24.747  25.288  1.00  0.00    -0.203 F 
ATOM     81  C   UNL A   1      43.465  22.472  25.313  1.00  0.00     0.198 A 
ATOM     82  C   UNL A   1      41.980  21.628  26.985  1.00  0.00     0.198 A 
ATOM     83  F   UNL A   1      41.118  23.047  28.632  1.00  0.00    -0.203 F 
ATOM     84  F   UNL A   1      44.289  22.256  24.278  1.00  0.00    -0.200 F 
ATOM     85  C   UNL A   1      42.800  21.405  25.894  1.00  0.00     0.200 A 
ATOM     86  F   UNL A   1      41.363  20.597  27.581  1.00  0.00    -0.200 F 
ATOM     87  F   UNL A   1      42.984  20.160  25.434  1.00  0.00    -0.200 F 
ENDBRANCH  53  77
BRANCH  65  88
ATOM     88  C   UNL A   1      45.377  29.261  28.777  1.00  0.00     0.064 A 
ATOM     89  C   UNL A   1      44.363  29.983  28.127  1.00  0.00     0.173 A 
ATOM     90  C   UNL A   1      46.694  29.473  28.352  1.00  0.00     0.173 A 
ATOM     91  F   UNL A   1      43.088  29.898  28.527  1.00  0.00    -0.203 F 
ATOM     92  C   UNL A   1      44.653  30.840  27.066  1.00  0.00     0.198 A 
ATOM     93  C   UNL A   1      46.986  30.357  27.318  1.00  0.00     0.198 A 
ATOM     94  F   UNL A   1      47.708  28.841  28.964  1.00  0.00    -0.203 F 
ATOM     95  F   UNL A   1      43.665  31.497  26.442  1.00  0.00    -0.200 F 
ATOM     96  C   UNL A   1      45.966  31.029  26.666  1.00  0.00     0.200 A 
ATOM     97  F   UNL A   1      48.261  30.567  26.964  1.00  0.00    -0.200 F 
ATOM     98  F   UNL A   1      46.249  31.873  25.664  1.00  0.00    -0.200 F 
ENDBRANCH  65  88
ENDBRANCH  39  40
ENDBRANCH  31  34
ENDBRANCH  29  30
ENDBRANCH  28  29
ENDBRANCH  27  28
ENDBRANCH   1  27
TORSDOF 16
ENDMDL
MODEL 3
REMARK VINA RESULT:     -12.2      1.354      2.132
REMARK SMILES Cc1nc2scc(C)n2c1CNc1ccc(C(=O)NCCCCCCNC(=O)c2ccc(-c3c4nc(c(-c5c(F)c(F)c(F)c(F)c5F)c5ccc([nH]5)c(-c5c(F)c(F)c(F)c(F)c5F)c5nc(c(-c6c(F)c(F)c(F)c(F)c6F)c6ccc3[nH]6)C=C5)C=C4)cc2)cc1
REMARK SMILES IDX 22 1 21 2 20 3 19 4 17 5 18 6 16 8 13 9 14 10 93 11 15 12
REMARK SMILES IDX 92 13 12 14 11 16 10 17 1 18 2 19 3 20 4 21 9 22 5 23 7 24
REMARK SMILES IDX 6 25 8 26 23 27 24 28 25 29 26 30 27 31 28 33 29 34 30 35
REMARK SMILES IDX 91 36 31 37 90 38 32 39 33 40 34 41 84 42 35 43 89 44 83 45
REMARK SMILES IDX 85 46 36 47 88 48 82 49 81 50 37 52 69 53 49 54 68 55 50 56
REMARK SMILES IDX 53 57 67 58 86 59 51 60 52 61 66 63 87 64 54 65 38 66 39 67
REMARK SMILES IDX 47 68 40 69 41 70 45 71 48 72 42 73 43 74 46 75 44 76 70 77
REMARK SMILES IDX 71 78 79 79 72 80 73 81 77 82 80 83 74 84 75 85 78 86 76 87
REMARK SMILES IDX 55 88 56 89 64 90 57 91 58 92 62 93 65 94 59 95 60 96 63 97
REMARK SMILES IDX 61 98
REMARK H PARENT 19 7 12 15 26 32 85 51 53 62
REMARK Flexibility Score: inf
ROOT
ATOM      1  C   UNL A   1      40.241  21.590  26.551  1.00  0.00     0.002 C 
ENDROOT
BRANCH   1   2
ATOM      2  C   UNL A   1      39.184  20.860  25.709  1.00  0.00     0.021 C 
BRANCH   2   3
ATOM      3  C   UNL A   1      38.015  21.760  25.299  1.00  0.00     0.116 C 
BRANCH   3   4
ATOM      4  N   UNL A   1      36.797  20.981  25.220  1.00  0.00    -0.352 N 
ATOM      5  C   UNL A   1      35.469  21.316  25.182  1.00  0.00     0.251 C 
ATOM      6  O   UNL A   1      34.661  20.387  25.155  1.00  0.00    -0.269 OA
ATOM      7  H   UNL A   1      36.956  20.010  25.186  1.00  0.00     0.163 HD
BRANCH   5   8
ATOM      8  C   UNL A   1      34.966  22.715  25.088  1.00  0.00     0.039 A 
ATOM      9  C   UNL A   1      33.693  25.246  25.037  1.00  0.00     0.034 A 
ATOM     10  C   UNL A   1      33.708  24.478  26.202  1.00  0.00     0.026 A 
ATOM     11  C   UNL A   1      34.405  24.776  23.932  1.00  0.00     0.026 A 
ATOM     12  C   UNL A   1      34.314  23.219  26.222  1.00  0.00     0.016 A 
ATOM     13  C   UNL A   1      35.079  23.547  23.974  1.00  0.00     0.016 A 
BRANCH   9  14
ATOM     14  N   UNL A   1      32.884  26.364  24.982  1.00  0.00    -0.379 N 
ATOM     15  H   UNL A   1      31.943  26.295  25.264  1.00  0.00     0.160 HD
BRANCH  14  16
ATOM     16  C   UNL A   1      33.397  27.637  24.516  1.00  0.00     0.169 C 
BRANCH  16  17
ATOM     17  C   UNL A   1      32.397  28.728  24.627  1.00  0.00     0.066 A 
ATOM     18  C   UNL A   1      33.285  30.152  26.608  1.00  0.00     0.069 C 
ATOM     19  C   UNL A   1      32.340  29.799  25.521  1.00  0.00     0.062 A 
ATOM     20  N   UNL A   1      31.221  30.576  25.310  1.00  0.00    -0.224 NA
ATOM     21  C   UNL A   1      30.629  29.988  24.313  1.00  0.00     0.194 A 
ATOM     22  N   UNL A   1      31.280  28.884  23.831  1.00  0.00    -0.290 N 
ATOM     23  S   UNL A   1      29.170  30.319  23.436  1.00  0.00    -0.105 S 
ATOM     24  C   UNL A   1      30.653  28.279  22.746  1.00  0.00     0.032 A 
ATOM     25  C   UNL A   1      29.517  28.929  22.415  1.00  0.00     0.090 A 
ATOM     26  C   UNL A   1      31.154  27.092  22.004  1.00  0.00     0.066 C 
ENDBRANCH  16  17
ENDBRANCH  14  16
ENDBRANCH   9  14
ENDBRANCH   5   8
ENDBRANCH   3   4
ENDBRANCH   2   3
ENDBRANCH   1   2
BRANCH   1  27
ATOM     27  C   UNL A   1      41.346  20.696  27.138  1.00  0.00     0.002 C 
BRANCH  27  28
ATOM     28  C   UNL A   1      41.802  19.530  26.250  1.00  0.00     0.021 C 
BRANCH  28  29
ATOM     29  C   UNL A   1      43.213  19.055  26.560  1.00  0.00     0.116 C 
BRANCH  29  30
ATOM     30  N   UNL A   1      44.023  18.932  25.353  1.00  0.00    -0.352 N 
ATOM     31  C   UNL A   1      44.430  19.929  24.490  1.00  0.00     0.251 C 
ATOM     32  H   UNL A   1      44.316  18.020  25.123  1.00  0.00     0.163 HD
ATOM     33  O   UNL A   1      44.780  19.672  23.352  1.00  0.00    -0.269 OA
BRANCH  31  34
ATOM     34  C   UNL A   1      44.424  21.321  24.973  1.00  0.00     0.039 A 
ATOM     35  C   UNL A   1      43.477  22.227  24.495  1.00  0.00     0.014 A 
ATOM     36  C   UNL A   1      45.362  21.706  25.930  1.00  0.00     0.014 A 
ATOM     37  C   UNL A   1      43.425  23.499  25.056  1.00  0.00     0.010 A 
ATOM     38  C   UNL A   1      45.228  22.915  26.572  1.00  0.00     0.010 A 
ATOM     39  C   UNL A   1      44.282  23.830  26.122  1.00  0.00    -0.014 A 
BRANCH  39  40
ATOM     40  C   UNL A   1      44.072  25.078  26.858  1.00  0.00     0.031 A 
ATOM     41  C   UNL A   1      45.105  26.117  26.592  1.00  0.00     0.074 A 
ATOM     42  C   UNL A   1      42.973  25.358  27.593  1.00  0.00     0.049 A 
ATOM     43  N   UNL A   1      45.972  26.584  27.426  1.00  0.00    -0.248 NA
ATOM     44  C   UNL A   1      45.292  26.597  25.212  1.00  0.00     0.031 C 
ATOM     45  C   UNL A   1      41.753  24.554  27.732  1.00  0.00     0.029 A 
ATOM     46  N   UNL A   1      42.679  26.478  28.319  1.00  0.00    -0.354 N 
ATOM     47  C   UNL A   1      46.695  27.553  26.736  1.00  0.00     0.074 A 
ATOM     48  C   UNL A   1      46.341  27.413  25.349  1.00  0.00     0.031 C 
ATOM     49  C   UNL A   1      40.777  25.298  28.296  1.00  0.00     0.029 A 
ATOM     50  C   UNL A   1      41.352  26.558  28.730  1.00  0.00     0.049 A 
ATOM     51  H   UNL A   1      43.347  27.168  28.532  1.00  0.00     0.167 HD
ATOM     52  C   UNL A   1      47.324  28.552  27.415  1.00  0.00     0.037 A 
ATOM     53  C   UNL A   1      40.758  27.572  29.402  1.00  0.00     0.037 A 
ATOM     54  C   UNL A   1      47.422  28.230  28.815  1.00  0.00     0.049 A 
ATOM     55  C   UNL A   1      41.823  28.312  30.112  1.00  0.00     0.074 A 
ATOM     56  C   UNL A   1      48.169  27.370  29.590  1.00  0.00     0.029 A 
ATOM     57  N   UNL A   1      46.324  28.592  29.549  1.00  0.00    -0.354 N 
ATOM     58  N   UNL A   1      42.503  27.808  31.103  1.00  0.00    -0.248 NA
ATOM     59  C   UNL A   1      42.385  29.513  29.511  1.00  0.00     0.031 C 
ATOM     60  C   UNL A   1      47.356  27.053  30.720  1.00  0.00     0.029 A 
ATOM     61  C   UNL A   1      46.160  27.763  30.626  1.00  0.00     0.049 A 
ATOM     62  H   UNL A   1      45.732  29.348  29.331  1.00  0.00     0.167 HD
ATOM     63  C   UNL A   1      43.766  28.344  30.949  1.00  0.00     0.074 A 
ATOM     64  C   UNL A   1      43.585  29.512  30.099  1.00  0.00     0.031 C 
ATOM     65  C   UNL A   1      44.870  27.605  31.258  1.00  0.00     0.037 A 
BRANCH  52  66
ATOM     66  C   UNL A   1      47.410  29.989  26.947  1.00  0.00     0.064 A 
ATOM     67  C   UNL A   1      48.620  30.697  27.117  1.00  0.00     0.173 A 
ATOM     68  C   UNL A   1      46.280  30.785  26.658  1.00  0.00     0.173 A 
ATOM     69  F   UNL A   1      49.753  30.048  27.422  1.00  0.00    -0.203 F 
ATOM     70  C   UNL A   1      48.674  32.094  27.067  1.00  0.00     0.198 A 
ATOM     71  C   UNL A   1      46.349  32.174  26.561  1.00  0.00     0.198 A 
ATOM     72  F   UNL A   1      45.048  30.269  26.576  1.00  0.00    -0.203 F 
ATOM     73  F   UNL A   1      49.820  32.728  27.352  1.00  0.00    -0.200 F 
ATOM     74  C   UNL A   1      47.538  32.832  26.794  1.00  0.00     0.200 A 
ATOM     75  F   UNL A   1      45.229  32.873  26.323  1.00  0.00    -0.200 F 
ATOM     76  F   UNL A   1      47.572  34.171  26.805  1.00  0.00    -0.200 F 
ENDBRANCH  52  66
BRANCH  53  77
ATOM     77  C   UNL A   1      39.361  28.049  29.352  1.00  0.00     0.064 A 
ATOM     78  C   UNL A   1      38.582  28.165  30.515  1.00  0.00     0.173 A 
ATOM     79  C   UNL A   1      38.866  28.682  28.197  1.00  0.00     0.173 A 
ATOM     80  F   UNL A   1      39.002  27.621  31.666  1.00  0.00    -0.203 F 
ATOM     81  C   UNL A   1      37.397  28.908  30.532  1.00  0.00     0.198 A 
ATOM     82  C   UNL A   1      37.683  29.423  28.215  1.00  0.00     0.198 A 
ATOM     83  F   UNL A   1      39.575  28.678  27.059  1.00  0.00    -0.203 F 
ATOM     84  F   UNL A   1      36.717  29.056  31.677  1.00  0.00    -0.200 F 
ATOM     85  C   UNL A   1      36.957  29.549  29.385  1.00  0.00     0.200 A 
ATOM     86  F   UNL A   1      37.288  30.071  27.109  1.00  0.00    -0.200 F 
ATOM     87  F   UNL A   1      35.863  30.322  29.419  1.00  0.00    -0.200 F 
ENDBRANCH  53  77
BRANCH  65  88
ATOM     88  C   UNL A   1      44.674  26.453  32.196  1.00  0.00     0.064 A 
ATOM     89  C   UNL A   1      44.466  25.123  31.795  1.00  0.00     0.173 A 
ATOM     90  C   UNL A   1      44.756  26.707  33.571  1.00  0.00     0.173 A 
ATOM     91  F   UNL A   1      44.456  24.785  30.501  1.00  0.00    -0.203 F 
ATOM     92  C   UNL A   1      44.298  24.104  32.733  1.00  0.00     0.198 A 
ATOM     93  C   UNL A   1      44.625  25.684  34.504  1.00  0.00     0.198 A 
ATOM     94  F   UNL A   1      44.994  27.953  34.010  1.00  0.00    -0.203 F 
ATOM     95  F   UNL A   1      44.071  22.847  32.327  1.00  0.00    -0.200 F 
ATOM     96  C   UNL A   1      44.382  24.386  34.086  1.00  0.00     0.200 A 
ATOM     97  F   UNL A   1      44.750  25.956  35.810  1.00  0.00    -0.200 F 
ATOM     98  F   UNL A   1      44.248  23.404  34.989  1.00  0.00    -0.200 F 
ENDBRANCH  65  88
ENDBRANCH  39  40
ENDBRANCH  31  34
ENDBRANCH  29  30
ENDBRANCH  28  29
ENDBRANCH  27  28
ENDBRANCH   1  27
TORSDOF 16
ENDMDL
