MODEL 1
REMARK VINA RESULT:     -11.5      0.000      0.000
REMARK SMILES O=C(CN1C(=O)/C(=C\c2cccs2)SC1=S)Nc1ccccc1C(=O)NCCCCCCNC(=O)c1ccc(-c2c3nc(c(-c4c(F)c(F)c(F)c(F)c4F)c4ccc([nH]4)c(-c4c(F)c(F)c(F)c(F)c4F)c4nc(c(-c5c(F)c(F)c(F)c(F)c5F)c5ccc2[nH]5)C=C4)C=C3)cc1
REMARK SMILES IDX 28 1 27 2 26 3 24 4 25 5 23 7 18 8 19 9 20 10 22 11 21 12
REMARK SMILES IDX 17 13 1 14 2 15 3 17 4 18 5 19 15 20 6 21 7 22 14 23 16 24
REMARK SMILES IDX 8 25 9 26 10 27 13 28 11 29 12 30 29 31 30 32 31 33 32 34
REMARK SMILES IDX 33 35 34 36 35 38 36 39 37 40 98 41 38 42 97 43 39 44 40 45
REMARK SMILES IDX 41 46 91 47 42 48 96 49 90 50 92 51 43 52 95 53 89 54 88 55
REMARK SMILES IDX 44 57 76 58 56 59 75 60 57 61 60 62 74 63 93 64 58 65 59 66
REMARK SMILES IDX 73 68 94 69 61 70 45 71 46 72 54 73 47 74 48 75 52 76 55 77
REMARK SMILES IDX 49 78 50 79 53 80 51 81 77 82 78 83 86 84 79 85 80 86 84 87
REMARK SMILES IDX 87 88 81 89 82 90 85 91 83 92 62 93 63 94 71 95 64 96 65 97
REMARK SMILES IDX 69 98 72 99 66 100 67 101 70 102 68 103
REMARK H PARENT 26 6 17 16 33 37 92 56 60 67
REMARK Flexibility Score: inf
ROOT
ATOM      1  C   UNL A   1      37.111  23.227  24.970  1.00  0.00     0.021 C 
ENDROOT
BRANCH   1   2
ATOM      2  C   UNL A   1      35.602  23.078  24.791  1.00  0.00     0.116 C 
BRANCH   2   3
ATOM      3  N   UNL A   1      34.836  22.675  25.942  1.00  0.00    -0.352 N 
ATOM      4  C   UNL A   1      34.090  21.529  26.144  1.00  0.00     0.253 C 
ATOM      5  O   UNL A   1      33.636  21.343  27.276  1.00  0.00    -0.269 OA
ATOM      6  H   UNL A   1      34.845  23.309  26.695  1.00  0.00     0.163 HD
BRANCH   4   7
ATOM      7  C   UNL A   1      33.649  20.624  25.037  1.00  0.00     0.063 A 
ATOM      8  C   UNL A   1      32.675  20.848  24.051  1.00  0.00     0.054 A 
ATOM      9  C   UNL A   1      32.215  19.756  23.285  1.00  0.00     0.027 A 
ATOM     10  C   UNL A   1      32.789  18.489  23.389  1.00  0.00     0.002 A 
ATOM     11  C   UNL A   1      34.239  19.338  25.106  1.00  0.00     0.016 A 
ATOM     12  C   UNL A   1      33.827  18.287  24.284  1.00  0.00     0.001 A 
BRANCH   8  13
ATOM     13  N   UNL A   1      32.044  22.065  23.725  1.00  0.00    -0.324 N 
ATOM     14  O   UNL A   1      33.437  22.960  22.109  1.00  0.00    -0.273 OA
ATOM     15  C   UNL A   1      32.496  23.066  22.887  1.00  0.00     0.244 C 
ATOM     16  H   UNL A   1      31.168  22.222  24.149  1.00  0.00     0.170 HD
BRANCH  15  17
ATOM     17  C   UNL A   1      31.766  24.412  23.113  1.00  0.00     0.227 C 
BRANCH  17  18
ATOM     18  N   UNL A   1      32.447  25.677  22.864  1.00  0.00    -0.283 N 
ATOM     19  C   UNL A   1      33.195  26.220  23.881  1.00  0.00     0.266 C 
ATOM     20  C   UNL A   1      32.771  26.158  21.609  1.00  0.00     0.148 C 
ATOM     21  O   UNL A   1      33.476  25.656  24.930  1.00  0.00    -0.268 OA
ATOM     22  C   UNL A   1      33.741  27.527  23.465  1.00  0.00     0.081 C 
ATOM     23  S   UNL A   1      33.885  27.531  21.754  1.00  0.00    -0.054 SA
ATOM     24  S   UNL A   1      32.308  25.569  20.120  1.00  0.00    -0.052 S 
ATOM     25  C   UNL A   1      33.843  28.607  24.250  1.00  0.00     0.040 C 
BRANCH  25  26
ATOM     26  C   UNL A   1      33.224  28.613  25.532  1.00  0.00     0.028 A 
ATOM     27  C   UNL A   1      33.760  28.490  26.801  1.00  0.00     0.020 A 
ATOM     28  S   UNL A   1      31.503  28.685  25.600  1.00  0.00    -0.144 S 
ATOM     29  C   UNL A   1      32.756  28.378  27.810  1.00  0.00     0.012 A 
ATOM     30  C   UNL A   1      31.486  28.439  27.286  1.00  0.00     0.065 A 
ENDBRANCH  25  26
ENDBRANCH  17  18
ENDBRANCH  15  17
ENDBRANCH   8  13
ENDBRANCH   4   7
ENDBRANCH   2   3
ENDBRANCH   1   2
BRANCH   1  31
ATOM     31  C   UNL A   1      37.905  21.975  25.375  1.00  0.00     0.002 C 
BRANCH  31  32
ATOM     32  C   UNL A   1      37.605  20.649  24.660  1.00  0.00     0.002 C 
BRANCH  32  33
ATOM     33  C   UNL A   1      38.506  19.456  24.976  1.00  0.00     0.021 C 
BRANCH  33  34
ATOM     34  C   UNL A   1      39.480  19.584  26.138  1.00  0.00     0.116 C 
BRANCH  34  35
ATOM     35  N   UNL A   1      40.736  18.899  25.915  1.00  0.00    -0.352 N 
ATOM     36  C   UNL A   1      42.034  19.353  25.904  1.00  0.00     0.251 C 
ATOM     37  H   UNL A   1      40.644  17.935  25.737  1.00  0.00     0.163 HD
ATOM     38  O   UNL A   1      42.924  18.575  25.566  1.00  0.00    -0.269 OA
BRANCH  36  39
ATOM     39  C   UNL A   1      42.405  20.749  26.270  1.00  0.00     0.039 A 
ATOM     40  C   UNL A   1      42.367  21.106  27.625  1.00  0.00     0.014 A 
ATOM     41  C   UNL A   1      42.700  21.734  25.324  1.00  0.00     0.014 A 
ATOM     42  C   UNL A   1      42.657  22.417  28.028  1.00  0.00     0.010 A 
ATOM     43  C   UNL A   1      43.069  23.021  25.732  1.00  0.00     0.010 A 
ATOM     44  C   UNL A   1      43.035  23.385  27.086  1.00  0.00    -0.014 A 
BRANCH  44  45
ATOM     45  C   UNL A   1      43.353  24.783  27.494  1.00  0.00     0.031 A 
ATOM     46  C   UNL A   1      44.785  25.240  27.594  1.00  0.00     0.074 A 
ATOM     47  C   UNL A   1      42.364  25.639  27.817  1.00  0.00     0.049 A 
ATOM     48  N   UNL A   1      45.268  26.386  28.010  1.00  0.00    -0.248 NA
ATOM     49  C   UNL A   1      45.816  24.268  27.197  1.00  0.00     0.031 C 
ATOM     50  C   UNL A   1      40.934  25.331  27.783  1.00  0.00     0.029 A 
ATOM     51  N   UNL A   1      42.412  26.945  28.244  1.00  0.00    -0.354 N 
ATOM     52  C   UNL A   1      46.650  26.264  27.943  1.00  0.00     0.074 A 
ATOM     53  C   UNL A   1      46.932  24.916  27.496  1.00  0.00     0.031 C 
ATOM     54  C   UNL A   1      40.241  26.423  28.147  1.00  0.00     0.029 A 
ATOM     55  C   UNL A   1      41.176  27.494  28.482  1.00  0.00     0.049 A 
ATOM     56  H   UNL A   1      43.254  27.439  28.368  1.00  0.00     0.167 HD
ATOM     57  C   UNL A   1      47.602  27.194  28.207  1.00  0.00     0.037 A 
ATOM     58  C   UNL A   1      40.831  28.718  28.928  1.00  0.00     0.037 A 
ATOM     59  C   UNL A   1      47.328  28.545  28.622  1.00  0.00     0.049 A 
ATOM     60  C   UNL A   1      41.905  29.727  29.239  1.00  0.00     0.074 A 
ATOM     61  C   UNL A   1      48.225  29.572  28.866  1.00  0.00     0.029 A 
ATOM     62  N   UNL A   1      46.061  29.060  28.853  1.00  0.00    -0.354 N 
ATOM     63  N   UNL A   1      43.206  29.611  29.134  1.00  0.00    -0.248 NA
ATOM     64  C   UNL A   1      41.460  31.038  29.734  1.00  0.00     0.031 C 
ATOM     65  C   UNL A   1      47.503  30.694  29.288  1.00  0.00     0.029 A 
ATOM     66  C   UNL A   1      46.154  30.381  29.259  1.00  0.00     0.049 A 
ATOM     67  H   UNL A   1      45.221  28.559  28.744  1.00  0.00     0.167 HD
ATOM     68  C   UNL A   1      43.733  30.839  29.514  1.00  0.00     0.074 A 
ATOM     69  C   UNL A   1      42.609  31.689  29.849  1.00  0.00     0.031 C 
ATOM     70  C   UNL A   1      45.030  31.225  29.579  1.00  0.00     0.037 A 
BRANCH  57  71
ATOM     71  C   UNL A   1      49.037  26.775  28.058  1.00  0.00     0.064 A 
ATOM     72  C   UNL A   1      49.665  26.723  26.803  1.00  0.00     0.173 A 
ATOM     73  C   UNL A   1      49.803  26.444  29.187  1.00  0.00     0.173 A 
ATOM     74  F   UNL A   1      48.976  27.022  25.692  1.00  0.00    -0.203 F 
ATOM     75  C   UNL A   1      50.992  26.319  26.681  1.00  0.00     0.198 A 
ATOM     76  C   UNL A   1      51.139  26.070  29.063  1.00  0.00     0.198 A 
ATOM     77  F   UNL A   1      49.257  26.485  30.411  1.00  0.00    -0.203 F 
ATOM     78  F   UNL A   1      51.551  26.219  25.467  1.00  0.00    -0.200 F 
ATOM     79  C   UNL A   1      51.729  25.997  27.811  1.00  0.00     0.200 A 
ATOM     80  F   UNL A   1      51.855  25.774  30.158  1.00  0.00    -0.200 F 
ATOM     81  F   UNL A   1      53.006  25.608  27.691  1.00  0.00    -0.200 F 
ENDBRANCH  57  71
BRANCH  58  82
ATOM     82  C   UNL A   1      39.396  29.070  29.084  1.00  0.00     0.064 A 
ATOM     83  C   UNL A   1      38.772  28.992  30.337  1.00  0.00     0.173 A 
ATOM     84  C   UNL A   1      38.623  29.494  27.994  1.00  0.00     0.173 A 
ATOM     85  F   UNL A   1      39.464  28.567  31.404  1.00  0.00    -0.203 F 
ATOM     86  C   UNL A   1      37.424  29.309  30.490  1.00  0.00     0.198 A 
ATOM     87  C   UNL A   1      37.282  29.838  28.153  1.00  0.00     0.198 A 
ATOM     88  F   UNL A   1      39.174  29.585  26.774  1.00  0.00    -0.203 F 
ATOM     89  F   UNL A   1      36.840  29.184  31.690  1.00  0.00    -0.200 F 
ATOM     90  C   UNL A   1      36.682  29.739  29.400  1.00  0.00     0.200 A 
ATOM     91  F   UNL A   1      36.572  30.262  27.099  1.00  0.00    -0.200 F 
ATOM     92  F   UNL A   1      35.387  30.049  29.548  1.00  0.00    -0.200 F 
ENDBRANCH  58  82
BRANCH  70  93
ATOM     93  C   UNL A   1      45.314  32.642  29.988  1.00  0.00     0.064 A 
ATOM     94  C   UNL A   1      45.567  32.987  31.324  1.00  0.00     0.173 A 
ATOM     95  C   UNL A   1      45.382  33.659  29.023  1.00  0.00     0.173 A 
ATOM     96  F   UNL A   1      45.499  32.055  32.287  1.00  0.00    -0.203 F 
ATOM     97  C   UNL A   1      45.857  34.302  31.680  1.00  0.00     0.198 A 
ATOM     98  C   UNL A   1      45.700  34.966  29.379  1.00  0.00     0.198 A 
ATOM     99  F   UNL A   1      45.153  33.380  27.730  1.00  0.00    -0.203 F 
ATOM    100  F   UNL A   1      46.056  34.617  32.968  1.00  0.00    -0.200 F 
ATOM    101  C   UNL A   1      45.932  35.288  30.707  1.00  0.00     0.200 A 
ATOM    102  F   UNL A   1      45.785  35.915  28.436  1.00  0.00    -0.200 F 
ATOM    103  F   UNL A   1      46.222  36.550  31.052  1.00  0.00    -0.200 F 
ENDBRANCH  70  93
ENDBRANCH  44  45
ENDBRANCH  36  39
ENDBRANCH  34  35
ENDBRANCH  33  34
ENDBRANCH  32  33
ENDBRANCH  31  32
ENDBRANCH   1  31
TORSDOF 17
ENDMDL
MODEL 2
REMARK VINA RESULT:     -11.4      1.504      2.716
REMARK SMILES O=C(CN1C(=O)/C(=C\c2cccs2)SC1=S)Nc1ccccc1C(=O)NCCCCCCNC(=O)c1ccc(-c2c3nc(c(-c4c(F)c(F)c(F)c(F)c4F)c4ccc([nH]4)c(-c4c(F)c(F)c(F)c(F)c4F)c4nc(c(-c5c(F)c(F)c(F)c(F)c5F)c5ccc2[nH]5)C=C4)C=C3)cc1
REMARK SMILES IDX 28 1 27 2 26 3 24 4 25 5 23 7 18 8 19 9 20 10 22 11 21 12
REMARK SMILES IDX 17 13 1 14 2 15 3 17 4 18 5 19 15 20 6 21 7 22 14 23 16 24
REMARK SMILES IDX 8 25 9 26 10 27 13 28 11 29 12 30 29 31 30 32 31 33 32 34
REMARK SMILES IDX 33 35 34 36 35 38 36 39 37 40 98 41 38 42 97 43 39 44 40 45
REMARK SMILES IDX 41 46 91 47 42 48 96 49 90 50 92 51 43 52 95 53 89 54 88 55
REMARK SMILES IDX 44 57 76 58 56 59 75 60 57 61 60 62 74 63 93 64 58 65 59 66
REMARK SMILES IDX 73 68 94 69 61 70 45 71 46 72 54 73 47 74 48 75 52 76 55 77
REMARK SMILES IDX 49 78 50 79 53 80 51 81 77 82 78 83 86 84 79 85 80 86 84 87
REMARK SMILES IDX 87 88 81 89 82 90 85 91 83 92 62 93 63 94 71 95 64 96 65 97
REMARK SMILES IDX 69 98 72 99 66 100 67 101 70 102 68 103
REMARK H PARENT 26 6 17 16 33 37 92 56 60 67
REMARK Flexibility Score: inf
ROOT
ATOM      1  C   UNL A   1      37.037  23.293  24.851  1.00  0.00     0.021 C 
ENDROOT
BRANCH   1   2
ATOM      2  C   UNL A   1      36.035  23.988  25.768  1.00  0.00     0.116 C 
BRANCH   2   3
ATOM      3  N   UNL A   1      35.494  23.221  26.859  1.00  0.00    -0.352 N 
ATOM      4  C   UNL A   1      34.607  22.161  26.834  1.00  0.00     0.253 C 
ATOM      5  O   UNL A   1      34.401  21.571  27.898  1.00  0.00    -0.269 OA
ATOM      6  H   UNL A   1      35.800  23.491  27.755  1.00  0.00     0.163 HD
BRANCH   4   7
ATOM      7  C   UNL A   1      33.754  21.825  25.651  1.00  0.00     0.063 A 
ATOM      8  C   UNL A   1      32.622  22.496  25.162  1.00  0.00     0.054 A 
ATOM      9  C   UNL A   1      31.802  21.850  24.212  1.00  0.00     0.027 A 
ATOM     10  C   UNL A   1      32.152  20.621  23.652  1.00  0.00     0.002 A 
ATOM     11  C   UNL A   1      34.106  20.592  25.048  1.00  0.00     0.016 A 
ATOM     12  C   UNL A   1      33.325  20.003  24.051  1.00  0.00     0.001 A 
BRANCH   8  13
ATOM     13  N   UNL A   1      32.155  23.775  25.526  1.00  0.00    -0.324 N 
ATOM     14  O   UNL A   1      30.682  23.322  27.251  1.00  0.00    -0.273 OA
ATOM     15  C   UNL A   1      31.170  24.099  26.437  1.00  0.00     0.244 C 
ATOM     16  H   UNL A   1      32.587  24.535  25.071  1.00  0.00     0.170 HD
BRANCH  15  17
ATOM     17  C   UNL A   1      30.633  25.539  26.253  1.00  0.00     0.227 C 
BRANCH  17  18
ATOM     18  N   UNL A   1      31.407  26.532  25.518  1.00  0.00    -0.283 N 
ATOM     19  C   UNL A   1      31.352  26.509  24.145  1.00  0.00     0.266 C 
ATOM     20  C   UNL A   1      31.833  27.738  26.043  1.00  0.00     0.148 C 
ATOM     21  O   UNL A   1      30.581  25.830  23.480  1.00  0.00    -0.268 OA
ATOM     22  C   UNL A   1      32.253  27.535  23.585  1.00  0.00     0.081 C 
ATOM     23  S   UNL A   1      32.427  28.790  24.744  1.00  0.00    -0.054 SA
ATOM     24  S   UNL A   1      31.773  28.261  27.625  1.00  0.00    -0.052 S 
ATOM     25  C   UNL A   1      33.014  27.383  22.493  1.00  0.00     0.040 C 
BRANCH  25  26
ATOM     26  C   UNL A   1      33.146  26.099  21.895  1.00  0.00     0.028 A 
ATOM     27  C   UNL A   1      32.614  25.578  20.730  1.00  0.00     0.020 A 
ATOM     28  S   UNL A   1      34.028  24.892  22.756  1.00  0.00    -0.144 S 
ATOM     29  C   UNL A   1      32.867  24.180  20.589  1.00  0.00     0.012 A 
ATOM     30  C   UNL A   1      33.601  23.678  21.638  1.00  0.00     0.065 A 
ENDBRANCH  25  26
ENDBRANCH  17  18
ENDBRANCH  15  17
ENDBRANCH   8  13
ENDBRANCH   4   7
ENDBRANCH   2   3
ENDBRANCH   1   2
BRANCH   1  31
ATOM     31  C   UNL A   1      37.741  22.039  25.390  1.00  0.00     0.002 C 
BRANCH  31  32
ATOM     32  C   UNL A   1      37.554  20.709  24.645  1.00  0.00     0.002 C 
BRANCH  32  33
ATOM     33  C   UNL A   1      38.518  19.571  24.976  1.00  0.00     0.021 C 
BRANCH  33  34
ATOM     34  C   UNL A   1      39.380  19.704  26.222  1.00  0.00     0.116 C 
BRANCH  34  35
ATOM     35  N   UNL A   1      40.642  18.999  26.127  1.00  0.00    -0.352 N 
ATOM     36  C   UNL A   1      41.941  19.452  26.111  1.00  0.00     0.251 C 
ATOM     37  H   UNL A   1      40.555  18.021  26.060  1.00  0.00     0.163 HD
ATOM     38  O   UNL A   1      42.841  18.641  25.899  1.00  0.00    -0.269 OA
BRANCH  36  39
ATOM     39  C   UNL A   1      42.302  20.882  26.324  1.00  0.00     0.039 A 
ATOM     40  C   UNL A   1      42.589  21.300  27.632  1.00  0.00     0.014 A 
ATOM     41  C   UNL A   1      42.279  21.836  25.305  1.00  0.00     0.014 A 
ATOM     42  C   UNL A   1      42.887  22.642  27.905  1.00  0.00     0.010 A 
ATOM     43  C   UNL A   1      42.655  23.159  25.562  1.00  0.00     0.010 A 
ATOM     44  C   UNL A   1      42.946  23.584  26.867  1.00  0.00    -0.014 A 
BRANCH  44  45
ATOM     45  C   UNL A   1      43.266  25.015  27.135  1.00  0.00     0.031 A 
ATOM     46  C   UNL A   1      44.623  25.570  26.786  1.00  0.00     0.074 A 
ATOM     47  C   UNL A   1      42.360  25.815  27.730  1.00  0.00     0.049 A 
ATOM     48  N   UNL A   1      45.121  26.761  27.016  1.00  0.00    -0.248 NA
ATOM     49  C   UNL A   1      45.555  24.654  26.111  1.00  0.00     0.031 C 
ATOM     50  C   UNL A   1      41.014  25.411  28.138  1.00  0.00     0.029 A 
ATOM     51  N   UNL A   1      42.436  27.137  28.099  1.00  0.00    -0.354 N 
ATOM     52  C   UNL A   1      46.424  26.729  26.534  1.00  0.00     0.074 A 
ATOM     53  C   UNL A   1      46.657  25.386  26.045  1.00  0.00     0.031 C 
ATOM     54  C   UNL A   1      40.383  26.468  28.677  1.00  0.00     0.029 A 
ATOM     55  C   UNL A   1      41.292  27.611  28.693  1.00  0.00     0.049 A 
ATOM     56  H   UNL A   1      43.236  27.691  27.953  1.00  0.00     0.167 HD
ATOM     57  C   UNL A   1      47.337  27.730  26.479  1.00  0.00     0.037 A 
ATOM     58  C   UNL A   1      41.007  28.826  29.202  1.00  0.00     0.037 A 
ATOM     59  C   UNL A   1      47.101  29.075  26.935  1.00  0.00     0.049 A 
ATOM     60  C   UNL A   1      42.046  29.915  29.154  1.00  0.00     0.074 A 
ATOM     61  C   UNL A   1      47.949  30.168  26.877  1.00  0.00     0.029 A 
ATOM     62  N   UNL A   1      45.927  29.512  27.532  1.00  0.00    -0.354 N 
ATOM     63  N   UNL A   1      43.259  29.882  28.659  1.00  0.00    -0.248 NA
ATOM     64  C   UNL A   1      41.673  31.213  29.738  1.00  0.00     0.031 C 
ATOM     65  C   UNL A   1      47.307  31.255  27.480  1.00  0.00     0.029 A 
ATOM     66  C   UNL A   1      46.039  30.852  27.868  1.00  0.00     0.049 A 
ATOM     67  H   UNL A   1      45.134  28.953  27.693  1.00  0.00     0.167 HD
ATOM     68  C   UNL A   1      43.781  31.157  28.841  1.00  0.00     0.074 A 
ATOM     69  C   UNL A   1      42.751  31.943  29.487  1.00  0.00     0.031 C 
ATOM     70  C   UNL A   1      45.005  31.631  28.500  1.00  0.00     0.037 A 
BRANCH  57  71
ATOM     71  C   UNL A   1      48.688  27.402  25.907  1.00  0.00     0.064 A 
ATOM     72  C   UNL A   1      48.937  27.453  24.527  1.00  0.00     0.173 A 
ATOM     73  C   UNL A   1      49.754  27.056  26.752  1.00  0.00     0.173 A 
ATOM     74  F   UNL A   1      47.951  27.771  23.675  1.00  0.00    -0.203 F 
ATOM     75  C   UNL A   1      50.191  27.132  24.012  1.00  0.00     0.198 A 
ATOM     76  C   UNL A   1      51.014  26.766  26.236  1.00  0.00     0.198 A 
ATOM     77  F   UNL A   1      49.574  27.000  28.080  1.00  0.00    -0.203 F 
ATOM     78  F   UNL A   1      50.388  27.130  22.686  1.00  0.00    -0.200 F 
ATOM     79  C   UNL A   1      51.229  26.793  24.867  1.00  0.00     0.200 A 
ATOM     80  F   UNL A   1      52.021  26.453  27.064  1.00  0.00    -0.200 F 
ATOM     81  F   UNL A   1      52.434  26.485  24.369  1.00  0.00    -0.200 F 
ENDBRANCH  57  71
BRANCH  58  82
ATOM     82  C   UNL A   1      39.664  29.088  29.782  1.00  0.00     0.064 A 
ATOM     83  C   UNL A   1      38.611  29.539  28.974  1.00  0.00     0.173 A 
ATOM     84  C   UNL A   1      39.404  28.891  31.145  1.00  0.00     0.173 A 
ATOM     85  F   UNL A   1      38.819  29.766  27.669  1.00  0.00    -0.203 F 
ATOM     86  C   UNL A   1      37.352  29.797  29.512  1.00  0.00     0.198 A 
ATOM     87  C   UNL A   1      38.137  29.123  31.677  1.00  0.00     0.198 A 
ATOM     88  F   UNL A   1      40.379  28.461  31.960  1.00  0.00    -0.203 F 
ATOM     89  F   UNL A   1      36.374  30.268  28.726  1.00  0.00    -0.200 F 
ATOM     90  C   UNL A   1      37.114  29.582  30.861  1.00  0.00     0.200 A 
ATOM     91  F   UNL A   1      37.910  28.905  32.979  1.00  0.00    -0.200 F 
ATOM     92  F   UNL A   1      35.902  29.826  31.377  1.00  0.00    -0.200 F 
ENDBRANCH  58  82
BRANCH  70  93
ATOM     93  C   UNL A   1      45.291  33.079  28.780  1.00  0.00     0.064 A 
ATOM     94  C   UNL A   1      45.947  33.488  29.950  1.00  0.00     0.173 A 
ATOM     95  C   UNL A   1      44.948  34.063  27.840  1.00  0.00     0.173 A 
ATOM     96  F   UNL A   1      46.282  32.588  30.887  1.00  0.00    -0.203 F 
ATOM     97  C   UNL A   1      46.230  34.833  30.178  1.00  0.00     0.198 A 
ATOM     98  C   UNL A   1      45.259  35.403  28.059  1.00  0.00     0.198 A 
ATOM     99  F   UNL A   1      44.324  33.723  26.702  1.00  0.00    -0.203 F 
ATOM    100  F   UNL A   1      46.821  35.206  31.321  1.00  0.00    -0.200 F 
ATOM    101  C   UNL A   1      45.894  35.787  29.229  1.00  0.00     0.200 A 
ATOM    102  F   UNL A   1      44.945  36.322  27.135  1.00  0.00    -0.200 F 
ATOM    103  F   UNL A   1      46.178  37.079  29.446  1.00  0.00    -0.200 F 
ENDBRANCH  70  93
ENDBRANCH  44  45
ENDBRANCH  36  39
ENDBRANCH  34  35
ENDBRANCH  33  34
ENDBRANCH  32  33
ENDBRANCH  31  32
ENDBRANCH   1  31
TORSDOF 17
ENDMDL
MODEL 3
REMARK VINA RESULT:     -11.1      1.692      7.136
REMARK SMILES O=C(CN1C(=O)/C(=C\c2cccs2)SC1=S)Nc1ccccc1C(=O)NCCCCCCNC(=O)c1ccc(-c2c3nc(c(-c4c(F)c(F)c(F)c(F)c4F)c4ccc([nH]4)c(-c4c(F)c(F)c(F)c(F)c4F)c4nc(c(-c5c(F)c(F)c(F)c(F)c5F)c5ccc2[nH]5)C=C4)C=C3)cc1
REMARK SMILES IDX 28 1 27 2 26 3 24 4 25 5 23 7 18 8 19 9 20 10 22 11 21 12
REMARK SMILES IDX 17 13 1 14 2 15 3 17 4 18 5 19 15 20 6 21 7 22 14 23 16 24
REMARK SMILES IDX 8 25 9 26 10 27 13 28 11 29 12 30 29 31 30 32 31 33 32 34
REMARK SMILES IDX 33 35 34 36 35 38 36 39 37 40 98 41 38 42 97 43 39 44 40 45
REMARK SMILES IDX 41 46 91 47 42 48 96 49 90 50 92 51 43 52 95 53 89 54 88 55
REMARK SMILES IDX 44 57 76 58 56 59 75 60 57 61 60 62 74 63 93 64 58 65 59 66
REMARK SMILES IDX 73 68 94 69 61 70 45 71 46 72 54 73 47 74 48 75 52 76 55 77
REMARK SMILES IDX 49 78 50 79 53 80 51 81 77 82 78 83 86 84 79 85 80 86 84 87
REMARK SMILES IDX 87 88 81 89 82 90 85 91 83 92 62 93 63 94 71 95 64 96 65 97
REMARK SMILES IDX 69 98 72 99 66 100 67 101 70 102 68 103
REMARK H PARENT 26 6 17 16 33 37 92 56 60 67
REMARK Flexibility Score: inf
ROOT
ATOM      1  C   UNL A   1      36.605  23.477  25.419  1.00  0.00     0.021 C 
ENDROOT
BRANCH   1   2
ATOM      2  C   UNL A   1      35.149  23.929  25.343  1.00  0.00     0.116 C 
BRANCH   2   3
ATOM      3  N   UNL A   1      34.278  23.538  26.420  1.00  0.00    -0.352 N 
ATOM      4  C   UNL A   1      33.565  22.366  26.594  1.00  0.00     0.253 C 
ATOM      5  O   UNL A   1      32.996  22.206  27.677  1.00  0.00    -0.269 OA
ATOM      6  H   UNL A   1      34.175  24.203  27.139  1.00  0.00     0.163 HD
BRANCH   4   7
ATOM      7  C   UNL A   1      33.291  21.395  25.489  1.00  0.00     0.063 A 
ATOM      8  C   UNL A   1      32.529  21.577  24.324  1.00  0.00     0.054 A 
ATOM      9  C   UNL A   1      32.163  20.446  23.563  1.00  0.00     0.027 A 
ATOM     10  C   UNL A   1      32.642  19.171  23.862  1.00  0.00     0.002 A 
ATOM     11  C   UNL A   1      33.790  20.096  25.758  1.00  0.00     0.016 A 
ATOM     12  C   UNL A   1      33.484  19.000  24.949  1.00  0.00     0.001 A 
BRANCH   8  13
ATOM     13  N   UNL A   1      32.033  22.788  23.800  1.00  0.00    -0.324 N 
ATOM     14  O   UNL A   1      30.655  23.563  25.489  1.00  0.00    -0.273 OA
ATOM     15  C   UNL A   1      31.078  23.626  24.341  1.00  0.00     0.244 C 
ATOM     16  H   UNL A   1      32.417  23.072  22.939  1.00  0.00     0.170 HD
BRANCH  15  17
ATOM     17  C   UNL A   1      30.482  24.605  23.300  1.00  0.00     0.227 C 
BRANCH  17  18
ATOM     18  N   UNL A   1      31.194  25.824  22.933  1.00  0.00    -0.283 N 
ATOM     19  C   UNL A   1      30.877  26.984  23.599  1.00  0.00     0.266 C 
ATOM     20  C   UNL A   1      32.428  25.853  22.311  1.00  0.00     0.148 C 
ATOM     21  O   UNL A   1      30.162  27.057  24.590  1.00  0.00    -0.268 OA
ATOM     22  C   UNL A   1      31.644  28.114  23.040  1.00  0.00     0.081 C 
ATOM     23  S   UNL A   1      33.094  27.496  22.359  1.00  0.00    -0.054 SA
ATOM     24  S   UNL A   1      33.289  24.586  21.652  1.00  0.00    -0.052 S 
ATOM     25  C   UNL A   1      31.170  29.352  22.852  1.00  0.00     0.040 C 
BRANCH  25  26
ATOM     26  C   UNL A   1      29.779  29.610  23.008  1.00  0.00     0.028 A 
ATOM     27  C   UNL A   1      28.670  28.942  22.521  1.00  0.00     0.020 A 
ATOM     28  S   UNL A   1      29.311  31.035  23.857  1.00  0.00    -0.144 S 
ATOM     29  C   UNL A   1      27.453  29.643  22.780  1.00  0.00     0.012 A 
ATOM     30  C   UNL A   1      27.665  30.811  23.473  1.00  0.00     0.065 A 
ENDBRANCH  25  26
ENDBRANCH  17  18
ENDBRANCH  15  17
ENDBRANCH   8  13
ENDBRANCH   4   7
ENDBRANCH   2   3
ENDBRANCH   1   2
BRANCH   1  31
ATOM     31  C   UNL A   1      36.873  21.989  25.691  1.00  0.00     0.002 C 
BRANCH  31  32
ATOM     32  C   UNL A   1      37.207  21.072  24.505  1.00  0.00     0.002 C 
BRANCH  32  33
ATOM     33  C   UNL A   1      38.104  19.864  24.775  1.00  0.00     0.021 C 
BRANCH  33  34
ATOM     34  C   UNL A   1      38.938  19.864  26.047  1.00  0.00     0.116 C 
BRANCH  34  35
ATOM     35  N   UNL A   1      40.140  19.062  25.947  1.00  0.00    -0.352 N 
ATOM     36  C   UNL A   1      41.470  19.393  26.054  1.00  0.00     0.251 C 
ATOM     37  H   UNL A   1      39.974  18.108  25.770  1.00  0.00     0.163 HD
ATOM     38  O   UNL A   1      42.311  18.530  25.807  1.00  0.00    -0.269 OA
BRANCH  36  39
ATOM     39  C   UNL A   1      41.936  20.755  26.442  1.00  0.00     0.039 A 
ATOM     40  C   UNL A   1      42.002  21.737  25.442  1.00  0.00     0.014 A 
ATOM     41  C   UNL A   1      42.390  21.070  27.724  1.00  0.00     0.014 A 
ATOM     42  C   UNL A   1      42.479  23.022  25.733  1.00  0.00     0.010 A 
ATOM     43  C   UNL A   1      42.789  22.375  28.034  1.00  0.00     0.010 A 
ATOM     44  C   UNL A   1      42.856  23.363  27.040  1.00  0.00    -0.014 A 
BRANCH  44  45
ATOM     45  C   UNL A   1      43.361  24.726  27.372  1.00  0.00     0.031 A 
ATOM     46  C   UNL A   1      42.437  25.755  27.969  1.00  0.00     0.074 A 
ATOM     47  C   UNL A   1      44.638  25.063  27.102  1.00  0.00     0.049 A 
ATOM     48  N   UNL A   1      42.664  27.016  28.249  1.00  0.00    -0.248 NA
ATOM     49  C   UNL A   1      41.066  25.315  28.269  1.00  0.00     0.031 C 
ATOM     50  C   UNL A   1      45.639  24.177  26.510  1.00  0.00     0.029 A 
ATOM     51  N   UNL A   1      45.310  26.248  27.287  1.00  0.00    -0.354 N 
ATOM     52  C   UNL A   1      41.463  27.520  28.736  1.00  0.00     0.074 A 
ATOM     53  C   UNL A   1      40.498  26.444  28.666  1.00  0.00     0.031 C 
ATOM     54  C   UNL A   1      46.803  24.839  26.404  1.00  0.00     0.029 A 
ATOM     55  C   UNL A   1      46.621  26.208  26.879  1.00  0.00     0.049 A 
ATOM     56  H   UNL A   1      44.891  27.050  27.674  1.00  0.00     0.167 HD
ATOM     57  C   UNL A   1      41.191  28.757  29.220  1.00  0.00     0.037 A 
ATOM     58  C   UNL A   1      47.569  27.166  26.879  1.00  0.00     0.037 A 
ATOM     59  C   UNL A   1      42.155  29.822  29.321  1.00  0.00     0.049 A 
ATOM     60  C   UNL A   1      47.238  28.541  27.396  1.00  0.00     0.074 A 
ATOM     61  C   UNL A   1      41.985  31.094  29.842  1.00  0.00     0.029 A 
ATOM     62  N   UNL A   1      43.473  29.740  28.895  1.00  0.00    -0.354 N 
ATOM     63  N   UNL A   1      46.111  28.991  27.890  1.00  0.00    -0.248 NA
ATOM     64  C   UNL A   1      48.315  29.542  27.355  1.00  0.00     0.031 C 
ATOM     65  C   UNL A   1      43.185  31.796  29.689  1.00  0.00     0.029 A 
ATOM     66  C   UNL A   1      44.119  30.945  29.119  1.00  0.00     0.049 A 
ATOM     67  H   UNL A   1      43.886  28.943  28.492  1.00  0.00     0.167 HD
ATOM     68  C   UNL A   1      46.349  30.312  28.248  1.00  0.00     0.074 A 
ATOM     69  C   UNL A   1      47.732  30.590  27.920  1.00  0.00     0.031 C 
ATOM     70  C   UNL A   1      45.498  31.211  28.800  1.00  0.00     0.037 A 
BRANCH  57  71
ATOM     71  C   UNL A   1      39.785  29.028  29.675  1.00  0.00     0.064 A 
ATOM     72  C   UNL A   1      38.801  29.500  28.792  1.00  0.00     0.173 A 
ATOM     73  C   UNL A   1      39.409  28.791  31.007  1.00  0.00     0.173 A 
ATOM     74  F   UNL A   1      39.110  29.751  27.511  1.00  0.00    -0.203 F 
ATOM     75  C   UNL A   1      37.507  29.761  29.233  1.00  0.00     0.198 A 
ATOM     76  C   UNL A   1      38.105  29.023  31.436  1.00  0.00     0.198 A 
ATOM     77  F   UNL A   1      40.307  28.331  31.891  1.00  0.00    -0.203 F 
ATOM     78  F   UNL A   1      36.601  30.268  28.385  1.00  0.00    -0.200 F 
ATOM     79  C   UNL A   1      37.158  29.518  30.553  1.00  0.00     0.200 A 
ATOM     80  F   UNL A   1      37.766  28.773  32.710  1.00  0.00    -0.200 F 
ATOM     81  F   UNL A   1      35.912  29.769  30.976  1.00  0.00    -0.200 F 
ENDBRANCH  57  71
BRANCH  58  82
ATOM     82  C   UNL A   1      48.937  26.851  26.391  1.00  0.00     0.064 A 
ATOM     83  C   UNL A   1      49.283  27.054  25.048  1.00  0.00     0.173 A 
ATOM     84  C   UNL A   1      49.923  26.348  27.251  1.00  0.00     0.173 A 
ATOM     85  F   UNL A   1      48.366  27.509  24.182  1.00  0.00    -0.203 F 
ATOM     86  C   UNL A   1      50.560  26.751  24.580  1.00  0.00     0.198 A 
ATOM     87  C   UNL A   1      51.208  26.071  26.789  1.00  0.00     0.198 A 
ATOM     88  F   UNL A   1      49.642  26.135  28.546  1.00  0.00    -0.203 F 
ATOM     89  F   UNL A   1      50.852  26.914  23.283  1.00  0.00    -0.200 F 
ATOM     90  C   UNL A   1      51.523  26.267  25.452  1.00  0.00     0.200 A 
ATOM     91  F   UNL A   1      52.138  25.613  27.637  1.00  0.00    -0.200 F 
ATOM     92  F   UNL A   1      52.753  25.980  25.003  1.00  0.00    -0.200 F 
ENDBRANCH  58  82
BRANCH  70  93
ATOM     93  C   UNL A   1      46.042  32.572  29.127  1.00  0.00     0.064 A 
ATOM     94  C   UNL A   1      46.670  32.841  30.353  1.00  0.00     0.173 A 
ATOM     95  C   UNL A   1      45.979  33.607  28.181  1.00  0.00     0.173 A 
ATOM     96  F   UNL A   1      46.742  31.891  31.297  1.00  0.00    -0.203 F 
ATOM     97  C   UNL A   1      47.194  34.102  30.626  1.00  0.00     0.198 A 
ATOM     98  C   UNL A   1      46.530  34.857  28.447  1.00  0.00     0.198 A 
ATOM     99  F   UNL A   1      45.395  33.399  26.991  1.00  0.00    -0.203 F 
ATOM    100  F   UNL A   1      47.753  34.348  31.819  1.00  0.00    -0.200 F 
ATOM    101  C   UNL A   1      47.132  35.106  29.670  1.00  0.00     0.200 A 
ATOM    102  F   UNL A   1      46.481  35.821  27.517  1.00  0.00    -0.200 F 
ATOM    103  F   UNL A   1      47.648  36.315  29.932  1.00  0.00    -0.200 F 
ENDBRANCH  70  93
ENDBRANCH  44  45
ENDBRANCH  36  39
ENDBRANCH  34  35
ENDBRANCH  33  34
ENDBRANCH  32  33
ENDBRANCH  31  32
ENDBRANCH   1  31
TORSDOF 17
ENDMDL
