MODEL 1
REMARK VINA RESULT:     -11.8      0.000      0.000
REMARK SMILES Cc1cc(C)c(C(=O)N[C@H](C(=O)NCCCCCCNC(=O)c2ccc(-c3c4nc(c(-c5c(F)c(F)c(F)c(F)c5F)c5ccc([nH]5)c(-c5c(F)c(F)c(F)c(F)c5F)c5nc(c(-c6c(F)c(F)c(F)c(F)c6F)c6ccc3[nH]6)C=C5)C=C4)cc2)C(C)C)c(=O)[nH]1
REMARK SMILES IDX 16 1 15 2 14 3 13 4 11 5 12 6 10 8 9 9 7 10 8 11 6 13 1 14
REMARK SMILES IDX 2 15 3 16 91 17 4 18 89 19 5 21 90 22 86 23 87 24 88 25
REMARK SMILES IDX 17 26 18 27 19 28 20 29 21 30 22 32 23 33 24 34 85 35 25 36
REMARK SMILES IDX 84 37 26 38 27 39 28 40 78 41 29 42 83 43 77 44 79 45 30 46
REMARK SMILES IDX 82 47 76 48 75 49 31 51 63 52 43 53 62 54 44 55 47 56 61 57
REMARK SMILES IDX 80 58 45 59 46 60 60 62 81 63 48 64 32 65 33 66 41 67 34 68
REMARK SMILES IDX 35 69 39 70 42 71 36 72 37 73 40 74 38 75 64 76 65 77 73 78
REMARK SMILES IDX 66 79 67 80 71 81 74 82 68 83 69 84 72 85 70 86 49 87 50 88
REMARK SMILES IDX 58 89 51 90 52 91 56 92 59 93 53 94 54 95 57 96 55 97
REMARK H PARENT 13 7 9 12 91 20 20 31 79 50 47 61
REMARK Flexibility Score: inf
ROOT
ATOM      1  C   UNL A   1      31.988  29.553  27.001  1.00  0.00     0.002 C 
ENDROOT
BRANCH   1   2
ATOM      2  C   UNL A   1      33.166  28.684  26.555  1.00  0.00     0.021 C 
BRANCH   2   3
ATOM      3  C   UNL A   1      32.809  27.203  26.440  1.00  0.00     0.116 C 
BRANCH   3   4
ATOM      4  N   UNL A   1      33.925  26.452  25.906  1.00  0.00    -0.354 N 
ATOM      5  C   UNL A   1      34.080  25.223  25.363  1.00  0.00     0.242 C 
ATOM      6  O   UNL A   1      35.263  24.845  25.309  1.00  0.00    -0.273 OA
ATOM      7  H   UNL A   1      34.770  26.954  25.948  1.00  0.00     0.163 HD
BRANCH   5   8
ATOM      8  C   UNL A   1      32.964  24.320  24.722  1.00  0.00     0.174 C 
BRANCH   8   9
ATOM      9  N   UNL A   1      33.164  24.517  23.268  1.00  0.00    -0.340 N 
ATOM     10  C   UNL A   1      32.982  25.583  22.437  1.00  0.00     0.257 C 
ATOM     11  O   UNL A   1      33.535  25.563  21.336  1.00  0.00    -0.269 OA
ATOM     12  H   UNL A   1      33.496  23.713  22.807  1.00  0.00     0.164 HD
BRANCH  10  13
ATOM     13  C   UNL A   1      32.031  26.667  22.787  1.00  0.00     0.107 A 
ATOM     14  C   UNL A   1      29.116  29.845  22.921  1.00  0.00     0.064 C 
ATOM     15  C   UNL A   1      30.166  28.781  22.964  1.00  0.00     0.015 A 
ATOM     16  C   UNL A   1      31.482  29.037  22.961  1.00  0.00     0.025 A 
ATOM     17  N   UNL A   1      29.744  27.478  23.022  1.00  0.00    -0.326 N 
ATOM     18  C   UNL A   1      32.457  27.954  22.848  1.00  0.00    -0.031 A 
ATOM     19  C   UNL A   1      30.587  26.394  23.051  1.00  0.00     0.261 A 
ATOM     20  H   UNL A   1      28.775  27.309  23.044  1.00  0.00     0.169 HD
ATOM     21  C   UNL A   1      33.878  28.439  22.700  1.00  0.00     0.045 C 
ATOM     22  O   UNL A   1      30.138  25.272  23.265  1.00  0.00    -0.269 OA
ENDBRANCH  10  13
ENDBRANCH   8   9
BRANCH   8  23
ATOM     23  C   UNL A   1      32.885  22.859  25.213  1.00  0.00     0.015 C 
ATOM     24  C   UNL A   1      31.400  22.497  25.445  1.00  0.00     0.010 C 
ATOM     25  C   UNL A   1      33.498  21.749  24.363  1.00  0.00     0.010 C 
ENDBRANCH   8  23
ENDBRANCH   5   8
ENDBRANCH   3   4
ENDBRANCH   2   3
ENDBRANCH   1   2
BRANCH   1  26
ATOM     26  C   UNL A   1      31.569  30.634  25.995  1.00  0.00     0.002 C 
BRANCH  26  27
ATOM     27  C   UNL A   1      31.405  32.037  26.584  1.00  0.00     0.021 C 
BRANCH  27  28
ATOM     28  C   UNL A   1      32.681  32.610  27.186  1.00  0.00     0.116 C 
BRANCH  28  29
ATOM     29  N   UNL A   1      32.497  33.983  27.627  1.00  0.00    -0.352 N 
ATOM     30  C   UNL A   1      33.117  34.651  28.648  1.00  0.00     0.251 C 
ATOM     31  H   UNL A   1      31.833  34.505  27.120  1.00  0.00     0.163 HD
ATOM     32  O   UNL A   1      32.684  35.726  29.048  1.00  0.00    -0.269 OA
BRANCH  30  33
ATOM     33  C   UNL A   1      34.313  34.057  29.272  1.00  0.00     0.039 A 
ATOM     34  C   UNL A   1      34.150  33.126  30.298  1.00  0.00     0.014 A 
ATOM     35  C   UNL A   1      35.591  34.422  28.835  1.00  0.00     0.014 A 
ATOM     36  C   UNL A   1      35.275  32.529  30.863  1.00  0.00     0.010 A 
ATOM     37  C   UNL A   1      36.706  33.767  29.344  1.00  0.00     0.010 A 
ATOM     38  C   UNL A   1      36.559  32.830  30.375  1.00  0.00    -0.014 A 
BRANCH  38  39
ATOM     39  C   UNL A   1      37.757  32.194  30.968  1.00  0.00     0.031 A 
ATOM     40  C   UNL A   1      38.217  32.597  32.340  1.00  0.00     0.074 A 
ATOM     41  C   UNL A   1      38.436  31.270  30.264  1.00  0.00     0.049 A 
ATOM     42  N   UNL A   1      39.223  32.140  33.040  1.00  0.00    -0.248 NA
ATOM     43  C   UNL A   1      37.461  33.670  33.004  1.00  0.00     0.031 C 
ATOM     44  C   UNL A   1      38.106  30.836  28.907  1.00  0.00     0.029 A 
ATOM     45  N   UNL A   1      39.537  30.522  30.597  1.00  0.00    -0.354 N 
ATOM     46  C   UNL A   1      39.214  32.864  34.224  1.00  0.00     0.074 A 
ATOM     47  C   UNL A   1      38.155  33.842  34.118  1.00  0.00     0.031 C 
ATOM     48  C   UNL A   1      38.956  29.863  28.540  1.00  0.00     0.029 A 
ATOM     49  C   UNL A   1      39.907  29.629  29.623  1.00  0.00     0.049 A 
ATOM     50  H   UNL A   1      40.016  30.617  31.452  1.00  0.00     0.167 HD
ATOM     51  C   UNL A   1      39.996  32.701  35.317  1.00  0.00     0.037 A 
ATOM     52  C   UNL A   1      40.895  28.712  29.613  1.00  0.00     0.037 A 
ATOM     53  C   UNL A   1      41.036  31.714  35.420  1.00  0.00     0.049 A 
ATOM     54  C   UNL A   1      41.770  28.569  30.828  1.00  0.00     0.074 A 
ATOM     55  C   UNL A   1      41.857  31.437  36.498  1.00  0.00     0.029 A 
ATOM     56  N   UNL A   1      41.400  30.844  34.403  1.00  0.00    -0.354 N 
ATOM     57  N   UNL A   1      41.711  29.213  31.968  1.00  0.00    -0.248 NA
ATOM     58  C   UNL A   1      42.845  27.569  30.756  1.00  0.00     0.031 C 
ATOM     59  C   UNL A   1      42.750  30.431  36.117  1.00  0.00     0.029 A 
ATOM     60  C   UNL A   1      42.453  30.046  34.819  1.00  0.00     0.049 A 
ATOM     61  H   UNL A   1      40.973  30.800  33.517  1.00  0.00     0.167 HD
ATOM     62  C   UNL A   1      42.726  28.687  32.757  1.00  0.00     0.074 A 
ATOM     63  C   UNL A   1      43.374  27.658  31.970  1.00  0.00     0.031 C 
ATOM     64  C   UNL A   1      43.087  29.027  34.019  1.00  0.00     0.037 A 
BRANCH  51  65
ATOM     65  C   UNL A   1      39.738  33.599  36.492  1.00  0.00     0.064 A 
ATOM     66  C   UNL A   1      40.344  34.860  36.595  1.00  0.00     0.173 A 
ATOM     67  C   UNL A   1      38.852  33.212  37.507  1.00  0.00     0.173 A 
ATOM     68  F   UNL A   1      41.211  35.272  35.658  1.00  0.00    -0.203 F 
ATOM     69  C   UNL A   1      40.097  35.688  37.687  1.00  0.00     0.198 A 
ATOM     70  C   UNL A   1      38.581  34.056  38.582  1.00  0.00     0.198 A 
ATOM     71  F   UNL A   1      38.241  32.019  37.456  1.00  0.00    -0.203 F 
ATOM     72  F   UNL A   1      40.727  36.866  37.789  1.00  0.00    -0.200 F 
ATOM     73  C   UNL A   1      39.209  35.289  38.675  1.00  0.00     0.200 A 
ATOM     74  F   UNL A   1      37.714  33.675  39.529  1.00  0.00    -0.200 F 
ATOM     75  F   UNL A   1      38.964  36.091  39.720  1.00  0.00    -0.200 F 
ENDBRANCH  51  65
BRANCH  52  76
ATOM     76  C   UNL A   1      41.060  27.828  28.432  1.00  0.00     0.064 A 
ATOM     77  C   UNL A   1      40.360  26.616  28.344  1.00  0.00     0.173 A 
ATOM     78  C   UNL A   1      41.875  28.191  27.351  1.00  0.00     0.173 A 
ATOM     79  F   UNL A   1      39.580  26.218  29.360  1.00  0.00    -0.203 F 
ATOM     80  C   UNL A   1      40.472  25.800  27.220  1.00  0.00     0.198 A 
ATOM     81  C   UNL A   1      41.967  27.387  26.217  1.00  0.00     0.198 A 
ATOM     82  F   UNL A   1      42.559  29.344  27.383  1.00  0.00    -0.203 F 
ATOM     83  F   UNL A   1      39.810  24.636  27.171  1.00  0.00    -0.200 F 
ATOM     84  C   UNL A   1      41.268  26.191  26.153  1.00  0.00     0.200 A 
ATOM     85  F   UNL A   1      42.724  27.775  25.182  1.00  0.00    -0.200 F 
ATOM     86  F   UNL A   1      41.361  25.415  25.065  1.00  0.00    -0.200 F 
ENDBRANCH  52  76
BRANCH  64  87
ATOM     87  C   UNL A   1      44.234  28.285  34.639  1.00  0.00     0.064 A 
ATOM     88  C   UNL A   1      44.033  27.085  35.336  1.00  0.00     0.173 A 
ATOM     89  C   UNL A   1      45.552  28.729  34.456  1.00  0.00     0.173 A 
ATOM     90  F   UNL A   1      42.790  26.627  35.548  1.00  0.00    -0.203 F 
ATOM     91  C   UNL A   1      45.112  26.360  35.835  1.00  0.00     0.198 A 
ATOM     92  C   UNL A   1      46.629  27.986  34.930  1.00  0.00     0.198 A 
ATOM     93  F   UNL A   1      45.796  29.866  33.788  1.00  0.00    -0.203 F 
ATOM     94  F   UNL A   1      44.896  25.230  36.522  1.00  0.00    -0.200 F 
ATOM     95  C   UNL A   1      46.409  26.805  35.621  1.00  0.00     0.200 A 
ATOM     96  F   UNL A   1      47.882  28.408  34.707  1.00  0.00    -0.200 F 
ATOM     97  F   UNL A   1      47.446  26.092  36.082  1.00  0.00    -0.200 F 
ENDBRANCH  64  87
ENDBRANCH  38  39
ENDBRANCH  30  33
ENDBRANCH  28  29
ENDBRANCH  27  28
ENDBRANCH  26  27
ENDBRANCH   1  26
TORSDOF 16
ENDMDL
MODEL 2
REMARK VINA RESULT:     -11.8      1.451      3.123
REMARK SMILES Cc1cc(C)c(C(=O)N[C@H](C(=O)NCCCCCCNC(=O)c2ccc(-c3c4nc(c(-c5c(F)c(F)c(F)c(F)c5F)c5ccc([nH]5)c(-c5c(F)c(F)c(F)c(F)c5F)c5nc(c(-c6c(F)c(F)c(F)c(F)c6F)c6ccc3[nH]6)C=C5)C=C4)cc2)C(C)C)c(=O)[nH]1
REMARK SMILES IDX 16 1 15 2 14 3 13 4 11 5 12 6 10 8 9 9 7 10 8 11 6 13 1 14
REMARK SMILES IDX 2 15 3 16 91 17 4 18 89 19 5 21 90 22 86 23 87 24 88 25
REMARK SMILES IDX 17 26 18 27 19 28 20 29 21 30 22 32 23 33 24 34 85 35 25 36
REMARK SMILES IDX 84 37 26 38 27 39 28 40 78 41 29 42 83 43 77 44 79 45 30 46
REMARK SMILES IDX 82 47 76 48 75 49 31 51 63 52 43 53 62 54 44 55 47 56 61 57
REMARK SMILES IDX 80 58 45 59 46 60 60 62 81 63 48 64 32 65 33 66 41 67 34 68
REMARK SMILES IDX 35 69 39 70 42 71 36 72 37 73 40 74 38 75 64 76 65 77 73 78
REMARK SMILES IDX 66 79 67 80 71 81 74 82 68 83 69 84 72 85 70 86 49 87 50 88
REMARK SMILES IDX 58 89 51 90 52 91 56 92 59 93 53 94 54 95 57 96 55 97
REMARK H PARENT 13 7 9 12 91 20 20 31 79 50 47 61
REMARK Flexibility Score: inf
ROOT
ATOM      1  C   UNL A   1      32.700  30.346  26.210  1.00  0.00     0.002 C 
ENDROOT
BRANCH   1   2
ATOM      2  C   UNL A   1      32.626  28.890  25.747  1.00  0.00     0.021 C 
BRANCH   2   3
ATOM      3  C   UNL A   1      32.732  27.889  26.897  1.00  0.00     0.116 C 
BRANCH   3   4
ATOM      4  N   UNL A   1      31.530  27.087  26.984  1.00  0.00    -0.354 N 
ATOM      5  C   UNL A   1      31.010  26.060  26.275  1.00  0.00     0.242 C 
ATOM      6  O   UNL A   1      29.805  25.854  26.500  1.00  0.00    -0.273 OA
ATOM      7  H   UNL A   1      30.954  27.353  27.738  1.00  0.00     0.163 HD
BRANCH   5   8
ATOM      8  C   UNL A   1      31.784  25.077  25.322  1.00  0.00     0.174 C 
BRANCH   8   9
ATOM      9  N   UNL A   1      30.975  23.839  25.384  1.00  0.00    -0.340 N 
ATOM     10  C   UNL A   1      31.242  22.571  25.811  1.00  0.00     0.257 C 
ATOM     11  O   UNL A   1      30.290  21.826  26.052  1.00  0.00    -0.269 OA
ATOM     12  H   UNL A   1      30.057  23.954  25.049  1.00  0.00     0.164 HD
BRANCH  10  13
ATOM     13  C   UNL A   1      32.634  22.057  25.846  1.00  0.00     0.107 A 
ATOM     14  C   UNL A   1      36.898  21.409  25.751  1.00  0.00     0.064 C 
ATOM     15  C   UNL A   1      35.408  21.531  25.761  1.00  0.00     0.015 A 
ATOM     16  C   UNL A   1      34.633  21.261  24.700  1.00  0.00     0.025 A 
ATOM     17  N   UNL A   1      34.814  21.932  26.930  1.00  0.00    -0.326 N 
ATOM     18  C   UNL A   1      33.201  21.548  24.722  1.00  0.00    -0.031 A 
ATOM     19  C   UNL A   1      33.460  22.106  27.088  1.00  0.00     0.261 A 
ATOM     20  H   UNL A   1      35.395  22.107  27.704  1.00  0.00     0.169 HD
ATOM     21  C   UNL A   1      32.523  21.330  23.392  1.00  0.00     0.045 C 
ATOM     22  O   UNL A   1      32.994  22.309  28.205  1.00  0.00    -0.269 OA
ENDBRANCH  10  13
ENDBRANCH   8   9
BRANCH   8  23
ATOM     23  C   UNL A   1      32.125  25.603  23.911  1.00  0.00     0.015 C 
ATOM     24  C   UNL A   1      33.658  25.782  23.810  1.00  0.00     0.010 C 
ATOM     25  C   UNL A   1      31.677  24.810  22.686  1.00  0.00     0.010 C 
ENDBRANCH   8  23
ENDBRANCH   5   8
ENDBRANCH   3   4
ENDBRANCH   2   3
ENDBRANCH   1   2
BRANCH   1  26
ATOM     26  C   UNL A   1      31.340  31.036  26.383  1.00  0.00     0.002 C 
BRANCH  26  27
ATOM     27  C   UNL A   1      31.401  32.559  26.530  1.00  0.00     0.021 C 
BRANCH  27  28
ATOM     28  C   UNL A   1      32.646  33.063  27.248  1.00  0.00     0.116 C 
BRANCH  28  29
ATOM     29  N   UNL A   1      32.445  34.392  27.801  1.00  0.00    -0.352 N 
ATOM     30  C   UNL A   1      33.034  34.969  28.894  1.00  0.00     0.251 C 
ATOM     31  H   UNL A   1      31.795  34.955  27.323  1.00  0.00     0.163 HD
ATOM     32  O   UNL A   1      32.587  36.005  29.374  1.00  0.00    -0.269 OA
BRANCH  30  33
ATOM     33  C   UNL A   1      34.214  34.323  29.497  1.00  0.00     0.039 A 
ATOM     34  C   UNL A   1      34.034  33.457  30.576  1.00  0.00     0.014 A 
ATOM     35  C   UNL A   1      35.493  34.576  28.990  1.00  0.00     0.014 A 
ATOM     36  C   UNL A   1      35.141  32.811  31.124  1.00  0.00     0.010 A 
ATOM     37  C   UNL A   1      36.582  33.871  29.485  1.00  0.00     0.010 A 
ATOM     38  C   UNL A   1      36.419  32.997  30.568  1.00  0.00    -0.014 A 
BRANCH  38  39
ATOM     39  C   UNL A   1      37.597  32.308  31.143  1.00  0.00     0.031 A 
ATOM     40  C   UNL A   1      38.082  32.675  32.516  1.00  0.00     0.074 A 
ATOM     41  C   UNL A   1      38.234  31.369  30.422  1.00  0.00     0.049 A 
ATOM     42  N   UNL A   1      39.075  32.172  33.202  1.00  0.00    -0.248 NA
ATOM     43  C   UNL A   1      37.372  33.768  33.201  1.00  0.00     0.031 C 
ATOM     44  C   UNL A   1      37.877  30.965  29.062  1.00  0.00     0.029 A 
ATOM     45  N   UNL A   1      39.309  30.575  30.735  1.00  0.00    -0.354 N 
ATOM     46  C   UNL A   1      39.103  32.879  34.396  1.00  0.00     0.074 A 
ATOM     47  C   UNL A   1      38.081  33.898  34.311  1.00  0.00     0.031 C 
ATOM     48  C   UNL A   1      38.687  29.966  28.675  1.00  0.00     0.029 A 
ATOM     49  C   UNL A   1      39.637  29.681  29.747  1.00  0.00     0.049 A 
ATOM     50  H   UNL A   1      39.797  30.640  31.588  1.00  0.00     0.167 HD
ATOM     51  C   UNL A   1      39.886  32.672  35.480  1.00  0.00     0.037 A 
ATOM     52  C   UNL A   1      40.589  28.729  29.717  1.00  0.00     0.037 A 
ATOM     53  C   UNL A   1      40.889  31.646  35.562  1.00  0.00     0.049 A 
ATOM     54  C   UNL A   1      41.467  28.536  30.923  1.00  0.00     0.074 A 
ATOM     55  C   UNL A   1      41.707  31.323  36.629  1.00  0.00     0.029 A 
ATOM     56  N   UNL A   1      41.212  30.775  34.530  1.00  0.00    -0.354 N 
ATOM     57  N   UNL A   1      41.442  29.166  32.072  1.00  0.00    -0.248 NA
ATOM     58  C   UNL A   1      42.502  27.497  30.830  1.00  0.00     0.031 C 
ATOM     59  C   UNL A   1      42.558  30.289  36.228  1.00  0.00     0.029 A 
ATOM     60  C   UNL A   1      42.236  29.932  34.928  1.00  0.00     0.049 A 
ATOM     61  H   UNL A   1      40.776  30.759  33.647  1.00  0.00     0.167 HD
ATOM     62  C   UNL A   1      42.442  28.592  32.846  1.00  0.00     0.074 A 
ATOM     63  C   UNL A   1      43.044  27.549  32.040  1.00  0.00     0.031 C 
ATOM     64  C   UNL A   1      42.825  28.901  34.108  1.00  0.00     0.037 A 
BRANCH  51  65
ATOM     65  C   UNL A   1      39.672  33.563  36.668  1.00  0.00     0.064 A 
ATOM     66  C   UNL A   1      40.318  34.804  36.778  1.00  0.00     0.173 A 
ATOM     67  C   UNL A   1      38.788  33.192  37.691  1.00  0.00     0.173 A 
ATOM     68  F   UNL A   1      41.185  35.201  35.833  1.00  0.00    -0.203 F 
ATOM     69  C   UNL A   1      40.111  35.627  37.882  1.00  0.00     0.198 A 
ATOM     70  C   UNL A   1      38.557  34.031  38.779  1.00  0.00     0.198 A 
ATOM     71  F   UNL A   1      38.140  32.019  37.634  1.00  0.00    -0.203 F 
ATOM     72  F   UNL A   1      40.778  36.784  37.989  1.00  0.00    -0.200 F 
ATOM     73  C   UNL A   1      39.224  35.243  38.878  1.00  0.00     0.200 A 
ATOM     74  F   UNL A   1      37.692  33.666  39.734  1.00  0.00    -0.200 F 
ATOM     75  F   UNL A   1      39.018  36.040  39.935  1.00  0.00    -0.200 F 
ENDBRANCH  51  65
BRANCH  52  76
ATOM     76  C   UNL A   1      40.711  27.854  28.524  1.00  0.00     0.064 A 
ATOM     77  C   UNL A   1      40.020  26.635  28.458  1.00  0.00     0.173 A 
ATOM     78  C   UNL A   1      41.473  28.234  27.410  1.00  0.00     0.173 A 
ATOM     79  F   UNL A   1      39.291  26.222  29.504  1.00  0.00    -0.203 F 
ATOM     80  C   UNL A   1      40.092  25.828  27.324  1.00  0.00     0.198 A 
ATOM     81  C   UNL A   1      41.524  27.439  26.267  1.00  0.00     0.198 A 
ATOM     82  F   UNL A   1      42.146  29.394  27.421  1.00  0.00    -0.203 F 
ATOM     83  F   UNL A   1      39.441  24.657  27.295  1.00  0.00    -0.200 F 
ATOM     84  C   UNL A   1      40.835  26.235  26.226  1.00  0.00     0.200 A 
ATOM     85  F   UNL A   1      42.230  27.842  25.203  1.00  0.00    -0.200 F 
ATOM     86  F   UNL A   1      40.888  25.468  25.129  1.00  0.00    -0.200 F 
ENDBRANCH  52  76
BRANCH  64  87
ATOM     87  C   UNL A   1      43.947  28.108  34.710  1.00  0.00     0.064 A 
ATOM     88  C   UNL A   1      45.271  28.566  34.660  1.00  0.00     0.173 A 
ATOM     89  C   UNL A   1      43.683  26.927  35.420  1.00  0.00     0.173 A 
ATOM     90  F   UNL A   1      45.575  29.682  33.982  1.00  0.00    -0.203 F 
ATOM     91  C   UNL A   1      46.294  27.865  35.295  1.00  0.00     0.198 A 
ATOM     92  C   UNL A   1      44.703  26.245  36.078  1.00  0.00     0.198 A 
ATOM     93  F   UNL A   1      42.431  26.453  35.504  1.00  0.00    -0.203 F 
ATOM     94  F   UNL A   1      47.556  28.305  35.212  1.00  0.00    -0.200 F 
ATOM     95  C   UNL A   1      46.006  26.712  36.013  1.00  0.00     0.200 A 
ATOM     96  F   UNL A   1      44.421  25.142  36.786  1.00  0.00    -0.200 F 
ATOM     97  F   UNL A   1      46.989  26.053  36.643  1.00  0.00    -0.200 F 
ENDBRANCH  64  87
ENDBRANCH  38  39
ENDBRANCH  30  33
ENDBRANCH  28  29
ENDBRANCH  27  28
ENDBRANCH  26  27
ENDBRANCH   1  26
TORSDOF 16
ENDMDL
MODEL 3
REMARK VINA RESULT:     -11.7      1.266      2.879
REMARK SMILES Cc1cc(C)c(C(=O)N[C@H](C(=O)NCCCCCCNC(=O)c2ccc(-c3c4nc(c(-c5c(F)c(F)c(F)c(F)c5F)c5ccc([nH]5)c(-c5c(F)c(F)c(F)c(F)c5F)c5nc(c(-c6c(F)c(F)c(F)c(F)c6F)c6ccc3[nH]6)C=C5)C=C4)cc2)C(C)C)c(=O)[nH]1
REMARK SMILES IDX 16 1 15 2 14 3 13 4 11 5 12 6 10 8 9 9 7 10 8 11 6 13 1 14
REMARK SMILES IDX 2 15 3 16 91 17 4 18 89 19 5 21 90 22 86 23 87 24 88 25
REMARK SMILES IDX 17 26 18 27 19 28 20 29 21 30 22 32 23 33 24 34 85 35 25 36
REMARK SMILES IDX 84 37 26 38 27 39 28 40 78 41 29 42 83 43 77 44 79 45 30 46
REMARK SMILES IDX 82 47 76 48 75 49 31 51 63 52 43 53 62 54 44 55 47 56 61 57
REMARK SMILES IDX 80 58 45 59 46 60 60 62 81 63 48 64 32 65 33 66 41 67 34 68
REMARK SMILES IDX 35 69 39 70 42 71 36 72 37 73 40 74 38 75 64 76 65 77 73 78
REMARK SMILES IDX 66 79 67 80 71 81 74 82 68 83 69 84 72 85 70 86 49 87 50 88
REMARK SMILES IDX 58 89 51 90 52 91 56 92 59 93 53 94 54 95 57 96 55 97
REMARK H PARENT 13 7 9 12 91 20 20 31 79 50 47 61
REMARK Flexibility Score: inf
ROOT
ATOM      1  C   UNL A   1      32.256  29.962  26.842  1.00  0.00     0.002 C 
ENDROOT
BRANCH   1   2
ATOM      2  C   UNL A   1      33.450  29.344  26.112  1.00  0.00     0.021 C 
BRANCH   2   3
ATOM      3  C   UNL A   1      33.705  27.889  26.503  1.00  0.00     0.116 C 
BRANCH   3   4
ATOM      4  N   UNL A   1      32.462  27.230  26.844  1.00  0.00    -0.354 N 
ATOM      5  C   UNL A   1      31.670  26.312  26.246  1.00  0.00     0.242 C 
ATOM      6  O   UNL A   1      30.531  26.237  26.740  1.00  0.00    -0.273 OA
ATOM      7  H   UNL A   1      32.112  27.518  27.718  1.00  0.00     0.163 HD
BRANCH   5   8
ATOM      8  C   UNL A   1      32.075  25.302  25.112  1.00  0.00     0.174 C 
BRANCH   8   9
ATOM      9  N   UNL A   1      31.153  24.163  25.328  1.00  0.00    -0.340 N 
ATOM     10  C   UNL A   1      31.326  22.903  25.821  1.00  0.00     0.257 C 
ATOM     11  O   UNL A   1      30.329  22.281  26.190  1.00  0.00    -0.269 OA
ATOM     12  H   UNL A   1      30.226  24.355  25.061  1.00  0.00     0.164 HD
BRANCH  10  13
ATOM     13  C   UNL A   1      32.656  22.246  25.779  1.00  0.00     0.107 A 
ATOM     14  C   UNL A   1      36.820  21.159  25.473  1.00  0.00     0.064 C 
ATOM     15  C   UNL A   1      35.353  21.436  25.554  1.00  0.00     0.015 A 
ATOM     16  C   UNL A   1      34.509  21.277  24.524  1.00  0.00     0.025 A 
ATOM     17  N   UNL A   1      34.856  21.864  26.758  1.00  0.00    -0.326 N 
ATOM     18  C   UNL A   1      33.117  21.712  24.620  1.00  0.00    -0.031 A 
ATOM     19  C   UNL A   1      33.537  22.174  26.983  1.00  0.00     0.261 A 
ATOM     20  H   UNL A   1      35.486  21.956  27.509  1.00  0.00     0.169 HD
ATOM     21  C   UNL A   1      32.363  21.602  23.318  1.00  0.00     0.045 C 
ATOM     22  O   UNL A   1      33.144  22.394  28.124  1.00  0.00    -0.269 OA
ENDBRANCH  10  13
ENDBRANCH   8   9
BRANCH   8  23
ATOM     23  C   UNL A   1      32.149  25.863  23.676  1.00  0.00     0.015 C 
ATOM     24  C   UNL A   1      31.181  27.063  23.567  1.00  0.00     0.010 C 
ATOM     25  C   UNL A   1      33.495  26.310  23.114  1.00  0.00     0.010 C 
ENDBRANCH   8  23
ENDBRANCH   5   8
ENDBRANCH   3   4
ENDBRANCH   2   3
ENDBRANCH   1   2
BRANCH   1  26
ATOM     26  C   UNL A   1      31.403  30.913  25.990  1.00  0.00     0.002 C 
BRANCH  26  27
ATOM     27  C   UNL A   1      31.280  32.337  26.538  1.00  0.00     0.021 C 
BRANCH  27  28
ATOM     28  C   UNL A   1      32.539  32.848  27.225  1.00  0.00     0.116 C 
BRANCH  28  29
ATOM     29  N   UNL A   1      32.388  34.226  27.664  1.00  0.00    -0.352 N 
ATOM     30  C   UNL A   1      33.030  34.881  28.680  1.00  0.00     0.251 C 
ATOM     31  H   UNL A   1      31.734  34.761  27.160  1.00  0.00     0.163 HD
ATOM     32  O   UNL A   1      32.623  35.966  29.081  1.00  0.00    -0.269 OA
BRANCH  30  33
ATOM     33  C   UNL A   1      34.216  34.260  29.298  1.00  0.00     0.039 A 
ATOM     34  C   UNL A   1      34.038  33.348  30.339  1.00  0.00     0.014 A 
ATOM     35  C   UNL A   1      35.498  34.583  28.843  1.00  0.00     0.014 A 
ATOM     36  C   UNL A   1      35.152  32.726  30.899  1.00  0.00     0.010 A 
ATOM     37  C   UNL A   1      36.600  33.904  29.348  1.00  0.00     0.010 A 
ATOM     38  C   UNL A   1      36.438  32.984  30.392  1.00  0.00    -0.014 A 
BRANCH  38  39
ATOM     39  C   UNL A   1      37.625  32.321  30.980  1.00  0.00     0.031 A 
ATOM     40  C   UNL A   1      38.097  32.711  32.351  1.00  0.00     0.074 A 
ATOM     41  C   UNL A   1      38.282  31.385  30.272  1.00  0.00     0.049 A 
ATOM     42  N   UNL A   1      39.096  32.232  33.047  1.00  0.00    -0.248 NA
ATOM     43  C   UNL A   1      37.365  33.799  33.020  1.00  0.00     0.031 C 
ATOM     44  C   UNL A   1      37.938  30.961  28.914  1.00  0.00     0.029 A 
ATOM     45  N   UNL A   1      39.368  30.613  30.599  1.00  0.00    -0.354 N 
ATOM     46  C   UNL A   1      39.105  32.952  34.233  1.00  0.00     0.074 A 
ATOM     47  C   UNL A   1      38.067  33.953  34.133  1.00  0.00     0.031 C 
ATOM     48  C   UNL A   1      38.767  29.972  28.542  1.00  0.00     0.029 A 
ATOM     49  C   UNL A   1      39.716  29.715  29.622  1.00  0.00     0.049 A 
ATOM     50  H   UNL A   1      39.851  30.696  31.452  1.00  0.00     0.167 HD
ATOM     51  C   UNL A   1      39.887  32.770  35.323  1.00  0.00     0.037 A 
ATOM     52  C   UNL A   1      40.684  28.778  29.607  1.00  0.00     0.037 A 
ATOM     53  C   UNL A   1      40.906  31.762  35.420  1.00  0.00     0.049 A 
ATOM     54  C   UNL A   1      41.560  28.613  30.818  1.00  0.00     0.074 A 
ATOM     55  C   UNL A   1      41.724  31.465  36.495  1.00  0.00     0.029 A 
ATOM     56  N   UNL A   1      41.249  30.886  34.400  1.00  0.00    -0.354 N 
ATOM     57  N   UNL A   1      41.518  29.255  31.960  1.00  0.00    -0.248 NA
ATOM     58  C   UNL A   1      42.613  27.591  30.741  1.00  0.00     0.031 C 
ATOM     59  C   UNL A   1      42.595  30.441  36.109  1.00  0.00     0.029 A 
ATOM     60  C   UNL A   1      42.286  30.065  34.811  1.00  0.00     0.049 A 
ATOM     61  H   UNL A   1      40.818  30.854  33.515  1.00  0.00     0.167 HD
ATOM     62  C   UNL A   1      42.524  28.706  32.745  1.00  0.00     0.074 A 
ATOM     63  C   UNL A   1      43.148  27.666  31.953  1.00  0.00     0.031 C 
ATOM     64  C   UNL A   1      42.896  29.036  34.006  1.00  0.00     0.037 A 
BRANCH  51  65
ATOM     65  C   UNL A   1      39.652  33.671  36.501  1.00  0.00     0.064 A 
ATOM     66  C   UNL A   1      40.237  34.944  36.576  1.00  0.00     0.173 A 
ATOM     67  C   UNL A   1      38.808  33.274  37.548  1.00  0.00     0.173 A 
ATOM     68  F   UNL A   1      41.064  35.367  35.608  1.00  0.00    -0.203 F 
ATOM     69  C   UNL A   1      40.011  35.774  37.671  1.00  0.00     0.198 A 
ATOM     70  C   UNL A   1      38.557  34.119  38.626  1.00  0.00     0.198 A 
ATOM     71  F   UNL A   1      38.219  32.069  37.524  1.00  0.00    -0.203 F 
ATOM     72  F   UNL A   1      40.621  36.965  37.745  1.00  0.00    -0.200 F 
ATOM     73  C   UNL A   1      39.164  35.364  38.691  1.00  0.00     0.200 A 
ATOM     74  F   UNL A   1      37.730  33.728  39.604  1.00  0.00    -0.200 F 
ATOM     75  F   UNL A   1      38.939  36.168  39.739  1.00  0.00    -0.200 F 
ENDBRANCH  51  65
BRANCH  52  76
ATOM     76  C   UNL A   1      40.827  27.893  28.423  1.00  0.00     0.064 A 
ATOM     77  C   UNL A   1      40.150  26.666  28.363  1.00  0.00     0.173 A 
ATOM     78  C   UNL A   1      41.595  28.269  27.313  1.00  0.00     0.173 A 
ATOM     79  F   UNL A   1      39.416  26.255  29.407  1.00  0.00    -0.203 F 
ATOM     80  C   UNL A   1      40.240  25.849  27.238  1.00  0.00     0.198 A 
ATOM     81  C   UNL A   1      41.666  27.464  26.179  1.00  0.00     0.198 A 
ATOM     82  F   UNL A   1      42.255  29.437  27.318  1.00  0.00    -0.203 F 
ATOM     83  F   UNL A   1      39.602  24.671  27.215  1.00  0.00    -0.200 F 
ATOM     84  C   UNL A   1      40.990  26.253  26.143  1.00  0.00     0.200 A 
ATOM     85  F   UNL A   1      42.377  27.864  25.117  1.00  0.00    -0.200 F 
ATOM     86  F   UNL A   1      41.062  25.475  25.054  1.00  0.00    -0.200 F 
ENDBRANCH  52  76
BRANCH  64  87
ATOM     87  C   UNL A   1      44.029  28.268  34.621  1.00  0.00     0.064 A 
ATOM     88  C   UNL A   1      43.809  27.054  35.287  1.00  0.00     0.173 A 
ATOM     89  C   UNL A   1      45.353  28.704  34.464  1.00  0.00     0.173 A 
ATOM     90  F   UNL A   1      42.560  26.602  35.474  1.00  0.00    -0.203 F 
ATOM     91  C   UNL A   1      44.876  26.307  35.779  1.00  0.00     0.198 A 
ATOM     92  C   UNL A   1      46.418  27.940  34.931  1.00  0.00     0.198 A 
ATOM     93  F   UNL A   1      45.615  29.855  33.826  1.00  0.00    -0.203 F 
ATOM     94  F   UNL A   1      44.642  25.163  36.437  1.00  0.00    -0.200 F 
ATOM     95  C   UNL A   1      46.179  26.744  35.591  1.00  0.00     0.200 A 
ATOM     96  F   UNL A   1      47.677  28.355  34.733  1.00  0.00    -0.200 F 
ATOM     97  F   UNL A   1      47.204  26.011  36.046  1.00  0.00    -0.200 F 
ENDBRANCH  64  87
ENDBRANCH  38  39
ENDBRANCH  30  33
ENDBRANCH  28  29
ENDBRANCH  27  28
ENDBRANCH  26  27
ENDBRANCH   1  26
TORSDOF 16
ENDMDL
