MODEL 1
REMARK VINA RESULT:     -11.3      0.000      0.000
REMARK SMILES C[NH2+][C@]1(C(=O)NCCCCCCNC(=O)c2ccc(-c3c4nc(c(-c5c(F)c(F)c(F)c(F)c5F)c5ccc([nH]5)c(-c5c(F)c(F)c(F)c(F)c5F)c5nc(c(-c6c(F)c(F)c(F)c(F)c6F)c6ccc3[nH]6)C=C5)C=C4)cc2)CCC[C@@H]1CCSc1cccc(Cl)c1
REMARK SMILES IDX 8 1 7 2 6 3 4 4 5 5 3 7 79 8 82 9 80 10 81 11 2 12 1 13
REMARK SMILES IDX 83 16 84 17 85 18 86 19 87 20 92 21 88 22 90 23 89 24 91 25
REMARK SMILES IDX 9 26 10 27 11 28 12 29 13 30 14 31 15 33 16 34 17 35 78 36
REMARK SMILES IDX 18 37 77 38 19 39 20 40 21 41 71 42 22 43 76 44 70 45 72 46
REMARK SMILES IDX 23 47 75 48 69 49 68 50 24 52 56 53 36 54 55 55 37 56 40 57
REMARK SMILES IDX 54 58 73 59 38 60 39 61 53 63 74 64 41 65 25 66 26 67 34 68
REMARK SMILES IDX 27 69 28 70 32 71 35 72 29 73 30 74 33 75 31 76 57 77 58 78
REMARK SMILES IDX 66 79 59 80 60 81 64 82 67 83 61 84 62 85 65 86 63 87 42 88
REMARK SMILES IDX 43 89 51 90 44 91 45 92 49 93 52 94 46 95 47 96 50 97 48 98
REMARK H PARENT 6 6 2 14 2 15 13 32 72 51 40 62
REMARK Flexibility Score: inf
ROOT
ATOM      1  C   UNL A   1      33.296  29.184  26.522  1.00  0.00     0.021 C 
ENDROOT
BRANCH   1   2
ATOM      2  C   UNL A   1      33.115  27.892  25.722  1.00  0.00     0.116 C 
BRANCH   2   3
ATOM      3  N   UNL A   1      32.086  27.043  26.300  1.00  0.00    -0.351 N 
ATOM      4  C   UNL A   1      30.931  26.512  25.814  1.00  0.00     0.281 C 
ATOM      5  O   UNL A   1      30.228  25.930  26.654  1.00  0.00    -0.268 OA
ATOM      6  H   UNL A   1      32.261  26.803  27.238  1.00  0.00     0.163 HD
BRANCH   4   7
ATOM      7  C   UNL A   1      30.443  26.647  24.318  1.00  0.00     0.178 C 
ATOM      8  C   UNL A   1      30.346  28.136  23.930  1.00  0.00     0.079 C 
ATOM      9  C   UNL A   1      31.470  26.059  23.310  1.00  0.00     0.061 C 
ATOM     10  C   UNL A   1      30.778  28.242  22.467  1.00  0.00     0.008 C 
ATOM     11  C   UNL A   1      31.229  26.854  22.022  1.00  0.00     0.011 C 
BRANCH   7  12
ATOM     12  N   UNL A   1      29.126  25.952  24.249  1.00  0.00    -0.336 N 
ATOM     13  C   UNL A   1      27.932  26.688  23.890  1.00  0.00     0.331 C 
ATOM     14  H   UNL A   1      29.225  25.202  23.565  1.00  0.00     0.346 HD
ATOM     15  H   UNL A   1      28.952  25.685  25.218  1.00  0.00     0.346 HD
ENDBRANCH   7  12
BRANCH   9  16
ATOM     16  C   UNL A   1      31.410  24.533  23.126  1.00  0.00     0.022 C 
BRANCH  16  17
ATOM     17  C   UNL A   1      32.744  23.868  22.763  1.00  0.00     0.075 C 
BRANCH  17  18
ATOM     18  S   UNL A   1      34.209  24.700  23.484  1.00  0.00    -0.126 SA
BRANCH  18  19
ATOM     19  C   UNL A   1      35.203  23.425  24.241  1.00  0.00     0.009 A 
ATOM     20  C   UNL A   1      36.489  23.599  24.758  1.00  0.00     0.015 A 
ATOM     21  C   UNL A   1      34.647  22.138  24.270  1.00  0.00     0.035 A 
ATOM     22  C   UNL A   1      37.177  22.539  25.359  1.00  0.00     0.003 A 
ATOM     23  C   UNL A   1      35.354  21.071  24.823  1.00  0.00     0.042 A 
ATOM     24  C   UNL A   1      36.607  21.270  25.393  1.00  0.00     0.020 A 
ATOM     25  Cl  UNL A   1      34.685  19.487  24.771  1.00  0.00    -0.084 Cl
ENDBRANCH  18  19
ENDBRANCH  17  18
ENDBRANCH  16  17
ENDBRANCH   9  16
ENDBRANCH   4   7
ENDBRANCH   2   3
ENDBRANCH   1   2
BRANCH   1  26
ATOM     26  C   UNL A   1      31.996  29.853  26.988  1.00  0.00     0.002 C 
BRANCH  26  27
ATOM     27  C   UNL A   1      31.390  30.888  26.030  1.00  0.00     0.002 C 
BRANCH  27  28
ATOM     28  C   UNL A   1      31.326  32.321  26.558  1.00  0.00     0.021 C 
BRANCH  28  29
ATOM     29  C   UNL A   1      32.627  32.863  27.138  1.00  0.00     0.116 C 
BRANCH  29  30
ATOM     30  N   UNL A   1      32.482  34.224  27.627  1.00  0.00    -0.352 N 
ATOM     31  C   UNL A   1      33.067  34.869  28.691  1.00  0.00     0.251 C 
ATOM     32  H   UNL A   1      31.858  34.780  27.106  1.00  0.00     0.163 HD
ATOM     33  O   UNL A   1      32.623  35.958  29.047  1.00  0.00    -0.269 OA
BRANCH  31  34
ATOM     34  C   UNL A   1      34.217  34.285  29.428  1.00  0.00     0.039 A 
ATOM     35  C   UNL A   1      35.513  34.546  28.963  1.00  0.00     0.014 A 
ATOM     36  C   UNL A   1      34.045  33.419  30.510  1.00  0.00     0.014 A 
ATOM     37  C   UNL A   1      36.622  33.976  29.600  1.00  0.00     0.010 A 
ATOM     38  C   UNL A   1      35.154  32.923  31.199  1.00  0.00     0.010 A 
ATOM     39  C   UNL A   1      36.456  33.178  30.742  1.00  0.00    -0.014 A 
BRANCH  39  40
ATOM     40  C   UNL A   1      37.618  32.565  31.444  1.00  0.00     0.031 A 
ATOM     41  C   UNL A   1      38.357  31.411  30.817  1.00  0.00     0.074 A 
ATOM     42  C   UNL A   1      37.973  32.994  32.670  1.00  0.00     0.049 A 
ATOM     43  N   UNL A   1      39.312  30.665  31.317  1.00  0.00    -0.248 NA
ATOM     44  C   UNL A   1      37.942  31.020  29.461  1.00  0.00     0.031 C 
ATOM     45  C   UNL A   1      37.322  34.074  33.413  1.00  0.00     0.029 A 
ATOM     46  N   UNL A   1      38.966  32.562  33.516  1.00  0.00    -0.354 N 
ATOM     47  C   UNL A   1      39.583  29.700  30.354  1.00  0.00     0.074 A 
ATOM     48  C   UNL A   1      38.664  29.927  29.259  1.00  0.00     0.031 C 
ATOM     49  C   UNL A   1      37.940  34.231  34.594  1.00  0.00     0.029 A 
ATOM     50  C   UNL A   1      39.007  33.241  34.710  1.00  0.00     0.049 A 
ATOM     51  H   UNL A   1      39.589  31.834  33.289  1.00  0.00     0.167 HD
ATOM     52  C   UNL A   1      40.524  28.725  30.370  1.00  0.00     0.037 A 
ATOM     53  C   UNL A   1      39.806  33.078  35.781  1.00  0.00     0.037 A 
ATOM     54  C   UNL A   1      41.479  28.532  31.430  1.00  0.00     0.049 A 
ATOM     55  C   UNL A   1      40.870  32.013  35.760  1.00  0.00     0.074 A 
ATOM     56  C   UNL A   1      42.521  27.624  31.499  1.00  0.00     0.029 A 
ATOM     57  N   UNL A   1      41.513  29.271  32.603  1.00  0.00    -0.354 N 
ATOM     58  N   UNL A   1      41.147  31.141  34.823  1.00  0.00    -0.248 NA
ATOM     59  C   UNL A   1      41.735  31.915  36.946  1.00  0.00     0.031 C 
ATOM     60  C   UNL A   1      43.166  27.790  32.730  1.00  0.00     0.029 A 
ATOM     61  C   UNL A   1      42.550  28.828  33.409  1.00  0.00     0.049 A 
ATOM     62  H   UNL A   1      40.893  30.002  32.830  1.00  0.00     0.167 HD
ATOM     63  C   UNL A   1      42.228  30.407  35.293  1.00  0.00     0.074 A 
ATOM     64  C   UNL A   1      42.566  30.945  36.593  1.00  0.00     0.031 C 
ATOM     65  C   UNL A   1      42.880  29.377  34.699  1.00  0.00     0.037 A 
BRANCH  52  66
ATOM     66  C   UNL A   1      40.571  27.787  29.198  1.00  0.00     0.064 A 
ATOM     67  C   UNL A   1      39.723  26.673  29.109  1.00  0.00     0.173 A 
ATOM     68  C   UNL A   1      41.454  28.026  28.133  1.00  0.00     0.173 A 
ATOM     69  F   UNL A   1      38.869  26.396  30.105  1.00  0.00    -0.203 F 
ATOM     70  C   UNL A   1      39.782  25.813  28.016  1.00  0.00     0.198 A 
ATOM     71  C   UNL A   1      41.488  27.181  27.027  1.00  0.00     0.198 A 
ATOM     72  F   UNL A   1      42.281  29.082  28.163  1.00  0.00    -0.203 F 
ATOM     73  F   UNL A   1      38.999  24.726  27.978  1.00  0.00    -0.200 F 
ATOM     74  C   UNL A   1      40.659  26.071  26.973  1.00  0.00     0.200 A 
ATOM     75  F   UNL A   1      42.328  27.438  26.015  1.00  0.00    -0.200 F 
ATOM     76  F   UNL A   1      40.711  25.244  25.920  1.00  0.00    -0.200 F 
ENDBRANCH  52  66
BRANCH  53  77
ATOM     77  C   UNL A   1      39.645  33.965  36.962  1.00  0.00     0.064 A 
ATOM     78  C   UNL A   1      38.852  33.576  38.050  1.00  0.00     0.173 A 
ATOM     79  C   UNL A   1      40.283  35.212  37.030  1.00  0.00     0.173 A 
ATOM     80  F   UNL A   1      38.203  32.403  38.019  1.00  0.00    -0.203 F 
ATOM     81  C   UNL A   1      38.689  34.408  39.156  1.00  0.00     0.198 A 
ATOM     82  C   UNL A   1      40.140  36.032  38.147  1.00  0.00     0.198 A 
ATOM     83  F   UNL A   1      41.056  35.628  36.015  1.00  0.00    -0.203 F 
ATOM     84  F   UNL A   1      37.892  34.029  40.164  1.00  0.00    -0.200 F 
ATOM     85  C   UNL A   1      39.338  35.632  39.206  1.00  0.00     0.200 A 
ATOM     86  F   UNL A   1      40.778  37.209  38.197  1.00  0.00    -0.200 F 
ATOM     87  F   UNL A   1      39.186  36.430  40.272  1.00  0.00    -0.200 F 
ENDBRANCH  53  77
BRANCH  65  88
ATOM     88  C   UNL A   1      44.043  28.782  35.436  1.00  0.00     0.064 A 
ATOM     89  C   UNL A   1      45.347  29.267  35.262  1.00  0.00     0.173 A 
ATOM     90  C   UNL A   1      43.843  27.742  36.356  1.00  0.00     0.173 A 
ATOM     91  F   UNL A   1      45.590  30.250  34.381  1.00  0.00    -0.203 F 
ATOM     92  C   UNL A   1      46.414  28.720  35.970  1.00  0.00     0.198 A 
ATOM     93  C   UNL A   1      44.908  27.214  37.081  1.00  0.00     0.198 A 
ATOM     94  F   UNL A   1      42.613  27.248  36.562  1.00  0.00    -0.203 F 
ATOM     95  F   UNL A   1      47.657  29.171  35.760  1.00  0.00    -0.200 F 
ATOM     96  C   UNL A   1      46.192  27.698  36.883  1.00  0.00     0.200 A 
ATOM     97  F   UNL A   1      44.692  26.235  37.970  1.00  0.00    -0.200 F 
ATOM     98  F   UNL A   1      47.219  27.178  37.568  1.00  0.00    -0.200 F 
ENDBRANCH  65  88
ENDBRANCH  39  40
ENDBRANCH  31  34
ENDBRANCH  29  30
ENDBRANCH  28  29
ENDBRANCH  27  28
ENDBRANCH  26  27
ENDBRANCH   1  26
TORSDOF 18
ENDMDL
MODEL 2
REMARK VINA RESULT:     -11.2      1.993      3.833
REMARK SMILES C[NH2+][C@]1(C(=O)NCCCCCCNC(=O)c2ccc(-c3c4nc(c(-c5c(F)c(F)c(F)c(F)c5F)c5ccc([nH]5)c(-c5c(F)c(F)c(F)c(F)c5F)c5nc(c(-c6c(F)c(F)c(F)c(F)c6F)c6ccc3[nH]6)C=C5)C=C4)cc2)CCC[C@@H]1CCSc1cccc(Cl)c1
REMARK SMILES IDX 8 1 7 2 6 3 4 4 5 5 3 7 79 8 82 9 80 10 81 11 2 12 1 13
REMARK SMILES IDX 83 16 84 17 85 18 86 19 87 20 92 21 88 22 90 23 89 24 91 25
REMARK SMILES IDX 9 26 10 27 11 28 12 29 13 30 14 31 15 33 16 34 17 35 78 36
REMARK SMILES IDX 18 37 77 38 19 39 20 40 21 41 71 42 22 43 76 44 70 45 72 46
REMARK SMILES IDX 23 47 75 48 69 49 68 50 24 52 56 53 36 54 55 55 37 56 40 57
REMARK SMILES IDX 54 58 73 59 38 60 39 61 53 63 74 64 41 65 25 66 26 67 34 68
REMARK SMILES IDX 27 69 28 70 32 71 35 72 29 73 30 74 33 75 31 76 57 77 58 78
REMARK SMILES IDX 66 79 59 80 60 81 64 82 67 83 61 84 62 85 65 86 63 87 42 88
REMARK SMILES IDX 43 89 51 90 44 91 45 92 49 93 52 94 46 95 47 96 50 97 48 98
REMARK H PARENT 6 6 2 14 2 15 13 32 72 51 40 62
REMARK Flexibility Score: inf
ROOT
ATOM      1  C   UNL A   1      32.948  29.150  26.696  1.00  0.00     0.021 C 
ENDROOT
BRANCH   1   2
ATOM      2  C   UNL A   1      33.333  27.723  26.297  1.00  0.00     0.116 C 
BRANCH   2   3
ATOM      3  N   UNL A   1      33.414  27.574  24.854  1.00  0.00    -0.351 N 
ATOM      4  C   UNL A   1      33.447  26.495  24.026  1.00  0.00     0.281 C 
ATOM      5  O   UNL A   1      33.652  26.757  22.831  1.00  0.00    -0.268 OA
ATOM      6  H   UNL A   1      33.452  28.433  24.375  1.00  0.00     0.163 HD
BRANCH   4   7
ATOM      7  C   UNL A   1      33.304  24.996  24.502  1.00  0.00     0.178 C 
ATOM      8  C   UNL A   1      34.601  24.540  25.200  1.00  0.00     0.079 C 
ATOM      9  C   UNL A   1      32.209  24.828  25.592  1.00  0.00     0.061 C 
ATOM     10  C   UNL A   1      34.188  23.615  26.344  1.00  0.00     0.008 C 
ATOM     11  C   UNL A   1      32.663  23.605  26.396  1.00  0.00     0.011 C 
BRANCH   7  12
ATOM     12  N   UNL A   1      33.005  24.200  23.277  1.00  0.00    -0.336 N 
ATOM     13  C   UNL A   1      33.987  23.275  22.751  1.00  0.00     0.331 C 
ATOM     14  H   UNL A   1      32.167  23.654  23.480  1.00  0.00     0.346 HD
ATOM     15  H   UNL A   1      32.940  24.910  22.548  1.00  0.00     0.346 HD
ENDBRANCH   7  12
BRANCH   9  16
ATOM     16  C   UNL A   1      30.766  24.733  25.066  1.00  0.00     0.022 C 
BRANCH  16  17
ATOM     17  C   UNL A   1      29.919  25.997  25.256  1.00  0.00     0.075 C 
BRANCH  17  18
ATOM     18  S   UNL A   1      28.760  26.329  23.876  1.00  0.00    -0.126 SA
BRANCH  18  19
ATOM     19  C   UNL A   1      29.189  27.932  23.219  1.00  0.00     0.009 A 
ATOM     20  C   UNL A   1      30.348  28.230  22.498  1.00  0.00     0.015 A 
ATOM     21  C   UNL A   1      28.297  28.977  23.500  1.00  0.00     0.035 A 
ATOM     22  C   UNL A   1      30.579  29.517  22.001  1.00  0.00     0.003 A 
ATOM     23  C   UNL A   1      28.554  30.272  23.048  1.00  0.00     0.042 A 
ATOM     24  C   UNL A   1      29.679  30.542  22.275  1.00  0.00     0.020 A 
ATOM     25  Cl  UNL A   1      27.487  31.551  23.476  1.00  0.00    -0.084 Cl
ENDBRANCH  18  19
ENDBRANCH  17  18
ENDBRANCH  16  17
ENDBRANCH   9  16
ENDBRANCH   4   7
ENDBRANCH   2   3
ENDBRANCH   1   2
BRANCH   1  26
ATOM     26  C   UNL A   1      32.453  30.040  25.549  1.00  0.00     0.002 C 
BRANCH  26  27
ATOM     27  C   UNL A   1      31.080  30.695  25.749  1.00  0.00     0.002 C 
BRANCH  27  28
ATOM     28  C   UNL A   1      31.102  32.132  26.273  1.00  0.00     0.021 C 
BRANCH  28  29
ATOM     29  C   UNL A   1      32.377  32.543  26.999  1.00  0.00     0.116 C 
BRANCH  29  30
ATOM     30  N   UNL A   1      32.335  33.930  27.435  1.00  0.00    -0.352 N 
ATOM     31  C   UNL A   1      33.039  34.591  28.412  1.00  0.00     0.251 C 
ATOM     32  H   UNL A   1      31.690  34.491  26.946  1.00  0.00     0.163 HD
ATOM     33  O   UNL A   1      32.676  35.714  28.754  1.00  0.00    -0.269 OA
BRANCH  31  34
ATOM     34  C   UNL A   1      34.226  33.987  29.071  1.00  0.00     0.039 A 
ATOM     35  C   UNL A   1      34.020  33.016  30.061  1.00  0.00     0.014 A 
ATOM     36  C   UNL A   1      35.526  34.415  28.800  1.00  0.00     0.014 A 
ATOM     37  C   UNL A   1      35.109  32.455  30.740  1.00  0.00     0.010 A 
ATOM     38  C   UNL A   1      36.616  33.794  29.413  1.00  0.00     0.010 A 
ATOM     39  C   UNL A   1      36.422  32.821  30.406  1.00  0.00    -0.014 A 
BRANCH  39  40
ATOM     40  C   UNL A   1      37.598  32.236  31.107  1.00  0.00     0.031 A 
ATOM     41  C   UNL A   1      38.378  31.115  30.469  1.00  0.00     0.074 A 
ATOM     42  C   UNL A   1      37.930  32.657  32.343  1.00  0.00     0.049 A 
ATOM     43  N   UNL A   1      39.353  30.394  30.964  1.00  0.00    -0.248 NA
ATOM     44  C   UNL A   1      37.987  30.733  29.104  1.00  0.00     0.031 C 
ATOM     45  C   UNL A   1      37.239  33.702  33.097  1.00  0.00     0.029 A 
ATOM     46  N   UNL A   1      38.931  32.243  33.190  1.00  0.00    -0.354 N 
ATOM     47  C   UNL A   1      39.663  29.452  29.989  1.00  0.00     0.074 A 
ATOM     48  C   UNL A   1      38.746  29.667  28.891  1.00  0.00     0.031 C 
ATOM     49  C   UNL A   1      37.843  33.860  34.286  1.00  0.00     0.029 A 
ATOM     50  C   UNL A   1      38.940  32.904  34.394  1.00  0.00     0.049 A 
ATOM     51  H   UNL A   1      39.578  31.540  32.956  1.00  0.00     0.167 HD
ATOM     52  C   UNL A   1      40.635  28.508  29.997  1.00  0.00     0.037 A 
ATOM     53  C   UNL A   1      39.737  32.751  35.470  1.00  0.00     0.037 A 
ATOM     54  C   UNL A   1      41.588  28.330  31.061  1.00  0.00     0.049 A 
ATOM     55  C   UNL A   1      40.835  31.721  35.440  1.00  0.00     0.074 A 
ATOM     56  C   UNL A   1      42.658  27.455  31.125  1.00  0.00     0.029 A 
ATOM     57  N   UNL A   1      41.590  29.051  32.246  1.00  0.00    -0.354 N 
ATOM     58  N   UNL A   1      41.147  30.873  34.492  1.00  0.00    -0.248 NA
ATOM     59  C   UNL A   1      41.693  31.633  36.631  1.00  0.00     0.031 C 
ATOM     60  C   UNL A   1      43.288  27.622  32.363  1.00  0.00     0.029 A 
ATOM     61  C   UNL A   1      42.634  28.629  33.053  1.00  0.00     0.049 A 
ATOM     62  H   UNL A   1      40.944  29.758  32.480  1.00  0.00     0.167 HD
ATOM     63  C   UNL A   1      42.247  30.167  34.959  1.00  0.00     0.074 A 
ATOM     64  C   UNL A   1      42.558  30.696  36.270  1.00  0.00     0.031 C 
ATOM     65  C   UNL A   1      42.937  29.169  34.354  1.00  0.00     0.037 A 
BRANCH  52  66
ATOM     66  C   UNL A   1      40.721  27.592  28.812  1.00  0.00     0.064 A 
ATOM     67  C   UNL A   1      41.609  27.836  27.753  1.00  0.00     0.173 A 
ATOM     68  C   UNL A   1      39.928  26.434  28.749  1.00  0.00     0.173 A 
ATOM     69  F   UNL A   1      42.380  28.933  27.759  1.00  0.00    -0.203 F 
ATOM     70  C   UNL A   1      41.674  26.976  26.659  1.00  0.00     0.198 A 
ATOM     71  C   UNL A   1      40.020  25.560  27.669  1.00  0.00     0.198 A 
ATOM     72  F   UNL A   1      39.069  26.148  29.739  1.00  0.00    -0.203 F 
ATOM     73  F   UNL A   1      42.491  27.258  25.635  1.00  0.00    -0.200 F 
ATOM     74  C   UNL A   1      40.885  25.836  26.621  1.00  0.00     0.200 A 
ATOM     75  F   UNL A   1      39.265  24.454  27.639  1.00  0.00    -0.200 F 
ATOM     76  F   UNL A   1      40.952  25.008  25.570  1.00  0.00    -0.200 F 
ENDBRANCH  52  66
BRANCH  53  77
ATOM     77  C   UNL A   1      39.538  33.613  36.663  1.00  0.00     0.064 A 
ATOM     78  C   UNL A   1      38.754  33.180  37.740  1.00  0.00     0.173 A 
ATOM     79  C   UNL A   1      40.131  34.881  36.753  1.00  0.00     0.173 A 
ATOM     80  F   UNL A   1      38.148  31.984  37.688  1.00  0.00    -0.203 F 
ATOM     81  C   UNL A   1      38.556  33.988  38.857  1.00  0.00     0.198 A 
ATOM     82  C   UNL A   1      39.953  35.678  37.881  1.00  0.00     0.198 A 
ATOM     83  F   UNL A   1      40.893  35.339  35.749  1.00  0.00    -0.203 F 
ATOM     84  F   UNL A   1      37.768  33.566  39.856  1.00  0.00    -0.200 F 
ATOM     85  C   UNL A   1      39.161  35.234  38.930  1.00  0.00     0.200 A 
ATOM     86  F   UNL A   1      40.548  36.876  37.953  1.00  0.00    -0.200 F 
ATOM     87  F   UNL A   1      38.974  36.009  40.006  1.00  0.00    -0.200 F 
ENDBRANCH  53  77
BRANCH  65  88
ATOM     88  C   UNL A   1      44.113  28.600  35.091  1.00  0.00     0.064 A 
ATOM     89  C   UNL A   1      43.979  27.495  35.944  1.00  0.00     0.173 A 
ATOM     90  C   UNL A   1      45.395  29.140  34.907  1.00  0.00     0.173 A 
ATOM     91  F   UNL A   1      42.771  26.954  36.163  1.00  0.00    -0.203 F 
ATOM     92  C   UNL A   1      45.084  26.963  36.603  1.00  0.00     0.198 A 
ATOM     93  C   UNL A   1      46.501  28.590  35.548  1.00  0.00     0.198 A 
ATOM     94  F   UNL A   1      45.575  30.193  34.096  1.00  0.00    -0.203 F 
ATOM     95  F   UNL A   1      44.929  25.933  37.444  1.00  0.00    -0.200 F 
ATOM     96  C   UNL A   1      46.345  27.507  36.399  1.00  0.00     0.200 A 
ATOM     97  F   UNL A   1      47.720  29.109  35.343  1.00  0.00    -0.200 F 
ATOM     98  F   UNL A   1      47.408  26.989  37.029  1.00  0.00    -0.200 F 
ENDBRANCH  65  88
ENDBRANCH  39  40
ENDBRANCH  31  34
ENDBRANCH  29  30
ENDBRANCH  28  29
ENDBRANCH  27  28
ENDBRANCH  26  27
ENDBRANCH   1  26
TORSDOF 18
ENDMDL
MODEL 3
REMARK VINA RESULT:     -11.2      1.505      7.596
REMARK SMILES C[NH2+][C@]1(C(=O)NCCCCCCNC(=O)c2ccc(-c3c4nc(c(-c5c(F)c(F)c(F)c(F)c5F)c5ccc([nH]5)c(-c5c(F)c(F)c(F)c(F)c5F)c5nc(c(-c6c(F)c(F)c(F)c(F)c6F)c6ccc3[nH]6)C=C5)C=C4)cc2)CCC[C@@H]1CCSc1cccc(Cl)c1
REMARK SMILES IDX 8 1 7 2 6 3 4 4 5 5 3 7 79 8 82 9 80 10 81 11 2 12 1 13
REMARK SMILES IDX 83 16 84 17 85 18 86 19 87 20 92 21 88 22 90 23 89 24 91 25
REMARK SMILES IDX 9 26 10 27 11 28 12 29 13 30 14 31 15 33 16 34 17 35 78 36
REMARK SMILES IDX 18 37 77 38 19 39 20 40 21 41 71 42 22 43 76 44 70 45 72 46
REMARK SMILES IDX 23 47 75 48 69 49 68 50 24 52 56 53 36 54 55 55 37 56 40 57
REMARK SMILES IDX 54 58 73 59 38 60 39 61 53 63 74 64 41 65 25 66 26 67 34 68
REMARK SMILES IDX 27 69 28 70 32 71 35 72 29 73 30 74 33 75 31 76 57 77 58 78
REMARK SMILES IDX 66 79 59 80 60 81 64 82 67 83 61 84 62 85 65 86 63 87 42 88
REMARK SMILES IDX 43 89 51 90 44 91 45 92 49 93 52 94 46 95 47 96 50 97 48 98
REMARK H PARENT 6 6 2 14 2 15 13 32 72 51 40 62
REMARK Flexibility Score: inf
ROOT
ATOM      1  C   UNL A   1      31.998  29.169  27.241  1.00  0.00     0.021 C 
ENDROOT
BRANCH   1   2
ATOM      2  C   UNL A   1      32.481  27.735  27.012  1.00  0.00     0.116 C 
BRANCH   2   3
ATOM      3  N   UNL A   1      31.382  26.786  27.052  1.00  0.00    -0.351 N 
ATOM      4  C   UNL A   1      31.008  25.755  26.247  1.00  0.00     0.281 C 
ATOM      5  O   UNL A   1      29.917  25.237  26.531  1.00  0.00    -0.268 OA
ATOM      6  H   UNL A   1      30.782  26.917  27.821  1.00  0.00     0.163 HD
BRANCH   4   7
ATOM      7  C   UNL A   1      31.829  25.251  24.996  1.00  0.00     0.178 C 
ATOM      8  C   UNL A   1      31.802  26.320  23.885  1.00  0.00     0.079 C 
ATOM      9  C   UNL A   1      33.341  25.077  25.317  1.00  0.00     0.061 C 
ATOM     10  C   UNL A   1      33.171  26.288  23.205  1.00  0.00     0.008 C 
ATOM     11  C   UNL A   1      34.037  25.291  23.969  1.00  0.00     0.011 C 
BRANCH   7  12
ATOM     12  N   UNL A   1      31.194  23.971  24.572  1.00  0.00    -0.336 N 
ATOM     13  C   UNL A   1      30.607  23.850  23.254  1.00  0.00     0.331 C 
ATOM     14  H   UNL A   1      31.912  23.250  24.640  1.00  0.00     0.346 HD
ATOM     15  H   UNL A   1      30.388  23.894  25.193  1.00  0.00     0.346 HD
ENDBRANCH   7  12
BRANCH   9  16
ATOM     16  C   UNL A   1      33.717  23.759  26.016  1.00  0.00     0.022 C 
BRANCH  16  17
ATOM     17  C   UNL A   1      34.850  22.969  25.350  1.00  0.00     0.075 C 
BRANCH  17  18
ATOM     18  S   UNL A   1      34.949  21.219  25.884  1.00  0.00    -0.126 SA
BRANCH  18  19
ATOM     19  C   UNL A   1      33.949  20.277  24.746  1.00  0.00     0.009 A 
ATOM     20  C   UNL A   1      32.865  20.772  24.015  1.00  0.00     0.015 A 
ATOM     21  C   UNL A   1      34.263  18.916  24.621  1.00  0.00     0.035 A 
ATOM     22  C   UNL A   1      32.160  19.957  23.124  1.00  0.00     0.003 A 
ATOM     23  C   UNL A   1      33.526  18.091  23.772  1.00  0.00     0.042 A 
ATOM     24  C   UNL A   1      32.492  18.611  23.000  1.00  0.00     0.020 A 
ATOM     25  Cl  UNL A   1      33.879  16.409  23.700  1.00  0.00    -0.084 Cl
ENDBRANCH  18  19
ENDBRANCH  17  18
ENDBRANCH  16  17
ENDBRANCH   9  16
ENDBRANCH   4   7
ENDBRANCH   2   3
ENDBRANCH   1   2
BRANCH   1  26
ATOM     26  C   UNL A   1      32.210  30.128  26.061  1.00  0.00     0.002 C 
BRANCH  26  27
ATOM     27  C   UNL A   1      31.076  31.126  25.793  1.00  0.00     0.002 C 
BRANCH  27  28
ATOM     28  C   UNL A   1      31.221  32.491  26.467  1.00  0.00     0.021 C 
BRANCH  28  29
ATOM     29  C   UNL A   1      32.577  32.760  27.111  1.00  0.00     0.116 C 
BRANCH  29  30
ATOM     30  N   UNL A   1      32.675  34.114  27.632  1.00  0.00    -0.352 N 
ATOM     31  C   UNL A   1      33.463  34.645  28.624  1.00  0.00     0.251 C 
ATOM     32  H   UNL A   1      32.073  34.762  27.199  1.00  0.00     0.163 HD
ATOM     33  O   UNL A   1      33.215  35.772  29.046  1.00  0.00    -0.269 OA
BRANCH  31  34
ATOM     34  C   UNL A   1      34.605  33.894  29.207  1.00  0.00     0.039 A 
ATOM     35  C   UNL A   1      34.333  32.836  30.085  1.00  0.00     0.014 A 
ATOM     36  C   UNL A   1      35.932  34.262  28.978  1.00  0.00     0.014 A 
ATOM     37  C   UNL A   1      35.380  32.133  30.693  1.00  0.00     0.010 A 
ATOM     38  C   UNL A   1      36.977  33.505  29.513  1.00  0.00     0.010 A 
ATOM     39  C   UNL A   1      36.716  32.445  30.394  1.00  0.00    -0.014 A 
BRANCH  39  40
ATOM     40  C   UNL A   1      37.849  31.709  31.021  1.00  0.00     0.031 A 
ATOM     41  C   UNL A   1      38.279  32.039  32.427  1.00  0.00     0.074 A 
ATOM     42  C   UNL A   1      38.538  30.794  30.312  1.00  0.00     0.049 A 
ATOM     43  N   UNL A   1      39.312  31.600  33.104  1.00  0.00    -0.248 NA
ATOM     44  C   UNL A   1      37.458  33.017  33.155  1.00  0.00     0.031 C 
ATOM     45  C   UNL A   1      38.259  30.406  28.929  1.00  0.00     0.029 A 
ATOM     46  N   UNL A   1      39.629  30.031  30.656  1.00  0.00    -0.354 N 
ATOM     47  C   UNL A   1      39.284  32.277  34.319  1.00  0.00     0.074 A 
ATOM     48  C   UNL A   1      38.158  33.184  34.269  1.00  0.00     0.031 C 
ATOM     49  C   UNL A   1      39.142  29.468  28.549  1.00  0.00     0.029 A 
ATOM     50  C   UNL A   1      40.072  29.215  29.644  1.00  0.00     0.049 A 
ATOM     51  H   UNL A   1      40.053  30.068  31.544  1.00  0.00     0.167 HD
ATOM     52  C   UNL A   1      40.107  32.142  35.386  1.00  0.00     0.037 A 
ATOM     53  C   UNL A   1      41.116  28.366  29.600  1.00  0.00     0.037 A 
ATOM     54  C   UNL A   1      41.191  31.198  35.463  1.00  0.00     0.049 A 
ATOM     55  C   UNL A   1      41.994  28.204  30.812  1.00  0.00     0.074 A 
ATOM     56  C   UNL A   1      42.030  30.930  36.531  1.00  0.00     0.029 A 
ATOM     57  N   UNL A   1      41.580  30.357  34.430  1.00  0.00    -0.354 N 
ATOM     58  N   UNL A   1      41.926  28.813  31.969  1.00  0.00    -0.248 NA
ATOM     59  C   UNL A   1      43.093  27.231  30.710  1.00  0.00     0.031 C 
ATOM     60  C   UNL A   1      42.948  29.953  36.134  1.00  0.00     0.029 A 
ATOM     61  C   UNL A   1      42.656  29.583  34.832  1.00  0.00     0.049 A 
ATOM     62  H   UNL A   1      41.154  30.318  33.542  1.00  0.00     0.167 HD
ATOM     63  C   UNL A   1      42.953  28.285  32.740  1.00  0.00     0.074 A 
ATOM     64  C   UNL A   1      43.622  27.294  31.924  1.00  0.00     0.031 C 
ATOM     65  C   UNL A   1      43.309  28.595  34.011  1.00  0.00     0.037 A 
BRANCH  52  66
ATOM     66  C   UNL A   1      39.865  33.036  36.567  1.00  0.00     0.064 A 
ATOM     67  C   UNL A   1      40.571  34.236  36.742  1.00  0.00     0.173 A 
ATOM     68  C   UNL A   1      38.888  32.705  37.520  1.00  0.00     0.173 A 
ATOM     69  F   UNL A   1      41.522  34.592  35.865  1.00  0.00    -0.203 F 
ATOM     70  C   UNL A   1      40.335  35.053  37.844  1.00  0.00     0.198 A 
ATOM     71  C   UNL A   1      38.633  33.541  38.604  1.00  0.00     0.198 A 
ATOM     72  F   UNL A   1      38.178  31.574  37.397  1.00  0.00    -0.203 F 
ATOM     73  F   UNL A   1      41.059  36.167  38.018  1.00  0.00    -0.200 F 
ATOM     74  C   UNL A   1      39.362  34.709  38.771  1.00  0.00     0.200 A 
ATOM     75  F   UNL A   1      37.685  33.212  39.493  1.00  0.00    -0.200 F 
ATOM     76  F   UNL A   1      39.134  35.498  39.829  1.00  0.00    -0.200 F 
ENDBRANCH  52  66
BRANCH  53  77
ATOM     77  C   UNL A   1      41.377  27.582  28.365  1.00  0.00     0.064 A 
ATOM     78  C   UNL A   1      42.275  28.047  27.396  1.00  0.00     0.173 A 
ATOM     79  C   UNL A   1      40.740  26.355  28.132  1.00  0.00     0.173 A 
ATOM     80  F   UNL A   1      42.890  29.227  27.564  1.00  0.00    -0.203 F 
ATOM     81  C   UNL A   1      42.516  27.321  26.231  1.00  0.00     0.198 A 
ATOM     82  C   UNL A   1      41.000  25.618  26.980  1.00  0.00     0.198 A 
ATOM     83  F   UNL A   1      39.873  25.866  29.032  1.00  0.00    -0.203 F 
ATOM     84  F   UNL A   1      43.349  27.808  25.301  1.00  0.00    -0.200 F 
ATOM     85  C   UNL A   1      41.883  26.104  26.027  1.00  0.00     0.200 A 
ATOM     86  F   UNL A   1      40.395  24.437  26.791  1.00  0.00    -0.200 F 
ATOM     87  F   UNL A   1      42.118  25.404  24.909  1.00  0.00    -0.200 F 
ENDBRANCH  53  77
BRANCH  65  88
ATOM     88  C   UNL A   1      44.457  27.837  34.609  1.00  0.00     0.064 A 
ATOM     89  C   UNL A   1      44.265  26.613  35.264  1.00  0.00     0.173 A 
ATOM     90  C   UNL A   1      45.768  28.323  34.488  1.00  0.00     0.173 A 
ATOM     91  F   UNL A   1      43.029  26.115  35.418  1.00  0.00    -0.203 F 
ATOM     92  C   UNL A   1      45.344  25.909  35.794  1.00  0.00     0.198 A 
ATOM     93  C   UNL A   1      46.846  27.605  34.997  1.00  0.00     0.198 A 
ATOM     94  F   UNL A   1      46.003  29.487  33.865  1.00  0.00    -0.203 F 
ATOM     95  F   UNL A   1      45.135  24.761  36.450  1.00  0.00    -0.200 F 
ATOM     96  C   UNL A   1      46.634  26.403  35.654  1.00  0.00     0.200 A 
ATOM     97  F   UNL A   1      48.092  28.077  34.853  1.00  0.00    -0.200 F 
ATOM     98  F   UNL A   1      47.670  25.721  36.159  1.00  0.00    -0.200 F 
ENDBRANCH  65  88
ENDBRANCH  39  40
ENDBRANCH  31  34
ENDBRANCH  29  30
ENDBRANCH  28  29
ENDBRANCH  27  28
ENDBRANCH  26  27
ENDBRANCH   1  26
TORSDOF 18
ENDMDL
