MODEL 1
REMARK VINA RESULT:     -12.3      0.000      0.000
REMARK SMILES COc1ccc(C(=O)c2ccccc2)cc1[C@@H](C)C(=O)NCCCCCCNC(=O)c1ccc(-c2c3nc(c(-c4c(F)c(F)c(F)c(F)c4F)c4ccc([nH]4)c(-c4c(F)c(F)c(F)c(F)c4F)c4nc(c(-c5c(F)c(F)c(F)c(F)c5F)c5ccc2[nH]5)C=C4)C=C3)cc1
REMARK SMILES IDX 24 1 23 2 22 3 21 4 19 5 20 6 17 8 18 9 16 10 3 11 4 12 5 13
REMARK SMILES IDX 15 14 6 15 2 16 1 17 7 18 8 19 9 20 10 21 14 22 11 23 13 24
REMARK SMILES IDX 12 25 25 26 26 27 27 28 28 29 29 30 30 32 31 33 32 34 93 35
REMARK SMILES IDX 33 36 92 37 34 38 35 39 36 40 86 41 37 42 91 43 85 44 87 45
REMARK SMILES IDX 38 46 90 47 84 48 83 49 39 51 71 52 51 53 70 54 52 55 55 56
REMARK SMILES IDX 69 57 88 58 53 59 54 60 68 62 89 63 56 64 40 65 41 66 49 67
REMARK SMILES IDX 42 68 43 69 47 70 50 71 44 72 45 73 48 74 46 75 72 76 73 77
REMARK SMILES IDX 81 78 74 79 75 80 79 81 82 82 76 83 77 84 80 85 78 86 57 87
REMARK SMILES IDX 58 88 66 89 59 90 60 91 64 92 67 93 61 94 62 95 65 96 63 97
REMARK H PARENT 21 7 28 31 87 50 55 61
REMARK Flexibility Score: inf
ROOT
ATOM      1  C   UNL A   1      32.405  29.935  26.721  1.00  0.00     0.002 C 
ENDROOT
BRANCH   1   2
ATOM      2  C   UNL A   1      31.881  28.646  27.361  1.00  0.00     0.021 C 
BRANCH   2   3
ATOM      3  C   UNL A   1      32.254  27.347  26.636  1.00  0.00     0.116 C 
BRANCH   3   4
ATOM      4  N   UNL A   1      31.223  26.335  26.774  1.00  0.00    -0.356 N 
ATOM      5  C   UNL A   1      30.210  25.911  25.971  1.00  0.00     0.227 C 
ATOM      6  O   UNL A   1      29.462  25.053  26.462  1.00  0.00    -0.274 OA
ATOM      7  H   UNL A   1      31.265  25.851  27.630  1.00  0.00     0.163 HD
BRANCH   5   8
ATOM      8  C   UNL A   1      29.926  26.431  24.550  1.00  0.00     0.109 C 
ATOM      9  C   UNL A   1      28.471  26.396  24.088  1.00  0.00     0.023 C 
BRANCH   8  10
ATOM     10  C   UNL A   1      30.918  25.919  23.513  1.00  0.00     0.007 A 
ATOM     11  C   UNL A   1      31.308  26.683  22.402  1.00  0.00     0.122 A 
ATOM     12  C   UNL A   1      32.238  26.192  21.480  1.00  0.00     0.047 A 
ATOM     13  C   UNL A   1      32.790  24.921  21.646  1.00  0.00     0.016 A 
ATOM     14  C   UNL A   1      31.470  24.633  23.641  1.00  0.00     0.020 A 
ATOM     15  C   UNL A   1      32.385  24.117  22.714  1.00  0.00     0.023 A 
BRANCH  11  16
ATOM     16  O   UNL A   1      30.689  27.860  22.075  1.00  0.00    -0.496 OA
ATOM     17  C   UNL A   1      31.323  29.002  22.652  1.00  0.00     0.278 C 
ENDBRANCH  11  16
BRANCH  15  18
ATOM     18  C   UNL A   1      32.980  22.757  22.847  1.00  0.00     0.193 C 
ATOM     19  O   UNL A   1      32.412  21.799  22.327  1.00  0.00    -0.289 OA
BRANCH  18  20
ATOM     20  C   UNL A   1      34.264  22.502  23.551  1.00  0.00     0.022 A 
ATOM     21  C   UNL A   1      35.403  23.149  23.064  1.00  0.00     0.012 A 
ATOM     22  C   UNL A   1      34.381  21.614  24.629  1.00  0.00     0.012 A 
ATOM     23  C   UNL A   1      36.641  22.931  23.665  1.00  0.00     0.001 A 
ATOM     24  C   UNL A   1      35.621  21.423  25.246  1.00  0.00     0.001 A 
ATOM     25  C   UNL A   1      36.751  22.082  24.764  1.00  0.00     0.000 A 
ENDBRANCH  18  20
ENDBRANCH  15  18
ENDBRANCH   8  10
ENDBRANCH   5   8
ENDBRANCH   3   4
ENDBRANCH   2   3
ENDBRANCH   1   2
BRANCH   1  26
ATOM     26  C   UNL A   1      31.360  30.823  26.030  1.00  0.00     0.002 C 
BRANCH  26  27
ATOM     27  C   UNL A   1      31.251  32.269  26.532  1.00  0.00     0.021 C 
BRANCH  27  28
ATOM     28  C   UNL A   1      32.556  32.913  27.008  1.00  0.00     0.116 C 
BRANCH  28  29
ATOM     29  N   UNL A   1      32.350  34.204  27.640  1.00  0.00    -0.352 N 
ATOM     30  C   UNL A   1      33.028  34.802  28.679  1.00  0.00     0.251 C 
ATOM     31  H   UNL A   1      31.610  34.736  27.267  1.00  0.00     0.163 HD
ATOM     32  O   UNL A   1      32.597  35.844  29.161  1.00  0.00    -0.269 OA
BRANCH  30  33
ATOM     33  C   UNL A   1      34.264  34.203  29.247  1.00  0.00     0.039 A 
ATOM     34  C   UNL A   1      34.143  33.232  30.244  1.00  0.00     0.014 A 
ATOM     35  C   UNL A   1      35.537  34.637  28.874  1.00  0.00     0.014 A 
ATOM     36  C   UNL A   1      35.288  32.670  30.824  1.00  0.00     0.010 A 
ATOM     37  C   UNL A   1      36.683  34.027  29.404  1.00  0.00     0.010 A 
ATOM     38  C   UNL A   1      36.575  33.039  30.396  1.00  0.00    -0.014 A 
BRANCH  38  39
ATOM     39  C   UNL A   1      37.779  32.382  30.992  1.00  0.00     0.031 A 
ATOM     40  C   UNL A   1      38.283  32.747  32.365  1.00  0.00     0.074 A 
ATOM     41  C   UNL A   1      38.436  31.433  30.294  1.00  0.00     0.049 A 
ATOM     42  N   UNL A   1      39.250  32.198  33.065  1.00  0.00    -0.248 NA
ATOM     43  C   UNL A   1      37.638  33.885  33.034  1.00  0.00     0.031 C 
ATOM     44  C   UNL A   1      38.121  31.020  28.927  1.00  0.00     0.029 A 
ATOM     45  N   UNL A   1      39.500  30.634  30.645  1.00  0.00    -0.354 N 
ATOM     46  C   UNL A   1      39.329  32.925  34.246  1.00  0.00     0.074 A 
ATOM     47  C   UNL A   1      38.352  33.988  34.147  1.00  0.00     0.031 C 
ATOM     48  C   UNL A   1      38.942  30.019  28.570  1.00  0.00     0.029 A 
ATOM     49  C   UNL A   1      39.855  29.730  29.673  1.00  0.00     0.049 A 
ATOM     50  H   UNL A   1      39.964  30.704  31.510  1.00  0.00     0.167 HD
ATOM     51  C   UNL A   1      40.122  32.714  35.327  1.00  0.00     0.037 A 
ATOM     52  C   UNL A   1      40.794  28.763  29.670  1.00  0.00     0.037 A 
ATOM     53  C   UNL A   1      41.079  31.645  35.455  1.00  0.00     0.049 A 
ATOM     54  C   UNL A   1      41.635  28.524  30.893  1.00  0.00     0.074 A 
ATOM     55  C   UNL A   1      41.856  31.309  36.552  1.00  0.00     0.029 A 
ATOM     56  N   UNL A   1      41.399  30.744  34.452  1.00  0.00    -0.354 N 
ATOM     57  N   UNL A   1      41.619  29.149  32.044  1.00  0.00    -0.248 NA
ATOM     58  C   UNL A   1      42.616  27.431  30.820  1.00  0.00     0.031 C 
ATOM     59  C   UNL A   1      42.677  30.232  36.198  1.00  0.00     0.029 A 
ATOM     60  C   UNL A   1      42.380  29.867  34.896  1.00  0.00     0.049 A 
ATOM     61  H   UNL A   1      40.991  30.727  33.557  1.00  0.00     0.167 HD
ATOM     62  C   UNL A   1      42.567  28.515  32.837  1.00  0.00     0.074 A 
ATOM     63  C   UNL A   1      43.126  27.440  32.043  1.00  0.00     0.031 C 
ATOM     64  C   UNL A   1      42.940  28.802  34.108  1.00  0.00     0.037 A 
BRANCH  51  65
ATOM     65  C   UNL A   1      39.979  33.661  36.485  1.00  0.00     0.064 A 
ATOM     66  C   UNL A   1      40.697  34.866  36.538  1.00  0.00     0.173 A 
ATOM     67  C   UNL A   1      39.074  33.391  37.522  1.00  0.00     0.173 A 
ATOM     68  F   UNL A   1      41.577  35.170  35.573  1.00  0.00    -0.203 F 
ATOM     69  C   UNL A   1      40.536  35.750  37.602  1.00  0.00     0.198 A 
ATOM     70  C   UNL A   1      38.896  34.290  38.571  1.00  0.00     0.198 A 
ATOM     71  F   UNL A   1      38.354  32.259  37.513  1.00  0.00    -0.203 F 
ATOM     72  F   UNL A   1      41.265  36.873  37.654  1.00  0.00    -0.200 F 
ATOM     73  C   UNL A   1      39.631  35.464  38.614  1.00  0.00     0.200 A 
ATOM     74  F   UNL A   1      38.009  34.020  39.539  1.00  0.00    -0.200 F 
ATOM     75  F   UNL A   1      39.472  36.320  39.633  1.00  0.00    -0.200 F 
ENDBRANCH  51  65
BRANCH  52  76
ATOM     76  C   UNL A   1      40.960  27.905  28.468  1.00  0.00     0.064 A 
ATOM     77  C   UNL A   1      41.814  28.286  27.423  1.00  0.00     0.173 A 
ATOM     78  C   UNL A   1      40.261  26.697  28.336  1.00  0.00     0.173 A 
ATOM     79  F   UNL A   1      42.484  29.444  27.496  1.00  0.00    -0.203 F 
ATOM     80  C   UNL A   1      41.950  27.496  26.283  1.00  0.00     0.198 A 
ATOM     81  C   UNL A   1      40.418  25.896  27.208  1.00  0.00     0.198 A 
ATOM     82  F   UNL A   1      39.434  26.289  29.311  1.00  0.00    -0.203 F 
ATOM     83  F   UNL A   1      42.740  27.903  25.281  1.00  0.00    -0.200 F 
ATOM     84  C   UNL A   1      41.257  26.300  26.179  1.00  0.00     0.200 A 
ATOM     85  F   UNL A   1      39.757  24.735  27.115  1.00  0.00    -0.200 F 
ATOM     86  F   UNL A   1      41.391  25.539  25.083  1.00  0.00    -0.200 F 
ENDBRANCH  52  76
BRANCH  64  87
ATOM     87  C   UNL A   1      43.992  27.928  34.731  1.00  0.00     0.064 A 
ATOM     88  C   UNL A   1      45.352  28.274  34.696  1.00  0.00     0.173 A 
ATOM     89  C   UNL A   1      43.636  26.739  35.386  1.00  0.00     0.173 A 
ATOM     90  F   UNL A   1      45.747  29.392  34.069  1.00  0.00    -0.203 F 
ATOM     91  C   UNL A   1      46.317  27.446  35.263  1.00  0.00     0.198 A 
ATOM     92  C   UNL A   1      44.602  25.928  35.978  1.00  0.00     0.198 A 
ATOM     93  F   UNL A   1      42.351  26.363  35.455  1.00  0.00    -0.203 F 
ATOM     94  F   UNL A   1      47.614  27.770  35.168  1.00  0.00    -0.200 F 
ATOM     95  C   UNL A   1      45.942  26.277  35.908  1.00  0.00     0.200 A 
ATOM     96  F   UNL A   1      44.236  24.804  36.609  1.00  0.00    -0.200 F 
ATOM     97  F   UNL A   1      46.873  25.482  36.452  1.00  0.00    -0.200 F 
ENDBRANCH  64  87
ENDBRANCH  38  39
ENDBRANCH  30  33
ENDBRANCH  28  29
ENDBRANCH  27  28
ENDBRANCH  26  27
ENDBRANCH   1  26
TORSDOF 17
ENDMDL
MODEL 2
REMARK VINA RESULT:     -12.1      1.205      2.071
REMARK SMILES COc1ccc(C(=O)c2ccccc2)cc1[C@@H](C)C(=O)NCCCCCCNC(=O)c1ccc(-c2c3nc(c(-c4c(F)c(F)c(F)c(F)c4F)c4ccc([nH]4)c(-c4c(F)c(F)c(F)c(F)c4F)c4nc(c(-c5c(F)c(F)c(F)c(F)c5F)c5ccc2[nH]5)C=C4)C=C3)cc1
REMARK SMILES IDX 24 1 23 2 22 3 21 4 19 5 20 6 17 8 18 9 16 10 3 11 4 12 5 13
REMARK SMILES IDX 15 14 6 15 2 16 1 17 7 18 8 19 9 20 10 21 14 22 11 23 13 24
REMARK SMILES IDX 12 25 25 26 26 27 27 28 28 29 29 30 30 32 31 33 32 34 93 35
REMARK SMILES IDX 33 36 92 37 34 38 35 39 36 40 86 41 37 42 91 43 85 44 87 45
REMARK SMILES IDX 38 46 90 47 84 48 83 49 39 51 71 52 51 53 70 54 52 55 55 56
REMARK SMILES IDX 69 57 88 58 53 59 54 60 68 62 89 63 56 64 40 65 41 66 49 67
REMARK SMILES IDX 42 68 43 69 47 70 50 71 44 72 45 73 48 74 46 75 72 76 73 77
REMARK SMILES IDX 81 78 74 79 75 80 79 81 82 82 76 83 77 84 80 85 78 86 57 87
REMARK SMILES IDX 58 88 66 89 59 90 60 91 64 92 67 93 61 94 62 95 65 96 63 97
REMARK H PARENT 21 7 28 31 87 50 55 61
REMARK Flexibility Score: inf
ROOT
ATOM      1  C   UNL A   1      32.321  30.229  26.369  1.00  0.00     0.002 C 
ENDROOT
BRANCH   1   2
ATOM      2  C   UNL A   1      31.989  28.975  27.183  1.00  0.00     0.021 C 
BRANCH   2   3
ATOM      3  C   UNL A   1      32.498  27.651  26.599  1.00  0.00     0.116 C 
BRANCH   3   4
ATOM      4  N   UNL A   1      31.591  26.552  26.875  1.00  0.00    -0.356 N 
ATOM      5  C   UNL A   1      31.024  25.587  26.103  1.00  0.00     0.227 C 
ATOM      6  O   UNL A   1      30.221  24.842  26.683  1.00  0.00    -0.274 OA
ATOM      7  H   UNL A   1      31.331  26.492  27.822  1.00  0.00     0.163 HD
BRANCH   5   8
ATOM      8  C   UNL A   1      31.287  25.383  24.599  1.00  0.00     0.109 C 
ATOM      9  C   UNL A   1      30.060  25.178  23.713  1.00  0.00     0.023 C 
BRANCH   8  10
ATOM     10  C   UNL A   1      32.426  24.412  24.314  1.00  0.00     0.007 A 
ATOM     11  C   UNL A   1      33.499  24.737  23.468  1.00  0.00     0.122 A 
ATOM     12  C   UNL A   1      34.540  23.830  23.245  1.00  0.00     0.047 A 
ATOM     13  C   UNL A   1      34.525  22.576  23.856  1.00  0.00     0.016 A 
ATOM     14  C   UNL A   1      32.424  23.132  24.896  1.00  0.00     0.020 A 
ATOM     15  C   UNL A   1      33.448  22.205  24.664  1.00  0.00     0.023 A 
BRANCH  11  16
ATOM     16  O   UNL A   1      33.502  25.870  22.701  1.00  0.00    -0.496 OA
ATOM     17  C   UNL A   1      32.917  25.673  21.413  1.00  0.00     0.278 C 
ENDBRANCH  11  16
BRANCH  15  18
ATOM     18  C   UNL A   1      33.456  20.849  25.283  1.00  0.00     0.193 C 
ATOM     19  O   UNL A   1      33.396  20.748  26.507  1.00  0.00    -0.289 OA
BRANCH  18  20
ATOM     20  C   UNL A   1      33.491  19.596  24.485  1.00  0.00     0.022 A 
ATOM     21  C   UNL A   1      32.456  19.389  23.568  1.00  0.00     0.012 A 
ATOM     22  C   UNL A   1      34.474  18.611  24.652  1.00  0.00     0.012 A 
ATOM     23  C   UNL A   1      32.418  18.222  22.808  1.00  0.00     0.001 A 
ATOM     24  C   UNL A   1      34.447  17.455  23.864  1.00  0.00     0.001 A 
ATOM     25  C   UNL A   1      33.419  17.262  22.942  1.00  0.00     0.000 A 
ENDBRANCH  18  20
ENDBRANCH  15  18
ENDBRANCH   8  10
ENDBRANCH   5   8
ENDBRANCH   3   4
ENDBRANCH   2   3
ENDBRANCH   1   2
BRANCH   1  26
ATOM     26  C   UNL A   1      31.133  31.119  25.978  1.00  0.00     0.002 C 
BRANCH  26  27
ATOM     27  C   UNL A   1      31.240  32.605  26.346  1.00  0.00     0.021 C 
BRANCH  27  28
ATOM     28  C   UNL A   1      32.469  33.004  27.167  1.00  0.00     0.116 C 
BRANCH  28  29
ATOM     29  N   UNL A   1      32.346  34.324  27.761  1.00  0.00    -0.352 N 
ATOM     30  C   UNL A   1      33.047  34.899  28.797  1.00  0.00     0.251 C 
ATOM     31  H   UNL A   1      31.654  34.897  27.359  1.00  0.00     0.163 HD
ATOM     32  O   UNL A   1      32.684  35.983  29.243  1.00  0.00    -0.269 OA
BRANCH  30  33
ATOM     33  C   UNL A   1      34.225  34.229  29.405  1.00  0.00     0.039 A 
ATOM     34  C   UNL A   1      35.493  34.495  28.885  1.00  0.00     0.014 A 
ATOM     35  C   UNL A   1      34.094  33.284  30.425  1.00  0.00     0.014 A 
ATOM     36  C   UNL A   1      36.622  33.856  29.414  1.00  0.00     0.010 A 
ATOM     37  C   UNL A   1      35.230  32.695  31.001  1.00  0.00     0.010 A 
ATOM     38  C   UNL A   1      36.512  32.965  30.497  1.00  0.00    -0.014 A 
BRANCH  38  39
ATOM     39  C   UNL A   1      37.738  32.341  31.080  1.00  0.00     0.031 A 
ATOM     40  C   UNL A   1      38.243  32.715  32.452  1.00  0.00     0.074 A 
ATOM     41  C   UNL A   1      38.417  31.414  30.374  1.00  0.00     0.049 A 
ATOM     42  N   UNL A   1      39.231  32.191  33.141  1.00  0.00    -0.248 NA
ATOM     43  C   UNL A   1      37.571  33.831  33.129  1.00  0.00     0.031 C 
ATOM     44  C   UNL A   1      38.103  30.997  29.007  1.00  0.00     0.029 A 
ATOM     45  N   UNL A   1      39.506  30.644  30.713  1.00  0.00    -0.354 N 
ATOM     46  C   UNL A   1      39.299  32.915  34.325  1.00  0.00     0.074 A 
ATOM     47  C   UNL A   1      38.291  33.951  34.238  1.00  0.00     0.031 C 
ATOM     48  C   UNL A   1      38.949  30.021  28.640  1.00  0.00     0.029 A 
ATOM     49  C   UNL A   1      39.879  29.755  29.735  1.00  0.00     0.049 A 
ATOM     50  H   UNL A   1      39.975  30.724  31.575  1.00  0.00     0.167 HD
ATOM     51  C   UNL A   1      40.106  32.723  35.399  1.00  0.00     0.037 A 
ATOM     52  C   UNL A   1      40.845  28.815  29.720  1.00  0.00     0.037 A 
ATOM     53  C   UNL A   1      41.095  31.681  35.514  1.00  0.00     0.049 A 
ATOM     54  C   UNL A   1      41.703  28.596  30.936  1.00  0.00     0.074 A 
ATOM     55  C   UNL A   1      41.889  31.364  36.604  1.00  0.00     0.029 A 
ATOM     56  N   UNL A   1      41.432  30.794  34.505  1.00  0.00    -0.354 N 
ATOM     57  N   UNL A   1      41.678  29.216  32.089  1.00  0.00    -0.248 NA
ATOM     58  C   UNL A   1      42.714  27.531  30.851  1.00  0.00     0.031 C 
ATOM     59  C   UNL A   1      42.738  30.312  36.239  1.00  0.00     0.029 A 
ATOM     60  C   UNL A   1      42.440  29.944  34.938  1.00  0.00     0.049 A 
ATOM     61  H   UNL A   1      41.017  30.769  33.613  1.00  0.00     0.167 HD
ATOM     62  C   UNL A   1      42.650  28.606  32.872  1.00  0.00     0.074 A 
ATOM     63  C   UNL A   1      43.233  27.550  32.070  1.00  0.00     0.031 C 
ATOM     64  C   UNL A   1      43.025  28.898  34.141  1.00  0.00     0.037 A 
BRANCH  51  65
ATOM     65  C   UNL A   1      39.946  33.662  36.561  1.00  0.00     0.064 A 
ATOM     66  C   UNL A   1      40.645  34.877  36.623  1.00  0.00     0.173 A 
ATOM     67  C   UNL A   1      39.041  33.372  37.594  1.00  0.00     0.173 A 
ATOM     68  F   UNL A   1      41.524  35.199  35.663  1.00  0.00    -0.203 F 
ATOM     69  C   UNL A   1      40.468  35.752  37.692  1.00  0.00     0.198 A 
ATOM     70  C   UNL A   1      38.846  34.262  38.647  1.00  0.00     0.198 A 
ATOM     71  F   UNL A   1      38.337  32.230  37.575  1.00  0.00    -0.203 F 
ATOM     72  F   UNL A   1      41.180  36.885  37.752  1.00  0.00    -0.200 F 
ATOM     73  C   UNL A   1      39.564  35.447  38.699  1.00  0.00     0.200 A 
ATOM     74  F   UNL A   1      37.960  33.974  39.610  1.00  0.00    -0.200 F 
ATOM     75  F   UNL A   1      39.389  36.295  39.722  1.00  0.00    -0.200 F 
ENDBRANCH  51  65
BRANCH  52  76
ATOM     76  C   UNL A   1      41.026  27.966  28.513  1.00  0.00     0.064 A 
ATOM     77  C   UNL A   1      41.856  28.378  27.461  1.00  0.00     0.173 A 
ATOM     78  C   UNL A   1      40.366  26.736  28.386  1.00  0.00     0.173 A 
ATOM     79  F   UNL A   1      42.488  29.558  27.530  1.00  0.00    -0.203 F 
ATOM     80  C   UNL A   1      42.005  27.597  26.317  1.00  0.00     0.198 A 
ATOM     81  C   UNL A   1      40.537  25.945  27.253  1.00  0.00     0.198 A 
ATOM     82  F   UNL A   1      39.564  26.299  29.368  1.00  0.00    -0.203 F 
ATOM     83  F   UNL A   1      42.770  28.033  25.307  1.00  0.00    -0.200 F 
ATOM     84  C   UNL A   1      41.350  26.379  26.216  1.00  0.00     0.200 A 
ATOM     85  F   UNL A   1      39.913  24.763  27.164  1.00  0.00    -0.200 F 
ATOM     86  F   UNL A   1      41.497  25.626  25.116  1.00  0.00    -0.200 F 
ENDBRANCH  52  76
BRANCH  64  87
ATOM     87  C   UNL A   1      44.106  28.053  34.753  1.00  0.00     0.064 A 
ATOM     88  C   UNL A   1      43.811  26.872  35.452  1.00  0.00     0.173 A 
ATOM     89  C   UNL A   1      45.455  28.418  34.626  1.00  0.00     0.173 A 
ATOM     90  F   UNL A   1      42.537  26.486  35.615  1.00  0.00    -0.203 F 
ATOM     91  C   UNL A   1      44.822  26.107  36.027  1.00  0.00     0.198 A 
ATOM     92  C   UNL A   1      46.467  27.635  35.179  1.00  0.00     0.198 A 
ATOM     93  F   UNL A   1      45.795  29.534  33.964  1.00  0.00    -0.203 F 
ATOM     94  F   UNL A   1      44.511  25.013  36.736  1.00  0.00    -0.200 F 
ATOM     95  C   UNL A   1      46.149  26.486  35.886  1.00  0.00     0.200 A 
ATOM     96  F   UNL A   1      47.749  27.997  35.033  1.00  0.00    -0.200 F 
ATOM     97  F   UNL A   1      47.120  25.749  36.443  1.00  0.00    -0.200 F 
ENDBRANCH  64  87
ENDBRANCH  38  39
ENDBRANCH  30  33
ENDBRANCH  28  29
ENDBRANCH  27  28
ENDBRANCH  26  27
ENDBRANCH   1  26
TORSDOF 17
ENDMDL
MODEL 3
REMARK VINA RESULT:     -11.9      2.096      7.790
REMARK SMILES COc1ccc(C(=O)c2ccccc2)cc1[C@@H](C)C(=O)NCCCCCCNC(=O)c1ccc(-c2c3nc(c(-c4c(F)c(F)c(F)c(F)c4F)c4ccc([nH]4)c(-c4c(F)c(F)c(F)c(F)c4F)c4nc(c(-c5c(F)c(F)c(F)c(F)c5F)c5ccc2[nH]5)C=C4)C=C3)cc1
REMARK SMILES IDX 24 1 23 2 22 3 21 4 19 5 20 6 17 8 18 9 16 10 3 11 4 12 5 13
REMARK SMILES IDX 15 14 6 15 2 16 1 17 7 18 8 19 9 20 10 21 14 22 11 23 13 24
REMARK SMILES IDX 12 25 25 26 26 27 27 28 28 29 29 30 30 32 31 33 32 34 93 35
REMARK SMILES IDX 33 36 92 37 34 38 35 39 36 40 86 41 37 42 91 43 85 44 87 45
REMARK SMILES IDX 38 46 90 47 84 48 83 49 39 51 71 52 51 53 70 54 52 55 55 56
REMARK SMILES IDX 69 57 88 58 53 59 54 60 68 62 89 63 56 64 40 65 41 66 49 67
REMARK SMILES IDX 42 68 43 69 47 70 50 71 44 72 45 73 48 74 46 75 72 76 73 77
REMARK SMILES IDX 81 78 74 79 75 80 79 81 82 82 76 83 77 84 80 85 78 86 57 87
REMARK SMILES IDX 58 88 66 89 59 90 60 91 64 92 67 93 61 94 62 95 65 96 63 97
REMARK H PARENT 21 7 28 31 87 50 55 61
REMARK Flexibility Score: inf
ROOT
ATOM      1  C   UNL A   1      35.178  33.202  28.019  1.00  0.00     0.002 C 
ENDROOT
BRANCH   1   2
ATOM      2  C   UNL A   1      35.074  31.674  28.032  1.00  0.00     0.021 C 
BRANCH   2   3
ATOM      3  C   UNL A   1      33.787  31.092  27.437  1.00  0.00     0.116 C 
BRANCH   3   4
ATOM      4  N   UNL A   1      34.062  30.061  26.453  1.00  0.00    -0.356 N 
ATOM      5  C   UNL A   1      33.342  29.019  25.958  1.00  0.00     0.227 C 
ATOM      6  O   UNL A   1      33.943  28.284  25.161  1.00  0.00    -0.274 OA
ATOM      7  H   UNL A   1      34.963  30.130  26.060  1.00  0.00     0.163 HD
BRANCH   5   8
ATOM      8  C   UNL A   1      31.884  28.691  26.330  1.00  0.00     0.109 C 
ATOM      9  C   UNL A   1      31.512  28.814  27.806  1.00  0.00     0.023 C 
BRANCH   8  10
ATOM     10  C   UNL A   1      31.365  27.423  25.664  1.00  0.00     0.007 A 
ATOM     11  C   UNL A   1      30.844  27.416  24.360  1.00  0.00     0.122 A 
ATOM     12  C   UNL A   1      30.396  26.229  23.770  1.00  0.00     0.047 A 
ATOM     13  C   UNL A   1      30.450  25.027  24.476  1.00  0.00     0.016 A 
ATOM     14  C   UNL A   1      31.384  26.202  26.361  1.00  0.00     0.020 A 
ATOM     15  C   UNL A   1      30.917  25.010  25.792  1.00  0.00     0.023 A 
BRANCH  11  16
ATOM     16  O   UNL A   1      30.598  28.571  23.669  1.00  0.00    -0.496 OA
ATOM     17  C   UNL A   1      29.890  28.351  22.449  1.00  0.00     0.278 C 
ENDBRANCH  11  16
BRANCH  15  18
ATOM     18  C   UNL A   1      30.941  23.710  26.523  1.00  0.00     0.193 C 
ATOM     19  O   UNL A   1      30.046  23.457  27.326  1.00  0.00    -0.289 OA
BRANCH  18  20
ATOM     20  C   UNL A   1      31.983  22.676  26.297  1.00  0.00     0.022 A 
ATOM     21  C   UNL A   1      31.788  21.789  25.233  1.00  0.00     0.012 A 
ATOM     22  C   UNL A   1      33.103  22.525  27.125  1.00  0.00     0.012 A 
ATOM     23  C   UNL A   1      32.716  20.780  24.986  1.00  0.00     0.001 A 
ATOM     24  C   UNL A   1      34.047  21.529  26.853  1.00  0.00     0.001 A 
ATOM     25  C   UNL A   1      33.853  20.657  25.783  1.00  0.00     0.000 A 
ENDBRANCH  18  20
ENDBRANCH  15  18
ENDBRANCH   8  10
ENDBRANCH   5   8
ENDBRANCH   3   4
ENDBRANCH   2   3
ENDBRANCH   1   2
BRANCH   1  26
ATOM     26  C   UNL A   1      34.634  33.930  29.257  1.00  0.00     0.002 C 
BRANCH  26  27
ATOM     27  C   UNL A   1      33.290  34.653  29.091  1.00  0.00     0.021 C 
BRANCH  27  28
ATOM     28  C   UNL A   1      33.275  36.133  29.479  1.00  0.00     0.116 C 
BRANCH  28  29
ATOM     29  N   UNL A   1      32.443  36.403  30.640  1.00  0.00    -0.352 N 
ATOM     30  C   UNL A   1      32.548  35.942  31.932  1.00  0.00     0.251 C 
ATOM     31  H   UNL A   1      31.687  37.011  30.476  1.00  0.00     0.163 HD
ATOM     32  O   UNL A   1      31.649  36.178  32.733  1.00  0.00    -0.269 OA
BRANCH  30  33
ATOM     33  C   UNL A   1      33.719  35.142  32.380  1.00  0.00     0.039 A 
ATOM     34  C   UNL A   1      34.990  35.715  32.310  1.00  0.00     0.014 A 
ATOM     35  C   UNL A   1      33.594  33.814  32.792  1.00  0.00     0.014 A 
ATOM     36  C   UNL A   1      36.119  34.979  32.694  1.00  0.00     0.010 A 
ATOM     37  C   UNL A   1      34.715  33.099  33.241  1.00  0.00     0.010 A 
ATOM     38  C   UNL A   1      35.997  33.669  33.190  1.00  0.00    -0.014 A 
BRANCH  38  39
ATOM     39  C   UNL A   1      37.211  32.926  33.647  1.00  0.00     0.031 A 
ATOM     40  C   UNL A   1      37.903  31.918  32.763  1.00  0.00     0.074 A 
ATOM     41  C   UNL A   1      37.713  33.158  34.877  1.00  0.00     0.049 A 
ATOM     42  N   UNL A   1      39.024  31.266  32.972  1.00  0.00    -0.248 NA
ATOM     43  C   UNL A   1      37.246  31.580  31.494  1.00  0.00     0.031 C 
ATOM     44  C   UNL A   1      37.119  34.044  35.877  1.00  0.00     0.029 A 
ATOM     45  N   UNL A   1      38.846  32.676  35.492  1.00  0.00    -0.354 N 
ATOM     46  C   UNL A   1      39.201  30.443  31.867  1.00  0.00     0.074 A 
ATOM     47  C   UNL A   1      38.045  30.635  31.016  1.00  0.00     0.031 C 
ATOM     48  C   UNL A   1      37.911  34.077  36.962  1.00  0.00     0.029 A 
ATOM     49  C   UNL A   1      39.059  33.199  36.744  1.00  0.00     0.049 A 
ATOM     50  H   UNL A   1      39.447  32.018  35.074  1.00  0.00     0.167 HD
ATOM     51  C   UNL A   1      40.240  29.622  31.571  1.00  0.00     0.037 A 
ATOM     52  C   UNL A   1      40.071  33.014  37.615  1.00  0.00     0.037 A 
ATOM     53  C   UNL A   1      41.410  29.440  32.392  1.00  0.00     0.049 A 
ATOM     54  C   UNL A   1      41.230  32.128  37.249  1.00  0.00     0.074 A 
ATOM     55  C   UNL A   1      42.547  28.697  32.120  1.00  0.00     0.029 A 
ATOM     56  N   UNL A   1      41.592  29.999  33.647  1.00  0.00    -0.354 N 
ATOM     57  N   UNL A   1      41.435  31.444  36.151  1.00  0.00    -0.248 NA
ATOM     58  C   UNL A   1      42.307  32.003  38.242  1.00  0.00     0.031 C 
ATOM     59  C   UNL A   1      43.398  28.769  33.229  1.00  0.00     0.029 A 
ATOM     60  C   UNL A   1      42.812  29.596  34.173  1.00  0.00     0.049 A 
ATOM     61  H   UNL A   1      40.951  30.594  34.099  1.00  0.00     0.167 HD
ATOM     62  C   UNL A   1      42.669  30.827  36.310  1.00  0.00     0.074 A 
ATOM     63  C   UNL A   1      43.178  31.235  37.603  1.00  0.00     0.031 C 
ATOM     64  C   UNL A   1      43.318  29.995  35.460  1.00  0.00     0.037 A 
BRANCH  51  65
ATOM     65  C   UNL A   1      40.169  28.854  30.281  1.00  0.00     0.064 A 
ATOM     66  C   UNL A   1      40.769  29.336  29.108  1.00  0.00     0.173 A 
ATOM     67  C   UNL A   1      39.545  27.598  30.231  1.00  0.00     0.173 A 
ATOM     68  F   UNL A   1      41.375  30.533  29.102  1.00  0.00    -0.203 F 
ATOM     69  C   UNL A   1      40.721  28.603  27.925  1.00  0.00     0.198 A 
ATOM     70  C   UNL A   1      39.523  26.855  29.054  1.00  0.00     0.198 A 
ATOM     71  F   UNL A   1      38.968  27.086  31.328  1.00  0.00    -0.203 F 
ATOM     72  F   UNL A   1      41.262  29.103  26.807  1.00  0.00    -0.200 F 
ATOM     73  C   UNL A   1      40.105  27.361  27.901  1.00  0.00     0.200 A 
ATOM     74  F   UNL A   1      38.941  25.648  29.036  1.00  0.00    -0.200 F 
ATOM     75  F   UNL A   1      40.066  26.653  26.763  1.00  0.00    -0.200 F 
ENDBRANCH  51  65
BRANCH  52  76
ATOM     76  C   UNL A   1      40.056  33.728  38.919  1.00  0.00     0.064 A 
ATOM     77  C   UNL A   1      39.319  33.231  40.003  1.00  0.00     0.173 A 
ATOM     78  C   UNL A   1      40.768  34.921  39.101  1.00  0.00     0.173 A 
ATOM     79  F   UNL A   1      38.603  32.106  39.867  1.00  0.00    -0.203 F 
ATOM     80  C   UNL A   1      39.281  33.913  41.218  1.00  0.00     0.198 A 
ATOM     81  C   UNL A   1      40.751  35.587  40.324  1.00  0.00     0.198 A 
ATOM     82  F   UNL A   1      41.491  35.433  38.094  1.00  0.00    -0.203 F 
ATOM     83  F   UNL A   1      38.535  33.441  42.225  1.00  0.00    -0.200 F 
ATOM     84  C   UNL A   1      40.001  35.087  41.379  1.00  0.00     0.200 A 
ATOM     85  F   UNL A   1      41.458  36.714  40.481  1.00  0.00    -0.200 F 
ATOM     86  F   UNL A   1      39.968  35.740  42.549  1.00  0.00    -0.200 F 
ENDBRANCH  52  76
BRANCH  64  87
ATOM     87  C   UNL A   1      44.663  29.482  35.890  1.00  0.00     0.064 A 
ATOM     88  C   UNL A   1      44.801  28.268  36.581  1.00  0.00     0.173 A 
ATOM     89  C   UNL A   1      45.830  30.203  35.594  1.00  0.00     0.173 A 
ATOM     90  F   UNL A   1      43.716  27.548  36.902  1.00  0.00    -0.203 F 
ATOM     91  C   UNL A   1      46.052  27.813  36.988  1.00  0.00     0.198 A 
ATOM     92  C   UNL A   1      47.083  29.730  35.977  1.00  0.00     0.198 A 
ATOM     93  F   UNL A   1      45.757  31.366  34.931  1.00  0.00    -0.203 F 
ATOM     94  F   UNL A   1      46.154  26.679  37.695  1.00  0.00    -0.200 F 
ATOM     95  C   UNL A   1      47.192  28.541  36.682  1.00  0.00     0.200 A 
ATOM     96  F   UNL A   1      48.185  30.430  35.672  1.00  0.00    -0.200 F 
ATOM     97  F   UNL A   1      48.396  28.102  37.076  1.00  0.00    -0.200 F 
ENDBRANCH  64  87
ENDBRANCH  38  39
ENDBRANCH  30  33
ENDBRANCH  28  29
ENDBRANCH  27  28
ENDBRANCH  26  27
ENDBRANCH   1  26
TORSDOF 17
ENDMDL
