MODEL 1
REMARK VINA RESULT:     -12.7      0.000      0.000
REMARK SMILES O=C(NCCCCCCNC(=O)c1ccc(C[N@H+]2CC[N@H+]3CCCC[C@@H]3C2)c(F)c1)c1ccc(-c2c3nc(c(-c4c(F)c(F)c(F)c(F)c4F)c4ccc([nH]4)c(-c4c(F)c(F)c(F)c(F)c4F)c4nc(c(-c5c(F)c(F)c(F)c(F)c5F)c5ccc2[nH]5)C=C4)C=C3)cc1
REMARK SMILES IDX 6 1 5 2 4 3 3 4 1 5 2 6 31 8 32 9 93 10 33 11 92 12 34 13
REMARK SMILES IDX 35 14 36 15 86 16 37 17 91 18 85 19 87 20 38 21 90 22 84 23
REMARK SMILES IDX 83 24 39 26 71 27 51 28 70 29 52 30 55 31 69 32 88 33 53 34
REMARK SMILES IDX 54 35 68 37 89 38 56 39 40 40 41 41 49 42 42 43 43 44 47 45
REMARK SMILES IDX 50 46 44 47 45 48 48 49 46 50 72 51 73 52 81 53 74 54 75 55
REMARK SMILES IDX 79 56 82 57 76 58 77 59 80 60 78 61 57 62 58 63 66 64 59 65
REMARK SMILES IDX 60 66 64 67 67 68 61 69 62 70 65 71 63 72 7 73 8 74 9 75
REMARK SMILES IDX 10 76 11 77 12 79 13 80 14 81 30 82 15 83 28 84 16 85 29 86
REMARK SMILES IDX 17 87 18 88 19 89 27 90 20 92 26 93 21 94 25 95 22 96 24 98
REMARK SMILES IDX 23 99
REMARK H PARENT 3 7 87 25 55 36 10 78 18 91 21 97
REMARK Flexibility Score: inf
ROOT
ATOM      1  C   UNL A   1      37.412  21.231  24.557  1.00  0.00     0.002 C 
ENDROOT
BRANCH   1   2
ATOM      2  C   UNL A   1      38.230  19.998  24.949  1.00  0.00     0.021 C 
BRANCH   2   3
ATOM      3  C   UNL A   1      39.257  20.226  26.053  1.00  0.00     0.116 C 
BRANCH   3   4
ATOM      4  N   UNL A   1      40.330  19.245  26.013  1.00  0.00    -0.352 N 
ATOM      5  O   UNL A   1      42.448  18.499  25.823  1.00  0.00    -0.269 OA
ATOM      6  C   UNL A   1      41.688  19.429  26.083  1.00  0.00     0.251 C 
ATOM      7  H   UNL A   1      40.039  18.310  25.921  1.00  0.00     0.163 HD
BRANCH   6   8
ATOM      8  C   UNL A   1      42.251  20.742  26.471  1.00  0.00     0.039 A 
ATOM      9  C   UNL A   1      42.639  21.672  25.502  1.00  0.00     0.014 A 
ATOM     10  C   UNL A   1      42.318  21.077  27.827  1.00  0.00     0.014 A 
ATOM     11  C   UNL A   1      43.172  22.899  25.889  1.00  0.00     0.010 A 
ATOM     12  C   UNL A   1      42.789  22.336  28.213  1.00  0.00     0.010 A 
ATOM     13  C   UNL A   1      43.222  23.255  27.245  1.00  0.00    -0.014 A 
BRANCH  13  14
ATOM     14  C   UNL A   1      43.603  24.638  27.629  1.00  0.00     0.031 A 
ATOM     15  C   UNL A   1      42.566  25.669  27.968  1.00  0.00     0.074 A 
ATOM     16  C   UNL A   1      44.912  24.958  27.645  1.00  0.00     0.049 A 
ATOM     17  N   UNL A   1      42.735  26.930  28.275  1.00  0.00    -0.248 NA
ATOM     18  C   UNL A   1      41.161  25.236  27.961  1.00  0.00     0.031 C 
ATOM     19  C   UNL A   1      46.003  24.038  27.316  1.00  0.00     0.029 A 
ATOM     20  N   UNL A   1      45.551  26.136  27.943  1.00  0.00    -0.354 N 
ATOM     21  C   UNL A   1      41.463  27.444  28.484  1.00  0.00     0.074 A 
ATOM     22  C   UNL A   1      40.527  26.366  28.254  1.00  0.00     0.031 C 
ATOM     23  C   UNL A   1      47.174  24.677  27.445  1.00  0.00     0.029 A 
ATOM     24  C   UNL A   1      46.916  26.067  27.804  1.00  0.00     0.049 A 
ATOM     25  H   UNL A   1      45.077  26.949  28.230  1.00  0.00     0.167 HD
ATOM     26  C   UNL A   1      41.120  28.704  28.840  1.00  0.00     0.037 A 
ATOM     27  C   UNL A   1      47.858  27.024  27.914  1.00  0.00     0.037 A 
ATOM     28  C   UNL A   1      42.064  29.764  29.091  1.00  0.00     0.049 A 
ATOM     29  C   UNL A   1      47.439  28.420  28.271  1.00  0.00     0.074 A 
ATOM     30  C   UNL A   1      41.811  31.050  29.535  1.00  0.00     0.029 A 
ATOM     31  N   UNL A   1      43.435  29.663  28.912  1.00  0.00    -0.354 N 
ATOM     32  N   UNL A   1      46.238  28.880  28.523  1.00  0.00    -0.248 NA
ATOM     33  C   UNL A   1      48.499  29.436  28.350  1.00  0.00     0.031 C 
ATOM     34  C   UNL A   1      43.022  31.746  29.567  1.00  0.00     0.029 A 
ATOM     35  C   UNL A   1      44.036  30.879  29.195  1.00  0.00     0.049 A 
ATOM     36  H   UNL A   1      43.911  28.849  28.627  1.00  0.00     0.167 HD
ATOM     37  C   UNL A   1      46.395  30.230  28.794  1.00  0.00     0.074 A 
ATOM     38  C   UNL A   1      47.811  30.516  28.699  1.00  0.00     0.031 C 
ATOM     39  C   UNL A   1      45.447  31.150  29.090  1.00  0.00     0.037 A 
BRANCH  26  40
ATOM     40  C   UNL A   1      39.666  29.041  28.988  1.00  0.00     0.064 A 
ATOM     41  C   UNL A   1      39.027  28.874  30.228  1.00  0.00     0.173 A 
ATOM     42  C   UNL A   1      38.877  29.383  27.882  1.00  0.00     0.173 A 
ATOM     43  F   UNL A   1      39.738  28.537  31.314  1.00  0.00    -0.203 F 
ATOM     44  C   UNL A   1      37.647  29.010  30.346  1.00  0.00     0.198 A 
ATOM     45  C   UNL A   1      37.497  29.538  28.009  1.00  0.00     0.198 A 
ATOM     46  F   UNL A   1      39.441  29.556  26.677  1.00  0.00    -0.203 F 
ATOM     47  F   UNL A   1      37.053  28.799  31.528  1.00  0.00    -0.200 F 
ATOM     48  C   UNL A   1      36.883  29.339  29.236  1.00  0.00     0.200 A 
ATOM     49  F   UNL A   1      36.761  29.867  26.939  1.00  0.00    -0.200 F 
ATOM     50  F   UNL A   1      35.553  29.455  29.348  1.00  0.00    -0.200 F 
ENDBRANCH  26  40
BRANCH  27  51
ATOM     51  C   UNL A   1      49.279  26.683  27.648  1.00  0.00     0.064 A 
ATOM     52  C   UNL A   1      49.789  26.675  26.340  1.00  0.00     0.173 A 
ATOM     53  C   UNL A   1      50.145  26.323  28.687  1.00  0.00     0.173 A 
ATOM     54  F   UNL A   1      48.998  27.008  25.309  1.00  0.00    -0.203 F 
ATOM     55  C   UNL A   1      51.103  26.295  26.080  1.00  0.00     0.198 A 
ATOM     56  C   UNL A   1      51.470  25.973  28.429  1.00  0.00     0.198 A 
ATOM     57  F   UNL A   1      49.710  26.334  29.956  1.00  0.00    -0.203 F 
ATOM     58  F   UNL A   1      51.550  26.255  24.818  1.00  0.00    -0.200 F 
ATOM     59  C   UNL A   1      51.944  25.948  27.126  1.00  0.00     0.200 A 
ATOM     60  F   UNL A   1      52.287  25.662  29.444  1.00  0.00    -0.200 F 
ATOM     61  F   UNL A   1      53.213  25.595  26.878  1.00  0.00    -0.200 F 
ENDBRANCH  27  51
BRANCH  39  62
ATOM     62  C   UNL A   1      45.893  32.560  29.329  1.00  0.00     0.064 A 
ATOM     63  C   UNL A   1      46.197  33.002  30.625  1.00  0.00     0.173 A 
ATOM     64  C   UNL A   1      45.914  33.500  28.288  1.00  0.00     0.173 A 
ATOM     65  F   UNL A   1      46.183  32.142  31.653  1.00  0.00    -0.203 F 
ATOM     66  C   UNL A   1      46.478  34.342  30.875  1.00  0.00     0.198 A 
ATOM     67  C   UNL A   1      46.220  34.834  28.538  1.00  0.00     0.198 A 
ATOM     68  F   UNL A   1      45.644  33.120  27.031  1.00  0.00    -0.203 F 
ATOM     69  F   UNL A   1      46.721  34.752  32.127  1.00  0.00    -0.200 F 
ATOM     70  C   UNL A   1      46.489  35.256  29.832  1.00  0.00     0.200 A 
ATOM     71  F   UNL A   1      46.251  35.713  27.528  1.00  0.00    -0.200 F 
ATOM     72  F   UNL A   1      46.756  36.546  30.075  1.00  0.00    -0.200 F 
ENDBRANCH  39  62
ENDBRANCH  13  14
ENDBRANCH   6   8
ENDBRANCH   3   4
ENDBRANCH   2   3
ENDBRANCH   1   2
BRANCH   1  73
ATOM     73  C   UNL A   1      35.922  21.190  24.924  1.00  0.00     0.002 C 
BRANCH  73  74
ATOM     74  C   UNL A   1      35.504  22.056  26.118  1.00  0.00     0.021 C 
BRANCH  74  75
ATOM     75  C   UNL A   1      34.309  21.528  26.918  1.00  0.00     0.116 C 
BRANCH  75  76
ATOM     76  N   UNL A   1      33.707  20.365  26.289  1.00  0.00    -0.352 N 
ATOM     77  C   UNL A   1      32.627  20.299  25.445  1.00  0.00     0.251 C 
ATOM     78  H   UNL A   1      34.134  19.502  26.497  1.00  0.00     0.163 HD
ATOM     79  O   UNL A   1      32.149  19.215  25.117  1.00  0.00    -0.269 OA
BRANCH  77  80
ATOM     80  C   UNL A   1      32.017  21.539  24.932  1.00  0.00     0.042 A 
ATOM     81  C   UNL A   1      32.182  21.909  23.594  1.00  0.00     0.014 A 
ATOM     82  C   UNL A   1      31.246  22.319  25.792  1.00  0.00     0.053 A 
ATOM     83  C   UNL A   1      31.632  23.111  23.136  1.00  0.00     0.013 A 
ATOM     84  C   UNL A   1      30.730  23.527  25.330  1.00  0.00     0.132 A 
ATOM     85  C   UNL A   1      30.957  23.972  24.022  1.00  0.00     0.042 A 
ATOM     86  F   UNL A   1      30.041  24.296  26.185  1.00  0.00    -0.206 F 
BRANCH  85  87
ATOM     87  C   UNL A   1      30.517  25.352  23.590  1.00  0.00     0.302 C 
BRANCH  87  88
ATOM     88  N   UNL A   1      31.535  26.287  23.086  1.00  0.00    -0.322 N 
ATOM     89  C   UNL A   1      31.039  27.562  22.551  1.00  0.00     0.324 C 
ATOM     90  C   UNL A   1      32.702  26.509  23.947  1.00  0.00     0.328 C 
ATOM     91  H   UNL A   1      31.865  25.744  22.288  1.00  0.00     0.348 HD
ATOM     92  C   UNL A   1      30.935  28.739  23.555  1.00  0.00     0.324 C 
ATOM     93  C   UNL A   1      32.501  27.608  25.018  1.00  0.00     0.239 C 
ATOM     94  N   UNL A   1      32.111  28.912  24.440  1.00  0.00    -0.323 N 
ATOM     95  C   UNL A   1      33.745  27.756  25.899  1.00  0.00     0.071 C 
ATOM     96  C   UNL A   1      31.796  29.878  25.504  1.00  0.00     0.262 C 
ATOM     97  H   UNL A   1      32.895  29.271  23.896  1.00  0.00     0.348 HD
ATOM     98  C   UNL A   1      33.431  28.698  27.056  1.00  0.00     0.012 C 
ATOM     99  C   UNL A   1      32.931  30.036  26.523  1.00  0.00     0.062 C 
ENDBRANCH  87  88
ENDBRANCH  85  87
ENDBRANCH  77  80
ENDBRANCH  75  76
ENDBRANCH  74  75
ENDBRANCH  73  74
ENDBRANCH   1  73
TORSDOF 15
ENDMDL
MODEL 2
REMARK VINA RESULT:     -12.6      5.476     10.732
REMARK SMILES O=C(NCCCCCCNC(=O)c1ccc(C[N@H+]2CC[N@H+]3CCCC[C@@H]3C2)c(F)c1)c1ccc(-c2c3nc(c(-c4c(F)c(F)c(F)c(F)c4F)c4ccc([nH]4)c(-c4c(F)c(F)c(F)c(F)c4F)c4nc(c(-c5c(F)c(F)c(F)c(F)c5F)c5ccc2[nH]5)C=C4)C=C3)cc1
REMARK SMILES IDX 6 1 5 2 4 3 3 4 1 5 2 6 31 8 32 9 93 10 33 11 92 12 34 13
REMARK SMILES IDX 35 14 36 15 86 16 37 17 91 18 85 19 87 20 38 21 90 22 84 23
REMARK SMILES IDX 83 24 39 26 71 27 51 28 70 29 52 30 55 31 69 32 88 33 53 34
REMARK SMILES IDX 54 35 68 37 89 38 56 39 40 40 41 41 49 42 42 43 43 44 47 45
REMARK SMILES IDX 50 46 44 47 45 48 48 49 46 50 72 51 73 52 81 53 74 54 75 55
REMARK SMILES IDX 79 56 82 57 76 58 77 59 80 60 78 61 57 62 58 63 66 64 59 65
REMARK SMILES IDX 60 66 64 67 67 68 61 69 62 70 65 71 63 72 7 73 8 74 9 75
REMARK SMILES IDX 10 76 11 77 12 79 13 80 14 81 30 82 15 83 28 84 16 85 29 86
REMARK SMILES IDX 17 87 18 88 19 89 27 90 20 92 26 93 21 94 25 95 22 96 24 98
REMARK SMILES IDX 23 99
REMARK H PARENT 3 7 87 25 55 36 10 78 18 91 21 97
REMARK Flexibility Score: inf
ROOT
ATOM      1  C   UNL A   1      31.484  30.771  25.764  1.00  0.00     0.002 C 
ENDROOT
BRANCH   1   2
ATOM      2  C   UNL A   1      31.373  31.845  26.849  1.00  0.00     0.021 C 
BRANCH   2   3
ATOM      3  C   UNL A   1      32.677  32.558  27.192  1.00  0.00     0.116 C 
BRANCH   3   4
ATOM      4  N   UNL A   1      32.465  33.957  27.525  1.00  0.00    -0.352 N 
ATOM      5  O   UNL A   1      32.578  35.829  28.775  1.00  0.00    -0.269 OA
ATOM      6  C   UNL A   1      33.036  34.719  28.514  1.00  0.00     0.251 C 
ATOM      7  H   UNL A   1      31.814  34.429  26.958  1.00  0.00     0.163 HD
BRANCH   6   8
ATOM      8  C   UNL A   1      34.203  34.216  29.273  1.00  0.00     0.039 A 
ATOM      9  C   UNL A   1      34.033  33.468  30.441  1.00  0.00     0.014 A 
ATOM     10  C   UNL A   1      35.488  34.430  28.761  1.00  0.00     0.014 A 
ATOM     11  C   UNL A   1      35.144  33.010  31.143  1.00  0.00     0.010 A 
ATOM     12  C   UNL A   1      36.601  33.910  29.430  1.00  0.00     0.010 A 
ATOM     13  C   UNL A   1      36.436  33.198  30.627  1.00  0.00    -0.014 A 
BRANCH  13  14
ATOM     14  C   UNL A   1      37.592  32.532  31.279  1.00  0.00     0.031 A 
ATOM     15  C   UNL A   1      38.290  31.370  30.635  1.00  0.00     0.074 A 
ATOM     16  C   UNL A   1      37.993  32.983  32.484  1.00  0.00     0.049 A 
ATOM     17  N   UNL A   1      39.281  30.651  31.097  1.00  0.00    -0.248 NA
ATOM     18  C   UNL A   1      37.818  30.955  29.305  1.00  0.00     0.031 C 
ATOM     19  C   UNL A   1      37.374  34.096  33.209  1.00  0.00     0.029 A 
ATOM     20  N   UNL A   1      39.003  32.568  33.314  1.00  0.00    -0.354 N 
ATOM     21  C   UNL A   1      39.543  29.694  30.126  1.00  0.00     0.074 A 
ATOM     22  C   UNL A   1      38.597  29.910  29.053  1.00  0.00     0.031 C 
ATOM     23  C   UNL A   1      38.027  34.286  34.364  1.00  0.00     0.029 A 
ATOM     24  C   UNL A   1      39.067  33.272  34.493  1.00  0.00     0.049 A 
ATOM     25  H   UNL A   1      39.623  31.838  33.088  1.00  0.00     0.167 HD
ATOM     26  C   UNL A   1      40.493  28.731  30.139  1.00  0.00     0.037 A 
ATOM     27  C   UNL A   1      39.847  33.099  35.577  1.00  0.00     0.037 A 
ATOM     28  C   UNL A   1      41.447  28.542  31.203  1.00  0.00     0.049 A 
ATOM     29  C   UNL A   1      40.864  31.996  35.574  1.00  0.00     0.074 A 
ATOM     30  C   UNL A   1      42.497  27.643  31.264  1.00  0.00     0.029 A 
ATOM     31  N   UNL A   1      41.460  29.257  32.391  1.00  0.00    -0.354 N 
ATOM     32  N   UNL A   1      41.140  31.135  34.625  1.00  0.00    -0.248 NA
ATOM     33  C   UNL A   1      41.671  31.827  36.790  1.00  0.00     0.031 C 
ATOM     34  C   UNL A   1      43.109  27.771  32.513  1.00  0.00     0.029 A 
ATOM     35  C   UNL A   1      42.475  28.786  33.210  1.00  0.00     0.049 A 
ATOM     36  H   UNL A   1      40.842  29.988  32.619  1.00  0.00     0.167 HD
ATOM     37  C   UNL A   1      42.152  30.329  35.124  1.00  0.00     0.074 A 
ATOM     38  C   UNL A   1      42.459  30.815  36.452  1.00  0.00     0.031 C 
ATOM     39  C   UNL A   1      42.765  29.277  34.533  1.00  0.00     0.037 A 
BRANCH  26  40
ATOM     40  C   UNL A   1      40.577  27.785  28.977  1.00  0.00     0.064 A 
ATOM     41  C   UNL A   1      41.368  28.107  27.862  1.00  0.00     0.173 A 
ATOM     42  C   UNL A   1      39.766  26.644  28.902  1.00  0.00     0.173 A 
ATOM     43  F   UNL A   1      42.152  29.195  27.881  1.00  0.00    -0.203 F 
ATOM     44  C   UNL A   1      41.322  27.335  26.705  1.00  0.00     0.198 A 
ATOM     45  C   UNL A   1      39.739  25.862  27.748  1.00  0.00     0.198 A 
ATOM     46  F   UNL A   1      38.995  26.294  29.942  1.00  0.00    -0.203 F 
ATOM     47  F   UNL A   1      42.049  27.688  25.636  1.00  0.00    -0.200 F 
ATOM     48  C   UNL A   1      40.505  26.215  26.647  1.00  0.00     0.200 A 
ATOM     49  F   UNL A   1      38.959  24.774  27.697  1.00  0.00    -0.200 F 
ATOM     50  F   UNL A   1      40.451  25.481  25.528  1.00  0.00    -0.200 F 
ENDBRANCH  26  40
BRANCH  27  51
ATOM     51  C   UNL A   1      39.661  33.981  36.758  1.00  0.00     0.064 A 
ATOM     52  C   UNL A   1      40.323  35.215  36.851  1.00  0.00     0.173 A 
ATOM     53  C   UNL A   1      38.849  33.595  37.831  1.00  0.00     0.173 A 
ATOM     54  F   UNL A   1      41.116  35.629  35.851  1.00  0.00    -0.203 F 
ATOM     55  C   UNL A   1      40.201  36.016  37.983  1.00  0.00     0.198 A 
ATOM     56  C   UNL A   1      38.702  34.412  38.951  1.00  0.00     0.198 A 
ATOM     57  F   UNL A   1      38.180  32.433  37.780  1.00  0.00    -0.203 F 
ATOM     58  F   UNL A   1      40.880  37.169  38.064  1.00  0.00    -0.200 F 
ATOM     59  C   UNL A   1      39.387  35.615  39.031  1.00  0.00     0.200 A 
ATOM     60  F   UNL A   1      37.896  34.033  39.952  1.00  0.00    -0.200 F 
ATOM     61  F   UNL A   1      39.259  36.391  40.116  1.00  0.00    -0.200 F 
ENDBRANCH  27  51
BRANCH  39  62
ATOM     62  C   UNL A   1      43.830  28.563  35.308  1.00  0.00     0.064 A 
ATOM     63  C   UNL A   1      45.183  28.889  35.129  1.00  0.00     0.173 A 
ATOM     64  C   UNL A   1      43.516  27.485  36.147  1.00  0.00     0.173 A 
ATOM     65  F   UNL A   1      45.532  29.908  34.330  1.00  0.00    -0.203 F 
ATOM     66  C   UNL A   1      46.185  28.141  35.740  1.00  0.00     0.198 A 
ATOM     67  C   UNL A   1      44.520  26.755  36.777  1.00  0.00     0.198 A 
ATOM     68  F   UNL A   1      42.236  27.146  36.361  1.00  0.00    -0.203 F 
ATOM     69  F   UNL A   1      47.472  28.441  35.518  1.00  0.00    -0.200 F 
ATOM     70  C   UNL A   1      45.852  27.076  36.562  1.00  0.00     0.200 A 
ATOM     71  F   UNL A   1      44.198  25.738  37.588  1.00  0.00    -0.200 F 
ATOM     72  F   UNL A   1      46.818  26.354  37.147  1.00  0.00    -0.200 F 
ENDBRANCH  39  62
ENDBRANCH  13  14
ENDBRANCH   6   8
ENDBRANCH   3   4
ENDBRANCH   2   3
ENDBRANCH   1   2
BRANCH   1  73
ATOM     73  C   UNL A   1      31.989  29.399  26.231  1.00  0.00     0.002 C 
BRANCH  73  74
ATOM     74  C   UNL A   1      33.295  28.915  25.590  1.00  0.00     0.021 C 
BRANCH  74  75
ATOM     75  C   UNL A   1      33.133  27.833  24.519  1.00  0.00     0.116 C 
BRANCH  75  76
ATOM     76  N   UNL A   1      32.054  28.142  23.596  1.00  0.00    -0.352 N 
ATOM     77  C   UNL A   1      31.329  27.294  22.797  1.00  0.00     0.251 C 
ATOM     78  H   UNL A   1      31.809  29.094  23.535  1.00  0.00     0.163 HD
ATOM     79  O   UNL A   1      30.547  27.735  21.957  1.00  0.00    -0.269 OA
BRANCH  77  80
ATOM     80  C   UNL A   1      31.494  25.836  22.931  1.00  0.00     0.042 A 
ATOM     81  C   UNL A   1      30.566  25.081  23.655  1.00  0.00     0.014 A 
ATOM     82  C   UNL A   1      32.570  25.216  22.298  1.00  0.00     0.053 A 
ATOM     83  C   UNL A   1      30.762  23.704  23.808  1.00  0.00     0.013 A 
ATOM     84  C   UNL A   1      32.768  23.850  22.484  1.00  0.00     0.132 A 
ATOM     85  C   UNL A   1      31.910  23.083  23.281  1.00  0.00     0.042 A 
ATOM     86  F   UNL A   1      33.842  23.279  21.919  1.00  0.00    -0.206 F 
BRANCH  85  87
ATOM     87  C   UNL A   1      32.230  21.638  23.590  1.00  0.00     0.302 C 
BRANCH  87  88
ATOM     88  N   UNL A   1      32.726  21.302  24.934  1.00  0.00    -0.322 N 
ATOM     89  C   UNL A   1      33.298  19.959  25.100  1.00  0.00     0.324 C 
ATOM     90  C   UNL A   1      33.571  22.306  25.590  1.00  0.00     0.328 C 
ATOM     91  H   UNL A   1      31.836  21.304  25.433  1.00  0.00     0.348 HD
ATOM     92  C   UNL A   1      34.824  19.826  24.867  1.00  0.00     0.324 C 
ATOM     93  C   UNL A   1      35.071  22.210  25.223  1.00  0.00     0.239 C 
ATOM     94  N   UNL A   1      35.649  20.879  25.506  1.00  0.00    -0.323 N 
ATOM     95  C   UNL A   1      35.881  23.310  25.915  1.00  0.00     0.071 C 
ATOM     96  C   UNL A   1      37.032  20.797  25.011  1.00  0.00     0.262 C 
ATOM     97  H   UNL A   1      35.656  20.738  26.516  1.00  0.00     0.348 HD
ATOM     98  C   UNL A   1      37.306  23.301  25.372  1.00  0.00     0.012 C 
ATOM     99  C   UNL A   1      37.927  21.920  25.549  1.00  0.00     0.062 C 
ENDBRANCH  87  88
ENDBRANCH  85  87
ENDBRANCH  77  80
ENDBRANCH  75  76
ENDBRANCH  74  75
ENDBRANCH  73  74
ENDBRANCH   1  73
TORSDOF 15
ENDMDL
MODEL 3
REMARK VINA RESULT:     -12.6      4.694     10.548
REMARK SMILES O=C(NCCCCCCNC(=O)c1ccc(C[N@H+]2CC[N@H+]3CCCC[C@@H]3C2)c(F)c1)c1ccc(-c2c3nc(c(-c4c(F)c(F)c(F)c(F)c4F)c4ccc([nH]4)c(-c4c(F)c(F)c(F)c(F)c4F)c4nc(c(-c5c(F)c(F)c(F)c(F)c5F)c5ccc2[nH]5)C=C4)C=C3)cc1
REMARK SMILES IDX 6 1 5 2 4 3 3 4 1 5 2 6 31 8 32 9 93 10 33 11 92 12 34 13
REMARK SMILES IDX 35 14 36 15 86 16 37 17 91 18 85 19 87 20 38 21 90 22 84 23
REMARK SMILES IDX 83 24 39 26 71 27 51 28 70 29 52 30 55 31 69 32 88 33 53 34
REMARK SMILES IDX 54 35 68 37 89 38 56 39 40 40 41 41 49 42 42 43 43 44 47 45
REMARK SMILES IDX 50 46 44 47 45 48 48 49 46 50 72 51 73 52 81 53 74 54 75 55
REMARK SMILES IDX 79 56 82 57 76 58 77 59 80 60 78 61 57 62 58 63 66 64 59 65
REMARK SMILES IDX 60 66 64 67 67 68 61 69 62 70 65 71 63 72 7 73 8 74 9 75
REMARK SMILES IDX 10 76 11 77 12 79 13 80 14 81 30 82 15 83 28 84 16 85 29 86
REMARK SMILES IDX 17 87 18 88 19 89 27 90 20 92 26 93 21 94 25 95 22 96 24 98
REMARK SMILES IDX 23 99
REMARK H PARENT 3 7 87 25 55 36 10 78 18 91 21 97
REMARK Flexibility Score: inf
ROOT
ATOM      1  C   UNL A   1      35.619  32.607  30.521  1.00  0.00     0.002 C 
ENDROOT
BRANCH   1   2
ATOM      2  C   UNL A   1      34.409  32.821  29.607  1.00  0.00     0.021 C 
BRANCH   2   3
ATOM      3  C   UNL A   1      34.601  32.369  28.162  1.00  0.00     0.116 C 
BRANCH   3   4
ATOM      4  N   UNL A   1      34.022  31.058  27.918  1.00  0.00    -0.352 N 
ATOM      5  O   UNL A   1      34.007  28.863  27.409  1.00  0.00    -0.269 OA
ATOM      6  C   UNL A   1      34.634  29.834  27.827  1.00  0.00     0.251 C 
ATOM      7  H   UNL A   1      33.045  31.048  27.800  1.00  0.00     0.163 HD
BRANCH   6   8
ATOM      8  C   UNL A   1      36.049  29.667  28.230  1.00  0.00     0.039 A 
ATOM      9  C   UNL A   1      36.383  29.173  29.494  1.00  0.00     0.014 A 
ATOM     10  C   UNL A   1      37.056  29.935  27.297  1.00  0.00     0.014 A 
ATOM     11  C   UNL A   1      37.720  29.030  29.855  1.00  0.00     0.010 A 
ATOM     12  C   UNL A   1      38.396  29.725  27.636  1.00  0.00     0.010 A 
ATOM     13  C   UNL A   1      38.737  29.273  28.919  1.00  0.00    -0.014 A 
BRANCH  13  14
ATOM     14  C   UNL A   1      40.141  28.924  29.253  1.00  0.00     0.031 A 
ATOM     15  C   UNL A   1      41.030  29.879  29.994  1.00  0.00     0.074 A 
ATOM     16  C   UNL A   1      40.613  27.726  28.854  1.00  0.00     0.049 A 
ATOM     17  N   UNL A   1      42.291  29.742  30.317  1.00  0.00    -0.248 NA
ATOM     18  C   UNL A   1      40.436  31.153  30.426  1.00  0.00     0.031 C 
ATOM     19  C   UNL A   1      39.839  26.727  28.112  1.00  0.00     0.029 A 
ATOM     20  N   UNL A   1      41.846  27.143  29.005  1.00  0.00    -0.354 N 
ATOM     21  C   UNL A   1      42.645  30.911  30.976  1.00  0.00     0.074 A 
ATOM     22  C   UNL A   1      41.472  31.758  30.995  1.00  0.00     0.031 C 
ATOM     23  C   UNL A   1      40.607  25.651  27.889  1.00  0.00     0.029 A 
ATOM     24  C   UNL A   1      41.944  25.907  28.413  1.00  0.00     0.049 A 
ATOM     25  H   UNL A   1      42.588  27.569  29.492  1.00  0.00     0.167 HD
ATOM     26  C   UNL A   1      43.842  31.235  31.517  1.00  0.00     0.037 A 
ATOM     27  C   UNL A   1      43.000  25.084  28.271  1.00  0.00     0.037 A 
ATOM     28  C   UNL A   1      44.996  30.371  31.514  1.00  0.00     0.049 A 
ATOM     29  C   UNL A   1      44.324  25.492  28.848  1.00  0.00     0.074 A 
ATOM     30  C   UNL A   1      46.227  30.584  32.109  1.00  0.00     0.029 A 
ATOM     31  N   UNL A   1      45.064  29.140  30.880  1.00  0.00    -0.354 N 
ATOM     32  N   UNL A   1      44.630  26.575  29.520  1.00  0.00    -0.248 NA
ATOM     33  C   UNL A   1      45.454  24.575  28.641  1.00  0.00     0.031 C 
ATOM     34  C   UNL A   1      47.060  29.510  31.785  1.00  0.00     0.029 A 
ATOM     35  C   UNL A   1      46.332  28.602  31.033  1.00  0.00     0.049 A 
ATOM     36  H   UNL A   1      44.322  28.712  30.394  1.00  0.00     0.167 HD
ATOM     37  C   UNL A   1      45.979  26.469  29.820  1.00  0.00     0.074 A 
ATOM     38  C   UNL A   1      46.433  25.206  29.277  1.00  0.00     0.031 C 
ATOM     39  C   UNL A   1      46.770  27.346  30.482  1.00  0.00     0.037 A 
BRANCH  26  40
ATOM     40  C   UNL A   1      44.000  32.577  32.167  1.00  0.00     0.064 A 
ATOM     41  C   UNL A   1      43.755  32.728  33.542  1.00  0.00     0.173 A 
ATOM     42  C   UNL A   1      44.245  33.732  31.413  1.00  0.00     0.173 A 
ATOM     43  F   UNL A   1      43.505  31.653  34.305  1.00  0.00    -0.203 F 
ATOM     44  C   UNL A   1      43.723  33.988  34.130  1.00  0.00     0.198 A 
ATOM     45  C   UNL A   1      44.232  34.992  32.009  1.00  0.00     0.198 A 
ATOM     46  F   UNL A   1      44.487  33.641  30.096  1.00  0.00    -0.203 F 
ATOM     47  F   UNL A   1      43.440  34.111  35.434  1.00  0.00    -0.200 F 
ATOM     48  C   UNL A   1      43.958  35.120  33.363  1.00  0.00     0.200 A 
ATOM     49  F   UNL A   1      44.471  36.084  31.270  1.00  0.00    -0.200 F 
ATOM     50  F   UNL A   1      43.912  36.334  33.927  1.00  0.00    -0.200 F 
ENDBRANCH  26  40
BRANCH  27  51
ATOM     51  C   UNL A   1      42.838  23.812  27.520  1.00  0.00     0.064 A 
ATOM     52  C   UNL A   1      43.183  23.723  26.162  1.00  0.00     0.173 A 
ATOM     53  C   UNL A   1      42.304  22.672  28.133  1.00  0.00     0.173 A 
ATOM     54  F   UNL A   1      43.695  24.789  25.529  1.00  0.00    -0.203 F 
ATOM     55  C   UNL A   1      42.974  22.553  25.440  1.00  0.00     0.198 A 
ATOM     56  C   UNL A   1      42.124  21.490  27.416  1.00  0.00     0.198 A 
ATOM     57  F   UNL A   1      41.978  22.701  29.433  1.00  0.00    -0.203 F 
ATOM     58  F   UNL A   1      43.271  22.510  24.134  1.00  0.00    -0.200 F 
ATOM     59  C   UNL A   1      42.448  21.434  26.069  1.00  0.00     0.200 A 
ATOM     60  F   UNL A   1      41.639  20.403  28.033  1.00  0.00    -0.200 F 
ATOM     61  F   UNL A   1      42.259  20.302  25.377  1.00  0.00    -0.200 F 
ENDBRANCH  27  51
BRANCH  39  62
ATOM     62  C   UNL A   1      48.214  26.987  30.660  1.00  0.00     0.064 A 
ATOM     63  C   UNL A   1      49.189  27.500  29.791  1.00  0.00     0.173 A 
ATOM     64  C   UNL A   1      48.614  26.051  31.624  1.00  0.00     0.173 A 
ATOM     65  F   UNL A   1      48.852  28.392  28.848  1.00  0.00    -0.203 F 
ATOM     66  C   UNL A   1      50.509  27.065  29.863  1.00  0.00     0.198 A 
ATOM     67  C   UNL A   1      49.940  25.638  31.710  1.00  0.00     0.198 A 
ATOM     68  F   UNL A   1      47.720  25.545  32.486  1.00  0.00    -0.203 F 
ATOM     69  F   UNL A   1      51.415  27.533  28.994  1.00  0.00    -0.200 F 
ATOM     70  C   UNL A   1      50.883  26.136  30.821  1.00  0.00     0.200 A 
ATOM     71  F   UNL A   1      50.306  24.755  32.649  1.00  0.00    -0.200 F 
ATOM     72  F   UNL A   1      52.154  25.715  30.887  1.00  0.00    -0.200 F 
ENDBRANCH  39  62
ENDBRANCH  13  14
ENDBRANCH   6   8
ENDBRANCH   3   4
ENDBRANCH   2   3
ENDBRANCH   1   2
BRANCH   1  73
ATOM     73  C   UNL A   1      36.993  32.819  29.873  1.00  0.00     0.002 C 
BRANCH  73  74
ATOM     74  C   UNL A   1      37.602  34.217  30.037  1.00  0.00     0.021 C 
BRANCH  74  75
ATOM     75  C   UNL A   1      38.565  34.372  31.218  1.00  0.00     0.116 C 
BRANCH  75  76
ATOM     76  N   UNL A   1      37.866  34.713  32.445  1.00  0.00    -0.352 N 
ATOM     77  C   UNL A   1      37.702  33.964  33.583  1.00  0.00     0.251 C 
ATOM     78  H   UNL A   1      37.452  35.606  32.464  1.00  0.00     0.163 HD
ATOM     79  O   UNL A   1      36.952  34.339  34.482  1.00  0.00    -0.269 OA
BRANCH  77  80
ATOM     80  C   UNL A   1      38.419  32.685  33.733  1.00  0.00     0.042 A 
ATOM     81  C   UNL A   1      39.741  32.662  34.187  1.00  0.00     0.014 A 
ATOM     82  C   UNL A   1      37.749  31.496  33.446  1.00  0.00     0.053 A 
ATOM     83  C   UNL A   1      40.419  31.442  34.281  1.00  0.00     0.013 A 
ATOM     84  C   UNL A   1      38.446  30.293  33.516  1.00  0.00     0.132 A 
ATOM     85  C   UNL A   1      39.798  30.245  33.877  1.00  0.00     0.042 A 
ATOM     86  F   UNL A   1      37.806  29.164  33.179  1.00  0.00    -0.206 F 
BRANCH  85  87
ATOM     87  C   UNL A   1      40.572  28.949  33.799  1.00  0.00     0.302 C 
BRANCH  87  88
ATOM     88  N   UNL A   1      41.813  28.825  34.578  1.00  0.00    -0.322 N 
ATOM     89  C   UNL A   1      41.687  28.219  35.911  1.00  0.00     0.324 C 
ATOM     90  C   UNL A   1      42.977  28.278  33.872  1.00  0.00     0.328 C 
ATOM     91  H   UNL A   1      42.005  29.816  34.726  1.00  0.00     0.348 HD
ATOM     92  C   UNL A   1      41.876  26.682  35.991  1.00  0.00     0.324 C 
ATOM     93  C   UNL A   1      43.051  26.732  33.872  1.00  0.00     0.239 C 
ATOM     94  N   UNL A   1      43.035  26.154  35.233  1.00  0.00    -0.323 N 
ATOM     95  C   UNL A   1      44.269  26.237  33.087  1.00  0.00     0.071 C 
ATOM     96  C   UNL A   1      42.964  24.686  35.173  1.00  0.00     0.262 C 
ATOM     97  H   UNL A   1      43.899  26.419  35.706  1.00  0.00     0.348 HD
ATOM     98  C   UNL A   1      44.190  24.721  32.943  1.00  0.00     0.012 C 
ATOM     99  C   UNL A   1      44.076  24.068  34.317  1.00  0.00     0.062 C 
ENDBRANCH  87  88
ENDBRANCH  85  87
ENDBRANCH  77  80
ENDBRANCH  75  76
ENDBRANCH  74  75
ENDBRANCH  73  74
ENDBRANCH   1  73
TORSDOF 15
ENDMDL
