MODEL 1
REMARK VINA RESULT:     -12.0      0.000      0.000
REMARK SMILES O=C(CC1(NC(=O)c2ccc3cc[nH]c3c2)CCC1)NCCCCCCNC(=O)c1ccc(-c2c3nc(c(-c4c(F)c(F)c(F)c(F)c4F)c4ccc([nH]4)c(-c4c(F)c(F)c(F)c(F)c4F)c4nc(c(-c5c(F)c(F)c(F)c(F)c5F)c5ccc2[nH]5)C=C4)C=C3)cc1
REMARK SMILES IDX 23 1 22 2 21 3 20 4 1 5 2 6 3 8 4 9 17 10 19 11 18 12 5 13
REMARK SMILES IDX 6 14 7 16 8 17 9 18 16 19 10 20 15 21 11 22 14 23 12 24
REMARK SMILES IDX 13 25 24 27 25 28 26 29 27 30 28 31 29 33 30 34 31 35 92 36
REMARK SMILES IDX 32 37 91 38 33 39 34 40 35 41 85 42 36 43 90 44 84 45 86 46
REMARK SMILES IDX 37 47 89 48 83 49 82 50 38 52 70 53 50 54 69 55 51 56 54 57
REMARK SMILES IDX 68 58 87 59 52 60 53 61 67 63 88 64 55 65 39 66 40 67 48 68
REMARK SMILES IDX 41 69 42 70 46 71 49 72 43 73 44 74 47 75 45 76 71 77 72 78
REMARK SMILES IDX 80 79 73 80 74 81 78 82 81 83 75 84 76 85 79 86 77 87 56 88
REMARK SMILES IDX 57 89 65 90 58 91 59 92 63 93 66 94 60 95 61 96 64 97 62 98
REMARK H PARENT 20 7 5 15 14 26 27 32 86 51 54 62
REMARK Flexibility Score: inf
ROOT
ATOM      1  C   UNL A   1      34.860  32.795  29.135  1.00  0.00     0.002 C 
ENDROOT
BRANCH   1   2
ATOM      2  C   UNL A   1      35.048  31.792  27.989  1.00  0.00     0.021 C 
BRANCH   2   3
ATOM      3  C   UNL A   1      33.788  31.021  27.600  1.00  0.00     0.116 C 
BRANCH   3   4
ATOM      4  N   UNL A   1      34.018  30.088  26.515  1.00  0.00    -0.356 N 
ATOM      5  O   UNL A   1      31.933  30.299  25.610  1.00  0.00    -0.275 OA
ATOM      6  C   UNL A   1      33.061  29.807  25.575  1.00  0.00     0.222 C 
ATOM      7  H   UNL A   1      34.891  29.640  26.451  1.00  0.00     0.163 HD
BRANCH   6   8
ATOM      8  C   UNL A   1      33.435  28.835  24.480  1.00  0.00     0.128 C 
BRANCH   8   9
ATOM      9  C   UNL A   1      32.928  27.392  24.524  1.00  0.00     0.049 C 
ATOM     10  C   UNL A   1      33.840  26.417  25.329  1.00  0.00     0.029 C 
ATOM     11  C   UNL A   1      31.865  27.229  25.657  1.00  0.00     0.029 C 
ATOM     12  C   UNL A   1      32.639  26.024  26.201  1.00  0.00     0.005 C 
BRANCH   9  13
ATOM     13  N   UNL A   1      32.468  26.759  23.245  1.00  0.00    -0.346 N 
ATOM     14  C   UNL A   1      31.444  27.028  22.358  1.00  0.00     0.251 C 
ATOM     15  H   UNL A   1      33.014  25.983  22.981  1.00  0.00     0.164 HD
ATOM     16  O   UNL A   1      31.329  26.344  21.344  1.00  0.00    -0.269 OA
BRANCH  14  17
ATOM     17  C   UNL A   1      30.414  28.024  22.680  1.00  0.00     0.041 A 
ATOM     18  C   UNL A   1      29.183  27.658  23.218  1.00  0.00     0.014 A 
ATOM     19  C   UNL A   1      30.697  29.348  22.327  1.00  0.00     0.040 A 
ATOM     20  C   UNL A   1      28.142  28.596  23.262  1.00  0.00     0.011 A 
ATOM     21  C   UNL A   1      29.626  30.242  22.300  1.00  0.00     0.046 A 
ATOM     22  C   UNL A   1      28.348  29.889  22.731  1.00  0.00    -0.001 A 
ATOM     23  N   UNL A   1      29.562  31.534  21.832  1.00  0.00    -0.361 N 
ATOM     24  C   UNL A   1      27.505  31.005  22.472  1.00  0.00     0.028 A 
ATOM     25  C   UNL A   1      28.273  31.990  21.895  1.00  0.00     0.083 A 
ATOM     26  H   UNL A   1      30.330  32.055  21.501  1.00  0.00     0.166 HD
ENDBRANCH  14  17
ENDBRANCH   9  13
ENDBRANCH   8   9
ENDBRANCH   6   8
ENDBRANCH   3   4
ENDBRANCH   2   3
ENDBRANCH   1   2
BRANCH   1  27
ATOM     27  C   UNL A   1      35.306  34.226  28.823  1.00  0.00     0.002 C 
BRANCH  27  28
ATOM     28  C   UNL A   1      34.215  35.286  28.978  1.00  0.00     0.021 C 
BRANCH  28  29
ATOM     29  C   UNL A   1      32.919  34.778  29.598  1.00  0.00     0.116 C 
BRANCH  29  30
ATOM     30  N   UNL A   1      32.416  35.671  30.630  1.00  0.00    -0.352 N 
ATOM     31  C   UNL A   1      32.796  35.778  31.947  1.00  0.00     0.251 C 
ATOM     32  H   UNL A   1      31.702  36.287  30.344  1.00  0.00     0.163 HD
ATOM     33  O   UNL A   1      32.136  36.448  32.730  1.00  0.00    -0.269 OA
BRANCH  31  34
ATOM     34  C   UNL A   1      33.996  35.057  32.426  1.00  0.00     0.039 A 
ATOM     35  C   UNL A   1      33.849  33.764  32.935  1.00  0.00     0.014 A 
ATOM     36  C   UNL A   1      35.261  35.649  32.372  1.00  0.00     0.014 A 
ATOM     37  C   UNL A   1      34.979  33.043  33.329  1.00  0.00     0.010 A 
ATOM     38  C   UNL A   1      36.391  34.902  32.691  1.00  0.00     0.010 A 
ATOM     39  C   UNL A   1      36.263  33.591  33.174  1.00  0.00    -0.014 A 
BRANCH  39  40
ATOM     40  C   UNL A   1      37.481  32.805  33.507  1.00  0.00     0.031 A 
ATOM     41  C   UNL A   1      38.243  33.086  34.773  1.00  0.00     0.074 A 
ATOM     42  C   UNL A   1      37.936  31.881  32.637  1.00  0.00     0.049 A 
ATOM     43  N   UNL A   1      39.358  32.553  35.205  1.00  0.00    -0.248 NA
ATOM     44  C   UNL A   1      37.693  34.122  35.663  1.00  0.00     0.031 C 
ATOM     45  C   UNL A   1      37.313  31.546  31.356  1.00  0.00     0.029 A 
ATOM     46  N   UNL A   1      39.037  31.060  32.694  1.00  0.00    -0.354 N 
ATOM     47  C   UNL A   1      39.651  33.199  36.399  1.00  0.00     0.074 A 
ATOM     48  C   UNL A   1      38.625  34.197  36.602  1.00  0.00     0.031 C 
ATOM     49  C   UNL A   1      38.026  30.578  30.760  1.00  0.00     0.029 A 
ATOM     50  C   UNL A   1      39.180  30.253  31.592  1.00  0.00     0.049 A 
ATOM     51  H   UNL A   1      39.663  31.052  33.454  1.00  0.00     0.167 HD
ATOM     52  C   UNL A   1      40.675  32.968  37.256  1.00  0.00     0.037 A 
ATOM     53  C   UNL A   1      40.142  29.362  31.280  1.00  0.00     0.037 A 
ATOM     54  C   UNL A   1      41.678  31.952  37.065  1.00  0.00     0.049 A 
ATOM     55  C   UNL A   1      41.274  29.137  32.248  1.00  0.00     0.074 A 
ATOM     56  C   UNL A   1      42.706  31.587  37.915  1.00  0.00     0.029 A 
ATOM     57  N   UNL A   1      41.784  31.146  35.941  1.00  0.00    -0.354 N 
ATOM     58  N   UNL A   1      41.490  29.692  33.416  1.00  0.00    -0.248 NA
ATOM     59  C   UNL A   1      42.295  28.154  31.856  1.00  0.00     0.031 C 
ATOM     60  C   UNL A   1      43.474  30.608  37.278  1.00  0.00     0.029 A 
ATOM     61  C   UNL A   1      42.883  30.311  36.061  1.00  0.00     0.049 A 
ATOM     62  H   UNL A   1      41.168  31.165  35.172  1.00  0.00     0.167 HD
ATOM     63  C   UNL A   1      42.646  29.102  33.911  1.00  0.00     0.074 A 
ATOM     64  C   UNL A   1      43.077  28.134  32.925  1.00  0.00     0.031 C 
ATOM     65  C   UNL A   1      43.293  29.341  35.078  1.00  0.00     0.037 A 
BRANCH  52  66
ATOM     66  C   UNL A   1      40.773  33.829  38.482  1.00  0.00     0.064 A 
ATOM     67  C   UNL A   1      41.562  34.990  38.511  1.00  0.00     0.173 A 
ATOM     68  C   UNL A   1      40.018  33.522  39.625  1.00  0.00     0.173 A 
ATOM     69  F   UNL A   1      42.309  35.327  37.449  1.00  0.00    -0.203 F 
ATOM     70  C   UNL A   1      41.608  35.797  39.646  1.00  0.00     0.198 A 
ATOM     71  C   UNL A   1      40.042  34.349  40.745  1.00  0.00     0.198 A 
ATOM     72  F   UNL A   1      39.243  32.428  39.649  1.00  0.00    -0.203 F 
ATOM     73  F   UNL A   1      42.402  36.877  39.666  1.00  0.00    -0.200 F 
ATOM     74  C   UNL A   1      40.842  35.481  40.758  1.00  0.00     0.200 A 
ATOM     75  F   UNL A   1      39.288  34.049  41.812  1.00  0.00    -0.200 F 
ATOM     76  F   UNL A   1      40.876  36.267  41.843  1.00  0.00    -0.200 F 
ENDBRANCH  52  66
BRANCH  53  77
ATOM     77  C   UNL A   1      40.079  28.604  30.001  1.00  0.00     0.064 A 
ATOM     78  C   UNL A   1      39.459  27.348  29.935  1.00  0.00     0.173 A 
ATOM     79  C   UNL A   1      40.667  29.100  28.828  1.00  0.00     0.173 A 
ATOM     80  F   UNL A   1      38.900  26.820  31.035  1.00  0.00    -0.203 F 
ATOM     81  C   UNL A   1      39.461  26.603  28.758  1.00  0.00     0.198 A 
ATOM     82  C   UNL A   1      40.638  28.370  27.642  1.00  0.00     0.198 A 
ATOM     83  F   UNL A   1      41.270  30.298  28.832  1.00  0.00    -0.203 F 
ATOM     84  F   UNL A   1      38.918  25.377  28.742  1.00  0.00    -0.200 F 
ATOM     85  C   UNL A   1      40.046  27.116  27.611  1.00  0.00     0.200 A 
ATOM     86  F   UNL A   1      41.191  28.877  26.532  1.00  0.00    -0.200 F 
ATOM     87  F   UNL A   1      40.053  26.397  26.480  1.00  0.00    -0.200 F 
ENDBRANCH  53  77
BRANCH  65  88
ATOM     88  C   UNL A   1      44.508  28.510  35.379  1.00  0.00     0.064 A 
ATOM     89  C   UNL A   1      44.419  27.281  36.050  1.00  0.00     0.173 A 
ATOM     90  C   UNL A   1      45.777  28.934  34.955  1.00  0.00     0.173 A 
ATOM     91  F   UNL A   1      43.232  26.836  36.490  1.00  0.00    -0.203 F 
ATOM     92  C   UNL A   1      45.558  26.522  36.309  1.00  0.00     0.198 A 
ATOM     93  C   UNL A   1      46.908  28.156  35.184  1.00  0.00     0.198 A 
ATOM     94  F   UNL A   1      45.920  30.098  34.302  1.00  0.00    -0.203 F 
ATOM     95  F   UNL A   1      45.454  25.378  36.999  1.00  0.00    -0.200 F 
ATOM     96  C   UNL A   1      46.800  26.956  35.869  1.00  0.00     0.200 A 
ATOM     97  F   UNL A   1      48.105  28.569  34.741  1.00  0.00    -0.200 F 
ATOM     98  F   UNL A   1      47.893  26.220  36.111  1.00  0.00    -0.200 F 
ENDBRANCH  65  88
ENDBRANCH  39  40
ENDBRANCH  31  34
ENDBRANCH  29  30
ENDBRANCH  28  29
ENDBRANCH  27  28
ENDBRANCH   1  27
TORSDOF 16
ENDMDL
MODEL 2
REMARK VINA RESULT:     -11.8      7.348     12.802
REMARK SMILES O=C(CC1(NC(=O)c2ccc3cc[nH]c3c2)CCC1)NCCCCCCNC(=O)c1ccc(-c2c3nc(c(-c4c(F)c(F)c(F)c(F)c4F)c4ccc([nH]4)c(-c4c(F)c(F)c(F)c(F)c4F)c4nc(c(-c5c(F)c(F)c(F)c(F)c5F)c5ccc2[nH]5)C=C4)C=C3)cc1
REMARK SMILES IDX 23 1 22 2 21 3 20 4 1 5 2 6 3 8 4 9 17 10 19 11 18 12 5 13
REMARK SMILES IDX 6 14 7 16 8 17 9 18 16 19 10 20 15 21 11 22 14 23 12 24
REMARK SMILES IDX 13 25 24 27 25 28 26 29 27 30 28 31 29 33 30 34 31 35 92 36
REMARK SMILES IDX 32 37 91 38 33 39 34 40 35 41 85 42 36 43 90 44 84 45 86 46
REMARK SMILES IDX 37 47 89 48 83 49 82 50 38 52 70 53 50 54 69 55 51 56 54 57
REMARK SMILES IDX 68 58 87 59 52 60 53 61 67 63 88 64 55 65 39 66 40 67 48 68
REMARK SMILES IDX 41 69 42 70 46 71 49 72 43 73 44 74 47 75 45 76 71 77 72 78
REMARK SMILES IDX 80 79 73 80 74 81 78 82 81 83 75 84 76 85 79 86 77 87 56 88
REMARK SMILES IDX 57 89 65 90 58 91 59 92 63 93 66 94 60 95 61 96 64 97 62 98
REMARK H PARENT 20 7 5 15 14 26 27 32 86 51 54 62
REMARK Flexibility Score: inf
ROOT
ATOM      1  C   UNL A   1      40.762  22.139  26.518  1.00  0.00     0.002 C 
ENDROOT
BRANCH   1   2
ATOM      2  C   UNL A   1      39.475  21.306  26.458  1.00  0.00     0.021 C 
BRANCH   2   3
ATOM      3  C   UNL A   1      38.485  21.734  25.376  1.00  0.00     0.116 C 
BRANCH   3   4
ATOM      4  N   UNL A   1      37.282  22.327  25.923  1.00  0.00    -0.356 N 
ATOM      5  O   UNL A   1      35.868  20.734  25.104  1.00  0.00    -0.275 OA
ATOM      6  C   UNL A   1      36.044  21.761  25.757  1.00  0.00     0.222 C 
ATOM      7  H   UNL A   1      37.355  23.166  26.432  1.00  0.00     0.163 HD
BRANCH   6   8
ATOM      8  C   UNL A   1      34.872  22.467  26.400  1.00  0.00     0.128 C 
BRANCH   8   9
ATOM      9  C   UNL A   1      33.885  23.261  25.541  1.00  0.00     0.049 C 
ATOM     10  C   UNL A   1      34.144  24.799  25.527  1.00  0.00     0.029 C 
ATOM     11  C   UNL A   1      34.334  23.238  24.045  1.00  0.00     0.029 C 
ATOM     12  C   UNL A   1      34.219  24.765  23.993  1.00  0.00     0.005 C 
BRANCH   9  13
ATOM     13  N   UNL A   1      32.423  22.967  25.680  1.00  0.00    -0.346 N 
ATOM     14  C   UNL A   1      31.656  21.828  25.526  1.00  0.00     0.251 C 
ATOM     15  H   UNL A   1      31.893  23.757  25.936  1.00  0.00     0.164 HD
ATOM     16  O   UNL A   1      30.450  21.878  25.751  1.00  0.00    -0.269 OA
BRANCH  14  17
ATOM     17  C   UNL A   1      32.238  20.602  24.965  1.00  0.00     0.041 A 
ATOM     18  C   UNL A   1      32.208  20.335  23.598  1.00  0.00     0.014 A 
ATOM     19  C   UNL A   1      32.736  19.673  25.885  1.00  0.00     0.040 A 
ATOM     20  C   UNL A   1      32.530  19.050  23.139  1.00  0.00     0.011 A 
ATOM     21  C   UNL A   1      32.971  18.379  25.417  1.00  0.00     0.046 A 
ATOM     22  C   UNL A   1      32.851  18.038  24.071  1.00  0.00    -0.001 A 
ATOM     23  N   UNL A   1      33.284  17.230  26.108  1.00  0.00    -0.361 N 
ATOM     24  C   UNL A   1      33.069  16.635  23.982  1.00  0.00     0.028 A 
ATOM     25  C   UNL A   1      33.305  16.162  25.253  1.00  0.00     0.083 A 
ATOM     26  H   UNL A   1      33.467  17.184  27.075  1.00  0.00     0.166 HD
ENDBRANCH  14  17
ENDBRANCH   9  13
ENDBRANCH   8   9
ENDBRANCH   6   8
ENDBRANCH   3   4
ENDBRANCH   2   3
ENDBRANCH   1   2
BRANCH   1  27
ATOM     27  C   UNL A   1      42.059  21.327  26.520  1.00  0.00     0.002 C 
BRANCH  27  28
ATOM     28  C   UNL A   1      41.947  19.936  25.894  1.00  0.00     0.021 C 
BRANCH  28  29
ATOM     29  C   UNL A   1      43.108  19.002  26.211  1.00  0.00     0.116 C 
BRANCH  29  30
ATOM     30  N   UNL A   1      43.858  18.632  25.021  1.00  0.00    -0.352 N 
ATOM     31  C   UNL A   1      44.610  19.425  24.187  1.00  0.00     0.251 C 
ATOM     32  H   UNL A   1      43.822  17.678  24.779  1.00  0.00     0.163 HD
ATOM     33  O   UNL A   1      45.018  18.988  23.118  1.00  0.00    -0.269 OA
BRANCH  31  34
ATOM     34  C   UNL A   1      44.906  20.822  24.572  1.00  0.00     0.039 A 
ATOM     35  C   UNL A   1      44.480  21.858  23.736  1.00  0.00     0.014 A 
ATOM     36  C   UNL A   1      45.598  21.113  25.751  1.00  0.00     0.014 A 
ATOM     37  C   UNL A   1      44.691  23.185  24.116  1.00  0.00     0.010 A 
ATOM     38  C   UNL A   1      45.738  22.435  26.165  1.00  0.00     0.010 A 
ATOM     39  C   UNL A   1      45.287  23.486  25.352  1.00  0.00    -0.014 A 
BRANCH  39  40
ATOM     40  C   UNL A   1      45.441  24.892  25.811  1.00  0.00     0.031 A 
ATOM     41  C   UNL A   1      46.788  25.559  25.777  1.00  0.00     0.074 A 
ATOM     42  C   UNL A   1      44.377  25.548  26.319  1.00  0.00     0.049 A 
ATOM     43  N   UNL A   1      47.134  26.752  26.191  1.00  0.00    -0.248 NA
ATOM     44  C   UNL A   1      47.904  24.772  25.226  1.00  0.00     0.031 C 
ATOM     45  C   UNL A   1      43.027  24.997  26.448  1.00  0.00     0.029 A 
ATOM     46  N   UNL A   1      44.267  26.817  26.832  1.00  0.00    -0.354 N 
ATOM     47  C   UNL A   1      48.502  26.849  25.971  1.00  0.00     0.074 A 
ATOM     48  C   UNL A   1      48.934  25.580  25.430  1.00  0.00     0.031 C 
ATOM     49  C   UNL A   1      42.221  25.928  26.982  1.00  0.00     0.029 A 
ATOM     50  C   UNL A   1      43.003  27.125  27.274  1.00  0.00     0.049 A 
ATOM     51  H   UNL A   1      45.022  27.446  26.877  1.00  0.00     0.167 HD
ATOM     52  C   UNL A   1      49.319  27.909  26.184  1.00  0.00     0.037 A 
ATOM     53  C   UNL A   1      42.531  28.242  27.863  1.00  0.00     0.037 A 
ATOM     54  C   UNL A   1      48.878  29.182  26.694  1.00  0.00     0.049 A 
ATOM     55  C   UNL A   1      43.468  29.398  28.099  1.00  0.00     0.074 A 
ATOM     56  C   UNL A   1      49.613  30.341  26.867  1.00  0.00     0.029 A 
ATOM     57  N   UNL A   1      47.588  29.460  27.121  1.00  0.00    -0.354 N 
ATOM     58  N   UNL A   1      44.740  29.509  27.803  1.00  0.00    -0.248 NA
ATOM     59  C   UNL A   1      42.899  30.589  28.746  1.00  0.00     0.031 C 
ATOM     60  C   UNL A   1      48.786  31.299  27.461  1.00  0.00     0.029 A 
ATOM     61  C   UNL A   1      47.516  30.761  27.592  1.00  0.00     0.049 A 
ATOM     62  H   UNL A   1      46.834  28.826  27.092  1.00  0.00     0.167 HD
ATOM     63  C   UNL A   1      45.113  30.789  28.193  1.00  0.00     0.074 A 
ATOM     64  C   UNL A   1      43.929  31.423  28.732  1.00  0.00     0.031 C 
ATOM     65  C   UNL A   1      46.327  31.386  28.113  1.00  0.00     0.037 A 
BRANCH  52  66
ATOM     66  C   UNL A   1      50.779  27.745  25.873  1.00  0.00     0.064 A 
ATOM     67  C   UNL A   1      51.287  27.934  24.578  1.00  0.00     0.173 A 
ATOM     68  C   UNL A   1      51.692  27.456  26.899  1.00  0.00     0.173 A 
ATOM     69  F   UNL A   1      50.457  28.205  23.559  1.00  0.00    -0.203 F 
ATOM     70  C   UNL A   1      52.650  27.816  24.319  1.00  0.00     0.198 A 
ATOM     71  C   UNL A   1      53.058  27.371  26.642  1.00  0.00     0.198 A 
ATOM     72  F   UNL A   1      51.261  27.273  28.156  1.00  0.00    -0.203 F 
ATOM     73  F   UNL A   1      53.107  27.956  23.067  1.00  0.00    -0.200 F 
ATOM     74  C   UNL A   1      53.535  27.543  25.352  1.00  0.00     0.200 A 
ATOM     75  F   UNL A   1      53.912  27.125  27.645  1.00  0.00    -0.200 F 
ATOM     76  F   UNL A   1      54.849  27.445  25.103  1.00  0.00    -0.200 F 
ENDBRANCH  52  66
BRANCH  53  77
ATOM     77  C   UNL A   1      41.102  28.332  28.267  1.00  0.00     0.064 A 
ATOM     78  C   UNL A   1      40.143  28.885  27.406  1.00  0.00     0.173 A 
ATOM     79  C   UNL A   1      40.670  27.904  29.531  1.00  0.00     0.173 A 
ATOM     80  F   UNL A   1      40.508  29.329  26.194  1.00  0.00    -0.203 F 
ATOM     81  C   UNL A   1      38.817  29.039  27.807  1.00  0.00     0.198 A 
ATOM     82  C   UNL A   1      39.337  28.026  29.918  1.00  0.00     0.198 A 
ATOM     83  F   UNL A   1      41.544  27.363  30.393  1.00  0.00    -0.203 F 
ATOM     84  F   UNL A   1      37.936  29.630  26.988  1.00  0.00    -0.200 F 
ATOM     85  C   UNL A   1      38.415  28.605  29.060  1.00  0.00     0.200 A 
ATOM     86  F   UNL A   1      38.949  27.590  31.123  1.00  0.00    -0.200 F 
ATOM     87  F   UNL A   1      37.140  28.757  29.447  1.00  0.00    -0.200 F 
ENDBRANCH  53  77
BRANCH  65  88
ATOM     88  C   UNL A   1      46.430  32.812  28.572  1.00  0.00     0.064 A 
ATOM     89  C   UNL A   1      46.773  33.144  29.891  1.00  0.00     0.173 A 
ATOM     90  C   UNL A   1      46.219  33.864  27.666  1.00  0.00     0.173 A 
ATOM     91  F   UNL A   1      46.971  32.177  30.801  1.00  0.00    -0.203 F 
ATOM     92  C   UNL A   1      46.873  34.474  30.292  1.00  0.00     0.198 A 
ATOM     93  C   UNL A   1      46.354  35.191  28.062  1.00  0.00     0.198 A 
ATOM     94  F   UNL A   1      45.895  33.604  26.390  1.00  0.00    -0.203 F 
ATOM     95  F   UNL A   1      47.149  34.766  31.571  1.00  0.00    -0.200 F 
ATOM     96  C   UNL A   1      46.672  35.496  29.376  1.00  0.00     0.200 A 
ATOM     97  F   UNL A   1      46.178  36.177  27.170  1.00  0.00    -0.200 F 
ATOM     98  F   UNL A   1      46.778  36.775  29.762  1.00  0.00    -0.200 F 
ENDBRANCH  65  88
ENDBRANCH  39  40
ENDBRANCH  31  34
ENDBRANCH  29  30
ENDBRANCH  28  29
ENDBRANCH  27  28
ENDBRANCH   1  27
TORSDOF 16
ENDMDL
MODEL 3
REMARK VINA RESULT:     -11.7      1.912      7.693
REMARK SMILES O=C(CC1(NC(=O)c2ccc3cc[nH]c3c2)CCC1)NCCCCCCNC(=O)c1ccc(-c2c3nc(c(-c4c(F)c(F)c(F)c(F)c4F)c4ccc([nH]4)c(-c4c(F)c(F)c(F)c(F)c4F)c4nc(c(-c5c(F)c(F)c(F)c(F)c5F)c5ccc2[nH]5)C=C4)C=C3)cc1
REMARK SMILES IDX 23 1 22 2 21 3 20 4 1 5 2 6 3 8 4 9 17 10 19 11 18 12 5 13
REMARK SMILES IDX 6 14 7 16 8 17 9 18 16 19 10 20 15 21 11 22 14 23 12 24
REMARK SMILES IDX 13 25 24 27 25 28 26 29 27 30 28 31 29 33 30 34 31 35 92 36
REMARK SMILES IDX 32 37 91 38 33 39 34 40 35 41 85 42 36 43 90 44 84 45 86 46
REMARK SMILES IDX 37 47 89 48 83 49 82 50 38 52 70 53 50 54 69 55 51 56 54 57
REMARK SMILES IDX 68 58 87 59 52 60 53 61 67 63 88 64 55 65 39 66 40 67 48 68
REMARK SMILES IDX 41 69 42 70 46 71 49 72 43 73 44 74 47 75 45 76 71 77 72 78
REMARK SMILES IDX 80 79 73 80 74 81 78 82 81 83 75 84 76 85 79 86 77 87 56 88
REMARK SMILES IDX 57 89 65 90 58 91 59 92 63 93 66 94 60 95 61 96 64 97 62 98
REMARK H PARENT 20 7 5 15 14 26 27 32 86 51 54 62
REMARK Flexibility Score: inf
ROOT
ATOM      1  C   UNL A   1      31.920  29.553  27.321  1.00  0.00     0.002 C 
ENDROOT
BRANCH   1   2
ATOM      2  C   UNL A   1      32.287  28.198  26.703  1.00  0.00     0.021 C 
BRANCH   2   3
ATOM      3  C   UNL A   1      31.200  27.131  26.806  1.00  0.00     0.116 C 
BRANCH   3   4
ATOM      4  N   UNL A   1      31.326  26.106  25.791  1.00  0.00    -0.356 N 
ATOM      5  O   UNL A   1      31.372  24.358  27.258  1.00  0.00    -0.275 OA
ATOM      6  C   UNL A   1      31.385  24.771  26.099  1.00  0.00     0.222 C 
ATOM      7  H   UNL A   1      31.372  26.376  24.846  1.00  0.00     0.163 HD
BRANCH   6   8
ATOM      8  C   UNL A   1      31.492  23.801  24.945  1.00  0.00     0.128 C 
BRANCH   8   9
ATOM      9  C   UNL A   1      32.862  23.309  24.475  1.00  0.00     0.049 C 
ATOM     10  C   UNL A   1      34.067  24.054  25.125  1.00  0.00     0.029 C 
ATOM     11  C   UNL A   1      33.289  22.046  25.290  1.00  0.00     0.029 C 
ATOM     12  C   UNL A   1      34.634  22.709  25.602  1.00  0.00     0.005 C 
BRANCH   9  13
ATOM     13  N   UNL A   1      33.084  23.115  23.006  1.00  0.00    -0.346 N 
ATOM     14  C   UNL A   1      33.184  23.976  21.930  1.00  0.00     0.251 C 
ATOM     15  H   UNL A   1      33.180  22.168  22.751  1.00  0.00     0.164 HD
ATOM     16  O   UNL A   1      33.415  23.522  20.813  1.00  0.00    -0.269 OA
BRANCH  14  17
ATOM     17  C   UNL A   1      32.879  25.405  22.083  1.00  0.00     0.041 A 
ATOM     18  C   UNL A   1      33.858  26.331  22.434  1.00  0.00     0.014 A 
ATOM     19  C   UNL A   1      31.535  25.770  21.953  1.00  0.00     0.040 A 
ATOM     20  C   UNL A   1      33.478  27.623  22.825  1.00  0.00     0.011 A 
ATOM     21  C   UNL A   1      31.170  27.032  22.425  1.00  0.00     0.046 A 
ATOM     22  C   UNL A   1      32.106  27.956  22.886  1.00  0.00    -0.001 A 
ATOM     23  N   UNL A   1      29.923  27.589  22.592  1.00  0.00    -0.361 N 
ATOM     24  C   UNL A   1      31.374  29.075  23.370  1.00  0.00     0.028 A 
ATOM     25  C   UNL A   1      30.034  28.810  23.201  1.00  0.00     0.083 A 
ATOM     26  H   UNL A   1      29.075  27.171  22.314  1.00  0.00     0.166 HD
ENDBRANCH  14  17
ENDBRANCH   9  13
ENDBRANCH   8   9
ENDBRANCH   6   8
ENDBRANCH   3   4
ENDBRANCH   2   3
ENDBRANCH   1   2
BRANCH   1  27
ATOM     27  C   UNL A   1      31.796  30.708  26.324  1.00  0.00     0.002 C 
BRANCH  27  28
ATOM     28  C   UNL A   1      31.540  32.077  26.956  1.00  0.00     0.021 C 
BRANCH  28  29
ATOM     29  C   UNL A   1      32.787  32.932  27.146  1.00  0.00     0.116 C 
BRANCH  29  30
ATOM     30  N   UNL A   1      32.468  34.280  27.590  1.00  0.00    -0.352 N 
ATOM     31  C   UNL A   1      32.988  34.993  28.644  1.00  0.00     0.251 C 
ATOM     32  H   UNL A   1      31.783  34.748  27.060  1.00  0.00     0.163 HD
ATOM     33  O   UNL A   1      32.470  36.044  28.998  1.00  0.00    -0.269 OA
BRANCH  31  34
ATOM     34  C   UNL A   1      34.166  34.472  29.372  1.00  0.00     0.039 A 
ATOM     35  C   UNL A   1      33.970  33.800  30.581  1.00  0.00     0.014 A 
ATOM     36  C   UNL A   1      35.458  34.643  28.867  1.00  0.00     0.014 A 
ATOM     37  C   UNL A   1      35.064  33.243  31.249  1.00  0.00     0.010 A 
ATOM     38  C   UNL A   1      36.536  34.022  29.492  1.00  0.00     0.010 A 
ATOM     39  C   UNL A   1      36.351  33.316  30.691  1.00  0.00    -0.014 A 
BRANCH  39  40
ATOM     40  C   UNL A   1      37.512  32.654  31.344  1.00  0.00     0.031 A 
ATOM     41  C   UNL A   1      38.201  31.497  30.674  1.00  0.00     0.074 A 
ATOM     42  C   UNL A   1      37.905  33.055  32.570  1.00  0.00     0.049 A 
ATOM     43  N   UNL A   1      39.186  30.753  31.112  1.00  0.00    -0.248 NA
ATOM     44  C   UNL A   1      37.703  31.106  29.346  1.00  0.00     0.031 C 
ATOM     45  C   UNL A   1      37.291  34.135  33.343  1.00  0.00     0.029 A 
ATOM     46  N   UNL A   1      38.908  32.593  33.386  1.00  0.00    -0.354 N 
ATOM     47  C   UNL A   1      39.409  29.800  30.127  1.00  0.00     0.074 A 
ATOM     48  C   UNL A   1      38.429  30.028  29.089  1.00  0.00     0.031 C 
ATOM     49  C   UNL A   1      37.942  34.268  34.509  1.00  0.00     0.029 A 
ATOM     50  C   UNL A   1      38.991  33.255  34.587  1.00  0.00     0.049 A 
ATOM     51  H   UNL A   1      39.511  31.858  33.134  1.00  0.00     0.167 HD
ATOM     52  C   UNL A   1      40.359  28.834  30.085  1.00  0.00     0.037 A 
ATOM     53  C   UNL A   1      39.810  33.059  35.639  1.00  0.00     0.037 A 
ATOM     54  C   UNL A   1      41.353  28.631  31.107  1.00  0.00     0.049 A 
ATOM     55  C   UNL A   1      40.847  31.968  35.567  1.00  0.00     0.074 A 
ATOM     56  C   UNL A   1      42.406  27.734  31.117  1.00  0.00     0.029 A 
ATOM     57  N   UNL A   1      41.412  29.329  32.304  1.00  0.00    -0.354 N 
ATOM     58  N   UNL A   1      41.105  31.132  34.591  1.00  0.00    -0.248 NA
ATOM     59  C   UNL A   1      41.712  31.799  36.744  1.00  0.00     0.031 C 
ATOM     60  C   UNL A   1      43.061  27.841  32.347  1.00  0.00     0.029 A 
ATOM     61  C   UNL A   1      42.461  28.855  33.076  1.00  0.00     0.049 A 
ATOM     62  H   UNL A   1      40.799  30.054  32.566  1.00  0.00     0.167 HD
ATOM     63  C   UNL A   1      42.180  30.365  35.020  1.00  0.00     0.074 A 
ATOM     64  C   UNL A   1      42.538  30.846  36.338  1.00  0.00     0.031 C 
ATOM     65  C   UNL A   1      42.816  29.353  34.380  1.00  0.00     0.037 A 
BRANCH  52  66
ATOM     66  C   UNL A   1      40.372  27.913  28.899  1.00  0.00     0.064 A 
ATOM     67  C   UNL A   1      41.120  28.200  27.746  1.00  0.00     0.173 A 
ATOM     68  C   UNL A   1      39.676  26.695  28.942  1.00  0.00     0.173 A 
ATOM     69  F   UNL A   1      41.798  29.353  27.650  1.00  0.00    -0.203 F 
ATOM     70  C   UNL A   1      41.150  27.312  26.673  1.00  0.00     0.198 A 
ATOM     71  C   UNL A   1      39.736  25.796  27.880  1.00  0.00     0.198 A 
ATOM     72  F   UNL A   1      38.951  26.368  30.022  1.00  0.00    -0.203 F 
ATOM     73  F   UNL A   1      41.836  27.628  25.565  1.00  0.00    -0.200 F 
ATOM     74  C   UNL A   1      40.466  26.108  26.744  1.00  0.00     0.200 A 
ATOM     75  F   UNL A   1      39.087  24.626  27.959  1.00  0.00    -0.200 F 
ATOM     76  F   UNL A   1      40.509  25.249  25.716  1.00  0.00    -0.200 F 
ENDBRANCH  52  66
BRANCH  53  77
ATOM     77  C   UNL A   1      39.696  33.915  36.851  1.00  0.00     0.064 A 
ATOM     78  C   UNL A   1      38.906  33.523  37.940  1.00  0.00     0.173 A 
ATOM     79  C   UNL A   1      40.344  35.157  36.932  1.00  0.00     0.173 A 
ATOM     80  F   UNL A   1      38.248  32.354  37.904  1.00  0.00    -0.203 F 
ATOM     81  C   UNL A   1      38.737  34.354  39.046  1.00  0.00     0.198 A 
ATOM     82  C   UNL A   1      40.204  35.972  38.054  1.00  0.00     0.198 A 
ATOM     83  F   UNL A   1      41.117  35.580  35.921  1.00  0.00    -0.203 F 
ATOM     84  F   UNL A   1      37.923  33.981  40.044  1.00  0.00    -0.200 F 
ATOM     85  C   UNL A   1      39.390  35.575  39.104  1.00  0.00     0.200 A 
ATOM     86  F   UNL A   1      40.850  37.144  38.113  1.00  0.00    -0.200 F 
ATOM     87  F   UNL A   1      39.225  36.376  40.166  1.00  0.00    -0.200 F 
ENDBRANCH  53  77
BRANCH  65  88
ATOM     88  C   UNL A   1      43.993  28.727  35.071  1.00  0.00     0.064 A 
ATOM     89  C   UNL A   1      45.297  29.218  34.908  1.00  0.00     0.173 A 
ATOM     90  C   UNL A   1      43.807  27.641  35.942  1.00  0.00     0.173 A 
ATOM     91  F   UNL A   1      45.532  30.245  34.076  1.00  0.00    -0.203 F 
ATOM     92  C   UNL A   1      46.373  28.629  35.567  1.00  0.00     0.198 A 
ATOM     93  C   UNL A   1      44.880  27.077  36.626  1.00  0.00     0.198 A 
ATOM     94  F   UNL A   1      42.580  27.135  36.142  1.00  0.00    -0.203 F 
ATOM     95  F   UNL A   1      47.616  29.081  35.352  1.00  0.00    -0.200 F 
ATOM     96  C   UNL A   1      46.162  27.565  36.432  1.00  0.00     0.200 A 
ATOM     97  F   UNL A   1      44.671  26.061  37.476  1.00  0.00    -0.200 F 
ATOM     98  F   UNL A   1      47.198  27.005  37.072  1.00  0.00    -0.200 F 
ENDBRANCH  65  88
ENDBRANCH  39  40
ENDBRANCH  31  34
ENDBRANCH  29  30
ENDBRANCH  28  29
ENDBRANCH  27  28
ENDBRANCH   1  27
TORSDOF 16
ENDMDL
