MODEL 1
REMARK VINA RESULT:     -13.4      0.000      0.000
REMARK SMILES Cc1cc(OC(F)F)ccc1NC(=O)[C@@H]1CCCC[C@@H]1C(=O)NCCCCCCNC(=O)c1ccc(-c2c3nc(c(-c4c(F)c(F)c(F)c(F)c4F)c4ccc([nH]4)c(-c4c(F)c(F)c(F)c(F)c4F)c4nc(c(-c5c(F)c(F)c(F)c(F)c5F)c5ccc2[nH]5)C=C4)C=C3)cc1
REMARK SMILES IDX 25 1 24 2 23 3 21 4 22 5 20 7 15 8 16 9 17 10 19 11 18 12
REMARK SMILES IDX 13 13 12 14 14 16 11 17 1 18 2 19 3 20 4 21 10 22 9 23 5 24
REMARK SMILES IDX 6 25 7 26 8 27 26 28 27 29 28 30 29 31 30 32 31 33 32 35
REMARK SMILES IDX 33 36 34 37 95 38 35 39 94 40 36 41 37 42 38 43 88 44 39 45
REMARK SMILES IDX 93 46 87 47 89 48 40 49 92 50 86 51 85 52 41 54 73 55 53 56
REMARK SMILES IDX 72 57 54 58 57 59 71 60 90 61 55 62 56 63 70 65 91 66 58 67
REMARK SMILES IDX 42 68 43 69 51 70 44 71 45 72 49 73 52 74 46 75 47 76 50 77
REMARK SMILES IDX 48 78 74 79 75 80 83 81 76 82 77 83 81 84 84 85 78 86 79 87
REMARK SMILES IDX 82 88 80 89 59 90 60 91 68 92 61 93 62 94 66 95 69 96 63 97
REMARK SMILES IDX 64 98 67 99 65 100
REMARK H PARENT 23 6 12 15 30 34 89 53 57 64
REMARK Flexibility Score: inf
ROOT
ATOM      1  C   UNL A   1      29.448  30.616  23.727  1.00  0.00     0.021 C 
ENDROOT
BRANCH   1   2
ATOM      2  C   UNL A   1      30.053  29.395  23.036  1.00  0.00     0.116 C 
BRANCH   2   3
ATOM      3  N   UNL A   1      29.247  28.218  23.242  1.00  0.00    -0.356 N 
ATOM      4  C   UNL A   1      29.556  27.017  23.798  1.00  0.00     0.223 C 
ATOM      5  O   UNL A   1      28.621  26.222  23.913  1.00  0.00    -0.275 OA
ATOM      6  H   UNL A   1      28.317  28.298  22.929  1.00  0.00     0.163 HD
BRANCH   4   7
ATOM      7  C   UNL A   1      30.981  26.698  24.287  1.00  0.00     0.091 C 
ATOM      8  C   UNL A   1      31.558  25.335  23.842  1.00  0.00     0.091 C 
ATOM      9  C   UNL A   1      30.620  24.208  24.300  1.00  0.00     0.014 C 
ATOM     10  C   UNL A   1      30.582  24.161  25.830  1.00  0.00     0.001 C 
ATOM     11  C   UNL A   1      31.017  26.705  25.837  1.00  0.00     0.014 C 
ATOM     12  C   UNL A   1      30.296  25.513  26.486  1.00  0.00     0.001 C 
BRANCH   8  13
ATOM     13  C   UNL A   1      32.028  25.187  22.396  1.00  0.00     0.228 C 
ATOM     14  N   UNL A   1      32.541  24.015  21.892  1.00  0.00    -0.326 N 
ATOM     15  H   UNL A   1      32.676  24.018  20.917  1.00  0.00     0.169 HD
ATOM     16  O   UNL A   1      31.974  26.140  21.610  1.00  0.00    -0.274 OA
BRANCH  14  17
ATOM     17  C   UNL A   1      32.907  22.809  22.524  1.00  0.00     0.044 A 
ATOM     18  C   UNL A   1      35.032  23.907  23.486  1.00  0.00     0.047 C 
ATOM     19  C   UNL A   1      34.016  22.800  23.393  1.00  0.00    -0.024 A 
ATOM     20  C   UNL A   1      34.195  21.696  24.249  1.00  0.00     0.052 A 
ATOM     21  C   UNL A   1      33.321  20.608  24.232  1.00  0.00     0.126 A 
ATOM     22  C   UNL A   1      32.154  21.642  22.390  1.00  0.00     0.030 A 
ATOM     23  C   UNL A   1      32.343  20.555  23.249  1.00  0.00     0.049 A 
BRANCH  21  24
ATOM     24  O   UNL A   1      33.535  19.669  25.198  1.00  0.00    -0.435 OA
BRANCH  24  25
ATOM     25  C   UNL A   1      32.648  18.555  25.235  1.00  0.00     0.542 C 
ATOM     26  F   UNL A   1      33.101  17.559  24.435  1.00  0.00    -0.167 F 
ATOM     27  F   UNL A   1      32.573  18.080  26.501  1.00  0.00    -0.167 F 
ENDBRANCH  24  25
ENDBRANCH  21  24
ENDBRANCH  14  17
ENDBRANCH   8  13
ENDBRANCH   4   7
ENDBRANCH   2   3
ENDBRANCH   1   2
BRANCH   1  28
ATOM     28  C   UNL A   1      30.312  31.209  24.848  1.00  0.00     0.002 C 
BRANCH  28  29
ATOM     29  C   UNL A   1      31.424  30.304  25.407  1.00  0.00     0.002 C 
BRANCH  29  30
ATOM     30  C   UNL A   1      31.771  30.505  26.882  1.00  0.00     0.021 C 
BRANCH  30  31
ATOM     31  C   UNL A   1      33.252  30.346  27.202  1.00  0.00     0.116 C 
BRANCH  31  32
ATOM     32  N   UNL A   1      33.802  31.441  27.996  1.00  0.00    -0.352 N 
ATOM     33  C   UNL A   1      34.979  31.495  28.723  1.00  0.00     0.251 C 
ATOM     34  H   UNL A   1      33.256  32.261  28.016  1.00  0.00     0.163 HD
ATOM     35  O   UNL A   1      35.283  32.500  29.347  1.00  0.00    -0.269 OA
BRANCH  33  36
ATOM     36  C   UNL A   1      35.932  30.366  28.621  1.00  0.00     0.039 A 
ATOM     37  C   UNL A   1      36.222  29.644  29.785  1.00  0.00     0.014 A 
ATOM     38  C   UNL A   1      36.688  30.181  27.468  1.00  0.00     0.014 A 
ATOM     39  C   UNL A   1      37.423  28.945  29.867  1.00  0.00     0.010 A 
ATOM     40  C   UNL A   1      37.925  29.584  27.582  1.00  0.00     0.010 A 
ATOM     41  C   UNL A   1      38.322  29.033  28.807  1.00  0.00    -0.014 A 
BRANCH  41  42
ATOM     42  C   UNL A   1      39.729  28.661  28.905  1.00  0.00     0.031 A 
ATOM     43  C   UNL A   1      40.164  27.301  28.536  1.00  0.00     0.074 A 
ATOM     44  C   UNL A   1      40.645  29.604  29.224  1.00  0.00     0.049 A 
ATOM     45  N   UNL A   1      41.322  26.805  28.807  1.00  0.00    -0.248 NA
ATOM     46  C   UNL A   1      39.278  26.354  27.875  1.00  0.00     0.031 C 
ATOM     47  C   UNL A   1      42.095  29.516  29.078  1.00  0.00     0.029 A 
ATOM     48  N   UNL A   1      40.442  30.776  29.972  1.00  0.00    -0.354 N 
ATOM     49  C   UNL A   1      41.440  25.601  28.152  1.00  0.00     0.074 A 
ATOM     50  C   UNL A   1      40.109  25.328  27.668  1.00  0.00     0.031 C 
ATOM     51  C   UNL A   1      42.667  30.357  29.953  1.00  0.00     0.029 A 
ATOM     52  C   UNL A   1      41.605  30.901  30.778  1.00  0.00     0.049 A 
ATOM     53  H   UNL A   1      39.665  31.381  29.944  1.00  0.00     0.167 HD
ATOM     54  C   UNL A   1      42.685  25.053  28.021  1.00  0.00     0.037 A 
ATOM     55  C   UNL A   1      41.526  30.788  32.137  1.00  0.00     0.037 A 
ATOM     56  C   UNL A   1      43.649  25.744  28.887  1.00  0.00     0.049 A 
ATOM     57  C   UNL A   1      42.313  29.633  32.725  1.00  0.00     0.074 A 
ATOM     58  C   UNL A   1      44.661  26.673  28.700  1.00  0.00     0.029 A 
ATOM     59  N   UNL A   1      43.445  25.683  30.255  1.00  0.00    -0.354 N 
ATOM     60  N   UNL A   1      42.957  28.746  32.018  1.00  0.00    -0.248 NA
ATOM     61  C   UNL A   1      42.353  29.333  34.157  1.00  0.00     0.031 C 
ATOM     62  C   UNL A   1      45.038  27.184  29.980  1.00  0.00     0.029 A 
ATOM     63  C   UNL A   1      44.261  26.560  30.938  1.00  0.00     0.049 A 
ATOM     64  H   UNL A   1      42.793  25.085  30.688  1.00  0.00     0.167 HD
ATOM     65  C   UNL A   1      43.444  27.771  32.845  1.00  0.00     0.074 A 
ATOM     66  C   UNL A   1      43.044  28.181  34.177  1.00  0.00     0.031 C 
ATOM     67  C   UNL A   1      44.108  26.676  32.379  1.00  0.00     0.037 A 
BRANCH  54  68
ATOM     68  C   UNL A   1      43.097  24.013  26.990  1.00  0.00     0.064 A 
ATOM     69  C   UNL A   1      42.611  22.688  27.085  1.00  0.00     0.173 A 
ATOM     70  C   UNL A   1      44.017  24.207  25.940  1.00  0.00     0.173 A 
ATOM     71  F   UNL A   1      41.673  22.347  27.979  1.00  0.00    -0.203 F 
ATOM     72  C   UNL A   1      43.073  21.648  26.268  1.00  0.00     0.198 A 
ATOM     73  C   UNL A   1      44.496  23.166  25.139  1.00  0.00     0.198 A 
ATOM     74  F   UNL A   1      44.475  25.411  25.601  1.00  0.00    -0.203 F 
ATOM     75  F   UNL A   1      42.586  20.409  26.429  1.00  0.00    -0.200 F 
ATOM     76  C   UNL A   1      44.034  21.883  25.310  1.00  0.00     0.200 A 
ATOM     77  F   UNL A   1      45.414  23.428  24.196  1.00  0.00    -0.200 F 
ATOM     78  F   UNL A   1      44.499  20.886  24.545  1.00  0.00    -0.200 F 
ENDBRANCH  54  68
BRANCH  55  79
ATOM     79  C   UNL A   1      40.251  31.329  32.675  1.00  0.00     0.064 A 
ATOM     80  C   UNL A   1      40.055  32.725  32.635  1.00  0.00     0.173 A 
ATOM     81  C   UNL A   1      39.119  30.522  32.832  1.00  0.00     0.173 A 
ATOM     82  F   UNL A   1      41.109  33.545  32.489  1.00  0.00    -0.203 F 
ATOM     83  C   UNL A   1      38.777  33.277  32.610  1.00  0.00     0.198 A 
ATOM     84  C   UNL A   1      37.840  31.082  32.830  1.00  0.00     0.198 A 
ATOM     85  F   UNL A   1      39.236  29.186  32.859  1.00  0.00    -0.203 F 
ATOM     86  F   UNL A   1      38.622  34.597  32.437  1.00  0.00    -0.200 F 
ATOM     87  C   UNL A   1      37.670  32.450  32.677  1.00  0.00     0.200 A 
ATOM     88  F   UNL A   1      36.767  30.281  32.873  1.00  0.00    -0.200 F 
ATOM     89  F   UNL A   1      36.439  32.966  32.550  1.00  0.00    -0.200 F 
ENDBRANCH  55  79
BRANCH  67  90
ATOM     90  C   UNL A   1      44.664  25.608  33.271  1.00  0.00     0.064 A 
ATOM     91  C   UNL A   1      46.023  25.256  33.257  1.00  0.00     0.173 A 
ATOM     92  C   UNL A   1      43.820  24.813  34.073  1.00  0.00     0.173 A 
ATOM     93  F   UNL A   1      46.895  25.931  32.493  1.00  0.00    -0.203 F 
ATOM     94  C   UNL A   1      46.508  24.189  34.016  1.00  0.00     0.198 A 
ATOM     95  C   UNL A   1      44.298  23.719  34.790  1.00  0.00     0.198 A 
ATOM     96  F   UNL A   1      42.514  25.094  34.201  1.00  0.00    -0.203 F 
ATOM     97  F   UNL A   1      47.819  23.911  34.010  1.00  0.00    -0.200 F 
ATOM     98  C   UNL A   1      45.644  23.412  34.769  1.00  0.00     0.200 A 
ATOM     99  F   UNL A   1      43.446  22.968  35.503  1.00  0.00    -0.200 F 
ATOM    100  F   UNL A   1      46.108  22.373  35.475  1.00  0.00    -0.200 F 
ENDBRANCH  67  90
ENDBRANCH  41  42
ENDBRANCH  33  36
ENDBRANCH  31  32
ENDBRANCH  30  31
ENDBRANCH  29  30
ENDBRANCH  28  29
ENDBRANCH   1  28
TORSDOF 17
ENDMDL
MODEL 2
REMARK VINA RESULT:     -13.1      1.609      2.355
REMARK SMILES Cc1cc(OC(F)F)ccc1NC(=O)[C@@H]1CCCC[C@@H]1C(=O)NCCCCCCNC(=O)c1ccc(-c2c3nc(c(-c4c(F)c(F)c(F)c(F)c4F)c4ccc([nH]4)c(-c4c(F)c(F)c(F)c(F)c4F)c4nc(c(-c5c(F)c(F)c(F)c(F)c5F)c5ccc2[nH]5)C=C4)C=C3)cc1
REMARK SMILES IDX 25 1 24 2 23 3 21 4 22 5 20 7 15 8 16 9 17 10 19 11 18 12
REMARK SMILES IDX 13 13 12 14 14 16 11 17 1 18 2 19 3 20 4 21 10 22 9 23 5 24
REMARK SMILES IDX 6 25 7 26 8 27 26 28 27 29 28 30 29 31 30 32 31 33 32 35
REMARK SMILES IDX 33 36 34 37 95 38 35 39 94 40 36 41 37 42 38 43 88 44 39 45
REMARK SMILES IDX 93 46 87 47 89 48 40 49 92 50 86 51 85 52 41 54 73 55 53 56
REMARK SMILES IDX 72 57 54 58 57 59 71 60 90 61 55 62 56 63 70 65 91 66 58 67
REMARK SMILES IDX 42 68 43 69 51 70 44 71 45 72 49 73 52 74 46 75 47 76 50 77
REMARK SMILES IDX 48 78 74 79 75 80 83 81 76 82 77 83 81 84 84 85 78 86 79 87
REMARK SMILES IDX 82 88 80 89 59 90 60 91 68 92 61 93 62 94 66 95 69 96 63 97
REMARK SMILES IDX 64 98 67 99 65 100
REMARK H PARENT 23 6 12 15 30 34 89 53 57 64
REMARK Flexibility Score: inf
ROOT
ATOM      1  C   UNL A   1      31.127  29.824  24.864  1.00  0.00     0.021 C 
ENDROOT
BRANCH   1   2
ATOM      2  C   UNL A   1      31.062  29.220  23.462  1.00  0.00     0.116 C 
BRANCH   2   3
ATOM      3  N   UNL A   1      32.365  28.806  23.005  1.00  0.00    -0.356 N 
ATOM      4  C   UNL A   1      32.961  27.585  23.012  1.00  0.00     0.223 C 
ATOM      5  O   UNL A   1      34.067  27.523  22.471  1.00  0.00    -0.275 OA
ATOM      6  H   UNL A   1      32.915  29.529  22.624  1.00  0.00     0.163 HD
BRANCH   4   7
ATOM      7  C   UNL A   1      32.269  26.354  23.626  1.00  0.00     0.091 C 
ATOM      8  C   UNL A   1      33.207  25.234  24.132  1.00  0.00     0.091 C 
ATOM      9  C   UNL A   1      34.111  24.764  22.981  1.00  0.00     0.014 C 
ATOM     10  C   UNL A   1      33.254  24.123  21.885  1.00  0.00     0.001 C 
ATOM     11  C   UNL A   1      31.333  25.701  22.577  1.00  0.00     0.014 C 
ATOM     12  C   UNL A   1      32.073  24.985  21.436  1.00  0.00     0.001 C 
BRANCH   8  13
ATOM     13  C   UNL A   1      33.958  25.457  25.443  1.00  0.00     0.228 C 
ATOM     14  N   UNL A   1      34.577  24.443  26.134  1.00  0.00    -0.326 N 
ATOM     15  H   UNL A   1      35.136  24.746  26.885  1.00  0.00     0.169 HD
ATOM     16  O   UNL A   1      34.028  26.583  25.950  1.00  0.00    -0.274 OA
BRANCH  14  17
ATOM     17  C   UNL A   1      34.555  23.044  25.957  1.00  0.00     0.044 A 
ATOM     18  C   UNL A   1      32.316  22.875  27.224  1.00  0.00     0.047 C 
ATOM     19  C   UNL A   1      33.412  22.322  26.353  1.00  0.00    -0.024 A 
ATOM     20  C   UNL A   1      33.261  20.995  25.903  1.00  0.00     0.052 A 
ATOM     21  C   UNL A   1      34.226  20.379  25.106  1.00  0.00     0.126 A 
ATOM     22  C   UNL A   1      35.589  22.360  25.316  1.00  0.00     0.030 A 
ATOM     23  C   UNL A   1      35.423  21.044  24.875  1.00  0.00     0.049 A 
BRANCH  21  24
ATOM     24  O   UNL A   1      33.896  19.142  24.636  1.00  0.00    -0.435 OA
BRANCH  24  25
ATOM     25  C   UNL A   1      32.518  18.780  24.660  1.00  0.00     0.542 C 
ATOM     26  F   UNL A   1      32.138  18.275  23.461  1.00  0.00    -0.167 F 
ATOM     27  F   UNL A   1      32.318  17.829  25.603  1.00  0.00    -0.167 F 
ENDBRANCH  24  25
ENDBRANCH  21  24
ENDBRANCH  14  17
ENDBRANCH   8  13
ENDBRANCH   4   7
ENDBRANCH   2   3
ENDBRANCH   1   2
BRANCH   1  28
ATOM     28  C   UNL A   1      31.317  28.801  25.992  1.00  0.00     0.002 C 
BRANCH  28  29
ATOM     29  C   UNL A   1      32.043  29.300  27.254  1.00  0.00     0.002 C 
BRANCH  29  30
ATOM     30  C   UNL A   1      32.797  30.623  27.114  1.00  0.00     0.021 C 
BRANCH  30  31
ATOM     31  C   UNL A   1      34.311  30.494  27.226  1.00  0.00     0.116 C 
BRANCH  31  32
ATOM     32  N   UNL A   1      34.900  31.366  28.238  1.00  0.00    -0.352 N 
ATOM     33  C   UNL A   1      35.998  31.149  29.053  1.00  0.00     0.251 C 
ATOM     34  H   UNL A   1      34.452  32.235  28.358  1.00  0.00     0.163 HD
ATOM     35  O   UNL A   1      36.351  31.990  29.865  1.00  0.00    -0.269 OA
BRANCH  33  36
ATOM     36  C   UNL A   1      36.821  29.937  28.832  1.00  0.00     0.039 A 
ATOM     37  C   UNL A   1      37.074  29.105  29.929  1.00  0.00     0.014 A 
ATOM     38  C   UNL A   1      37.512  29.762  27.638  1.00  0.00     0.014 A 
ATOM     39  C   UNL A   1      38.196  28.282  29.910  1.00  0.00     0.010 A 
ATOM     40  C   UNL A   1      38.681  29.033  27.656  1.00  0.00     0.010 A 
ATOM     41  C   UNL A   1      39.062  28.354  28.821  1.00  0.00    -0.014 A 
BRANCH  41  42
ATOM     42  C   UNL A   1      40.424  27.834  28.832  1.00  0.00     0.031 A 
ATOM     43  C   UNL A   1      40.677  26.413  28.528  1.00  0.00     0.074 A 
ATOM     44  C   UNL A   1      41.460  28.685  29.009  1.00  0.00     0.049 A 
ATOM     45  N   UNL A   1      41.794  25.807  28.740  1.00  0.00    -0.248 NA
ATOM     46  C   UNL A   1      39.639  25.532  28.010  1.00  0.00     0.031 C 
ATOM     47  C   UNL A   1      42.874  28.425  28.753  1.00  0.00     0.029 A 
ATOM     48  N   UNL A   1      41.451  29.917  29.685  1.00  0.00    -0.354 N 
ATOM     49  C   UNL A   1      41.724  24.559  28.165  1.00  0.00     0.074 A 
ATOM     50  C   UNL A   1      40.334  24.408  27.811  1.00  0.00     0.031 C 
ATOM     51  C   UNL A   1      43.607  29.249  29.517  1.00  0.00     0.029 A 
ATOM     52  C   UNL A   1      42.686  29.959  30.384  1.00  0.00     0.049 A 
ATOM     53  H   UNL A   1      40.743  30.602  29.676  1.00  0.00     0.167 HD
ATOM     54  C   UNL A   1      42.887  23.867  27.975  1.00  0.00     0.037 A 
ATOM     55  C   UNL A   1      42.715  29.941  31.749  1.00  0.00     0.037 A 
ATOM     56  C   UNL A   1      43.992  24.497  28.709  1.00  0.00     0.049 A 
ATOM     57  C   UNL A   1      43.421  28.744  32.353  1.00  0.00     0.074 A 
ATOM     58  C   UNL A   1      45.076  25.292  28.375  1.00  0.00     0.029 A 
ATOM     59  N   UNL A   1      43.903  24.545  30.090  1.00  0.00    -0.354 N 
ATOM     60  N   UNL A   1      43.902  27.747  31.662  1.00  0.00    -0.248 NA
ATOM     61  C   UNL A   1      43.554  28.531  33.796  1.00  0.00     0.031 C 
ATOM     62  C   UNL A   1      45.617  25.836  29.581  1.00  0.00     0.029 A 
ATOM     63  C   UNL A   1      44.865  25.365  30.641  1.00  0.00     0.049 A 
ATOM     64  H   UNL A   1      43.231  24.052  30.615  1.00  0.00     0.167 HD
ATOM     65  C   UNL A   1      44.353  26.777  32.515  1.00  0.00     0.074 A 
ATOM     66  C   UNL A   1      44.117  27.312  33.842  1.00  0.00     0.031 C 
ATOM     67  C   UNL A   1      44.852  25.587  32.077  1.00  0.00     0.037 A 
BRANCH  54  68
ATOM     68  C   UNL A   1      43.092  22.724  26.991  1.00  0.00     0.064 A 
ATOM     69  C   UNL A   1      42.422  21.494  27.181  1.00  0.00     0.173 A 
ATOM     70  C   UNL A   1      43.981  22.724  25.898  1.00  0.00     0.173 A 
ATOM     71  F   UNL A   1      41.486  21.343  28.129  1.00  0.00    -0.203 F 
ATOM     72  C   UNL A   1      42.687  20.355  26.409  1.00  0.00     0.198 A 
ATOM     73  C   UNL A   1      44.265  21.583  25.140  1.00  0.00     0.198 A 
ATOM     74  F   UNL A   1      44.595  23.827  25.472  1.00  0.00    -0.203 F 
ATOM     75  F   UNL A   1      42.031  19.213  26.661  1.00  0.00    -0.200 F 
ATOM     76  C   UNL A   1      43.627  20.393  25.404  1.00  0.00     0.200 A 
ATOM     77  F   UNL A   1      45.166  21.655  24.150  1.00  0.00    -0.200 F 
ATOM     78  F   UNL A   1      43.904  19.300  24.681  1.00  0.00    -0.200 F 
ENDBRANCH  54  68
BRANCH  55  79
ATOM     79  C   UNL A   1      41.557  30.655  32.347  1.00  0.00     0.064 A 
ATOM     80  C   UNL A   1      41.567  32.065  32.327  1.00  0.00     0.173 A 
ATOM     81  C   UNL A   1      40.327  30.020  32.548  1.00  0.00     0.173 A 
ATOM     82  F   UNL A   1      42.722  32.724  32.141  1.00  0.00    -0.203 F 
ATOM     83  C   UNL A   1      40.384  32.798  32.364  1.00  0.00     0.198 A 
ATOM     84  C   UNL A   1      39.145  30.761  32.608  1.00  0.00     0.198 A 
ATOM     85  F   UNL A   1      40.248  28.681  32.560  1.00  0.00    -0.203 F 
ATOM     86  F   UNL A   1      40.417  34.129  32.207  1.00  0.00    -0.200 F 
ATOM     87  C   UNL A   1      39.171  32.141  32.473  1.00  0.00     0.200 A 
ATOM     88  F   UNL A   1      37.968  30.125  32.692  1.00  0.00    -0.200 F 
ATOM     89  F   UNL A   1      38.025  32.833  32.405  1.00  0.00    -0.200 F 
ENDBRANCH  55  79
BRANCH  67  90
ATOM     90  C   UNL A   1      45.366  24.520  32.996  1.00  0.00     0.064 A 
ATOM     91  C   UNL A   1      44.604  23.389  33.327  1.00  0.00     0.173 A 
ATOM     92  C   UNL A   1      46.592  24.671  33.675  1.00  0.00     0.173 A 
ATOM     93  F   UNL A   1      43.407  23.182  32.760  1.00  0.00    -0.203 F 
ATOM     94  C   UNL A   1      45.052  22.457  34.265  1.00  0.00     0.198 A 
ATOM     95  C   UNL A   1      47.014  23.766  34.647  1.00  0.00     0.198 A 
ATOM     96  F   UNL A   1      47.423  25.686  33.396  1.00  0.00    -0.203 F 
ATOM     97  F   UNL A   1      44.317  21.367  34.524  1.00  0.00    -0.200 F 
ATOM     98  C   UNL A   1      46.248  22.654  34.935  1.00  0.00     0.200 A 
ATOM     99  F   UNL A   1      48.167  23.978  35.297  1.00  0.00    -0.200 F 
ATOM    100  F   UNL A   1      46.663  21.771  35.854  1.00  0.00    -0.200 F 
ENDBRANCH  67  90
ENDBRANCH  41  42
ENDBRANCH  33  36
ENDBRANCH  31  32
ENDBRANCH  30  31
ENDBRANCH  29  30
ENDBRANCH  28  29
ENDBRANCH   1  28
TORSDOF 17
ENDMDL
MODEL 3
REMARK VINA RESULT:     -12.8      2.940      4.548
REMARK SMILES Cc1cc(OC(F)F)ccc1NC(=O)[C@@H]1CCCC[C@@H]1C(=O)NCCCCCCNC(=O)c1ccc(-c2c3nc(c(-c4c(F)c(F)c(F)c(F)c4F)c4ccc([nH]4)c(-c4c(F)c(F)c(F)c(F)c4F)c4nc(c(-c5c(F)c(F)c(F)c(F)c5F)c5ccc2[nH]5)C=C4)C=C3)cc1
REMARK SMILES IDX 25 1 24 2 23 3 21 4 22 5 20 7 15 8 16 9 17 10 19 11 18 12
REMARK SMILES IDX 13 13 12 14 14 16 11 17 1 18 2 19 3 20 4 21 10 22 9 23 5 24
REMARK SMILES IDX 6 25 7 26 8 27 26 28 27 29 28 30 29 31 30 32 31 33 32 35
REMARK SMILES IDX 33 36 34 37 95 38 35 39 94 40 36 41 37 42 38 43 88 44 39 45
REMARK SMILES IDX 93 46 87 47 89 48 40 49 92 50 86 51 85 52 41 54 73 55 53 56
REMARK SMILES IDX 72 57 54 58 57 59 71 60 90 61 55 62 56 63 70 65 91 66 58 67
REMARK SMILES IDX 42 68 43 69 51 70 44 71 45 72 49 73 52 74 46 75 47 76 50 77
REMARK SMILES IDX 48 78 74 79 75 80 83 81 76 82 77 83 81 84 84 85 78 86 79 87
REMARK SMILES IDX 82 88 80 89 59 90 60 91 68 92 61 93 62 94 66 95 69 96 63 97
REMARK SMILES IDX 64 98 67 99 65 100
REMARK H PARENT 23 6 12 15 30 34 89 53 57 64
REMARK Flexibility Score: inf
ROOT
ATOM      1  C   UNL A   1      34.612  29.598  27.482  1.00  0.00     0.021 C 
ENDROOT
BRANCH   1   2
ATOM      2  C   UNL A   1      33.277  29.734  26.751  1.00  0.00     0.116 C 
BRANCH   2   3
ATOM      3  N   UNL A   1      33.458  29.752  25.321  1.00  0.00    -0.356 N 
ATOM      4  C   UNL A   1      32.942  28.952  24.351  1.00  0.00     0.223 C 
ATOM      5  O   UNL A   1      33.217  29.267  23.191  1.00  0.00    -0.275 OA
ATOM      6  H   UNL A   1      34.055  30.463  24.991  1.00  0.00     0.163 HD
BRANCH   4   7
ATOM      7  C   UNL A   1      32.038  27.754  24.693  1.00  0.00     0.091 C 
ATOM      8  C   UNL A   1      32.669  26.355  24.503  1.00  0.00     0.091 C 
ATOM      9  C   UNL A   1      33.154  26.205  23.053  1.00  0.00     0.014 C 
ATOM     10  C   UNL A   1      31.954  26.249  22.103  1.00  0.00     0.001 C 
ATOM     11  C   UNL A   1      30.768  27.785  23.804  1.00  0.00     0.014 C 
ATOM     12  C   UNL A   1      31.027  27.445  22.328  1.00  0.00     0.001 C 
BRANCH   8  13
ATOM     13  C   UNL A   1      33.684  25.875  25.538  1.00  0.00     0.228 C 
ATOM     14  N   UNL A   1      33.938  24.545  25.777  1.00  0.00    -0.326 N 
ATOM     15  H   UNL A   1      34.708  24.379  26.367  1.00  0.00     0.169 HD
ATOM     16  O   UNL A   1      34.323  26.682  26.223  1.00  0.00    -0.274 OA
BRANCH  14  17
ATOM     17  C   UNL A   1      33.292  23.376  25.326  1.00  0.00     0.044 A 
ATOM     18  C   UNL A   1      35.176  22.939  23.621  1.00  0.00     0.047 C 
ATOM     19  C   UNL A   1      33.951  22.542  24.401  1.00  0.00    -0.024 A 
ATOM     20  C   UNL A   1      33.453  21.242  24.189  1.00  0.00     0.052 A 
ATOM     21  C   UNL A   1      32.313  20.778  24.848  1.00  0.00     0.126 A 
ATOM     22  C   UNL A   1      32.058  22.966  25.835  1.00  0.00     0.030 A 
ATOM     23  C   UNL A   1      31.579  21.672  25.616  1.00  0.00     0.049 A 
BRANCH  21  24
ATOM     24  O   UNL A   1      32.015  19.462  24.649  1.00  0.00    -0.435 OA
BRANCH  24  25
ATOM     25  C   UNL A   1      33.081  18.526  24.771  1.00  0.00     0.542 C 
ATOM     26  F   UNL A   1      32.767  17.563  25.673  1.00  0.00    -0.167 F 
ATOM     27  F   UNL A   1      33.298  17.930  23.574  1.00  0.00    -0.167 F 
ENDBRANCH  24  25
ENDBRANCH  21  24
ENDBRANCH  14  17
ENDBRANCH   8  13
ENDBRANCH   4   7
ENDBRANCH   2   3
ENDBRANCH   1   2
BRANCH   1  28
ATOM     28  C   UNL A   1      35.344  30.924  27.727  1.00  0.00     0.002 C 
BRANCH  28  29
ATOM     29  C   UNL A   1      34.462  32.146  28.040  1.00  0.00     0.002 C 
BRANCH  29  30
ATOM     30  C   UNL A   1      34.487  32.637  29.488  1.00  0.00     0.021 C 
BRANCH  30  31
ATOM     31  C   UNL A   1      34.406  34.151  29.635  1.00  0.00     0.116 C 
BRANCH  31  32
ATOM     32  N   UNL A   1      33.496  34.589  30.690  1.00  0.00    -0.352 N 
ATOM     33  C   UNL A   1      33.661  34.553  32.064  1.00  0.00     0.251 C 
ATOM     34  H   UNL A   1      32.641  34.966  30.378  1.00  0.00     0.163 HD
ATOM     35  O   UNL A   1      32.782  34.954  32.810  1.00  0.00    -0.269 OA
BRANCH  33  36
ATOM     36  C   UNL A   1      34.976  34.147  32.613  1.00  0.00     0.039 A 
ATOM     37  C   UNL A   1      36.070  34.992  32.389  1.00  0.00     0.014 A 
ATOM     38  C   UNL A   1      35.163  32.868  33.123  1.00  0.00     0.014 A 
ATOM     39  C   UNL A   1      37.356  34.458  32.425  1.00  0.00     0.010 A 
ATOM     40  C   UNL A   1      36.422  32.310  33.053  1.00  0.00     0.010 A 
ATOM     41  C   UNL A   1      37.507  33.088  32.629  1.00  0.00    -0.014 A 
BRANCH  41  42
ATOM     42  C   UNL A   1      38.734  32.356  32.338  1.00  0.00     0.031 A 
ATOM     43  C   UNL A   1      38.676  31.066  31.627  1.00  0.00     0.074 A 
ATOM     44  C   UNL A   1      39.929  32.923  32.619  1.00  0.00     0.049 A 
ATOM     45  N   UNL A   1      39.659  30.238  31.532  1.00  0.00    -0.248 NA
ATOM     46  C   UNL A   1      37.452  30.571  31.012  1.00  0.00     0.031 C 
ATOM     47  C   UNL A   1      41.243  32.506  32.138  1.00  0.00     0.029 A 
ATOM     48  N   UNL A   1      40.210  33.886  33.604  1.00  0.00    -0.354 N 
ATOM     49  C   UNL A   1      39.304  29.245  30.649  1.00  0.00     0.074 A 
ATOM     50  C   UNL A   1      37.893  29.450  30.432  1.00  0.00     0.031 C 
ATOM     51  C   UNL A   1      42.173  32.929  33.007  1.00  0.00     0.029 A 
ATOM     52  C   UNL A   1      41.469  33.505  34.138  1.00  0.00     0.049 A 
ATOM     53  H   UNL A   1      39.656  34.657  33.866  1.00  0.00     0.167 HD
ATOM     54  C   UNL A   1      40.289  28.446  30.141  1.00  0.00     0.037 A 
ATOM     55  C   UNL A   1      41.578  33.084  35.432  1.00  0.00     0.037 A 
ATOM     56  C   UNL A   1      41.542  28.630  30.885  1.00  0.00     0.049 A 
ATOM     57  C   UNL A   1      42.065  31.658  35.597  1.00  0.00     0.074 A 
ATOM     58  C   UNL A   1      42.742  29.285  30.658  1.00  0.00     0.029 A 
ATOM     59  N   UNL A   1      41.550  28.287  32.227  1.00  0.00    -0.354 N 
ATOM     60  N   UNL A   1      42.292  30.839  34.607  1.00  0.00    -0.248 NA
ATOM     61  C   UNL A   1      42.242  31.013  36.899  1.00  0.00     0.031 C 
ATOM     62  C   UNL A   1      43.455  29.349  31.895  1.00  0.00     0.029 A 
ATOM     63  C   UNL A   1      42.690  28.729  32.865  1.00  0.00     0.049 A 
ATOM     64  H   UNL A   1      40.827  27.788  32.671  1.00  0.00     0.167 HD
ATOM     65  C   UNL A   1      42.590  29.598  35.101  1.00  0.00     0.074 A 
ATOM     66  C   UNL A   1      42.549  29.755  36.543  1.00  0.00     0.031 C 
ATOM     67  C   UNL A   1      42.810  28.520  34.298  1.00  0.00     0.037 A 
BRANCH  54  68
ATOM     68  C   UNL A   1      40.199  27.623  28.864  1.00  0.00     0.064 A 
ATOM     69  C   UNL A   1      39.503  26.392  28.860  1.00  0.00     0.173 A 
ATOM     70  C   UNL A   1      40.829  27.924  27.640  1.00  0.00     0.173 A 
ATOM     71  F   UNL A   1      38.787  25.987  29.917  1.00  0.00    -0.203 F 
ATOM     72  C   UNL A   1      39.518  25.513  27.769  1.00  0.00     0.198 A 
ATOM     73  C   UNL A   1      40.863  27.039  26.557  1.00  0.00     0.198 A 
ATOM     74  F   UNL A   1      41.410  29.099  27.402  1.00  0.00    -0.203 F 
ATOM     75  F   UNL A   1      38.856  24.350  27.843  1.00  0.00    -0.200 F 
ATOM     76  C   UNL A   1      40.218  25.827  26.625  1.00  0.00     0.200 A 
ATOM     77  F   UNL A   1      41.532  27.381  25.446  1.00  0.00    -0.200 F 
ATOM     78  F   UNL A   1      40.258  24.978  25.589  1.00  0.00    -0.200 F 
ENDBRANCH  54  68
BRANCH  55  79
ATOM     79  C   UNL A   1      40.628  33.783  36.335  1.00  0.00     0.064 A 
ATOM     80  C   UNL A   1      39.414  33.136  36.648  1.00  0.00     0.173 A 
ATOM     81  C   UNL A   1      41.043  34.821  37.176  1.00  0.00     0.173 A 
ATOM     82  F   UNL A   1      38.969  32.136  35.870  1.00  0.00    -0.203 F 
ATOM     83  C   UNL A   1      38.725  33.419  37.824  1.00  0.00     0.198 A 
ATOM     84  C   UNL A   1      40.335  35.117  38.342  1.00  0.00     0.198 A 
ATOM     85  F   UNL A   1      42.196  35.464  36.943  1.00  0.00    -0.203 F 
ATOM     86  F   UNL A   1      37.649  32.695  38.159  1.00  0.00    -0.200 F 
ATOM     87  C   UNL A   1      39.205  34.390  38.686  1.00  0.00     0.200 A 
ATOM     88  F   UNL A   1      40.811  36.042  39.188  1.00  0.00    -0.200 F 
ATOM     89  F   UNL A   1      38.605  34.595  39.866  1.00  0.00    -0.200 F 
ENDBRANCH  55  79
BRANCH  67  90
ATOM     90  C   UNL A   1      43.155  27.158  34.822  1.00  0.00     0.064 A 
ATOM     91  C   UNL A   1      44.480  26.767  35.068  1.00  0.00     0.173 A 
ATOM     92  C   UNL A   1      42.170  26.160  34.965  1.00  0.00     0.173 A 
ATOM     93  F   UNL A   1      45.489  27.639  34.920  1.00  0.00    -0.203 F 
ATOM     94  C   UNL A   1      44.796  25.463  35.455  1.00  0.00     0.198 A 
ATOM     95  C   UNL A   1      42.493  24.847  35.303  1.00  0.00     0.198 A 
ATOM     96  F   UNL A   1      40.868  26.438  34.806  1.00  0.00    -0.203 F 
ATOM     97  F   UNL A   1      46.068  25.138  35.724  1.00  0.00    -0.200 F 
ATOM     98  C   UNL A   1      43.805  24.501  35.557  1.00  0.00     0.200 A 
ATOM     99  F   UNL A   1      41.524  23.925  35.383  1.00  0.00    -0.200 F 
ATOM    100  F   UNL A   1      44.114  23.244  35.902  1.00  0.00    -0.200 F 
ENDBRANCH  67  90
ENDBRANCH  41  42
ENDBRANCH  33  36
ENDBRANCH  31  32
ENDBRANCH  30  31
ENDBRANCH  29  30
ENDBRANCH  28  29
ENDBRANCH   1  28
TORSDOF 17
ENDMDL
