MODEL 1
REMARK VINA RESULT:     -13.5      0.000      0.000
REMARK SMILES Cc1noc(C)c1CCC(=O)N1CCC2(CC1)NC(=O)C[C@@H]2C(=O)NCCCCCCNC(=O)c1ccc(-c2c3nc(c(-c4c(F)c(F)c(F)c(F)c4F)c4ccc([nH]4)c(-c4c(F)c(F)c(F)c(F)c4F)c4nc(c(-c5c(F)c(F)c(F)c(F)c5F)c5ccc2[nH]5)C=C4)C=C3)cc1
REMARK SMILES IDX 28 1 27 2 26 3 25 4 23 5 24 6 22 8 10 9 11 10 12 11 13 12
REMARK SMILES IDX 17 13 14 14 16 15 15 16 18 17 19 18 21 20 20 21 9 22 8 23
REMARK SMILES IDX 7 24 1 25 2 26 3 27 4 28 5 29 6 30 29 31 30 32 31 33 32 34
REMARK SMILES IDX 33 35 34 37 35 38 36 39 97 40 37 41 96 42 38 43 39 44 40 45
REMARK SMILES IDX 90 46 41 47 95 48 89 49 91 50 42 51 94 52 88 53 87 54 43 56
REMARK SMILES IDX 75 57 55 58 74 59 56 60 59 61 73 62 92 63 57 64 58 65 72 67
REMARK SMILES IDX 93 68 60 69 44 70 45 71 53 72 46 73 47 74 51 75 54 76 48 77
REMARK SMILES IDX 49 78 52 79 50 80 76 81 77 82 85 83 78 84 79 85 83 86 86 87
REMARK SMILES IDX 80 88 81 89 84 90 82 91 61 92 62 93 70 94 63 95 64 96 68 97
REMARK SMILES IDX 71 98 65 99 66 100 69 101 67 102
REMARK H PARENT 25 7 18 19 32 36 91 55 59 66
REMARK Flexibility Score: inf
ROOT
ATOM      1  C   UNL A   1      33.099  29.775  26.375  1.00  0.00     0.002 C 
ENDROOT
BRANCH   1   2
ATOM      2  C   UNL A   1      33.145  28.416  27.080  1.00  0.00     0.021 C 
BRANCH   2   3
ATOM      3  C   UNL A   1      31.806  28.014  27.661  1.00  0.00     0.116 C 
BRANCH   3   4
ATOM      4  N   UNL A   1      30.925  27.251  26.809  1.00  0.00    -0.356 N 
ATOM      5  C   UNL A   1      31.390  26.068  26.297  1.00  0.00     0.226 C 
ATOM      6  O   UNL A   1      31.142  25.042  26.941  1.00  0.00    -0.275 OA
ATOM      7  H   UNL A   1      30.017  27.570  26.602  1.00  0.00     0.163 HD
BRANCH   5   8
ATOM      8  C   UNL A   1      31.931  25.945  24.868  1.00  0.00     0.113 C 
ATOM      9  C   UNL A   1      34.470  21.784  25.858  1.00  0.00     0.222 C 
ATOM     10  O   UNL A   1      34.557  21.711  27.088  1.00  0.00    -0.275 OA
ATOM     11  N   UNL A   1      34.364  23.016  25.193  1.00  0.00    -0.343 N 
ATOM     12  C   UNL A   1      34.489  24.158  26.056  1.00  0.00     0.122 C 
ATOM     13  C   UNL A   1      33.483  23.181  24.051  1.00  0.00     0.122 C 
ATOM     14  C   UNL A   1      34.547  25.512  25.355  1.00  0.00     0.051 C 
ATOM     15  C   UNL A   1      33.494  24.545  23.378  1.00  0.00     0.051 C 
ATOM     16  C   UNL A   1      33.399  25.731  24.373  1.00  0.00     0.055 C 
ATOM     17  N   UNL A   1      33.668  26.927  23.591  1.00  0.00    -0.350 N 
ATOM     18  C   UNL A   1      32.568  27.688  23.308  1.00  0.00     0.221 C 
ATOM     19  H   UNL A   1      34.573  27.170  23.289  1.00  0.00     0.164 HD
ATOM     20  C   UNL A   1      31.420  27.208  24.133  1.00  0.00     0.116 C 
ATOM     21  O   UNL A   1      32.550  28.607  22.512  1.00  0.00    -0.275 OA
BRANCH   9  22
ATOM     22  C   UNL A   1      34.549  20.519  25.033  1.00  0.00     0.105 C 
BRANCH  22  23
ATOM     23  C   UNL A   1      33.361  19.575  25.199  1.00  0.00     0.051 C 
BRANCH  23  24
ATOM     24  C   UNL A   1      33.099  18.684  24.031  1.00  0.00     0.018 A 
ATOM     25  C   UNL A   1      31.940  20.321  22.330  1.00  0.00     0.071 C 
ATOM     26  C   UNL A   1      32.459  19.012  22.797  1.00  0.00     0.084 A 
ATOM     27  N   UNL A   1      32.460  17.970  21.958  1.00  0.00    -0.085 NA
ATOM     28  O   UNL A   1      33.103  16.948  22.619  1.00  0.00    -0.361 OA
ATOM     29  C   UNL A   1      33.498  17.373  23.847  1.00  0.00     0.137 A 
ATOM     30  C   UNL A   1      34.320  16.416  24.617  1.00  0.00     0.091 C 
ENDBRANCH  23  24
ENDBRANCH  22  23
ENDBRANCH   9  22
ENDBRANCH   5   8
ENDBRANCH   3   4
ENDBRANCH   2   3
ENDBRANCH   1   2
BRANCH   1  31
ATOM     31  C   UNL A   1      31.724  30.422  26.132  1.00  0.00     0.002 C 
BRANCH  31  32
ATOM     32  C   UNL A   1      31.511  31.856  26.619  1.00  0.00     0.021 C 
BRANCH  32  33
ATOM     33  C   UNL A   1      32.718  32.544  27.250  1.00  0.00     0.116 C 
BRANCH  33  34
ATOM     34  N   UNL A   1      32.455  33.924  27.624  1.00  0.00    -0.352 N 
ATOM     35  C   UNL A   1      33.064  34.739  28.543  1.00  0.00     0.251 C 
ATOM     36  H   UNL A   1      31.714  34.347  27.133  1.00  0.00     0.163 HD
ATOM     37  O   UNL A   1      32.595  35.848  28.781  1.00  0.00    -0.269 OA
BRANCH  35  38
ATOM     38  C   UNL A   1      34.265  34.284  29.274  1.00  0.00     0.039 A 
ATOM     39  C   UNL A   1      34.089  33.588  30.474  1.00  0.00     0.014 A 
ATOM     40  C   UNL A   1      35.550  34.557  28.801  1.00  0.00     0.014 A 
ATOM     41  C   UNL A   1      35.201  33.095  31.160  1.00  0.00     0.010 A 
ATOM     42  C   UNL A   1      36.655  34.013  29.453  1.00  0.00     0.010 A 
ATOM     43  C   UNL A   1      36.489  33.266  30.630  1.00  0.00    -0.014 A 
BRANCH  43  44
ATOM     44  C   UNL A   1      37.674  32.638  31.267  1.00  0.00     0.031 A 
ATOM     45  C   UNL A   1      38.370  31.488  30.600  1.00  0.00     0.074 A 
ATOM     46  C   UNL A   1      38.061  33.051  32.488  1.00  0.00     0.049 A 
ATOM     47  N   UNL A   1      39.338  30.731  31.054  1.00  0.00    -0.248 NA
ATOM     48  C   UNL A   1      37.903  31.124  29.254  1.00  0.00     0.031 C 
ATOM     49  C   UNL A   1      37.440  34.136  33.249  1.00  0.00     0.029 A 
ATOM     50  N   UNL A   1      39.056  32.592  33.317  1.00  0.00    -0.354 N 
ATOM     51  C   UNL A   1      39.582  29.794  30.059  1.00  0.00     0.074 A 
ATOM     52  C   UNL A   1      38.635  30.050  28.994  1.00  0.00     0.031 C 
ATOM     53  C   UNL A   1      38.069  34.264  34.428  1.00  0.00     0.029 A 
ATOM     54  C   UNL A   1      39.106  33.241  34.527  1.00  0.00     0.049 A 
ATOM     55  H   UNL A   1      39.675  31.868  33.068  1.00  0.00     0.167 HD
ATOM     56  C   UNL A   1      40.523  28.819  30.032  1.00  0.00     0.037 A 
ATOM     57  C   UNL A   1      39.882  33.020  35.605  1.00  0.00     0.037 A 
ATOM     58  C   UNL A   1      41.474  28.585  31.087  1.00  0.00     0.049 A 
ATOM     59  C   UNL A   1      40.898  31.911  35.561  1.00  0.00     0.074 A 
ATOM     60  C   UNL A   1      42.511  27.669  31.125  1.00  0.00     0.029 A 
ATOM     61  N   UNL A   1      41.498  29.267  32.296  1.00  0.00    -0.354 N 
ATOM     62  N   UNL A   1      41.165  31.073  34.588  1.00  0.00    -0.248 NA
ATOM     63  C   UNL A   1      41.716  31.712  36.765  1.00  0.00     0.031 C 
ATOM     64  C   UNL A   1      43.127  27.759  32.378  1.00  0.00     0.029 A 
ATOM     65  C   UNL A   1      42.510  28.767  33.100  1.00  0.00     0.049 A 
ATOM     66  H   UNL A   1      40.887  29.998  32.544  1.00  0.00     0.167 HD
ATOM     67  C   UNL A   1      42.193  30.265  35.052  1.00  0.00     0.074 A 
ATOM     68  C   UNL A   1      42.514  30.723  36.388  1.00  0.00     0.031 C 
ATOM     69  C   UNL A   1      42.814  29.234  34.429  1.00  0.00     0.037 A 
BRANCH  56  70
ATOM     70  C   UNL A   1      40.569  27.927  28.826  1.00  0.00     0.064 A 
ATOM     71  C   UNL A   1      39.822  26.740  28.757  1.00  0.00     0.173 A 
ATOM     72  C   UNL A   1      41.334  28.285  27.706  1.00  0.00     0.173 A 
ATOM     73  F   UNL A   1      39.082  26.347  29.805  1.00  0.00    -0.203 F 
ATOM     74  C   UNL A   1      39.862  25.933  27.623  1.00  0.00     0.198 A 
ATOM     75  C   UNL A   1      41.347  27.491  26.562  1.00  0.00     0.198 A 
ATOM     76  F   UNL A   1      42.061  29.412  27.715  1.00  0.00    -0.203 F 
ATOM     77  F   UNL A   1      39.177  24.781  27.598  1.00  0.00    -0.200 F 
ATOM     78  C   UNL A   1      40.618  26.312  26.524  1.00  0.00     0.200 A 
ATOM     79  F   UNL A   1      42.066  27.867  25.495  1.00  0.00    -0.200 F 
ATOM     80  F   UNL A   1      40.647  25.539  25.430  1.00  0.00    -0.200 F 
ENDBRANCH  56  70
BRANCH  57  81
ATOM     81  C   UNL A   1      39.726  33.865  36.818  1.00  0.00     0.064 A 
ATOM     82  C   UNL A   1      38.901  33.460  37.876  1.00  0.00     0.173 A 
ATOM     83  C   UNL A   1      40.393  35.094  36.943  1.00  0.00     0.173 A 
ATOM     84  F   UNL A   1      38.226  32.305  37.793  1.00  0.00    -0.203 F 
ATOM     85  C   UNL A   1      38.736  34.259  39.006  1.00  0.00     0.198 A 
ATOM     86  C   UNL A   1      40.249  35.877  38.086  1.00  0.00     0.198 A 
ATOM     87  F   UNL A   1      41.196  35.527  35.960  1.00  0.00    -0.203 F 
ATOM     88  F   UNL A   1      37.905  33.869  39.983  1.00  0.00    -0.200 F 
ATOM     89  C   UNL A   1      39.415  35.464  39.113  1.00  0.00     0.200 A 
ATOM     90  F   UNL A   1      40.919  37.033  38.191  1.00  0.00    -0.200 F 
ATOM     91  F   UNL A   1      39.259  36.229  40.202  1.00  0.00    -0.200 F 
ENDBRANCH  57  81
BRANCH  69  92
ATOM     92  C   UNL A   1      43.916  28.540  35.175  1.00  0.00     0.064 A 
ATOM     93  C   UNL A   1      43.651  27.474  36.048  1.00  0.00     0.173 A 
ATOM     94  C   UNL A   1      45.254  28.907  34.973  1.00  0.00     0.173 A 
ATOM     95  F   UNL A   1      42.386  27.097  36.288  1.00  0.00    -0.203 F 
ATOM     96  C   UNL A   1      44.686  26.812  36.703  1.00  0.00     0.198 A 
ATOM     97  C   UNL A   1      46.288  28.225  35.607  1.00  0.00     0.198 A 
ATOM     98  F   UNL A   1      45.561  29.917  34.144  1.00  0.00    -0.203 F 
ATOM     99  F   UNL A   1      44.407  25.823  37.564  1.00  0.00    -0.200 F 
ATOM    100  C   UNL A   1      46.003  27.181  36.475  1.00  0.00     0.200 A 
ATOM    101  F   UNL A   1      47.561  28.573  35.374  1.00  0.00    -0.200 F 
ATOM    102  F   UNL A   1      46.998  26.534  37.096  1.00  0.00    -0.200 F 
ENDBRANCH  69  92
ENDBRANCH  43  44
ENDBRANCH  35  38
ENDBRANCH  33  34
ENDBRANCH  32  33
ENDBRANCH  31  32
ENDBRANCH   1  31
TORSDOF 16
ENDMDL
MODEL 2
REMARK VINA RESULT:     -13.4      0.922      1.956
REMARK SMILES Cc1noc(C)c1CCC(=O)N1CCC2(CC1)NC(=O)C[C@@H]2C(=O)NCCCCCCNC(=O)c1ccc(-c2c3nc(c(-c4c(F)c(F)c(F)c(F)c4F)c4ccc([nH]4)c(-c4c(F)c(F)c(F)c(F)c4F)c4nc(c(-c5c(F)c(F)c(F)c(F)c5F)c5ccc2[nH]5)C=C4)C=C3)cc1
REMARK SMILES IDX 28 1 27 2 26 3 25 4 23 5 24 6 22 8 10 9 11 10 12 11 13 12
REMARK SMILES IDX 17 13 14 14 16 15 15 16 18 17 19 18 21 20 20 21 9 22 8 23
REMARK SMILES IDX 7 24 1 25 2 26 3 27 4 28 5 29 6 30 29 31 30 32 31 33 32 34
REMARK SMILES IDX 33 35 34 37 35 38 36 39 97 40 37 41 96 42 38 43 39 44 40 45
REMARK SMILES IDX 90 46 41 47 95 48 89 49 91 50 42 51 94 52 88 53 87 54 43 56
REMARK SMILES IDX 75 57 55 58 74 59 56 60 59 61 73 62 92 63 57 64 58 65 72 67
REMARK SMILES IDX 93 68 60 69 44 70 45 71 53 72 46 73 47 74 51 75 54 76 48 77
REMARK SMILES IDX 49 78 52 79 50 80 76 81 77 82 85 83 78 84 79 85 83 86 86 87
REMARK SMILES IDX 80 88 81 89 84 90 82 91 61 92 62 93 70 94 63 95 64 96 68 97
REMARK SMILES IDX 71 98 65 99 66 100 69 101 67 102
REMARK H PARENT 25 7 18 19 32 36 91 55 59 66
REMARK Flexibility Score: inf
ROOT
ATOM      1  C   UNL A   1      32.352  29.892  25.684  1.00  0.00     0.002 C 
ENDROOT
BRANCH   1   2
ATOM      2  C   UNL A   1      33.054  28.683  26.309  1.00  0.00     0.021 C 
BRANCH   2   3
ATOM      3  C   UNL A   1      32.179  27.951  27.305  1.00  0.00     0.116 C 
BRANCH   3   4
ATOM      4  N   UNL A   1      31.046  27.230  26.776  1.00  0.00    -0.356 N 
ATOM      5  C   UNL A   1      31.273  26.008  26.200  1.00  0.00     0.226 C 
ATOM      6  O   UNL A   1      31.165  25.016  26.929  1.00  0.00    -0.275 OA
ATOM      7  H   UNL A   1      30.137  27.604  26.827  1.00  0.00     0.163 HD
BRANCH   5   8
ATOM      8  C   UNL A   1      31.367  25.817  24.682  1.00  0.00     0.113 C 
ATOM      9  C   UNL A   1      35.463  23.008  24.978  1.00  0.00     0.222 C 
ATOM     10  O   UNL A   1      35.933  23.194  26.105  1.00  0.00    -0.275 OA
ATOM     11  N   UNL A   1      34.704  23.990  24.320  1.00  0.00    -0.343 N 
ATOM     12  C   UNL A   1      34.640  25.244  25.019  1.00  0.00     0.122 C 
ATOM     13  C   UNL A   1      33.529  23.638  23.543  1.00  0.00     0.122 C 
ATOM     14  C   UNL A   1      33.969  26.387  24.262  1.00  0.00     0.051 C 
ATOM     15  C   UNL A   1      32.822  24.780  22.829  1.00  0.00     0.051 C 
ATOM     16  C   UNL A   1      32.587  26.024  23.724  1.00  0.00     0.055 C 
ATOM     17  N   UNL A   1      32.137  27.077  22.829  1.00  0.00    -0.350 N 
ATOM     18  C   UNL A   1      30.801  27.358  22.898  1.00  0.00     0.221 C 
ATOM     19  H   UNL A   1      32.748  27.552  22.221  1.00  0.00     0.164 HD
ATOM     20  C   UNL A   1      30.223  26.677  24.095  1.00  0.00     0.116 C 
ATOM     21  O   UNL A   1      30.200  28.056  22.105  1.00  0.00    -0.275 OA
BRANCH   9  22
ATOM     22  C   UNL A   1      35.764  21.716  24.252  1.00  0.00     0.105 C 
BRANCH  22  23
ATOM     23  C   UNL A   1      35.506  20.452  25.068  1.00  0.00     0.051 C 
BRANCH  23  24
ATOM     24  C   UNL A   1      34.113  19.923  24.981  1.00  0.00     0.018 A 
ATOM     25  C   UNL A   1      34.482  17.553  23.902  1.00  0.00     0.071 C 
ATOM     26  C   UNL A   1      33.676  18.671  24.452  1.00  0.00     0.084 A 
ATOM     27  N   UNL A   1      32.356  18.515  24.602  1.00  0.00    -0.085 NA
ATOM     28  O   UNL A   1      31.906  19.651  25.237  1.00  0.00    -0.361 OA
ATOM     29  C   UNL A   1      32.951  20.485  25.477  1.00  0.00     0.137 A 
ATOM     30  C   UNL A   1      32.633  21.689  26.275  1.00  0.00     0.091 C 
ENDBRANCH  23  24
ENDBRANCH  22  23
ENDBRANCH   9  22
ENDBRANCH   5   8
ENDBRANCH   3   4
ENDBRANCH   2   3
ENDBRANCH   1   2
BRANCH   1  31
ATOM     31  C   UNL A   1      31.381  30.703  26.560  1.00  0.00     0.002 C 
BRANCH  31  32
ATOM     32  C   UNL A   1      31.495  32.228  26.534  1.00  0.00     0.021 C 
BRANCH  32  33
ATOM     33  C   UNL A   1      32.643  32.835  27.334  1.00  0.00     0.116 C 
BRANCH  33  34
ATOM     34  N   UNL A   1      32.408  34.221  27.705  1.00  0.00    -0.352 N 
ATOM     35  C   UNL A   1      33.032  35.026  28.623  1.00  0.00     0.251 C 
ATOM     36  H   UNL A   1      31.676  34.657  27.212  1.00  0.00     0.163 HD
ATOM     37  O   UNL A   1      32.585  36.145  28.857  1.00  0.00    -0.269 OA
BRANCH  35  38
ATOM     38  C   UNL A   1      34.223  34.550  29.355  1.00  0.00     0.039 A 
ATOM     39  C   UNL A   1      34.046  34.005  30.631  1.00  0.00     0.014 A 
ATOM     40  C   UNL A   1      35.504  34.656  28.808  1.00  0.00     0.014 A 
ATOM     41  C   UNL A   1      35.143  33.493  31.326  1.00  0.00     0.010 A 
ATOM     42  C   UNL A   1      36.588  34.090  29.476  1.00  0.00     0.010 A 
ATOM     43  C   UNL A   1      36.415  33.492  30.735  1.00  0.00    -0.014 A 
BRANCH  43  44
ATOM     44  C   UNL A   1      37.572  32.835  31.393  1.00  0.00     0.031 A 
ATOM     45  C   UNL A   1      38.232  31.648  30.755  1.00  0.00     0.074 A 
ATOM     46  C   UNL A   1      37.963  33.258  32.610  1.00  0.00     0.049 A 
ATOM     47  N   UNL A   1      39.168  30.866  31.232  1.00  0.00    -0.248 NA
ATOM     48  C   UNL A   1      37.763  31.276  29.412  1.00  0.00     0.031 C 
ATOM     49  C   UNL A   1      37.375  34.378  33.344  1.00  0.00     0.029 A 
ATOM     50  N   UNL A   1      38.934  32.780  33.456  1.00  0.00    -0.354 N 
ATOM     51  C   UNL A   1      39.386  29.902  30.257  1.00  0.00     0.074 A 
ATOM     52  C   UNL A   1      38.458  30.171  29.179  1.00  0.00     0.031 C 
ATOM     53  C   UNL A   1      37.999  34.507  34.526  1.00  0.00     0.029 A 
ATOM     54  C   UNL A   1      38.997  33.450  34.654  1.00  0.00     0.049 A 
ATOM     55  H   UNL A   1      39.529  32.029  33.226  1.00  0.00     0.167 HD
ATOM     56  C   UNL A   1      40.292  28.894  30.257  1.00  0.00     0.037 A 
ATOM     57  C   UNL A   1      39.756  33.223  35.743  1.00  0.00     0.037 A 
ATOM     58  C   UNL A   1      41.226  28.648  31.325  1.00  0.00     0.049 A 
ATOM     59  C   UNL A   1      40.732  32.077  35.729  1.00  0.00     0.074 A 
ATOM     60  C   UNL A   1      42.230  27.696  31.389  1.00  0.00     0.029 A 
ATOM     61  N   UNL A   1      41.264  29.351  32.520  1.00  0.00    -0.354 N 
ATOM     62  N   UNL A   1      40.977  31.212  34.774  1.00  0.00    -0.248 NA
ATOM     63  C   UNL A   1      41.533  31.873  36.943  1.00  0.00     0.031 C 
ATOM     64  C   UNL A   1      42.838  27.788  32.645  1.00  0.00     0.029 A 
ATOM     65  C   UNL A   1      42.251  28.832  33.343  1.00  0.00     0.049 A 
ATOM     66  H   UNL A   1      40.678  30.108  32.749  1.00  0.00     0.167 HD
ATOM     67  C   UNL A   1      41.972  30.377  35.263  1.00  0.00     0.074 A 
ATOM     68  C   UNL A   1      42.299  30.850  36.593  1.00  0.00     0.031 C 
ATOM     69  C   UNL A   1      42.561  29.313  34.665  1.00  0.00     0.037 A 
BRANCH  56  70
ATOM     70  C   UNL A   1      40.317  27.978  29.069  1.00  0.00     0.064 A 
ATOM     71  C   UNL A   1      39.570  26.789  29.038  1.00  0.00     0.173 A 
ATOM     72  C   UNL A   1      41.061  28.313  27.928  1.00  0.00     0.173 A 
ATOM     73  F   UNL A   1      38.849  26.418  30.108  1.00  0.00    -0.203 F 
ATOM     74  C   UNL A   1      39.589  25.959  27.920  1.00  0.00     0.198 A 
ATOM     75  C   UNL A   1      41.052  27.496  26.800  1.00  0.00     0.198 A 
ATOM     76  F   UNL A   1      41.786  29.440  27.900  1.00  0.00    -0.203 F 
ATOM     77  F   UNL A   1      38.904  24.808  27.932  1.00  0.00    -0.200 F 
ATOM     78  C   UNL A   1      40.323  26.316  26.799  1.00  0.00     0.200 A 
ATOM     79  F   UNL A   1      41.751  27.851  25.712  1.00  0.00    -0.200 F 
ATOM     80  F   UNL A   1      40.332  25.522  25.721  1.00  0.00    -0.200 F 
ENDBRANCH  56  70
BRANCH  57  81
ATOM     81  C   UNL A   1      39.620  34.097  36.938  1.00  0.00     0.064 A 
ATOM     82  C   UNL A   1      40.290  35.325  37.011  1.00  0.00     0.173 A 
ATOM     83  C   UNL A   1      38.822  33.722  38.030  1.00  0.00     0.173 A 
ATOM     84  F   UNL A   1      41.082  35.716  36.002  1.00  0.00    -0.203 F 
ATOM     85  C   UNL A   1      40.182  36.138  38.138  1.00  0.00     0.198 A 
ATOM     86  C   UNL A   1      38.691  34.549  39.143  1.00  0.00     0.198 A 
ATOM     87  F   UNL A   1      38.158  32.556  38.009  1.00  0.00    -0.203 F 
ATOM     88  F   UNL A   1      40.870  37.286  38.202  1.00  0.00    -0.200 F 
ATOM     89  C   UNL A   1      39.377  35.752  39.200  1.00  0.00     0.200 A 
ATOM     90  F   UNL A   1      37.901  34.178  40.160  1.00  0.00    -0.200 F 
ATOM     91  F   UNL A   1      39.270  36.536  40.281  1.00  0.00    -0.200 F 
ENDBRANCH  57  81
BRANCH  69  92
ATOM     92  C   UNL A   1      43.631  28.594  35.435  1.00  0.00     0.064 A 
ATOM     93  C   UNL A   1      44.986  28.930  35.293  1.00  0.00     0.173 A 
ATOM     94  C   UNL A   1      43.293  27.599  36.363  1.00  0.00     0.173 A 
ATOM     95  F   UNL A   1      45.360  29.864  34.405  1.00  0.00    -0.203 F 
ATOM     96  C   UNL A   1      45.965  28.283  36.043  1.00  0.00     0.198 A 
ATOM     97  C   UNL A   1      44.271  26.976  37.133  1.00  0.00     0.198 A 
ATOM     98  F   UNL A   1      42.012  27.245  36.540  1.00  0.00    -0.203 F 
ATOM     99  F   UNL A   1      47.256  28.592  35.862  1.00  0.00    -0.200 F 
ATOM    100  C   UNL A   1      45.606  27.315  36.968  1.00  0.00     0.200 A 
ATOM    101  F   UNL A   1      43.923  26.050  38.037  1.00  0.00    -0.200 F 
ATOM    102  F   UNL A   1      46.549  26.704  37.698  1.00  0.00    -0.200 F 
ENDBRANCH  69  92
ENDBRANCH  43  44
ENDBRANCH  35  38
ENDBRANCH  33  34
ENDBRANCH  32  33
ENDBRANCH  31  32
ENDBRANCH   1  31
TORSDOF 16
ENDMDL
MODEL 3
REMARK VINA RESULT:     -13.1      1.046      2.025
REMARK SMILES Cc1noc(C)c1CCC(=O)N1CCC2(CC1)NC(=O)C[C@@H]2C(=O)NCCCCCCNC(=O)c1ccc(-c2c3nc(c(-c4c(F)c(F)c(F)c(F)c4F)c4ccc([nH]4)c(-c4c(F)c(F)c(F)c(F)c4F)c4nc(c(-c5c(F)c(F)c(F)c(F)c5F)c5ccc2[nH]5)C=C4)C=C3)cc1
REMARK SMILES IDX 28 1 27 2 26 3 25 4 23 5 24 6 22 8 10 9 11 10 12 11 13 12
REMARK SMILES IDX 17 13 14 14 16 15 15 16 18 17 19 18 21 20 20 21 9 22 8 23
REMARK SMILES IDX 7 24 1 25 2 26 3 27 4 28 5 29 6 30 29 31 30 32 31 33 32 34
REMARK SMILES IDX 33 35 34 37 35 38 36 39 97 40 37 41 96 42 38 43 39 44 40 45
REMARK SMILES IDX 90 46 41 47 95 48 89 49 91 50 42 51 94 52 88 53 87 54 43 56
REMARK SMILES IDX 75 57 55 58 74 59 56 60 59 61 73 62 92 63 57 64 58 65 72 67
REMARK SMILES IDX 93 68 60 69 44 70 45 71 53 72 46 73 47 74 51 75 54 76 48 77
REMARK SMILES IDX 49 78 52 79 50 80 76 81 77 82 85 83 78 84 79 85 83 86 86 87
REMARK SMILES IDX 80 88 81 89 84 90 82 91 61 92 62 93 70 94 63 95 64 96 68 97
REMARK SMILES IDX 71 98 65 99 66 100 69 101 67 102
REMARK H PARENT 25 7 18 19 32 36 91 55 59 66
REMARK Flexibility Score: inf
ROOT
ATOM      1  C   UNL A   1      32.320  29.754  27.060  1.00  0.00     0.002 C 
ENDROOT
BRANCH   1   2
ATOM      2  C   UNL A   1      31.554  28.558  27.634  1.00  0.00     0.021 C 
BRANCH   2   3
ATOM      3  C   UNL A   1      31.867  27.264  26.914  1.00  0.00     0.116 C 
BRANCH   3   4
ATOM      4  N   UNL A   1      30.748  26.426  26.556  1.00  0.00    -0.356 N 
ATOM      5  C   UNL A   1      31.012  25.181  26.049  1.00  0.00     0.226 C 
ATOM      6  O   UNL A   1      31.052  24.244  26.854  1.00  0.00    -0.275 OA
ATOM      7  H   UNL A   1      29.822  26.739  26.672  1.00  0.00     0.163 HD
BRANCH   5   8
ATOM      8  C   UNL A   1      30.974  24.877  24.546  1.00  0.00     0.113 C 
ATOM      9  C   UNL A   1      33.262  20.490  25.061  1.00  0.00     0.222 C 
ATOM     10  O   UNL A   1      33.786  20.498  26.179  1.00  0.00    -0.275 OA
ATOM     11  N   UNL A   1      33.044  21.672  24.335  1.00  0.00    -0.343 N 
ATOM     12  C   UNL A   1      33.594  22.847  24.953  1.00  0.00     0.122 C 
ATOM     13  C   UNL A   1      31.827  21.872  23.569  1.00  0.00     0.122 C 
ATOM     14  C   UNL A   1      33.528  24.124  24.120  1.00  0.00     0.051 C 
ATOM     15  C   UNL A   1      31.729  23.167  22.777  1.00  0.00     0.051 C 
ATOM     16  C   UNL A   1      32.128  24.426  23.591  1.00  0.00     0.055 C 
ATOM     17  N   UNL A   1      32.211  25.511  22.628  1.00  0.00    -0.350 N 
ATOM     18  C   UNL A   1      31.168  26.393  22.665  1.00  0.00     0.221 C 
ATOM     19  H   UNL A   1      32.961  25.603  21.997  1.00  0.00     0.164 HD
ATOM     20  C   UNL A   1      30.361  26.140  23.895  1.00  0.00     0.116 C 
ATOM     21  O   UNL A   1      30.952  27.244  21.823  1.00  0.00    -0.275 OA
BRANCH   9  22
ATOM     22  C   UNL A   1      32.902  19.169  24.420  1.00  0.00     0.105 C 
BRANCH  22  23
ATOM     23  C   UNL A   1      32.577  18.049  25.406  1.00  0.00     0.051 C 
BRANCH  23  24
ATOM     24  C   UNL A   1      33.430  16.832  25.276  1.00  0.00     0.018 A 
ATOM     25  C   UNL A   1      35.808  17.861  24.827  1.00  0.00     0.071 C 
ATOM     26  C   UNL A   1      34.829  16.759  25.001  1.00  0.00     0.084 A 
ATOM     27  N   UNL A   1      35.263  15.494  25.023  1.00  0.00    -0.085 NA
ATOM     28  O   UNL A   1      34.165  14.718  25.318  1.00  0.00    -0.361 OA
ATOM     29  C   UNL A   1      33.075  15.511  25.484  1.00  0.00     0.137 A 
ATOM     30  C   UNL A   1      31.849  14.820  25.937  1.00  0.00     0.091 C 
ENDBRANCH  23  24
ENDBRANCH  22  23
ENDBRANCH   9  22
ENDBRANCH   5   8
ENDBRANCH   3   4
ENDBRANCH   2   3
ENDBRANCH   1   2
BRANCH   1  31
ATOM     31  C   UNL A   1      31.573  30.710  26.115  1.00  0.00     0.002 C 
BRANCH  31  32
ATOM     32  C   UNL A   1      31.404  32.166  26.554  1.00  0.00     0.021 C 
BRANCH  32  33
ATOM     33  C   UNL A   1      32.566  32.778  27.331  1.00  0.00     0.116 C 
BRANCH  33  34
ATOM     34  N   UNL A   1      32.333  34.163  27.706  1.00  0.00    -0.352 N 
ATOM     35  C   UNL A   1      32.969  34.969  28.614  1.00  0.00     0.251 C 
ATOM     36  H   UNL A   1      31.593  34.598  27.223  1.00  0.00     0.163 HD
ATOM     37  O   UNL A   1      32.523  36.087  28.855  1.00  0.00    -0.269 OA
BRANCH  35  38
ATOM     38  C   UNL A   1      34.171  34.495  29.329  1.00  0.00     0.039 A 
ATOM     39  C   UNL A   1      34.010  33.917  30.592  1.00  0.00     0.014 A 
ATOM     40  C   UNL A   1      35.447  34.636  28.779  1.00  0.00     0.014 A 
ATOM     41  C   UNL A   1      35.119  33.407  31.270  1.00  0.00     0.010 A 
ATOM     42  C   UNL A   1      36.544  34.072  29.428  1.00  0.00     0.010 A 
ATOM     43  C   UNL A   1      36.388  33.442  30.672  1.00  0.00    -0.014 A 
BRANCH  43  44
ATOM     44  C   UNL A   1      37.558  32.789  31.310  1.00  0.00     0.031 A 
ATOM     45  C   UNL A   1      38.220  31.613  30.652  1.00  0.00     0.074 A 
ATOM     46  C   UNL A   1      37.962  33.203  32.525  1.00  0.00     0.049 A 
ATOM     47  N   UNL A   1      39.168  30.834  31.109  1.00  0.00    -0.248 NA
ATOM     48  C   UNL A   1      37.735  31.248  29.312  1.00  0.00     0.031 C 
ATOM     49  C   UNL A   1      37.375  34.312  33.277  1.00  0.00     0.029 A 
ATOM     50  N   UNL A   1      38.948  32.726  33.354  1.00  0.00    -0.354 N 
ATOM     51  C   UNL A   1      39.382  29.881  30.123  1.00  0.00     0.074 A 
ATOM     52  C   UNL A   1      38.437  30.152  29.059  1.00  0.00     0.031 C 
ATOM     53  C   UNL A   1      38.013  34.435  34.451  1.00  0.00     0.029 A 
ATOM     54  C   UNL A   1      39.022  33.386  34.556  1.00  0.00     0.049 A 
ATOM     55  H   UNL A   1      39.546  31.982  33.109  1.00  0.00     0.167 HD
ATOM     56  C   UNL A   1      40.296  28.881  30.101  1.00  0.00     0.037 A 
ATOM     57  C   UNL A   1      39.798  33.155  35.633  1.00  0.00     0.037 A 
ATOM     58  C   UNL A   1      41.245  28.632  31.155  1.00  0.00     0.049 A 
ATOM     59  C   UNL A   1      40.782  32.018  35.596  1.00  0.00     0.074 A 
ATOM     60  C   UNL A   1      42.258  27.688  31.197  1.00  0.00     0.029 A 
ATOM     61  N   UNL A   1      41.294  29.325  32.356  1.00  0.00    -0.354 N 
ATOM     62  N   UNL A   1      41.022  31.163  34.630  1.00  0.00    -0.248 NA
ATOM     63  C   UNL A   1      41.601  31.809  36.798  1.00  0.00     0.031 C 
ATOM     64  C   UNL A   1      42.882  27.774  32.445  1.00  0.00     0.029 A 
ATOM     65  C   UNL A   1      42.296  28.806  33.161  1.00  0.00     0.049 A 
ATOM     66  H   UNL A   1      40.705  30.075  32.599  1.00  0.00     0.167 HD
ATOM     67  C   UNL A   1      42.030  30.332  35.098  1.00  0.00     0.074 A 
ATOM     68  C   UNL A   1      42.370  30.795  36.428  1.00  0.00     0.031 C 
ATOM     69  C   UNL A   1      42.619  29.278  34.483  1.00  0.00     0.037 A 
BRANCH  56  70
ATOM     70  C   UNL A   1      40.312  27.975  28.905  1.00  0.00     0.064 A 
ATOM     71  C   UNL A   1      41.047  28.289  27.751  1.00  0.00     0.173 A 
ATOM     72  C   UNL A   1      39.620  26.754  28.928  1.00  0.00     0.173 A 
ATOM     73  F   UNL A   1      41.718  29.448  27.674  1.00  0.00    -0.203 F 
ATOM     74  C   UNL A   1      41.067  27.428  26.657  1.00  0.00     0.198 A 
ATOM     75  C   UNL A   1      39.668  25.881  27.844  1.00  0.00     0.198 A 
ATOM     76  F   UNL A   1      38.908  26.401  30.008  1.00  0.00    -0.203 F 
ATOM     77  F   UNL A   1      41.739  27.770  25.549  1.00  0.00    -0.200 F 
ATOM     78  C   UNL A   1      40.384  26.222  26.707  1.00  0.00     0.200 A 
ATOM     79  F   UNL A   1      39.019  24.710  27.900  1.00  0.00    -0.200 F 
ATOM     80  F   UNL A   1      40.412  25.390  25.657  1.00  0.00    -0.200 F 
ENDBRANCH  56  70
BRANCH  57  81
ATOM     81  C   UNL A   1      39.670  34.016  36.838  1.00  0.00     0.064 A 
ATOM     82  C   UNL A   1      40.339  35.245  36.918  1.00  0.00     0.173 A 
ATOM     83  C   UNL A   1      38.882  33.629  37.933  1.00  0.00     0.173 A 
ATOM     84  F   UNL A   1      41.122  35.648  35.906  1.00  0.00    -0.203 F 
ATOM     85  C   UNL A   1      40.239  36.047  38.054  1.00  0.00     0.198 A 
ATOM     86  C   UNL A   1      38.759  34.445  39.055  1.00  0.00     0.198 A 
ATOM     87  F   UNL A   1      38.219  32.463  37.906  1.00  0.00    -0.203 F 
ATOM     88  F   UNL A   1      40.925  37.195  38.123  1.00  0.00    -0.200 F 
ATOM     89  C   UNL A   1      39.444  35.649  39.119  1.00  0.00     0.200 A 
ATOM     90  F   UNL A   1      37.979  34.063  40.075  1.00  0.00    -0.200 F 
ATOM     91  F   UNL A   1      39.344  36.422  40.208  1.00  0.00    -0.200 F 
ENDBRANCH  57  81
BRANCH  69  92
ATOM     92  C   UNL A   1      43.706  28.562  35.231  1.00  0.00     0.064 A 
ATOM     93  C   UNL A   1      43.416  27.512  36.115  1.00  0.00     0.173 A 
ATOM     94  C   UNL A   1      45.053  28.892  35.020  1.00  0.00     0.173 A 
ATOM     95  F   UNL A   1      42.143  27.170  36.363  1.00  0.00    -0.203 F 
ATOM     96  C   UNL A   1      44.436  26.829  36.772  1.00  0.00     0.198 A 
ATOM     97  C   UNL A   1      46.071  28.187  35.656  1.00  0.00     0.198 A 
ATOM     98  F   UNL A   1      45.383  29.885  34.180  1.00  0.00    -0.203 F 
ATOM     99  F   UNL A   1      44.135  25.856  37.643  1.00  0.00    -0.200 F 
ATOM    100  C   UNL A   1      45.761  27.160  36.535  1.00  0.00     0.200 A 
ATOM    101  F   UNL A   1      47.352  28.499  35.415  1.00  0.00    -0.200 F 
ATOM    102  F   UNL A   1      46.742  26.492  37.158  1.00  0.00    -0.200 F 
ENDBRANCH  69  92
ENDBRANCH  43  44
ENDBRANCH  35  38
ENDBRANCH  33  34
ENDBRANCH  32  33
ENDBRANCH  31  32
ENDBRANCH   1  31
TORSDOF 16
ENDMDL
