MODEL 1
REMARK VINA RESULT:     -13.7      0.000      0.000
REMARK SMILES O=C1C[C@@H](c2cccc(O)c2)c2c(c(C(=O)NCCCCCCNC(=O)c3ccc(-c4c5nc(c(-c6c(F)c(F)c(F)c(F)c6F)c6ccc([nH]6)c(-c6c(F)c(F)c(F)c(F)c6F)c6nc(c(-c7c(F)c(F)c(F)c(F)c7F)c7ccc4[nH]7)C=C6)C=C5)cc3)cn2-c2cccc(C(F)(F)F)c2)N1
REMARK SMILES IDX 20 1 19 2 18 3 17 4 15 5 16 6 14 8 1 9 2 10 3 11 102 12 4 13
REMARK SMILES IDX 13 14 12 16 91 17 90 18 5 19 6 20 11 21 7 22 9 23 8 24 10 25
REMARK SMILES IDX 92 27 93 28 101 29 94 30 96 31 95 32 97 33 98 34 99 35
REMARK SMILES IDX 100 36 21 37 22 38 23 39 24 40 25 41 26 43 27 44 28 45 89 46
REMARK SMILES IDX 29 47 88 48 30 49 31 50 32 51 82 52 33 53 87 54 81 55 83 56
REMARK SMILES IDX 34 57 86 58 80 59 79 60 35 62 67 63 47 64 66 65 48 66 51 67
REMARK SMILES IDX 65 68 84 69 49 70 50 71 64 73 85 74 52 75 36 76 37 77 45 78
REMARK SMILES IDX 38 79 39 80 43 81 46 82 40 83 41 84 44 85 42 86 68 87 69 88
REMARK SMILES IDX 77 89 70 90 71 91 75 92 78 93 72 94 73 95 76 96 74 97 53 98
REMARK SMILES IDX 54 99 62 100 55 101 56 102 60 103 63 104 57 105 58 106
REMARK SMILES IDX 61 107 59 108
REMARK H PARENT 17 7 102 15 10 26 24 42 83 61 51 72
REMARK Flexibility Score: inf
ROOT
ATOM      1  C   UNL A   1      37.345  20.937  24.613  1.00  0.00     0.002 C 
ENDROOT
BRANCH   1   2
ATOM      2  C   UNL A   1      36.304  22.051  24.703  1.00  0.00     0.021 C 
BRANCH   2   3
ATOM      3  C   UNL A   1      34.986  21.675  25.372  1.00  0.00     0.116 C 
BRANCH   3   4
ATOM      4  N   UNL A   1      33.919  21.419  24.429  1.00  0.00    -0.352 N 
ATOM      5  C   UNL A   1      33.019  22.249  23.807  1.00  0.00     0.254 C 
ATOM      6  O   UNL A   1      32.159  21.712  23.107  1.00  0.00    -0.269 OA
ATOM      7  H   UNL A   1      33.818  20.469  24.189  1.00  0.00     0.163 HD
BRANCH   5   8
ATOM      8  C   UNL A   1      33.032  23.700  23.985  1.00  0.00     0.081 A 
ATOM      9  O   UNL A   1      32.446  25.303  19.513  1.00  0.00    -0.275 OA
ATOM     10  C   UNL A   1      32.670  25.495  20.707  1.00  0.00     0.225 C 
ATOM     11  C   UNL A   1      33.134  26.852  21.229  1.00  0.00     0.115 C 
ATOM     12  N   UNL A   1      32.645  24.459  21.609  1.00  0.00    -0.324 N 
ATOM     13  C   UNL A   1      32.682  27.169  22.670  1.00  0.00     0.078 C 
ATOM     14  C   UNL A   1      32.815  24.656  22.959  1.00  0.00     0.076 A 
ATOM     15  H   UNL A   1      32.501  23.544  21.276  1.00  0.00     0.170 HD
ATOM     16  C   UNL A   1      32.796  25.922  23.497  1.00  0.00     0.055 A 
ATOM     17  N   UNL A   1      33.017  25.798  24.853  1.00  0.00    -0.317 N 
ATOM     18  C   UNL A   1      33.362  24.475  25.085  1.00  0.00     0.107 A 
BRANCH  13  19
ATOM     19  C   UNL A   1      31.299  27.794  22.686  1.00  0.00    -0.035 A 
ATOM     20  C   UNL A   1      30.176  27.123  23.200  1.00  0.00     0.005 A 
ATOM     21  C   UNL A   1      31.139  29.109  22.220  1.00  0.00     0.050 A 
ATOM     22  C   UNL A   1      28.941  27.767  23.286  1.00  0.00     0.004 A 
ATOM     23  C   UNL A   1      29.912  29.751  22.344  1.00  0.00     0.115 A 
ATOM     24  C   UNL A   1      28.810  29.092  22.872  1.00  0.00     0.046 A 
BRANCH  23  25
ATOM     25  O   UNL A   1      29.848  31.061  21.973  1.00  0.00    -0.508 OA
ATOM     26  H   UNL A   1      29.726  31.288  21.072  1.00  0.00     0.293 HD
ENDBRANCH  23  25
ENDBRANCH  13  19
BRANCH  17  27
ATOM     27  C   UNL A   1      32.875  26.748  25.898  1.00  0.00     0.046 A 
ATOM     28  C   UNL A   1      31.626  26.927  26.505  1.00  0.00     0.026 A 
ATOM     29  C   UNL A   1      33.924  27.623  26.205  1.00  0.00     0.039 A 
ATOM     30  C   UNL A   1      31.443  27.939  27.447  1.00  0.00     0.003 A 
ATOM     31  C   UNL A   1      33.745  28.654  27.144  1.00  0.00     0.058 A 
ATOM     32  C   UNL A   1      32.497  28.793  27.769  1.00  0.00     0.013 A 
BRANCH  31  33
ATOM     33  C   UNL A   1      34.854  29.629  27.469  1.00  0.00     0.416 C 
ATOM     34  F   UNL A   1      35.167  29.624  28.797  1.00  0.00    -0.166 F 
ATOM     35  F   UNL A   1      36.013  29.343  26.818  1.00  0.00    -0.166 F 
ATOM     36  F   UNL A   1      34.562  30.926  27.175  1.00  0.00    -0.166 F 
ENDBRANCH  31  33
ENDBRANCH  17  27
ENDBRANCH   5   8
ENDBRANCH   3   4
ENDBRANCH   2   3
ENDBRANCH   1   2
BRANCH   1  37
ATOM     37  C   UNL A   1      38.592  21.093  25.495  1.00  0.00     0.002 C 
BRANCH  37  38
ATOM     38  C   UNL A   1      38.861  22.478  26.104  1.00  0.00     0.021 C 
BRANCH  38  39
ATOM     39  C   UNL A   1      40.105  22.563  26.975  1.00  0.00     0.116 C 
BRANCH  39  40
ATOM     40  N   UNL A   1      41.343  22.493  26.197  1.00  0.00    -0.352 N 
ATOM     41  C   UNL A   1      42.131  23.519  25.712  1.00  0.00     0.251 C 
ATOM     42  H   UNL A   1      41.659  21.585  25.990  1.00  0.00     0.163 HD
ATOM     43  O   UNL A   1      42.912  23.331  24.789  1.00  0.00    -0.269 OA
BRANCH  41  44
ATOM     44  C   UNL A   1      42.030  24.849  26.334  1.00  0.00     0.039 A 
ATOM     45  C   UNL A   1      41.194  25.849  25.826  1.00  0.00     0.014 A 
ATOM     46  C   UNL A   1      42.806  25.082  27.461  1.00  0.00     0.014 A 
ATOM     47  C   UNL A   1      41.107  27.063  26.506  1.00  0.00     0.010 A 
ATOM     48  C   UNL A   1      42.563  26.175  28.238  1.00  0.00     0.010 A 
ATOM     49  C   UNL A   1      41.797  27.208  27.716  1.00  0.00    -0.014 A 
BRANCH  49  50
ATOM     50  C   UNL A   1      41.723  28.416  28.521  1.00  0.00     0.031 A 
ATOM     51  C   UNL A   1      42.773  29.426  28.232  1.00  0.00     0.074 A 
ATOM     52  C   UNL A   1      40.596  28.720  29.203  1.00  0.00     0.049 A 
ATOM     53  N   UNL A   1      43.691  29.871  29.023  1.00  0.00    -0.248 NA
ATOM     54  C   UNL A   1      42.895  29.911  26.848  1.00  0.00     0.031 C 
ATOM     55  C   UNL A   1      39.324  27.985  29.236  1.00  0.00     0.029 A 
ATOM     56  N   UNL A   1      40.303  29.842  29.907  1.00  0.00    -0.354 N 
ATOM     57  C   UNL A   1      44.386  30.837  28.297  1.00  0.00     0.074 A 
ATOM     58  C   UNL A   1      43.999  30.657  26.924  1.00  0.00     0.031 C 
ATOM     59  C   UNL A   1      38.349  28.790  29.710  1.00  0.00     0.029 A 
ATOM     60  C   UNL A   1      38.950  30.029  30.165  1.00  0.00     0.049 A 
ATOM     61  H   UNL A   1      40.994  30.474  30.211  1.00  0.00     0.167 HD
ATOM     62  C   UNL A   1      45.014  31.871  28.926  1.00  0.00     0.037 A 
ATOM     63  C   UNL A   1      38.383  31.156  30.663  1.00  0.00     0.037 A 
ATOM     64  C   UNL A   1      45.169  31.590  30.336  1.00  0.00     0.049 A 
ATOM     65  C   UNL A   1      39.480  31.969  31.253  1.00  0.00     0.074 A 
ATOM     66  C   UNL A   1      45.764  30.574  31.061  1.00  0.00     0.029 A 
ATOM     67  N   UNL A   1      44.322  32.217  31.219  1.00  0.00    -0.354 N 
ATOM     68  N   UNL A   1      40.142  31.630  32.325  1.00  0.00    -0.248 NA
ATOM     69  C   UNL A   1      40.153  32.919  30.379  1.00  0.00     0.031 C 
ATOM     70  C   UNL A   1      44.867  30.322  32.143  1.00  0.00     0.029 A 
ATOM     71  C   UNL A   1      43.832  31.251  32.061  1.00  0.00     0.049 A 
ATOM     72  H   UNL A   1      44.109  33.178  31.244  1.00  0.00     0.167 HD
ATOM     73  C   UNL A   1      41.458  31.971  32.050  1.00  0.00     0.074 A 
ATOM     74  C   UNL A   1      41.392  32.833  30.870  1.00  0.00     0.031 C 
ATOM     75  C   UNL A   1      42.497  31.285  32.609  1.00  0.00     0.037 A 
BRANCH  62  76
ATOM     76  C   UNL A   1      45.141  33.279  28.372  1.00  0.00     0.064 A 
ATOM     77  C   UNL A   1      46.426  33.857  28.285  1.00  0.00     0.173 A 
ATOM     78  C   UNL A   1      44.070  34.184  28.204  1.00  0.00     0.173 A 
ATOM     79  F   UNL A   1      47.527  33.101  28.415  1.00  0.00    -0.203 F 
ATOM     80  C   UNL A   1      46.616  35.237  28.166  1.00  0.00     0.198 A 
ATOM     81  C   UNL A   1      44.265  35.555  28.029  1.00  0.00     0.198 A 
ATOM     82  F   UNL A   1      42.788  33.818  28.306  1.00  0.00    -0.203 F 
ATOM     83  F   UNL A   1      47.854  35.743  28.238  1.00  0.00    -0.200 F 
ATOM     84  C   UNL A   1      45.535  36.087  28.051  1.00  0.00     0.200 A 
ATOM     85  F   UNL A   1      43.199  36.361  27.923  1.00  0.00    -0.200 F 
ATOM     86  F   UNL A   1      45.709  37.413  28.007  1.00  0.00    -0.200 F 
ENDBRANCH  62  76
BRANCH  63  87
ATOM     87  C   UNL A   1      37.034  31.721  30.415  1.00  0.00     0.064 A 
ATOM     88  C   UNL A   1      36.081  31.771  31.446  1.00  0.00     0.173 A 
ATOM     89  C   UNL A   1      36.748  32.480  29.264  1.00  0.00     0.173 A 
ATOM     90  F   UNL A   1      36.291  31.104  32.591  1.00  0.00    -0.203 F 
ATOM     91  C   UNL A   1      34.934  32.565  31.350  1.00  0.00     0.198 A 
ATOM     92  C   UNL A   1      35.598  33.266  29.166  1.00  0.00     0.198 A 
ATOM     93  F   UNL A   1      37.623  32.555  28.252  1.00  0.00    -0.203 F 
ATOM     94  F   UNL A   1      34.086  32.643  32.386  1.00  0.00    -0.200 F 
ATOM     95  C   UNL A   1      34.700  33.322  30.215  1.00  0.00     0.200 A 
ATOM     96  F   UNL A   1      35.400  34.020  28.074  1.00  0.00    -0.200 F 
ATOM     97  F   UNL A   1      33.638  34.139  30.151  1.00  0.00    -0.200 F 
ENDBRANCH  63  87
BRANCH  75  98
ATOM     98  C   UNL A   1      42.191  30.319  33.722  1.00  0.00     0.064 A 
ATOM     99  C   UNL A   1      41.804  28.981  33.525  1.00  0.00     0.173 A 
ATOM    100  C   UNL A   1      42.430  30.729  35.040  1.00  0.00     0.173 A 
ATOM    101  F   UNL A   1      41.662  28.475  32.294  1.00  0.00    -0.203 F 
ATOM    102  C   UNL A   1      41.610  28.115  34.601  1.00  0.00     0.198 A 
ATOM    103  C   UNL A   1      42.276  29.851  36.110  1.00  0.00     0.198 A 
ATOM    104  F   UNL A   1      42.858  31.975  35.290  1.00  0.00    -0.203 F 
ATOM    105  F   UNL A   1      41.219  26.851  34.383  1.00  0.00    -0.200 F 
ATOM    106  C   UNL A   1      41.852  28.550  35.892  1.00  0.00     0.200 A 
ATOM    107  F   UNL A   1      42.561  30.261  37.353  1.00  0.00    -0.200 F 
ATOM    108  F   UNL A   1      41.702  27.709  36.925  1.00  0.00    -0.200 F 
ENDBRANCH  75  98
ENDBRANCH  49  50
ENDBRANCH  41  44
ENDBRANCH  39  40
ENDBRANCH  38  39
ENDBRANCH  37  38
ENDBRANCH   1  37
TORSDOF 17
ENDMDL
MODEL 2
REMARK VINA RESULT:     -13.4      3.472      8.795
REMARK SMILES O=C1C[C@@H](c2cccc(O)c2)c2c(c(C(=O)NCCCCCCNC(=O)c3ccc(-c4c5nc(c(-c6c(F)c(F)c(F)c(F)c6F)c6ccc([nH]6)c(-c6c(F)c(F)c(F)c(F)c6F)c6nc(c(-c7c(F)c(F)c(F)c(F)c7F)c7ccc4[nH]7)C=C6)C=C5)cc3)cn2-c2cccc(C(F)(F)F)c2)N1
REMARK SMILES IDX 20 1 19 2 18 3 17 4 15 5 16 6 14 8 1 9 2 10 3 11 102 12 4 13
REMARK SMILES IDX 13 14 12 16 91 17 90 18 5 19 6 20 11 21 7 22 9 23 8 24 10 25
REMARK SMILES IDX 92 27 93 28 101 29 94 30 96 31 95 32 97 33 98 34 99 35
REMARK SMILES IDX 100 36 21 37 22 38 23 39 24 40 25 41 26 43 27 44 28 45 89 46
REMARK SMILES IDX 29 47 88 48 30 49 31 50 32 51 82 52 33 53 87 54 81 55 83 56
REMARK SMILES IDX 34 57 86 58 80 59 79 60 35 62 67 63 47 64 66 65 48 66 51 67
REMARK SMILES IDX 65 68 84 69 49 70 50 71 64 73 85 74 52 75 36 76 37 77 45 78
REMARK SMILES IDX 38 79 39 80 43 81 46 82 40 83 41 84 44 85 42 86 68 87 69 88
REMARK SMILES IDX 77 89 70 90 71 91 75 92 78 93 72 94 73 95 76 96 74 97 53 98
REMARK SMILES IDX 54 99 62 100 55 101 56 102 60 103 63 104 57 105 58 106
REMARK SMILES IDX 61 107 59 108
REMARK H PARENT 17 7 102 15 10 26 24 42 83 61 51 72
REMARK Flexibility Score: inf
ROOT
ATOM      1  C   UNL A   1      34.135  28.626  26.519  1.00  0.00     0.002 C 
ENDROOT
BRANCH   1   2
ATOM      2  C   UNL A   1      32.994  29.218  25.694  1.00  0.00     0.021 C 
BRANCH   2   3
ATOM      3  C   UNL A   1      31.604  28.665  25.992  1.00  0.00     0.116 C 
BRANCH   3   4
ATOM      4  N   UNL A   1      30.951  28.106  24.828  1.00  0.00    -0.352 N 
ATOM      5  C   UNL A   1      31.090  26.901  24.183  1.00  0.00     0.254 C 
ATOM      6  O   UNL A   1      30.440  26.747  23.148  1.00  0.00    -0.269 OA
ATOM      7  H   UNL A   1      30.282  28.701  24.420  1.00  0.00     0.163 HD
BRANCH   5   8
ATOM      8  C   UNL A   1      31.992  25.853  24.656  1.00  0.00     0.081 A 
ATOM      9  O   UNL A   1      29.061  23.002  27.144  1.00  0.00    -0.275 OA
ATOM     10  C   UNL A   1      30.186  23.329  26.769  1.00  0.00     0.225 C 
ATOM     11  C   UNL A   1      31.445  22.712  27.372  1.00  0.00     0.115 C 
ATOM     12  N   UNL A   1      30.366  24.365  25.884  1.00  0.00    -0.324 N 
ATOM     13  C   UNL A   1      32.640  22.624  26.400  1.00  0.00     0.078 C 
ATOM     14  C   UNL A   1      31.602  24.702  25.388  1.00  0.00     0.076 A 
ATOM     15  H   UNL A   1      29.580  24.883  25.596  1.00  0.00     0.170 HD
ATOM     16  C   UNL A   1      32.689  23.881  25.579  1.00  0.00     0.055 A 
ATOM     17  N   UNL A   1      33.778  24.493  24.997  1.00  0.00    -0.317 N 
ATOM     18  C   UNL A   1      33.375  25.770  24.633  1.00  0.00     0.107 A 
BRANCH  13  19
ATOM     19  C   UNL A   1      32.583  21.352  25.574  1.00  0.00    -0.035 A 
ATOM     20  C   UNL A   1      32.327  21.362  24.192  1.00  0.00     0.005 A 
ATOM     21  C   UNL A   1      32.846  20.121  26.198  1.00  0.00     0.050 A 
ATOM     22  C   UNL A   1      32.380  20.181  23.451  1.00  0.00     0.004 A 
ATOM     23  C   UNL A   1      32.929  18.957  25.443  1.00  0.00     0.115 A 
ATOM     24  C   UNL A   1      32.698  18.975  24.073  1.00  0.00     0.046 A 
BRANCH  23  25
ATOM     25  O   UNL A   1      33.294  17.814  26.089  1.00  0.00    -0.508 OA
ATOM     26  H   UNL A   1      33.379  17.012  25.611  1.00  0.00     0.293 HD
ENDBRANCH  23  25
ENDBRANCH  13  19
BRANCH  17  27
ATOM     27  C   UNL A   1      35.073  23.988  24.710  1.00  0.00     0.046 A 
ATOM     28  C   UNL A   1      35.258  23.148  23.605  1.00  0.00     0.026 A 
ATOM     29  C   UNL A   1      36.124  24.180  25.616  1.00  0.00     0.039 A 
ATOM     30  C   UNL A   1      36.498  22.547  23.381  1.00  0.00     0.003 A 
ATOM     31  C   UNL A   1      37.372  23.568  25.405  1.00  0.00     0.058 A 
ATOM     32  C   UNL A   1      37.549  22.760  24.272  1.00  0.00     0.013 A 
BRANCH  31  33
ATOM     33  C   UNL A   1      38.511  23.736  26.385  1.00  0.00     0.416 C 
ATOM     34  F   UNL A   1      38.108  24.339  27.541  1.00  0.00    -0.166 F 
ATOM     35  F   UNL A   1      39.060  22.550  26.762  1.00  0.00    -0.166 F 
ATOM     36  F   UNL A   1      39.539  24.501  25.921  1.00  0.00    -0.166 F 
ENDBRANCH  31  33
ENDBRANCH  17  27
ENDBRANCH   5   8
ENDBRANCH   3   4
ENDBRANCH   2   3
ENDBRANCH   1   2
BRANCH   1  37
ATOM     37  C   UNL A   1      34.840  29.578  27.495  1.00  0.00     0.002 C 
BRANCH  37  38
ATOM     38  C   UNL A   1      34.380  31.045  27.513  1.00  0.00     0.021 C 
BRANCH  38  39
ATOM     39  C   UNL A   1      35.388  32.024  28.092  1.00  0.00     0.116 C 
BRANCH  39  40
ATOM     40  N   UNL A   1      35.046  32.446  29.452  1.00  0.00    -0.352 N 
ATOM     41  C   UNL A   1      35.456  31.920  30.662  1.00  0.00     0.251 C 
ATOM     42  H   UNL A   1      34.435  33.216  29.513  1.00  0.00     0.163 HD
ATOM     43  O   UNL A   1      34.821  32.126  31.687  1.00  0.00    -0.269 OA
BRANCH  41  44
ATOM     44  C   UNL A   1      36.687  31.113  30.706  1.00  0.00     0.039 A 
ATOM     45  C   UNL A   1      36.666  29.716  30.635  1.00  0.00     0.014 A 
ATOM     46  C   UNL A   1      37.890  31.797  30.822  1.00  0.00     0.014 A 
ATOM     47  C   UNL A   1      37.877  29.025  30.622  1.00  0.00     0.010 A 
ATOM     48  C   UNL A   1      39.065  31.146  30.595  1.00  0.00     0.010 A 
ATOM     49  C   UNL A   1      39.070  29.758  30.598  1.00  0.00    -0.014 A 
BRANCH  49  50
ATOM     50  C   UNL A   1      40.377  29.125  30.529  1.00  0.00     0.031 A 
ATOM     51  C   UNL A   1      41.032  28.899  31.843  1.00  0.00     0.074 A 
ATOM     52  C   UNL A   1      40.777  28.493  29.403  1.00  0.00     0.049 A 
ATOM     53  N   UNL A   1      42.142  29.396  32.277  1.00  0.00    -0.248 NA
ATOM     54  C   UNL A   1      40.297  28.117  32.850  1.00  0.00     0.031 C 
ATOM     55  C   UNL A   1      40.030  28.298  28.153  1.00  0.00     0.029 A 
ATOM     56  N   UNL A   1      41.898  27.760  29.191  1.00  0.00    -0.354 N 
ATOM     57  C   UNL A   1      42.344  28.835  33.538  1.00  0.00     0.074 A 
ATOM     58  C   UNL A   1      41.089  28.246  33.916  1.00  0.00     0.031 C 
ATOM     59  C   UNL A   1      40.608  27.314  27.430  1.00  0.00     0.029 A 
ATOM     60  C   UNL A   1      41.845  26.927  28.079  1.00  0.00     0.049 A 
ATOM     61  H   UNL A   1      42.687  27.812  29.778  1.00  0.00     0.167 HD
ATOM     62  C   UNL A   1      43.601  28.676  34.042  1.00  0.00     0.037 A 
ATOM     63  C   UNL A   1      42.740  25.956  27.769  1.00  0.00     0.037 A 
ATOM     64  C   UNL A   1      44.550  29.480  33.305  1.00  0.00     0.049 A 
ATOM     65  C   UNL A   1      43.961  26.217  28.577  1.00  0.00     0.074 A 
ATOM     66  C   UNL A   1      44.661  30.828  33.017  1.00  0.00     0.029 A 
ATOM     67  N   UNL A   1      45.368  28.848  32.398  1.00  0.00    -0.354 N 
ATOM     68  N   UNL A   1      44.754  27.236  28.390  1.00  0.00    -0.248 NA
ATOM     69  C   UNL A   1      44.035  25.602  29.895  1.00  0.00     0.031 C 
ATOM     70  C   UNL A   1      45.099  30.878  31.659  1.00  0.00     0.029 A 
ATOM     71  C   UNL A   1      45.309  29.568  31.232  1.00  0.00     0.049 A 
ATOM     72  H   UNL A   1      45.898  28.033  32.556  1.00  0.00     0.167 HD
ATOM     73  C   UNL A   1      45.095  27.656  29.667  1.00  0.00     0.074 A 
ATOM     74  C   UNL A   1      44.687  26.565  30.551  1.00  0.00     0.031 C 
ATOM     75  C   UNL A   1      45.392  28.963  29.924  1.00  0.00     0.037 A 
BRANCH  62  76
ATOM     76  C   UNL A   1      44.044  27.526  34.928  1.00  0.00     0.064 A 
ATOM     77  C   UNL A   1      44.752  27.821  36.113  1.00  0.00     0.173 A 
ATOM     78  C   UNL A   1      44.074  26.168  34.540  1.00  0.00     0.173 A 
ATOM     79  F   UNL A   1      44.791  29.073  36.594  1.00  0.00    -0.203 F 
ATOM     80  C   UNL A   1      45.524  26.863  36.778  1.00  0.00     0.198 A 
ATOM     81  C   UNL A   1      44.800  25.203  35.239  1.00  0.00     0.198 A 
ATOM     82  F   UNL A   1      43.499  25.722  33.419  1.00  0.00    -0.203 F 
ATOM     83  F   UNL A   1      46.293  27.232  37.810  1.00  0.00    -0.200 F 
ATOM     84  C   UNL A   1      45.557  25.557  36.333  1.00  0.00     0.200 A 
ATOM     85  F   UNL A   1      44.820  23.941  34.785  1.00  0.00    -0.200 F 
ATOM     86  F   UNL A   1      46.348  24.653  36.924  1.00  0.00    -0.200 F 
ENDBRANCH  62  76
BRANCH  63  87
ATOM     87  C   UNL A   1      42.526  24.668  27.064  1.00  0.00     0.064 A 
ATOM     88  C   UNL A   1      43.010  24.481  25.758  1.00  0.00     0.173 A 
ATOM     89  C   UNL A   1      42.106  23.510  27.745  1.00  0.00     0.173 A 
ATOM     90  F   UNL A   1      43.461  25.527  25.049  1.00  0.00    -0.203 F 
ATOM     91  C   UNL A   1      43.110  23.209  25.186  1.00  0.00     0.198 A 
ATOM     92  C   UNL A   1      42.199  22.241  27.170  1.00  0.00     0.198 A 
ATOM     93  F   UNL A   1      41.693  23.571  29.019  1.00  0.00    -0.203 F 
ATOM     94  F   UNL A   1      43.647  23.065  23.965  1.00  0.00    -0.200 F 
ATOM     95  C   UNL A   1      42.716  22.088  25.897  1.00  0.00     0.200 A 
ATOM     96  F   UNL A   1      41.845  21.161  27.882  1.00  0.00    -0.200 F 
ATOM     97  F   UNL A   1      42.879  20.863  25.378  1.00  0.00    -0.200 F 
ENDBRANCH  63  87
BRANCH  75  98
ATOM     98  C   UNL A   1      45.588  29.889  28.755  1.00  0.00     0.064 A 
ATOM     99  C   UNL A   1      44.549  30.591  28.117  1.00  0.00     0.173 A 
ATOM    100  C   UNL A   1      46.898  30.178  28.350  1.00  0.00     0.173 A 
ATOM    101  F   UNL A   1      43.279  30.460  28.516  1.00  0.00    -0.203 F 
ATOM    102  C   UNL A   1      44.808  31.494  27.087  1.00  0.00     0.198 A 
ATOM    103  C   UNL A   1      47.157  31.111  27.349  1.00  0.00     0.198 A 
ATOM    104  F   UNL A   1      47.936  29.585  28.959  1.00  0.00    -0.203 F 
ATOM    105  F   UNL A   1      43.795  32.133  26.483  1.00  0.00    -0.200 F 
ATOM    106  C   UNL A   1      46.113  31.757  26.708  1.00  0.00     0.200 A 
ATOM    107  F   UNL A   1      48.424  31.401  27.022  1.00  0.00    -0.200 F 
ATOM    108  F   UNL A   1      46.366  32.653  25.743  1.00  0.00    -0.200 F 
ENDBRANCH  75  98
ENDBRANCH  49  50
ENDBRANCH  41  44
ENDBRANCH  39  40
ENDBRANCH  38  39
ENDBRANCH  37  38
ENDBRANCH   1  37
TORSDOF 17
ENDMDL
MODEL 3
REMARK VINA RESULT:     -12.3      3.462      8.604
REMARK SMILES O=C1C[C@@H](c2cccc(O)c2)c2c(c(C(=O)NCCCCCCNC(=O)c3ccc(-c4c5nc(c(-c6c(F)c(F)c(F)c(F)c6F)c6ccc([nH]6)c(-c6c(F)c(F)c(F)c(F)c6F)c6nc(c(-c7c(F)c(F)c(F)c(F)c7F)c7ccc4[nH]7)C=C6)C=C5)cc3)cn2-c2cccc(C(F)(F)F)c2)N1
REMARK SMILES IDX 20 1 19 2 18 3 17 4 15 5 16 6 14 8 1 9 2 10 3 11 102 12 4 13
REMARK SMILES IDX 13 14 12 16 91 17 90 18 5 19 6 20 11 21 7 22 9 23 8 24 10 25
REMARK SMILES IDX 92 27 93 28 101 29 94 30 96 31 95 32 97 33 98 34 99 35
REMARK SMILES IDX 100 36 21 37 22 38 23 39 24 40 25 41 26 43 27 44 28 45 89 46
REMARK SMILES IDX 29 47 88 48 30 49 31 50 32 51 82 52 33 53 87 54 81 55 83 56
REMARK SMILES IDX 34 57 86 58 80 59 79 60 35 62 67 63 47 64 66 65 48 66 51 67
REMARK SMILES IDX 65 68 84 69 49 70 50 71 64 73 85 74 52 75 36 76 37 77 45 78
REMARK SMILES IDX 38 79 39 80 43 81 46 82 40 83 41 84 44 85 42 86 68 87 69 88
REMARK SMILES IDX 77 89 70 90 71 91 75 92 78 93 72 94 73 95 76 96 74 97 53 98
REMARK SMILES IDX 54 99 62 100 55 101 56 102 60 103 63 104 57 105 58 106
REMARK SMILES IDX 61 107 59 108
REMARK H PARENT 17 7 102 15 10 26 24 42 83 61 51 72
REMARK Flexibility Score: inf
ROOT
ATOM      1  C   UNL A   1      36.853  30.061  28.696  1.00  0.00     0.002 C 
ENDROOT
BRANCH   1   2
ATOM      2  C   UNL A   1      35.671  29.319  28.075  1.00  0.00     0.021 C 
BRANCH   2   3
ATOM      3  C   UNL A   1      35.202  29.836  26.720  1.00  0.00     0.116 C 
BRANCH   3   4
ATOM      4  N   UNL A   1      33.920  30.505  26.776  1.00  0.00    -0.352 N 
ATOM      5  C   UNL A   1      32.641  30.071  26.527  1.00  0.00     0.254 C 
ATOM      6  O   UNL A   1      31.747  30.917  26.581  1.00  0.00    -0.269 OA
ATOM      7  H   UNL A   1      33.975  31.451  27.043  1.00  0.00     0.163 HD
BRANCH   5   8
ATOM      8  C   UNL A   1      32.334  28.688  26.169  1.00  0.00     0.081 A 
ATOM      9  O   UNL A   1      29.145  29.209  22.638  1.00  0.00    -0.275 OA
ATOM     10  C   UNL A   1      29.772  28.507  23.431  1.00  0.00     0.225 C 
ATOM     11  C   UNL A   1      29.434  27.034  23.640  1.00  0.00     0.115 C 
ATOM     12  N   UNL A   1      30.717  29.052  24.266  1.00  0.00    -0.324 N 
ATOM     13  C   UNL A   1      30.640  26.153  24.027  1.00  0.00     0.078 C 
ATOM     14  C   UNL A   1      31.486  28.282  25.106  1.00  0.00     0.076 A 
ATOM     15  H   UNL A   1      30.847  30.028  24.262  1.00  0.00     0.170 HD
ATOM     16  C   UNL A   1      31.504  26.912  24.992  1.00  0.00     0.055 A 
ATOM     17  N   UNL A   1      32.336  26.425  25.977  1.00  0.00    -0.317 N 
ATOM     18  C   UNL A   1      32.656  27.496  26.799  1.00  0.00     0.107 A 
BRANCH  13  19
ATOM     19  C   UNL A   1      31.379  25.662  22.794  1.00  0.00    -0.035 A 
ATOM     20  C   UNL A   1      31.400  26.389  21.591  1.00  0.00     0.005 A 
ATOM     21  C   UNL A   1      32.113  24.467  22.869  1.00  0.00     0.050 A 
ATOM     22  C   UNL A   1      32.170  25.953  20.512  1.00  0.00     0.004 A 
ATOM     23  C   UNL A   1      32.902  24.062  21.799  1.00  0.00     0.115 A 
ATOM     24  C   UNL A   1      32.938  24.795  20.619  1.00  0.00     0.046 A 
BRANCH  23  25
ATOM     25  O   UNL A   1      33.674  22.952  21.972  1.00  0.00    -0.508 OA
ATOM     26  H   UNL A   1      33.362  22.116  21.686  1.00  0.00     0.293 HD
ENDBRANCH  23  25
ENDBRANCH  13  19
BRANCH  17  27
ATOM     27  C   UNL A   1      32.879  25.127  26.165  1.00  0.00     0.046 A 
ATOM     28  C   UNL A   1      32.147  24.168  26.876  1.00  0.00     0.026 A 
ATOM     29  C   UNL A   1      34.202  24.854  25.797  1.00  0.00     0.039 A 
ATOM     30  C   UNL A   1      32.718  22.930  27.172  1.00  0.00     0.003 A 
ATOM     31  C   UNL A   1      34.790  23.614  26.103  1.00  0.00     0.058 A 
ATOM     32  C   UNL A   1      34.028  22.652  26.783  1.00  0.00     0.013 A 
BRANCH  31  33
ATOM     33  C   UNL A   1      36.226  23.308  25.742  1.00  0.00     0.416 C 
ATOM     34  F   UNL A   1      37.107  24.022  26.501  1.00  0.00    -0.166 F 
ATOM     35  F   UNL A   1      36.549  22.002  25.936  1.00  0.00    -0.166 F 
ATOM     36  F   UNL A   1      36.551  23.593  24.451  1.00  0.00    -0.166 F 
ENDBRANCH  31  33
ENDBRANCH  17  27
ENDBRANCH   5   8
ENDBRANCH   3   4
ENDBRANCH   2   3
ENDBRANCH   1   2
BRANCH   1  37
ATOM     37  C   UNL A   1      37.013  31.538  28.310  1.00  0.00     0.002 C 
BRANCH  37  38
ATOM     38  C   UNL A   1      36.275  32.579  29.166  1.00  0.00     0.021 C 
BRANCH  38  39
ATOM     39  C   UNL A   1      35.190  32.012  30.068  1.00  0.00     0.116 C 
BRANCH  39  40
ATOM     40  N   UNL A   1      35.238  32.566  31.422  1.00  0.00    -0.352 N 
ATOM     41  C   UNL A   1      35.945  32.125  32.524  1.00  0.00     0.251 C 
ATOM     42  H   UNL A   1      34.687  33.369  31.568  1.00  0.00     0.163 HD
ATOM     43  O   UNL A   1      35.616  32.451  33.656  1.00  0.00    -0.269 OA
BRANCH  41  44
ATOM     44  C   UNL A   1      37.120  31.263  32.317  1.00  0.00     0.039 A 
ATOM     45  C   UNL A   1      37.026  29.867  32.294  1.00  0.00     0.014 A 
ATOM     46  C   UNL A   1      38.346  31.892  32.141  1.00  0.00     0.014 A 
ATOM     47  C   UNL A   1      38.174  29.120  32.032  1.00  0.00     0.010 A 
ATOM     48  C   UNL A   1      39.412  31.182  31.677  1.00  0.00     0.010 A 
ATOM     49  C   UNL A   1      39.361  29.795  31.721  1.00  0.00    -0.014 A 
BRANCH  49  50
ATOM     50  C   UNL A   1      40.592  29.101  31.382  1.00  0.00     0.031 A 
ATOM     51  C   UNL A   1      41.414  28.680  32.545  1.00  0.00     0.074 A 
ATOM     52  C   UNL A   1      40.773  28.587  30.144  1.00  0.00     0.049 A 
ATOM     53  N   UNL A   1      42.610  29.056  32.855  1.00  0.00    -0.248 NA
ATOM     54  C   UNL A   1      40.777  27.827  33.561  1.00  0.00     0.031 C 
ATOM     55  C   UNL A   1      39.838  28.587  29.011  1.00  0.00     0.029 A 
ATOM     56  N   UNL A   1      41.792  27.821  29.682  1.00  0.00    -0.354 N 
ATOM     57  C   UNL A   1      42.952  28.337  33.999  1.00  0.00     0.074 A 
ATOM     58  C   UNL A   1      41.725  27.781  34.500  1.00  0.00     0.031 C 
ATOM     59  C   UNL A   1      40.227  27.666  28.103  1.00  0.00     0.029 A 
ATOM     60  C   UNL A   1      41.514  27.133  28.506  1.00  0.00     0.049 A 
ATOM     61  H   UNL A   1      42.660  27.756  30.142  1.00  0.00     0.167 HD
ATOM     62  C   UNL A   1      44.253  28.046  34.283  1.00  0.00     0.037 A 
ATOM     63  C   UNL A   1      42.278  26.156  27.956  1.00  0.00     0.037 A 
ATOM     64  C   UNL A   1      45.143  28.876  33.500  1.00  0.00     0.049 A 
ATOM     65  C   UNL A   1      43.621  26.246  28.589  1.00  0.00     0.074 A 
ATOM     66  C   UNL A   1      45.311  30.240  33.349  1.00  0.00     0.029 A 
ATOM     67  N   UNL A   1      45.768  28.312  32.414  1.00  0.00    -0.354 N 
ATOM     68  N   UNL A   1      44.452  27.233  28.396  1.00  0.00    -0.248 NA
ATOM     69  C   UNL A   1      43.840  25.474  29.804  1.00  0.00     0.031 C 
ATOM     70  C   UNL A   1      45.548  30.428  31.954  1.00  0.00     0.029 A 
ATOM     71  C   UNL A   1      45.593  29.169  31.358  1.00  0.00     0.049 A 
ATOM     72  H   UNL A   1      46.253  27.455  32.397  1.00  0.00     0.167 HD
ATOM     73  C   UNL A   1      45.007  27.475  29.643  1.00  0.00     0.074 A 
ATOM     74  C   UNL A   1      44.653  26.311  30.454  1.00  0.00     0.031 C 
ATOM     75  C   UNL A   1      45.437  28.723  29.994  1.00  0.00     0.037 A 
BRANCH  62  76
ATOM     76  C   UNL A   1      44.734  26.773  34.957  1.00  0.00     0.064 A 
ATOM     77  C   UNL A   1      44.330  25.532  34.419  1.00  0.00     0.173 A 
ATOM     78  C   UNL A   1      45.308  26.705  36.245  1.00  0.00     0.173 A 
ATOM     79  F   UNL A   1      43.781  25.460  33.197  1.00  0.00    -0.203 F 
ATOM     80  C   UNL A   1      44.384  24.347  35.159  1.00  0.00     0.198 A 
ATOM     81  C   UNL A   1      45.412  25.510  36.959  1.00  0.00     0.198 A 
ATOM     82  F   UNL A   1      45.699  27.788  36.923  1.00  0.00    -0.203 F 
ATOM     83  F   UNL A   1      43.851  23.226  34.655  1.00  0.00    -0.200 F 
ATOM     84  C   UNL A   1      44.913  24.339  36.434  1.00  0.00     0.200 A 
ATOM     85  F   UNL A   1      45.926  25.528  38.197  1.00  0.00    -0.200 F 
ATOM     86  F   UNL A   1      44.903  23.222  37.172  1.00  0.00    -0.200 F 
ENDBRANCH  62  76
BRANCH  63  87
ATOM     87  C   UNL A   1      41.866  24.977  27.155  1.00  0.00     0.064 A 
ATOM     88  C   UNL A   1      42.685  24.496  26.120  1.00  0.00     0.173 A 
ATOM     89  C   UNL A   1      40.818  24.130  27.566  1.00  0.00     0.173 A 
ATOM     90  F   UNL A   1      43.726  25.226  25.690  1.00  0.00    -0.203 F 
ATOM     91  C   UNL A   1      42.497  23.228  25.560  1.00  0.00     0.198 A 
ATOM     92  C   UNL A   1      40.626  22.868  27.001  1.00  0.00     0.198 A 
ATOM     93  F   UNL A   1      40.023  24.464  28.591  1.00  0.00    -0.203 F 
ATOM     94  F   UNL A   1      43.346  22.777  24.626  1.00  0.00    -0.200 F 
ATOM     95  C   UNL A   1      41.475  22.410  26.011  1.00  0.00     0.200 A 
ATOM     96  F   UNL A   1      39.653  22.071  27.469  1.00  0.00    -0.200 F 
ATOM     97  F   UNL A   1      41.338  21.167  25.526  1.00  0.00    -0.200 F 
ENDBRANCH  63  87
BRANCH  75  98
ATOM     98  C   UNL A   1      45.529  29.770  28.918  1.00  0.00     0.064 A 
ATOM     99  C   UNL A   1      44.477  30.632  28.560  1.00  0.00     0.173 A 
ATOM    100  C   UNL A   1      46.774  29.997  28.318  1.00  0.00     0.173 A 
ATOM    101  F   UNL A   1      43.285  30.558  29.165  1.00  0.00    -0.203 F 
ATOM    102  C   UNL A   1      44.651  31.634  27.606  1.00  0.00     0.198 A 
ATOM    103  C   UNL A   1      46.957  31.024  27.395  1.00  0.00     0.198 A 
ATOM    104  F   UNL A   1      47.832  29.246  28.659  1.00  0.00    -0.203 F 
ATOM    105  F   UNL A   1      43.623  32.427  27.269  1.00  0.00    -0.200 F 
ATOM    106  C   UNL A   1      45.893  31.832  27.029  1.00  0.00     0.200 A 
ATOM    107  F   UNL A   1      48.173  31.245  26.879  1.00  0.00    -0.200 F 
ATOM    108  F   UNL A   1      46.072  32.818  26.138  1.00  0.00    -0.200 F 
ENDBRANCH  75  98
ENDBRANCH  49  50
ENDBRANCH  41  44
ENDBRANCH  39  40
ENDBRANCH  38  39
ENDBRANCH  37  38
ENDBRANCH   1  37
TORSDOF 17
ENDMDL
