MODEL 1
REMARK VINA RESULT:     -11.7      0.000      0.000
REMARK SMILES O=C(CCc1ccc(S(=O)(=O)Nc2cccc(I)c2)cc1)NCCCCCCNC(=O)c1ccc(-c2c3nc(c(-c4c(F)c(F)c(F)c(F)c4F)c4ccc([nH]4)c(-c4c(F)c(F)c(F)c(F)c4F)c4nc(c(-c5c(F)c(F)c(F)c(F)c5F)c5ccc2[nH]5)C=C4)C=C3)cc1
REMARK SMILES IDX 24 1 23 2 22 3 1 4 2 5 3 7 4 8 5 9 6 10 21 11 7 12 20 13
REMARK SMILES IDX 8 14 9 15 10 16 11 17 12 18 13 20 14 21 19 22 15 23 17 24
REMARK SMILES IDX 16 25 18 26 25 27 26 28 27 29 28 30 29 31 30 32 31 34 32 35
REMARK SMILES IDX 33 36 94 37 34 38 93 39 35 40 36 41 37 42 87 43 38 44 92 45
REMARK SMILES IDX 86 46 88 47 39 48 91 49 85 50 84 51 40 53 72 54 52 55 71 56
REMARK SMILES IDX 53 57 56 58 70 59 89 60 54 61 55 62 69 64 90 65 57 66 41 67
REMARK SMILES IDX 42 68 50 69 43 70 44 71 48 72 51 73 45 74 46 75 49 76 47 77
REMARK SMILES IDX 73 78 74 79 82 80 75 81 76 82 80 83 83 84 77 85 78 86 81 87
REMARK SMILES IDX 79 88 58 89 59 90 67 91 60 92 61 93 65 94 68 95 62 96 63 97
REMARK SMILES IDX 66 98 64 99
REMARK H PARENT 22 6 12 19 29 33 88 52 56 63
REMARK Flexibility Score: inf
ROOT
ATOM      1  C   UNL A   1      34.923  32.254  28.921  1.00  0.00     0.021 C 
ENDROOT
BRANCH   1   2
ATOM      2  C   UNL A   1      34.160  31.903  27.644  1.00  0.00     0.116 C 
BRANCH   2   3
ATOM      3  N   UNL A   1      33.722  30.524  27.577  1.00  0.00    -0.356 N 
ATOM      4  O   UNL A   1      31.591  31.033  26.874  1.00  0.00    -0.275 OA
ATOM      5  C   UNL A   1      32.449  30.201  27.155  1.00  0.00     0.220 C 
ATOM      6  H   UNL A   1      34.343  29.807  27.838  1.00  0.00     0.163 HD
BRANCH   5   7
ATOM      7  C   UNL A   1      32.184  28.714  27.032  1.00  0.00     0.105 C 
BRANCH   7   8
ATOM      8  C   UNL A   1      33.408  27.972  26.483  1.00  0.00     0.045 C 
BRANCH   8   9
ATOM      9  C   UNL A   1      33.130  26.524  26.139  1.00  0.00    -0.047 A 
ATOM     10  C   UNL A   1      31.844  25.995  26.295  1.00  0.00     0.005 A 
ATOM     11  C   UNL A   1      34.162  25.687  25.689  1.00  0.00     0.005 A 
ATOM     12  C   UNL A   1      31.630  24.628  26.143  1.00  0.00     0.022 A 
ATOM     13  C   UNL A   1      33.935  24.322  25.474  1.00  0.00     0.022 A 
ATOM     14  C   UNL A   1      32.688  23.785  25.779  1.00  0.00     0.087 A 
BRANCH  14  15
ATOM     15  S   UNL A   1      32.359  22.047  25.853  1.00  0.00     0.261 S 
ATOM     16  O   UNL A   1      33.178  21.504  26.930  1.00  0.00    -0.201 OA
ATOM     17  O   UNL A   1      30.929  21.909  25.895  1.00  0.00    -0.201 OA
BRANCH  15  18
ATOM     18  N   UNL A   1      32.839  21.280  24.450  1.00  0.00    -0.280 N 
ATOM     19  H   UNL A   1      33.145  21.881  23.734  1.00  0.00     0.180 HD
BRANCH  18  20
ATOM     20  C   UNL A   1      32.877  19.889  24.127  1.00  0.00     0.050 A 
ATOM     21  C   UNL A   1      32.234  19.566  22.923  1.00  0.00     0.027 A 
ATOM     22  C   UNL A   1      33.627  18.905  24.766  1.00  0.00     0.041 A 
ATOM     23  C   UNL A   1      32.325  18.290  22.366  1.00  0.00     0.003 A 
ATOM     24  C   UNL A   1      33.724  17.624  24.201  1.00  0.00     0.015 A 
ATOM     25  C   UNL A   1      33.077  17.314  23.007  1.00  0.00     0.015 A 
ATOM     26  I   UNL A   1      34.885  16.147  25.096  1.00  0.00    -0.044 I 
ENDBRANCH  18  20
ENDBRANCH  15  18
ENDBRANCH  14  15
ENDBRANCH   8   9
ENDBRANCH   7   8
ENDBRANCH   5   7
ENDBRANCH   2   3
ENDBRANCH   1   2
BRANCH   1  27
ATOM     27  C   UNL A   1      34.728  33.678  29.452  1.00  0.00     0.002 C 
BRANCH  27  28
ATOM     28  C   UNL A   1      33.426  34.370  29.057  1.00  0.00     0.002 C 
BRANCH  28  29
ATOM     29  C   UNL A   1      33.500  35.879  28.821  1.00  0.00     0.021 C 
BRANCH  29  30
ATOM     30  C   UNL A   1      33.556  36.717  30.092  1.00  0.00     0.116 C 
BRANCH  30  31
ATOM     31  N   UNL A   1      32.471  36.416  31.018  1.00  0.00    -0.352 N 
ATOM     32  C   UNL A   1      32.445  35.614  32.134  1.00  0.00     0.251 C 
ATOM     33  H   UNL A   1      31.618  36.861  30.810  1.00  0.00     0.163 HD
ATOM     34  O   UNL A   1      31.381  35.408  32.713  1.00  0.00    -0.269 OA
BRANCH  32  35
ATOM     35  C   UNL A   1      33.677  34.952  32.627  1.00  0.00     0.039 A 
ATOM     36  C   UNL A   1      33.590  33.631  33.082  1.00  0.00     0.014 A 
ATOM     37  C   UNL A   1      34.906  35.611  32.658  1.00  0.00     0.014 A 
ATOM     38  C   UNL A   1      34.743  32.951  33.487  1.00  0.00     0.010 A 
ATOM     39  C   UNL A   1      36.066  34.907  32.973  1.00  0.00     0.010 A 
ATOM     40  C   UNL A   1      35.999  33.570  33.392  1.00  0.00    -0.014 A 
BRANCH  40  41
ATOM     41  C   UNL A   1      37.252  32.845  33.726  1.00  0.00     0.031 A 
ATOM     42  C   UNL A   1      37.979  33.143  35.009  1.00  0.00     0.074 A 
ATOM     43  C   UNL A   1      37.783  31.980  32.839  1.00  0.00     0.049 A 
ATOM     44  N   UNL A   1      39.139  32.703  35.428  1.00  0.00    -0.248 NA
ATOM     45  C   UNL A   1      37.333  34.093  35.929  1.00  0.00     0.031 C 
ATOM     46  C   UNL A   1      37.208  31.646  31.534  1.00  0.00     0.029 A 
ATOM     47  N   UNL A   1      38.933  31.232  32.894  1.00  0.00    -0.354 N 
ATOM     48  C   UNL A   1      39.373  33.346  36.637  1.00  0.00     0.074 A 
ATOM     49  C   UNL A   1      38.261  34.243  36.861  1.00  0.00     0.031 C 
ATOM     50  C   UNL A   1      37.993  30.744  30.925  1.00  0.00     0.029 A 
ATOM     51  C   UNL A   1      39.145  30.463  31.776  1.00  0.00     0.049 A 
ATOM     52  H   UNL A   1      39.549  31.246  33.662  1.00  0.00     0.167 HD
ATOM     53  C   UNL A   1      40.410  33.185  37.494  1.00  0.00     0.037 A 
ATOM     54  C   UNL A   1      40.157  29.628  31.470  1.00  0.00     0.037 A 
ATOM     55  C   UNL A   1      41.489  32.256  37.294  1.00  0.00     0.049 A 
ATOM     56  C   UNL A   1      41.278  29.441  32.455  1.00  0.00     0.074 A 
ATOM     57  C   UNL A   1      42.545  31.962  38.139  1.00  0.00     0.029 A 
ATOM     58  N   UNL A   1      41.645  31.461  36.167  1.00  0.00    -0.354 N 
ATOM     59  N   UNL A   1      41.456  30.008  33.624  1.00  0.00    -0.248 NA
ATOM     60  C   UNL A   1      42.338  28.495  32.081  1.00  0.00     0.031 C 
ATOM     61  C   UNL A   1      43.359  31.014  37.509  1.00  0.00     0.029 A 
ATOM     62  C   UNL A   1      42.787  30.686  36.290  1.00  0.00     0.049 A 
ATOM     63  H   UNL A   1      41.034  31.449  35.395  1.00  0.00     0.167 HD
ATOM     64  C   UNL A   1      42.628  29.469  34.135  1.00  0.00     0.074 A 
ATOM     65  C   UNL A   1      43.113  28.518  33.156  1.00  0.00     0.031 C 
ATOM     66  C   UNL A   1      43.249  29.738  35.310  1.00  0.00     0.037 A 
BRANCH  53  67
ATOM     67  C   UNL A   1      40.417  34.027  38.737  1.00  0.00     0.064 A 
ATOM     68  C   UNL A   1      39.782  33.605  39.916  1.00  0.00     0.173 A 
ATOM     69  C   UNL A   1      41.091  35.258  38.761  1.00  0.00     0.173 A 
ATOM     70  F   UNL A   1      39.114  32.441  39.943  1.00  0.00    -0.203 F 
ATOM     71  C   UNL A   1      39.792  34.398  41.060  1.00  0.00     0.198 A 
ATOM     72  C   UNL A   1      41.125  36.034  39.916  1.00  0.00     0.198 A 
ATOM     73  F   UNL A   1      41.720  35.706  37.665  1.00  0.00    -0.203 F 
ATOM     74  F   UNL A   1      39.133  33.998  42.156  1.00  0.00    -0.200 F 
ATOM     75  C   UNL A   1      40.468  35.609  41.062  1.00  0.00     0.200 A 
ATOM     76  F   UNL A   1      41.789  37.198  39.921  1.00  0.00    -0.200 F 
ATOM     77  F   UNL A   1      40.480  36.369  42.165  1.00  0.00    -0.200 F 
ENDBRANCH  53  67
BRANCH  54  78
ATOM     78  C   UNL A   1      40.139  28.880  30.187  1.00  0.00     0.064 A 
ATOM     79  C   UNL A   1      39.529  27.619  30.104  1.00  0.00     0.173 A 
ATOM     80  C   UNL A   1      40.723  29.402  29.024  1.00  0.00     0.173 A 
ATOM     81  F   UNL A   1      38.975  27.071  31.194  1.00  0.00    -0.203 F 
ATOM     82  C   UNL A   1      39.520  26.901  28.910  1.00  0.00     0.198 A 
ATOM     83  C   UNL A   1      40.690  28.694  27.824  1.00  0.00     0.198 A 
ATOM     84  F   UNL A   1      41.312  30.605  29.050  1.00  0.00    -0.203 F 
ATOM     85  F   UNL A   1      38.968  25.682  28.868  1.00  0.00    -0.200 F 
ATOM     86  C   UNL A   1      40.096  27.442  27.770  1.00  0.00     0.200 A 
ATOM     87  F   UNL A   1      41.234  29.225  26.720  1.00  0.00    -0.200 F 
ATOM     88  F   UNL A   1      40.083  26.753  26.620  1.00  0.00    -0.200 F 
ENDBRANCH  54  78
BRANCH  66  89
ATOM     89  C   UNL A   1      44.501  28.972  35.617  1.00  0.00     0.064 A 
ATOM     90  C   UNL A   1      44.464  27.749  36.303  1.00  0.00     0.173 A 
ATOM     91  C   UNL A   1      45.747  29.447  35.182  1.00  0.00     0.173 A 
ATOM     92  F   UNL A   1      43.297  27.263  36.752  1.00  0.00    -0.203 F 
ATOM     93  C   UNL A   1      45.634  27.040  36.561  1.00  0.00     0.198 A 
ATOM     94  C   UNL A   1      46.911  28.722  35.418  1.00  0.00     0.198 A 
ATOM     95  F   UNL A   1      45.833  30.608  34.517  1.00  0.00    -0.203 F 
ATOM     96  F   UNL A   1      45.581  25.895  37.255  1.00  0.00    -0.200 F 
ATOM     97  C   UNL A   1      46.855  27.522  36.112  1.00  0.00     0.200 A 
ATOM     98  F   UNL A   1      48.089  29.183  34.974  1.00  0.00    -0.200 F 
ATOM     99  F   UNL A   1      47.978  26.834  36.356  1.00  0.00    -0.200 F 
ENDBRANCH  66  89
ENDBRANCH  40  41
ENDBRANCH  32  35
ENDBRANCH  30  31
ENDBRANCH  29  30
ENDBRANCH  28  29
ENDBRANCH  27  28
ENDBRANCH   1  27
TORSDOF 18
ENDMDL
MODEL 2
REMARK VINA RESULT:     -11.4      4.449      6.464
REMARK SMILES O=C(CCc1ccc(S(=O)(=O)Nc2cccc(I)c2)cc1)NCCCCCCNC(=O)c1ccc(-c2c3nc(c(-c4c(F)c(F)c(F)c(F)c4F)c4ccc([nH]4)c(-c4c(F)c(F)c(F)c(F)c4F)c4nc(c(-c5c(F)c(F)c(F)c(F)c5F)c5ccc2[nH]5)C=C4)C=C3)cc1
REMARK SMILES IDX 24 1 23 2 22 3 1 4 2 5 3 7 4 8 5 9 6 10 21 11 7 12 20 13
REMARK SMILES IDX 8 14 9 15 10 16 11 17 12 18 13 20 14 21 19 22 15 23 17 24
REMARK SMILES IDX 16 25 18 26 25 27 26 28 27 29 28 30 29 31 30 32 31 34 32 35
REMARK SMILES IDX 33 36 94 37 34 38 93 39 35 40 36 41 37 42 87 43 38 44 92 45
REMARK SMILES IDX 86 46 88 47 39 48 91 49 85 50 84 51 40 53 72 54 52 55 71 56
REMARK SMILES IDX 53 57 56 58 70 59 89 60 54 61 55 62 69 64 90 65 57 66 41 67
REMARK SMILES IDX 42 68 50 69 43 70 44 71 48 72 51 73 45 74 46 75 49 76 47 77
REMARK SMILES IDX 73 78 74 79 82 80 75 81 76 82 80 83 83 84 77 85 78 86 81 87
REMARK SMILES IDX 79 88 58 89 59 90 67 91 60 92 61 93 65 94 68 95 62 96 63 97
REMARK SMILES IDX 66 98 64 99
REMARK H PARENT 22 6 12 19 29 33 88 52 56 63
REMARK Flexibility Score: inf
ROOT
ATOM      1  C   UNL A   1      30.636  29.779  23.531  1.00  0.00     0.021 C 
ENDROOT
BRANCH   1   2
ATOM      2  C   UNL A   1      29.933  28.615  22.833  1.00  0.00     0.116 C 
BRANCH   2   3
ATOM      3  N   UNL A   1      30.366  27.308  23.284  1.00  0.00    -0.356 N 
ATOM      4  O   UNL A   1      28.256  26.596  23.862  1.00  0.00    -0.275 OA
ATOM      5  C   UNL A   1      29.458  26.376  23.742  1.00  0.00     0.220 C 
ATOM      6  H   UNL A   1      31.323  27.082  23.263  1.00  0.00     0.163 HD
BRANCH   5   7
ATOM      7  C   UNL A   1      30.055  25.022  24.067  1.00  0.00     0.105 C 
BRANCH   7   8
ATOM      8  C   UNL A   1      30.970  25.095  25.295  1.00  0.00     0.045 C 
BRANCH   8   9
ATOM      9  C   UNL A   1      32.415  24.765  24.988  1.00  0.00    -0.047 A 
ATOM     10  C   UNL A   1      32.769  24.223  23.747  1.00  0.00     0.005 A 
ATOM     11  C   UNL A   1      33.414  24.969  25.953  1.00  0.00     0.005 A 
ATOM     12  C   UNL A   1      34.065  23.763  23.531  1.00  0.00     0.022 A 
ATOM     13  C   UNL A   1      34.733  24.565  25.715  1.00  0.00     0.022 A 
ATOM     14  C   UNL A   1      35.035  23.891  24.534  1.00  0.00     0.087 A 
BRANCH  14  15
ATOM     15  S   UNL A   1      36.569  23.058  24.243  1.00  0.00     0.261 S 
ATOM     16  O   UNL A   1      36.689  22.878  22.802  1.00  0.00    -0.201 OA
ATOM     17  O   UNL A   1      37.571  23.793  24.963  1.00  0.00    -0.201 OA
BRANCH  15  18
ATOM     18  N   UNL A   1      36.565  21.531  24.919  1.00  0.00    -0.280 N 
ATOM     19  H   UNL A   1      37.441  21.217  25.239  1.00  0.00     0.180 HD
BRANCH  18  20
ATOM     20  C   UNL A   1      35.490  20.609  25.106  1.00  0.00     0.050 A 
ATOM     21  C   UNL A   1      34.399  21.140  25.809  1.00  0.00     0.027 A 
ATOM     22  C   UNL A   1      35.352  19.357  24.510  1.00  0.00     0.041 A 
ATOM     23  C   UNL A   1      33.197  20.442  25.930  1.00  0.00     0.003 A 
ATOM     24  C   UNL A   1      34.139  18.659  24.624  1.00  0.00     0.015 A 
ATOM     25  C   UNL A   1      33.065  19.197  25.330  1.00  0.00     0.015 A 
ATOM     26  I   UNL A   1      33.877  16.816  23.697  1.00  0.00    -0.044 I 
ENDBRANCH  18  20
ENDBRANCH  15  18
ENDBRANCH  14  15
ENDBRANCH   8   9
ENDBRANCH   7   8
ENDBRANCH   5   7
ENDBRANCH   2   3
ENDBRANCH   1   2
BRANCH   1  27
ATOM     27  C   UNL A   1      31.262  29.469  24.895  1.00  0.00     0.002 C 
BRANCH  27  28
ATOM     28  C   UNL A   1      32.777  29.626  24.990  1.00  0.00     0.002 C 
BRANCH  28  29
ATOM     29  C   UNL A   1      33.546  28.458  25.610  1.00  0.00     0.021 C 
BRANCH  29  30
ATOM     30  C   UNL A   1      33.740  28.557  27.118  1.00  0.00     0.116 C 
BRANCH  30  31
ATOM     31  N   UNL A   1      33.703  29.931  27.606  1.00  0.00    -0.352 N 
ATOM     32  C   UNL A   1      34.654  30.669  28.270  1.00  0.00     0.251 C 
ATOM     33  H   UNL A   1      32.860  30.407  27.431  1.00  0.00     0.163 HD
ATOM     34  O   UNL A   1      34.371  31.786  28.696  1.00  0.00    -0.269 OA
BRANCH  32  35
ATOM     35  C   UNL A   1      36.008  30.120  28.523  1.00  0.00     0.039 A 
ATOM     36  C   UNL A   1      36.967  30.209  27.507  1.00  0.00     0.014 A 
ATOM     37  C   UNL A   1      36.343  29.514  29.734  1.00  0.00     0.014 A 
ATOM     38  C   UNL A   1      38.273  29.768  27.734  1.00  0.00     0.010 A 
ATOM     39  C   UNL A   1      37.666  29.159  29.992  1.00  0.00     0.010 A 
ATOM     40  C   UNL A   1      38.645  29.281  28.996  1.00  0.00    -0.014 A 
BRANCH  40  41
ATOM     41  C   UNL A   1      40.047  28.891  29.299  1.00  0.00     0.031 A 
ATOM     42  C   UNL A   1      40.945  29.827  30.062  1.00  0.00     0.074 A 
ATOM     43  C   UNL A   1      40.540  27.732  28.816  1.00  0.00     0.049 A 
ATOM     44  N   UNL A   1      42.223  29.721  30.326  1.00  0.00    -0.248 NA
ATOM     45  C   UNL A   1      40.332  31.068  30.562  1.00  0.00     0.031 C 
ATOM     46  C   UNL A   1      39.792  26.764  28.013  1.00  0.00     0.029 A 
ATOM     47  N   UNL A   1      41.793  27.179  28.919  1.00  0.00    -0.354 N 
ATOM     48  C   UNL A   1      42.570  30.890  30.991  1.00  0.00     0.074 A 
ATOM     49  C   UNL A   1      41.381  31.714  31.046  1.00  0.00     0.031 C 
ATOM     50  C   UNL A   1      40.591  25.726  27.717  1.00  0.00     0.029 A 
ATOM     51  C   UNL A   1      41.916  25.971  28.276  1.00  0.00     0.049 A 
ATOM     52  H   UNL A   1      42.533  27.608  29.406  1.00  0.00     0.167 HD
ATOM     53  C   UNL A   1      43.764  31.236  31.529  1.00  0.00     0.037 A 
ATOM     54  C   UNL A   1      42.981  25.156  28.149  1.00  0.00     0.037 A 
ATOM     55  C   UNL A   1      44.930  30.395  31.517  1.00  0.00     0.049 A 
ATOM     56  C   UNL A   1      44.286  25.547  28.785  1.00  0.00     0.074 A 
ATOM     57  C   UNL A   1      46.164  30.620  32.101  1.00  0.00     0.029 A 
ATOM     58  N   UNL A   1      45.002  29.157  30.894  1.00  0.00    -0.354 N 
ATOM     59  N   UNL A   1      44.584  26.627  29.466  1.00  0.00    -0.248 NA
ATOM     60  C   UNL A   1      45.403  24.603  28.640  1.00  0.00     0.031 C 
ATOM     61  C   UNL A   1      46.995  29.535  31.803  1.00  0.00     0.029 A 
ATOM     62  C   UNL A   1      46.265  28.613  31.069  1.00  0.00     0.049 A 
ATOM     63  H   UNL A   1      44.266  28.729  30.401  1.00  0.00     0.167 HD
ATOM     64  C   UNL A   1      45.909  26.482  29.852  1.00  0.00     0.074 A 
ATOM     65  C   UNL A   1      46.355  25.202  29.342  1.00  0.00     0.031 C 
ATOM     66  C   UNL A   1      46.688  27.333  30.563  1.00  0.00     0.037 A 
BRANCH  53  67
ATOM     67  C   UNL A   1      43.864  32.582  32.187  1.00  0.00     0.064 A 
ATOM     68  C   UNL A   1      43.556  32.761  33.545  1.00  0.00     0.173 A 
ATOM     69  C   UNL A   1      44.299  33.701  31.460  1.00  0.00     0.173 A 
ATOM     70  F   UNL A   1      43.124  31.726  34.282  1.00  0.00    -0.203 F 
ATOM     71  C   UNL A   1      43.648  34.016  34.141  1.00  0.00     0.198 A 
ATOM     72  C   UNL A   1      44.418  34.948  32.067  1.00  0.00     0.198 A 
ATOM     73  F   UNL A   1      44.612  33.584  30.161  1.00  0.00    -0.203 F 
ATOM     74  F   UNL A   1      43.296  34.173  35.425  1.00  0.00    -0.200 F 
ATOM     75  C   UNL A   1      44.084  35.107  33.405  1.00  0.00     0.200 A 
ATOM     76  F   UNL A   1      44.852  35.999  31.358  1.00  0.00    -0.200 F 
ATOM     77  F   UNL A   1      44.175  36.313  33.981  1.00  0.00    -0.200 F 
ENDBRANCH  53  67
BRANCH  54  78
ATOM     78  C   UNL A   1      42.846  23.871  27.416  1.00  0.00     0.064 A 
ATOM     79  C   UNL A   1      43.206  23.778  26.064  1.00  0.00     0.173 A 
ATOM     80  C   UNL A   1      42.361  22.715  28.044  1.00  0.00     0.173 A 
ATOM     81  F   UNL A   1      43.657  24.861  25.415  1.00  0.00    -0.203 F 
ATOM     82  C   UNL A   1      43.069  22.582  25.362  1.00  0.00     0.198 A 
ATOM     83  C   UNL A   1      42.249  21.513  27.348  1.00  0.00     0.198 A 
ATOM     84  F   UNL A   1      42.009  22.750  29.337  1.00  0.00    -0.203 F 
ATOM     85  F   UNL A   1      43.380  22.531  24.061  1.00  0.00    -0.200 F 
ATOM     86  C   UNL A   1      42.595  21.449  26.007  1.00  0.00     0.200 A 
ATOM     87  F   UNL A   1      41.805  20.416  27.977  1.00  0.00    -0.200 F 
ATOM     88  F   UNL A   1      42.468  20.297  25.334  1.00  0.00    -0.200 F 
ENDBRANCH  54  78
BRANCH  66  89
ATOM     89  C   UNL A   1      48.091  26.894  30.862  1.00  0.00     0.064 A 
ATOM     90  C   UNL A   1      48.381  26.050  31.943  1.00  0.00     0.173 A 
ATOM     91  C   UNL A   1      49.149  27.290  30.031  1.00  0.00     0.173 A 
ATOM     92  F   UNL A   1      47.404  25.658  32.775  1.00  0.00    -0.203 F 
ATOM     93  C   UNL A   1      49.686  25.634  32.194  1.00  0.00     0.198 A 
ATOM     94  C   UNL A   1      50.448  26.851  30.268  1.00  0.00     0.198 A 
ATOM     95  F   UNL A   1      48.921  28.093  28.981  1.00  0.00    -0.203 F 
ATOM     96  F   UNL A   1      49.948  24.862  33.257  1.00  0.00    -0.200 F 
ATOM     97  C   UNL A   1      50.717  26.029  31.353  1.00  0.00     0.200 A 
ATOM     98  F   UNL A   1      51.441  27.223  29.449  1.00  0.00    -0.200 F 
ATOM     99  F   UNL A   1      51.970  25.622  31.593  1.00  0.00    -0.200 F 
ENDBRANCH  66  89
ENDBRANCH  40  41
ENDBRANCH  32  35
ENDBRANCH  30  31
ENDBRANCH  29  30
ENDBRANCH  28  29
ENDBRANCH  27  28
ENDBRANCH   1  27
TORSDOF 18
ENDMDL
MODEL 3
REMARK VINA RESULT:     -11.4      2.251      3.547
REMARK SMILES O=C(CCc1ccc(S(=O)(=O)Nc2cccc(I)c2)cc1)NCCCCCCNC(=O)c1ccc(-c2c3nc(c(-c4c(F)c(F)c(F)c(F)c4F)c4ccc([nH]4)c(-c4c(F)c(F)c(F)c(F)c4F)c4nc(c(-c5c(F)c(F)c(F)c(F)c5F)c5ccc2[nH]5)C=C4)C=C3)cc1
REMARK SMILES IDX 24 1 23 2 22 3 1 4 2 5 3 7 4 8 5 9 6 10 21 11 7 12 20 13
REMARK SMILES IDX 8 14 9 15 10 16 11 17 12 18 13 20 14 21 19 22 15 23 17 24
REMARK SMILES IDX 16 25 18 26 25 27 26 28 27 29 28 30 29 31 30 32 31 34 32 35
REMARK SMILES IDX 33 36 94 37 34 38 93 39 35 40 36 41 37 42 87 43 38 44 92 45
REMARK SMILES IDX 86 46 88 47 39 48 91 49 85 50 84 51 40 53 72 54 52 55 71 56
REMARK SMILES IDX 53 57 56 58 70 59 89 60 54 61 55 62 69 64 90 65 57 66 41 67
REMARK SMILES IDX 42 68 50 69 43 70 44 71 48 72 51 73 45 74 46 75 49 76 47 77
REMARK SMILES IDX 73 78 74 79 82 80 75 81 76 82 80 83 83 84 77 85 78 86 81 87
REMARK SMILES IDX 79 88 58 89 59 90 67 91 60 92 61 93 65 94 68 95 62 96 63 97
REMARK SMILES IDX 66 98 64 99
REMARK H PARENT 22 6 12 19 29 33 88 52 56 63
REMARK Flexibility Score: inf
ROOT
ATOM      1  C   UNL A   1      28.936  32.302  23.505  1.00  0.00     0.021 C 
ENDROOT
BRANCH   1   2
ATOM      2  C   UNL A   1      28.121  31.353  22.627  1.00  0.00     0.116 C 
BRANCH   2   3
ATOM      3  N   UNL A   1      28.312  29.951  22.936  1.00  0.00    -0.356 N 
ATOM      4  O   UNL A   1      30.138  29.697  21.559  1.00  0.00    -0.275 OA
ATOM      5  C   UNL A   1      29.354  29.235  22.382  1.00  0.00     0.220 C 
ATOM      6  H   UNL A   1      27.689  29.502  23.550  1.00  0.00     0.163 HD
BRANCH   5   7
ATOM      7  C   UNL A   1      29.484  27.814  22.894  1.00  0.00     0.105 C 
BRANCH   7   8
ATOM      8  C   UNL A   1      30.869  27.234  22.586  1.00  0.00     0.045 C 
BRANCH   8   9
ATOM      9  C   UNL A   1      31.214  26.024  23.426  1.00  0.00    -0.047 A 
ATOM     10  C   UNL A   1      30.658  24.774  23.130  1.00  0.00     0.005 A 
ATOM     11  C   UNL A   1      32.073  26.143  24.530  1.00  0.00     0.005 A 
ATOM     12  C   UNL A   1      30.840  23.705  24.002  1.00  0.00     0.022 A 
ATOM     13  C   UNL A   1      32.310  25.051  25.374  1.00  0.00     0.022 A 
ATOM     14  C   UNL A   1      31.628  23.859  25.150  1.00  0.00     0.087 A 
BRANCH  14  15
ATOM     15  S   UNL A   1      31.591  22.516  26.304  1.00  0.00     0.261 S 
ATOM     16  O   UNL A   1      31.999  23.054  27.596  1.00  0.00    -0.201 OA
ATOM     17  O   UNL A   1      30.306  21.893  26.156  1.00  0.00    -0.201 OA
BRANCH  15  18
ATOM     18  N   UNL A   1      32.706  21.341  25.899  1.00  0.00    -0.280 N 
ATOM     19  H   UNL A   1      33.616  21.498  26.239  1.00  0.00     0.180 HD
BRANCH  18  20
ATOM     20  C   UNL A   1      32.546  20.142  25.138  1.00  0.00     0.050 A 
ATOM     21  C   UNL A   1      32.366  20.360  23.763  1.00  0.00     0.027 A 
ATOM     22  C   UNL A   1      32.742  18.838  25.586  1.00  0.00     0.041 A 
ATOM     23  C   UNL A   1      32.370  19.306  22.851  1.00  0.00     0.003 A 
ATOM     24  C   UNL A   1      32.754  17.779  24.665  1.00  0.00     0.015 A 
ATOM     25  C   UNL A   1      32.570  18.008  23.303  1.00  0.00     0.015 A 
ATOM     26  I   UNL A   1      33.104  15.826  25.290  1.00  0.00    -0.044 I 
ENDBRANCH  18  20
ENDBRANCH  15  18
ENDBRANCH  14  15
ENDBRANCH   8   9
ENDBRANCH   7   8
ENDBRANCH   5   7
ENDBRANCH   2   3
ENDBRANCH   1   2
BRANCH   1  27
ATOM     27  C   UNL A   1      29.691  31.658  24.672  1.00  0.00     0.002 C 
BRANCH  27  28
ATOM     28  C   UNL A   1      30.629  32.575  25.453  1.00  0.00     0.002 C 
BRANCH  28  29
ATOM     29  C   UNL A   1      31.301  31.972  26.687  1.00  0.00     0.021 C 
BRANCH  29  30
ATOM     30  C   UNL A   1      32.611  32.639  27.085  1.00  0.00     0.116 C 
BRANCH  30  31
ATOM     31  N   UNL A   1      32.433  34.011  27.544  1.00  0.00    -0.352 N 
ATOM     32  C   UNL A   1      33.096  34.722  28.516  1.00  0.00     0.251 C 
ATOM     33  H   UNL A   1      31.721  34.510  27.082  1.00  0.00     0.163 HD
ATOM     34  O   UNL A   1      32.705  35.844  28.826  1.00  0.00    -0.269 OA
BRANCH  32  35
ATOM     35  C   UNL A   1      34.254  34.136  29.234  1.00  0.00     0.039 A 
ATOM     36  C   UNL A   1      34.009  33.223  30.267  1.00  0.00     0.014 A 
ATOM     37  C   UNL A   1      35.569  34.477  28.915  1.00  0.00     0.014 A 
ATOM     38  C   UNL A   1      35.076  32.597  30.917  1.00  0.00     0.010 A 
ATOM     39  C   UNL A   1      36.629  33.786  29.498  1.00  0.00     0.010 A 
ATOM     40  C   UNL A   1      36.395  32.840  30.506  1.00  0.00    -0.014 A 
BRANCH  40  41
ATOM     41  C   UNL A   1      37.546  32.120  31.114  1.00  0.00     0.031 A 
ATOM     42  C   UNL A   1      38.030  32.495  32.488  1.00  0.00     0.074 A 
ATOM     43  C   UNL A   1      38.208  31.189  30.399  1.00  0.00     0.049 A 
ATOM     44  N   UNL A   1      39.081  32.069  33.144  1.00  0.00    -0.248 NA
ATOM     45  C   UNL A   1      37.251  33.515  33.208  1.00  0.00     0.031 C 
ATOM     46  C   UNL A   1      37.876  30.775  29.034  1.00  0.00     0.029 A 
ATOM     47  N   UNL A   1      39.308  30.431  30.716  1.00  0.00    -0.354 N 
ATOM     48  C   UNL A   1      39.105  32.789  34.331  1.00  0.00     0.074 A 
ATOM     49  C   UNL A   1      37.994  33.715  34.286  1.00  0.00     0.031 C 
ATOM     50  C   UNL A   1      38.736  29.823  28.641  1.00  0.00     0.029 A 
ATOM     51  C   UNL A   1      39.702  29.584  29.708  1.00  0.00     0.049 A 
ATOM     52  H   UNL A   1      39.771  30.489  31.583  1.00  0.00     0.167 HD
ATOM     53  C   UNL A   1      39.960  32.672  35.375  1.00  0.00     0.037 A 
ATOM     54  C   UNL A   1      40.731  28.716  29.651  1.00  0.00     0.037 A 
ATOM     55  C   UNL A   1      41.032  31.716  35.439  1.00  0.00     0.049 A 
ATOM     56  C   UNL A   1      41.645  28.581  30.837  1.00  0.00     0.074 A 
ATOM     57  C   UNL A   1      41.905  31.465  36.483  1.00  0.00     0.029 A 
ATOM     58  N   UNL A   1      41.372  30.844  34.415  1.00  0.00    -0.354 N 
ATOM     59  N   UNL A   1      41.618  29.223  31.980  1.00  0.00    -0.248 NA
ATOM     60  C   UNL A   1      42.730  27.596  30.729  1.00  0.00     0.031 C 
ATOM     61  C   UNL A   1      42.796  30.465  36.079  1.00  0.00     0.029 A 
ATOM     62  C   UNL A   1      42.451  30.063  34.798  1.00  0.00     0.049 A 
ATOM     63  H   UNL A   1      40.915  30.788  33.545  1.00  0.00     0.167 HD
ATOM     64  C   UNL A   1      42.661  28.703  32.735  1.00  0.00     0.074 A 
ATOM     65  C   UNL A   1      43.293  27.682  31.926  1.00  0.00     0.031 C 
ATOM     66  C   UNL A   1      43.060  29.044  33.984  1.00  0.00     0.037 A 
BRANCH  53  67
ATOM     67  C   UNL A   1      39.760  33.596  36.541  1.00  0.00     0.064 A 
ATOM     68  C   UNL A   1      40.405  34.841  36.611  1.00  0.00     0.173 A 
ATOM     69  C   UNL A   1      38.892  33.248  37.587  1.00  0.00     0.173 A 
ATOM     70  F   UNL A   1      41.254  35.218  35.643  1.00  0.00    -0.203 F 
ATOM     71  C   UNL A   1      40.215  35.687  37.701  1.00  0.00     0.198 A 
ATOM     72  C   UNL A   1      38.681  34.109  38.660  1.00  0.00     0.198 A 
ATOM     73  F   UNL A   1      38.246  32.073  37.567  1.00  0.00    -0.203 F 
ATOM     74  F   UNL A   1      40.883  36.846  37.771  1.00  0.00    -0.200 F 
ATOM     75  C   UNL A   1      39.349  35.324  38.721  1.00  0.00     0.200 A 
ATOM     76  F   UNL A   1      37.835  33.763  39.640  1.00  0.00    -0.200 F 
ATOM     77  F   UNL A   1      39.164  36.140  39.767  1.00  0.00    -0.200 F 
ENDBRANCH  53  67
BRANCH  54  78
ATOM     78  C   UNL A   1      40.930  27.882  28.438  1.00  0.00     0.064 A 
ATOM     79  C   UNL A   1      41.731  28.337  27.381  1.00  0.00     0.173 A 
ATOM     80  C   UNL A   1      40.330  26.621  28.308  1.00  0.00     0.173 A 
ATOM     81  F   UNL A   1      42.309  29.545  27.451  1.00  0.00    -0.203 F 
ATOM     82  C   UNL A   1      41.912  27.570  26.232  1.00  0.00     0.198 A 
ATOM     83  C   UNL A   1      40.533  25.844  27.169  1.00  0.00     0.198 A 
ATOM     84  F   UNL A   1      39.560  26.139  29.292  1.00  0.00    -0.203 F 
ATOM     85  F   UNL A   1      42.648  28.047  25.220  1.00  0.00    -0.200 F 
ATOM     86  C   UNL A   1      41.316  26.322  26.129  1.00  0.00     0.200 A 
ATOM     87  F   UNL A   1      39.969  24.632  27.078  1.00  0.00    -0.200 F 
ATOM     88  F   UNL A   1      41.494  25.582  25.026  1.00  0.00    -0.200 F 
ENDBRANCH  54  78
BRANCH  66  89
ATOM     89  C   UNL A   1      44.214  28.282  34.568  1.00  0.00     0.064 A 
ATOM     90  C   UNL A   1      45.532  28.744  34.451  1.00  0.00     0.173 A 
ATOM     91  C   UNL A   1      43.990  27.099  35.288  1.00  0.00     0.173 A 
ATOM     92  F   UNL A   1      45.797  29.862  33.758  1.00  0.00    -0.203 F 
ATOM     93  C   UNL A   1      46.589  28.036  35.016  1.00  0.00     0.198 A 
ATOM     94  C   UNL A   1      45.045  26.409  35.875  1.00  0.00     0.198 A 
ATOM     95  F   UNL A   1      42.745  26.620  35.432  1.00  0.00    -0.203 F 
ATOM     96  F   UNL A   1      47.846  28.472  34.857  1.00  0.00    -0.200 F 
ATOM     97  C   UNL A   1      46.345  26.873  35.734  1.00  0.00     0.200 A 
ATOM     98  F   UNL A   1      44.807  25.293  36.577  1.00  0.00    -0.200 F 
ATOM     99  F   UNL A   1      47.363  26.198  36.283  1.00  0.00    -0.200 F 
ENDBRANCH  66  89
ENDBRANCH  40  41
ENDBRANCH  32  35
ENDBRANCH  30  31
ENDBRANCH  29  30
ENDBRANCH  28  29
ENDBRANCH  27  28
ENDBRANCH   1  27
TORSDOF 18
ENDMDL
