MODEL 1
REMARK VINA RESULT:     -12.7      0.000      0.000
REMARK SMILES O=C(NCCCCCCNC(=O)c1cccc(F)c1N1CCN2C(=O)NC[C@@H]2C1)c1ccc(-c2c3nc(c(-c4c(F)c(F)c(F)c(F)c4F)c4ccc([nH]4)c(-c4c(F)c(F)c(F)c(F)c4F)c4nc(c(-c5c(F)c(F)c(F)c(F)c5F)c5ccc2[nH]5)C=C4)C=C3)cc1
REMARK SMILES IDX 6 1 5 2 4 3 3 4 1 5 2 6 30 8 31 9 92 10 32 11 91 12 33 13
REMARK SMILES IDX 34 14 35 15 85 16 36 17 90 18 84 19 86 20 37 21 89 22 83 23
REMARK SMILES IDX 82 24 38 26 70 27 50 28 69 29 51 30 54 31 68 32 87 33 52 34
REMARK SMILES IDX 53 35 67 37 88 38 55 39 39 40 40 41 48 42 41 43 42 44 46 45
REMARK SMILES IDX 49 46 43 47 44 48 47 49 45 50 71 51 72 52 80 53 73 54 74 55
REMARK SMILES IDX 78 56 81 57 75 58 76 59 79 60 77 61 56 62 57 63 65 64 58 65
REMARK SMILES IDX 59 66 63 67 66 68 60 69 61 70 64 71 62 72 7 73 8 74 9 75
REMARK SMILES IDX 10 76 11 77 12 79 13 80 14 81 19 82 15 83 17 84 16 85 18 86
REMARK SMILES IDX 20 87 21 88 29 89 22 90 28 91 23 92 27 93 24 94 26 95 25 96
REMARK H PARENT 3 7 86 25 54 36 10 78 26 97
REMARK Flexibility Score: inf
ROOT
ATOM      1  C   UNL A   1      31.399  30.813  25.797  1.00  0.00     0.002 C 
ENDROOT
BRANCH   1   2
ATOM      2  C   UNL A   1      31.265  32.155  26.515  1.00  0.00     0.021 C 
BRANCH   2   3
ATOM      3  C   UNL A   1      32.539  32.647  27.186  1.00  0.00     0.116 C 
BRANCH   3   4
ATOM      4  N   UNL A   1      32.439  34.031  27.622  1.00  0.00    -0.352 N 
ATOM      5  O   UNL A   1      32.822  35.810  28.959  1.00  0.00    -0.269 OA
ATOM      6  C   UNL A   1      33.151  34.686  28.595  1.00  0.00     0.251 C 
ATOM      7  H   UNL A   1      31.765  34.573  27.152  1.00  0.00     0.163 HD
BRANCH   6   8
ATOM      8  C   UNL A   1      34.312  34.019  29.220  1.00  0.00     0.039 A 
ATOM      9  C   UNL A   1      34.125  33.001  30.157  1.00  0.00     0.014 A 
ATOM     10  C   UNL A   1      35.602  34.415  28.858  1.00  0.00     0.014 A 
ATOM     11  C   UNL A   1      35.218  32.473  30.832  1.00  0.00     0.010 A 
ATOM     12  C   UNL A   1      36.706  33.816  29.470  1.00  0.00     0.010 A 
ATOM     13  C   UNL A   1      36.521  32.856  30.476  1.00  0.00    -0.014 A 
BRANCH  13  14
ATOM     14  C   UNL A   1      37.679  32.172  31.102  1.00  0.00     0.031 A 
ATOM     15  C   UNL A   1      38.424  31.084  30.386  1.00  0.00     0.074 A 
ATOM     16  C   UNL A   1      38.047  32.543  32.344  1.00  0.00     0.049 A 
ATOM     17  N   UNL A   1      39.436  30.366  30.807  1.00  0.00    -0.248 NA
ATOM     18  C   UNL A   1      37.974  30.749  29.028  1.00  0.00     0.031 C 
ATOM     19  C   UNL A   1      37.386  33.581  33.136  1.00  0.00     0.029 A 
ATOM     20  N   UNL A   1      39.058  32.098  33.156  1.00  0.00    -0.354 N 
ATOM     21  C   UNL A   1      39.729  29.483  29.778  1.00  0.00     0.074 A 
ATOM     22  C   UNL A   1      38.775  29.737  28.720  1.00  0.00     0.031 C 
ATOM     23  C   UNL A   1      38.027  33.719  34.304  1.00  0.00     0.029 A 
ATOM     24  C   UNL A   1      39.096  32.729  34.374  1.00  0.00     0.049 A 
ATOM     25  H   UNL A   1      39.695  31.395  32.890  1.00  0.00     0.167 HD
ATOM     26  C   UNL A   1      40.710  28.550  29.730  1.00  0.00     0.037 A 
ATOM     27  C   UNL A   1      39.881  32.517  35.447  1.00  0.00     0.037 A 
ATOM     28  C   UNL A   1      41.660  28.320  30.788  1.00  0.00     0.049 A 
ATOM     29  C   UNL A   1      40.935  31.454  35.381  1.00  0.00     0.074 A 
ATOM     30  C   UNL A   1      42.730  27.442  30.806  1.00  0.00     0.029 A 
ATOM     31  N   UNL A   1      41.647  28.957  32.022  1.00  0.00    -0.354 N 
ATOM     32  N   UNL A   1      41.236  30.656  34.386  1.00  0.00    -0.248 NA
ATOM     33  C   UNL A   1      41.755  31.253  36.582  1.00  0.00     0.031 C 
ATOM     34  C   UNL A   1      43.317  27.494  32.072  1.00  0.00     0.029 A 
ATOM     35  C   UNL A   1      42.664  28.458  32.822  1.00  0.00     0.049 A 
ATOM     36  H   UNL A   1      41.011  29.659  32.288  1.00  0.00     0.167 HD
ATOM     37  C   UNL A   1      42.288  29.869  34.831  1.00  0.00     0.074 A 
ATOM     38  C   UNL A   1      42.582  30.295  36.184  1.00  0.00     0.031 C 
ATOM     39  C   UNL A   1      42.947  28.886  34.172  1.00  0.00     0.037 A 
BRANCH  26  40
ATOM     40  C   UNL A   1      40.801  27.680  28.507  1.00  0.00     0.064 A 
ATOM     41  C   UNL A   1      41.584  28.081  27.412  1.00  0.00     0.173 A 
ATOM     42  C   UNL A   1      40.061  26.495  28.381  1.00  0.00     0.173 A 
ATOM     43  F   UNL A   1      42.305  29.211  27.474  1.00  0.00    -0.203 F 
ATOM     44  C   UNL A   1      41.612  27.337  26.236  1.00  0.00     0.198 A 
ATOM     45  C   UNL A   1      40.117  25.735  27.215  1.00  0.00     0.198 A 
ATOM     46  F   UNL A   1      39.301  26.061  29.398  1.00  0.00    -0.203 F 
ATOM     47  F   UNL A   1      42.340  27.760  25.193  1.00  0.00    -0.200 F 
ATOM     48  C   UNL A   1      40.884  26.161  26.140  1.00  0.00     0.200 A 
ATOM     49  F   UNL A   1      39.432  24.586  27.132  1.00  0.00    -0.200 F 
ATOM     50  F   UNL A   1      40.922  25.438  25.013  1.00  0.00    -0.200 F 
ENDBRANCH  26  40
BRANCH  27  51
ATOM     51  C   UNL A   1      39.672  33.348  36.659  1.00  0.00     0.064 A 
ATOM     52  C   UNL A   1      38.749  32.970  37.647  1.00  0.00     0.173 A 
ATOM     53  C   UNL A   1      40.315  34.583  36.804  1.00  0.00     0.173 A 
ATOM     54  F   UNL A   1      38.097  31.802  37.545  1.00  0.00    -0.203 F 
ATOM     55  C   UNL A   1      38.447  33.815  38.712  1.00  0.00     0.198 A 
ATOM     56  C   UNL A   1      40.036  35.415  37.887  1.00  0.00     0.198 A 
ATOM     57  F   UNL A   1      41.214  34.980  35.893  1.00  0.00    -0.203 F 
ATOM     58  F   UNL A   1      37.515  33.456  39.606  1.00  0.00    -0.200 F 
ATOM     59  C   UNL A   1      39.092  35.036  38.831  1.00  0.00     0.200 A 
ATOM     60  F   UNL A   1      40.670  36.588  38.009  1.00  0.00    -0.200 F 
ATOM     61  F   UNL A   1      38.797  35.853  39.852  1.00  0.00    -0.200 F 
ENDBRANCH  27  51
BRANCH  39  62
ATOM     62  C   UNL A   1      44.072  28.196  34.886  1.00  0.00     0.064 A 
ATOM     63  C   UNL A   1      43.828  27.036  35.638  1.00  0.00     0.173 A 
ATOM     64  C   UNL A   1      45.365  28.738  34.915  1.00  0.00     0.173 A 
ATOM     65  F   UNL A   1      42.607  26.481  35.647  1.00  0.00    -0.203 F 
ATOM     66  C   UNL A   1      44.829  26.462  36.417  1.00  0.00     0.198 A 
ATOM     67  C   UNL A   1      46.372  28.144  35.671  1.00  0.00     0.198 A 
ATOM     68  F   UNL A   1      45.652  29.837  34.202  1.00  0.00    -0.203 F 
ATOM     69  F   UNL A   1      44.558  25.385  37.166  1.00  0.00    -0.200 F 
ATOM     70  C   UNL A   1      46.099  27.016  36.433  1.00  0.00     0.200 A 
ATOM     71  F   UNL A   1      47.606  28.666  35.667  1.00  0.00    -0.200 F 
ATOM     72  F   UNL A   1      47.063  26.464  37.183  1.00  0.00    -0.200 F 
ENDBRANCH  39  62
ENDBRANCH  13  14
ENDBRANCH   6   8
ENDBRANCH   3   4
ENDBRANCH   2   3
ENDBRANCH   1   2
BRANCH   1  73
ATOM     73  C   UNL A   1      32.155  29.729  26.572  1.00  0.00     0.002 C 
BRANCH  73  74
ATOM     74  C   UNL A   1      33.331  29.083  25.831  1.00  0.00     0.021 C 
BRANCH  74  75
ATOM     75  C   UNL A   1      33.303  27.559  25.774  1.00  0.00     0.116 C 
BRANCH  75  76
ATOM     76  N   UNL A   1      33.734  27.043  24.489  1.00  0.00    -0.352 N 
ATOM     77  C   UNL A   1      33.038  26.951  23.307  1.00  0.00     0.253 C 
ATOM     78  H   UNL A   1      34.660  26.710  24.458  1.00  0.00     0.163 HD
ATOM     79  O   UNL A   1      33.589  26.483  22.316  1.00  0.00    -0.269 OA
BRANCH  77  80
ATOM     80  C   UNL A   1      31.643  27.446  23.250  1.00  0.00     0.066 A 
ATOM     81  C   UNL A   1      31.456  28.740  22.723  1.00  0.00     0.016 A 
ATOM     82  C   UNL A   1      30.551  26.633  23.624  1.00  0.00     0.086 A 
ATOM     83  C   UNL A   1      30.181  29.288  22.636  1.00  0.00     0.004 A 
ATOM     84  C   UNL A   1      29.278  27.226  23.506  1.00  0.00     0.147 A 
ATOM     85  C   UNL A   1      29.091  28.530  23.040  1.00  0.00     0.041 A 
ATOM     86  F   UNL A   1      28.185  26.539  23.877  1.00  0.00    -0.205 F 
BRANCH  82  87
ATOM     87  N   UNL A   1      30.697  25.328  24.064  1.00  0.00    -0.365 N 
ATOM     88  C   UNL A   1      30.534  24.196  23.126  1.00  0.00     0.138 C 
ATOM     89  C   UNL A   1      30.672  24.994  25.497  1.00  0.00     0.143 C 
ATOM     90  C   UNL A   1      31.499  23.029  23.459  1.00  0.00     0.143 C 
ATOM     91  C   UNL A   1      31.768  23.964  25.773  1.00  0.00     0.125 C 
ATOM     92  N   UNL A   1      31.660  22.818  24.887  1.00  0.00    -0.317 N 
ATOM     93  C   UNL A   1      31.763  23.313  27.149  1.00  0.00     0.144 C 
ATOM     94  C   UNL A   1      32.121  21.677  25.518  1.00  0.00     0.317 C 
ATOM     95  N   UNL A   1      32.247  21.983  26.869  1.00  0.00    -0.336 N 
ATOM     96  O   UNL A   1      32.379  20.597  25.014  1.00  0.00    -0.249 OA
ATOM     97  H   UNL A   1      32.617  21.371  27.546  1.00  0.00     0.165 HD
ENDBRANCH  82  87
ENDBRANCH  77  80
ENDBRANCH  75  76
ENDBRANCH  74  75
ENDBRANCH  73  74
ENDBRANCH   1  73
TORSDOF 14
ENDMDL
MODEL 2
REMARK VINA RESULT:     -12.7      5.361     10.857
REMARK SMILES O=C(NCCCCCCNC(=O)c1cccc(F)c1N1CCN2C(=O)NC[C@@H]2C1)c1ccc(-c2c3nc(c(-c4c(F)c(F)c(F)c(F)c4F)c4ccc([nH]4)c(-c4c(F)c(F)c(F)c(F)c4F)c4nc(c(-c5c(F)c(F)c(F)c(F)c5F)c5ccc2[nH]5)C=C4)C=C3)cc1
REMARK SMILES IDX 6 1 5 2 4 3 3 4 1 5 2 6 30 8 31 9 92 10 32 11 91 12 33 13
REMARK SMILES IDX 34 14 35 15 85 16 36 17 90 18 84 19 86 20 37 21 89 22 83 23
REMARK SMILES IDX 82 24 38 26 70 27 50 28 69 29 51 30 54 31 68 32 87 33 52 34
REMARK SMILES IDX 53 35 67 37 88 38 55 39 39 40 40 41 48 42 41 43 42 44 46 45
REMARK SMILES IDX 49 46 43 47 44 48 47 49 45 50 71 51 72 52 80 53 73 54 74 55
REMARK SMILES IDX 78 56 81 57 75 58 76 59 79 60 77 61 56 62 57 63 65 64 58 65
REMARK SMILES IDX 59 66 63 67 66 68 60 69 61 70 64 71 62 72 7 73 8 74 9 75
REMARK SMILES IDX 10 76 11 77 12 79 13 80 14 81 19 82 15 83 17 84 16 85 18 86
REMARK SMILES IDX 20 87 21 88 29 89 22 90 28 91 23 92 27 93 24 94 26 95 25 96
REMARK H PARENT 3 7 86 25 54 36 10 78 26 97
REMARK Flexibility Score: inf
ROOT
ATOM      1  C   UNL A   1      36.913  20.524  24.850  1.00  0.00     0.002 C 
ENDROOT
BRANCH   1   2
ATOM      2  C   UNL A   1      38.106  19.581  25.001  1.00  0.00     0.021 C 
BRANCH   2   3
ATOM      3  C   UNL A   1      39.218  20.102  25.900  1.00  0.00     0.116 C 
BRANCH   3   4
ATOM      4  N   UNL A   1      40.346  19.188  25.973  1.00  0.00    -0.352 N 
ATOM      5  O   UNL A   1      42.523  18.589  25.985  1.00  0.00    -0.269 OA
ATOM      6  C   UNL A   1      41.682  19.471  26.116  1.00  0.00     0.251 C 
ATOM      7  H   UNL A   1      40.120  18.232  25.913  1.00  0.00     0.163 HD
BRANCH   6   8
ATOM      8  C   UNL A   1      42.105  20.856  26.410  1.00  0.00     0.039 A 
ATOM      9  C   UNL A   1      42.269  21.781  25.376  1.00  0.00     0.014 A 
ATOM     10  C   UNL A   1      42.334  21.232  27.735  1.00  0.00     0.014 A 
ATOM     11  C   UNL A   1      42.790  23.039  25.651  1.00  0.00     0.010 A 
ATOM     12  C   UNL A   1      42.769  22.529  28.020  1.00  0.00     0.010 A 
ATOM     13  C   UNL A   1      43.021  23.435  26.979  1.00  0.00    -0.014 A 
BRANCH  13  14
ATOM     14  C   UNL A   1      43.434  24.831  27.262  1.00  0.00     0.031 A 
ATOM     15  C   UNL A   1      42.469  25.832  27.824  1.00  0.00     0.074 A 
ATOM     16  C   UNL A   1      44.704  25.189  26.992  1.00  0.00     0.049 A 
ATOM     17  N   UNL A   1      42.664  27.098  28.098  1.00  0.00    -0.248 NA
ATOM     18  C   UNL A   1      41.106  25.360  28.109  1.00  0.00     0.031 C 
ATOM     19  C   UNL A   1      45.723  24.299  26.434  1.00  0.00     0.029 A 
ATOM     20  N   UNL A   1      45.357  26.385  27.150  1.00  0.00    -0.354 N 
ATOM     21  C   UNL A   1      41.449  27.578  28.565  1.00  0.00     0.074 A 
ATOM     22  C   UNL A   1      40.514  26.475  28.517  1.00  0.00     0.031 C 
ATOM     23  C   UNL A   1      46.879  24.966  26.327  1.00  0.00     0.029 A 
ATOM     24  C   UNL A   1      46.665  26.349  26.738  1.00  0.00     0.049 A 
ATOM     25  H   UNL A   1      44.928  27.190  27.522  1.00  0.00     0.167 HD
ATOM     26  C   UNL A   1      41.152  28.828  28.995  1.00  0.00     0.037 A 
ATOM     27  C   UNL A   1      47.588  27.327  26.665  1.00  0.00     0.037 A 
ATOM     28  C   UNL A   1      42.100  29.911  29.049  1.00  0.00     0.049 A 
ATOM     29  C   UNL A   1      47.223  28.710  27.113  1.00  0.00     0.074 A 
ATOM     30  C   UNL A   1      41.911  31.195  29.530  1.00  0.00     0.029 A 
ATOM     31  N   UNL A   1      43.410  29.846  28.592  1.00  0.00    -0.354 N 
ATOM     32  N   UNL A   1      46.086  29.142  27.598  1.00  0.00    -0.248 NA
ATOM     33  C   UNL A   1      48.261  29.742  27.001  1.00  0.00     0.031 C 
ATOM     34  C   UNL A   1      43.078  31.926  29.297  1.00  0.00     0.029 A 
ATOM     35  C   UNL A   1      44.024  31.080  28.741  1.00  0.00     0.049 A 
ATOM     36  H   UNL A   1      43.838  29.043  28.219  1.00  0.00     0.167 HD
ATOM     37  C   UNL A   1      46.271  30.491  27.864  1.00  0.00     0.074 A 
ATOM     38  C   UNL A   1      47.638  30.802  27.498  1.00  0.00     0.031 C 
ATOM     39  C   UNL A   1      45.386  31.383  28.368  1.00  0.00     0.037 A 
BRANCH  26  40
ATOM     40  C   UNL A   1      39.739  29.113  29.421  1.00  0.00     0.064 A 
ATOM     41  C   UNL A   1      39.352  28.923  30.758  1.00  0.00     0.173 A 
ATOM     42  C   UNL A   1      38.750  29.499  28.504  1.00  0.00     0.173 A 
ATOM     43  F   UNL A   1      40.254  28.545  31.675  1.00  0.00    -0.203 F 
ATOM     44  C   UNL A   1      38.028  29.094  31.156  1.00  0.00     0.198 A 
ATOM     45  C   UNL A   1      37.433  29.702  28.912  1.00  0.00     0.198 A 
ATOM     46  F   UNL A   1      39.064  29.702  27.216  1.00  0.00    -0.203 F 
ATOM     47  F   UNL A   1      37.679  28.871  32.430  1.00  0.00    -0.200 F 
ATOM     48  C   UNL A   1      37.071  29.490  30.234  1.00  0.00     0.200 A 
ATOM     49  F   UNL A   1      36.514  30.109  28.026  1.00  0.00    -0.200 F 
ATOM     50  F   UNL A   1      35.801  29.669  30.621  1.00  0.00    -0.200 F 
ENDBRANCH  26  40
BRANCH  27  51
ATOM     51  C   UNL A   1      48.938  26.996  26.142  1.00  0.00     0.064 A 
ATOM     52  C   UNL A   1      49.245  27.146  24.780  1.00  0.00     0.173 A 
ATOM     53  C   UNL A   1      49.912  26.430  26.973  1.00  0.00     0.173 A 
ATOM     54  F   UNL A   1      48.339  27.671  23.942  1.00  0.00    -0.203 F 
ATOM     55  C   UNL A   1      50.460  26.704  24.263  1.00  0.00     0.198 A 
ATOM     56  C   UNL A   1      51.140  26.016  26.460  1.00  0.00     0.198 A 
ATOM     57  F   UNL A   1      49.669  26.278  28.283  1.00  0.00    -0.203 F 
ATOM     58  F   UNL A   1      50.701  26.802  22.948  1.00  0.00    -0.200 F 
ATOM     59  C   UNL A   1      51.406  26.140  25.104  1.00  0.00     0.200 A 
ATOM     60  F   UNL A   1      52.060  25.486  27.276  1.00  0.00    -0.200 F 
ATOM     61  F   UNL A   1      52.573  25.709  24.605  1.00  0.00    -0.200 F 
ENDBRANCH  27  51
BRANCH  39  62
ATOM     62  C   UNL A   1      45.855  32.794  28.577  1.00  0.00     0.064 A 
ATOM     63  C   UNL A   1      46.384  33.188  29.816  1.00  0.00     0.173 A 
ATOM     64  C   UNL A   1      45.684  33.777  27.593  1.00  0.00     0.173 A 
ATOM     65  F   UNL A   1      46.561  32.286  30.793  1.00  0.00    -0.203 F 
ATOM     66  C   UNL A   1      46.695  34.520  30.072  1.00  0.00     0.198 A 
ATOM     67  C   UNL A   1      46.026  35.104  27.842  1.00  0.00     0.198 A 
ATOM     68  F   UNL A   1      45.197  33.448  26.387  1.00  0.00    -0.203 F 
ATOM     69  F   UNL A   1      47.150  34.880  31.280  1.00  0.00    -0.200 F 
ATOM     70  C   UNL A   1      46.516  35.477  29.085  1.00  0.00     0.200 A 
ATOM     71  F   UNL A   1      45.876  36.024  26.879  1.00  0.00    -0.200 F 
ATOM     72  F   UNL A   1      46.815  36.759  29.332  1.00  0.00    -0.200 F 
ENDBRANCH  39  62
ENDBRANCH  13  14
ENDBRANCH   6   8
ENDBRANCH   3   4
ENDBRANCH   2   3
ENDBRANCH   1   2
BRANCH   1  73
ATOM     73  C   UNL A   1      37.263  22.012  24.750  1.00  0.00     0.002 C 
BRANCH  73  74
ATOM     74  C   UNL A   1      36.554  22.928  25.753  1.00  0.00     0.021 C 
BRANCH  74  75
ATOM     75  C   UNL A   1      35.509  23.862  25.152  1.00  0.00     0.116 C 
BRANCH  75  76
ATOM     76  N   UNL A   1      34.369  24.057  26.028  1.00  0.00    -0.352 N 
ATOM     77  C   UNL A   1      33.219  23.310  26.144  1.00  0.00     0.253 C 
ATOM     78  H   UNL A   1      34.425  24.837  26.625  1.00  0.00     0.163 HD
ATOM     79  O   UNL A   1      32.365  23.641  26.959  1.00  0.00    -0.269 OA
BRANCH  77  80
ATOM     80  C   UNL A   1      33.053  22.105  25.301  1.00  0.00     0.066 A 
ATOM     81  C   UNL A   1      33.402  20.872  25.889  1.00  0.00     0.016 A 
ATOM     82  C   UNL A   1      32.493  22.176  24.007  1.00  0.00     0.086 A 
ATOM     83  C   UNL A   1      33.283  19.688  25.170  1.00  0.00     0.004 A 
ATOM     84  C   UNL A   1      32.379  20.950  23.321  1.00  0.00     0.147 A 
ATOM     85  C   UNL A   1      32.779  19.731  23.877  1.00  0.00     0.041 A 
ATOM     86  F   UNL A   1      31.894  20.928  22.068  1.00  0.00    -0.205 F 
BRANCH  82  87
ATOM     87  N   UNL A   1      32.061  23.361  23.435  1.00  0.00    -0.365 N 
ATOM     88  C   UNL A   1      30.622  23.701  23.409  1.00  0.00     0.138 C 
ATOM     89  C   UNL A   1      32.931  24.147  22.546  1.00  0.00     0.143 C 
ATOM     90  C   UNL A   1      30.387  25.225  23.577  1.00  0.00     0.143 C 
ATOM     91  C   UNL A   1      32.769  25.627  22.894  1.00  0.00     0.125 C 
ATOM     92  N   UNL A   1      31.374  26.029  22.877  1.00  0.00    -0.317 N 
ATOM     93  C   UNL A   1      33.407  26.626  21.940  1.00  0.00     0.144 C 
ATOM     94  C   UNL A   1      31.260  27.356  22.507  1.00  0.00     0.317 C 
ATOM     95  N   UNL A   1      32.497  27.744  22.000  1.00  0.00    -0.336 N 
ATOM     96  O   UNL A   1      30.280  28.076  22.598  1.00  0.00    -0.249 OA
ATOM     97  H   UNL A   1      32.720  28.660  21.720  1.00  0.00     0.165 HD
ENDBRANCH  82  87
ENDBRANCH  77  80
ENDBRANCH  75  76
ENDBRANCH  74  75
ENDBRANCH  73  74
ENDBRANCH   1  73
TORSDOF 14
ENDMDL
MODEL 3
REMARK VINA RESULT:     -12.6      0.319      1.599
REMARK SMILES O=C(NCCCCCCNC(=O)c1cccc(F)c1N1CCN2C(=O)NC[C@@H]2C1)c1ccc(-c2c3nc(c(-c4c(F)c(F)c(F)c(F)c4F)c4ccc([nH]4)c(-c4c(F)c(F)c(F)c(F)c4F)c4nc(c(-c5c(F)c(F)c(F)c(F)c5F)c5ccc2[nH]5)C=C4)C=C3)cc1
REMARK SMILES IDX 6 1 5 2 4 3 3 4 1 5 2 6 30 8 31 9 92 10 32 11 91 12 33 13
REMARK SMILES IDX 34 14 35 15 85 16 36 17 90 18 84 19 86 20 37 21 89 22 83 23
REMARK SMILES IDX 82 24 38 26 70 27 50 28 69 29 51 30 54 31 68 32 87 33 52 34
REMARK SMILES IDX 53 35 67 37 88 38 55 39 39 40 40 41 48 42 41 43 42 44 46 45
REMARK SMILES IDX 49 46 43 47 44 48 47 49 45 50 71 51 72 52 80 53 73 54 74 55
REMARK SMILES IDX 78 56 81 57 75 58 76 59 79 60 77 61 56 62 57 63 65 64 58 65
REMARK SMILES IDX 59 66 63 67 66 68 60 69 61 70 64 71 62 72 7 73 8 74 9 75
REMARK SMILES IDX 10 76 11 77 12 79 13 80 14 81 19 82 15 83 17 84 16 85 18 86
REMARK SMILES IDX 20 87 21 88 29 89 22 90 28 91 23 92 27 93 24 94 26 95 25 96
REMARK H PARENT 3 7 86 25 54 36 10 78 26 97
REMARK Flexibility Score: inf
ROOT
ATOM      1  C   UNL A   1      31.408  30.779  25.800  1.00  0.00     0.002 C 
ENDROOT
BRANCH   1   2
ATOM      2  C   UNL A   1      31.304  32.134  26.499  1.00  0.00     0.021 C 
BRANCH   2   3
ATOM      3  C   UNL A   1      32.576  32.586  27.201  1.00  0.00     0.116 C 
BRANCH   3   4
ATOM      4  N   UNL A   1      32.525  33.984  27.597  1.00  0.00    -0.352 N 
ATOM      5  O   UNL A   1      32.989  35.790  28.871  1.00  0.00    -0.269 OA
ATOM      6  C   UNL A   1      33.278  34.647  28.533  1.00  0.00     0.251 C 
ATOM      7  H   UNL A   1      31.856  34.532  27.127  1.00  0.00     0.163 HD
BRANCH   6   8
ATOM      8  C   UNL A   1      34.435  33.965  29.152  1.00  0.00     0.039 A 
ATOM      9  C   UNL A   1      34.240  32.916  30.053  1.00  0.00     0.014 A 
ATOM     10  C   UNL A   1      35.727  34.380  28.820  1.00  0.00     0.014 A 
ATOM     11  C   UNL A   1      35.328  32.372  30.724  1.00  0.00     0.010 A 
ATOM     12  C   UNL A   1      36.826  33.766  29.427  1.00  0.00     0.010 A 
ATOM     13  C   UNL A   1      36.633  32.773  30.399  1.00  0.00    -0.014 A 
BRANCH  13  14
ATOM     14  C   UNL A   1      37.786  32.074  31.017  1.00  0.00     0.031 A 
ATOM     15  C   UNL A   1      38.555  31.024  30.271  1.00  0.00     0.074 A 
ATOM     16  C   UNL A   1      38.127  32.397  32.279  1.00  0.00     0.049 A 
ATOM     17  N   UNL A   1      39.566  30.299  30.680  1.00  0.00    -0.248 NA
ATOM     18  C   UNL A   1      38.134  30.741  28.892  1.00  0.00     0.031 C 
ATOM     19  C   UNL A   1      37.442  33.395  33.101  1.00  0.00     0.029 A 
ATOM     20  N   UNL A   1      39.128  31.928  33.091  1.00  0.00    -0.354 N 
ATOM     21  C   UNL A   1      39.887  29.462  29.622  1.00  0.00     0.074 A 
ATOM     22  C   UNL A   1      38.950  29.750  28.557  1.00  0.00     0.031 C 
ATOM     23  C   UNL A   1      38.060  33.490  34.286  1.00  0.00     0.029 A 
ATOM     24  C   UNL A   1      39.138  32.508  34.335  1.00  0.00     0.049 A 
ATOM     25  H   UNL A   1      39.777  31.243  32.809  1.00  0.00     0.167 HD
ATOM     26  C   UNL A   1      40.878  28.541  29.552  1.00  0.00     0.037 A 
ATOM     27  C   UNL A   1      39.905  32.259  35.413  1.00  0.00     0.037 A 
ATOM     28  C   UNL A   1      41.811  28.276  30.618  1.00  0.00     0.049 A 
ATOM     29  C   UNL A   1      40.971  31.209  35.323  1.00  0.00     0.074 A 
ATOM     30  C   UNL A   1      42.890  27.409  30.619  1.00  0.00     0.029 A 
ATOM     31  N   UNL A   1      41.769  28.861  31.877  1.00  0.00    -0.354 N 
ATOM     32  N   UNL A   1      41.298  30.457  34.301  1.00  0.00    -0.248 NA
ATOM     33  C   UNL A   1      41.771  30.967  36.529  1.00  0.00     0.031 C 
ATOM     34  C   UNL A   1      43.453  27.413  31.897  1.00  0.00     0.029 A 
ATOM     35  C   UNL A   1      42.776  28.340  32.674  1.00  0.00     0.049 A 
ATOM     36  H   UNL A   1      41.121  29.545  32.160  1.00  0.00     0.167 HD
ATOM     37  C   UNL A   1      42.349  29.661  34.732  1.00  0.00     0.074 A 
ATOM     38  C   UNL A   1      42.615  30.034  36.107  1.00  0.00     0.031 C 
ATOM     39  C   UNL A   1      43.030  28.713  34.046  1.00  0.00     0.037 A 
BRANCH  26  40
ATOM     40  C   UNL A   1      41.000  27.724  28.297  1.00  0.00     0.064 A 
ATOM     41  C   UNL A   1      40.310  26.506  28.177  1.00  0.00     0.173 A 
ATOM     42  C   UNL A   1      41.850  28.099  27.246  1.00  0.00     0.173 A 
ATOM     43  F   UNL A   1      39.491  26.094  29.155  1.00  0.00    -0.203 F 
ATOM     44  C   UNL A   1      40.479  25.690  27.061  1.00  0.00     0.198 A 
ATOM     45  C   UNL A   1      41.991  27.296  26.116  1.00  0.00     0.198 A 
ATOM     46  F   UNL A   1      42.528  29.255  27.304  1.00  0.00    -0.203 F 
ATOM     47  F   UNL A   1      39.837  24.516  26.988  1.00  0.00    -0.200 F 
ATOM     48  C   UNL A   1      41.314  26.088  26.028  1.00  0.00     0.200 A 
ATOM     49  F   UNL A   1      42.780  27.694  25.108  1.00  0.00    -0.200 F 
ATOM     50  F   UNL A   1      41.464  25.310  24.949  1.00  0.00    -0.200 F 
ENDBRANCH  26  40
BRANCH  27  51
ATOM     51  C   UNL A   1      39.665  33.037  36.654  1.00  0.00     0.064 A 
ATOM     52  C   UNL A   1      38.655  32.670  37.556  1.00  0.00     0.173 A 
ATOM     53  C   UNL A   1      40.373  34.218  36.911  1.00  0.00     0.173 A 
ATOM     54  F   UNL A   1      37.940  31.554  37.346  1.00  0.00    -0.203 F 
ATOM     55  C   UNL A   1      38.334  33.475  38.646  1.00  0.00     0.198 A 
ATOM     56  C   UNL A   1      40.072  35.007  38.019  1.00  0.00     0.198 A 
ATOM     57  F   UNL A   1      41.356  34.602  36.084  1.00  0.00    -0.203 F 
ATOM     58  F   UNL A   1      37.322  33.133  39.455  1.00  0.00    -0.200 F 
ATOM     59  C   UNL A   1      39.044  34.643  38.876  1.00  0.00     0.200 A 
ATOM     60  F   UNL A   1      40.769  36.128  38.249  1.00  0.00    -0.200 F 
ATOM     61  F   UNL A   1      38.731  35.423  39.921  1.00  0.00    -0.200 F 
ENDBRANCH  27  51
BRANCH  39  62
ATOM     62  C   UNL A   1      44.150  28.005  34.752  1.00  0.00     0.064 A 
ATOM     63  C   UNL A   1      45.461  28.501  34.675  1.00  0.00     0.173 A 
ATOM     64  C   UNL A   1      43.946  26.785  35.412  1.00  0.00     0.173 A 
ATOM     65  F   UNL A   1      45.709  29.661  34.050  1.00  0.00    -0.203 F 
ATOM     66  C   UNL A   1      46.530  27.786  35.206  1.00  0.00     0.198 A 
ATOM     67  C   UNL A   1      45.014  26.088  35.969  1.00  0.00     0.198 A 
ATOM     68  F   UNL A   1      42.710  26.277  35.525  1.00  0.00    -0.203 F 
ATOM     69  F   UNL A   1      47.779  28.254  35.075  1.00  0.00    -0.200 F 
ATOM     70  C   UNL A   1      46.306  26.580  35.852  1.00  0.00     0.200 A 
ATOM     71  F   UNL A   1      44.794  24.934  36.615  1.00  0.00    -0.200 F 
ATOM     72  F   UNL A   1      47.336  25.891  36.363  1.00  0.00    -0.200 F 
ENDBRANCH  39  62
ENDBRANCH  13  14
ENDBRANCH   6   8
ENDBRANCH   3   4
ENDBRANCH   2   3
ENDBRANCH   1   2
BRANCH   1  73
ATOM     73  C   UNL A   1      32.121  29.683  26.598  1.00  0.00     0.002 C 
BRANCH  73  74
ATOM     74  C   UNL A   1      33.326  29.037  25.906  1.00  0.00     0.021 C 
BRANCH  74  75
ATOM     75  C   UNL A   1      33.266  27.518  25.784  1.00  0.00     0.116 C 
BRANCH  75  76
ATOM     76  N   UNL A   1      33.694  27.048  24.480  1.00  0.00    -0.352 N 
ATOM     77  C   UNL A   1      32.981  26.955  23.308  1.00  0.00     0.253 C 
ATOM     78  H   UNL A   1      34.632  26.752  24.427  1.00  0.00     0.163 HD
ATOM     79  O   UNL A   1      33.533  26.531  22.298  1.00  0.00    -0.269 OA
BRANCH  77  80
ATOM     80  C   UNL A   1      31.568  27.396  23.285  1.00  0.00     0.066 A 
ATOM     81  C   UNL A   1      31.319  28.685  22.772  1.00  0.00     0.016 A 
ATOM     82  C   UNL A   1      30.517  26.539  23.678  1.00  0.00     0.086 A 
ATOM     83  C   UNL A   1      30.023  29.184  22.716  1.00  0.00     0.004 A 
ATOM     84  C   UNL A   1      29.219  27.083  23.592  1.00  0.00     0.147 A 
ATOM     85  C   UNL A   1      28.971  28.382  23.139  1.00  0.00     0.041 A 
ATOM     86  F   UNL A   1      28.162  26.352  23.983  1.00  0.00    -0.205 F 
BRANCH  82  87
ATOM     87  N   UNL A   1      30.723  25.238  24.106  1.00  0.00    -0.365 N 
ATOM     88  C   UNL A   1      30.634  24.111  23.152  1.00  0.00     0.138 C 
ATOM     89  C   UNL A   1      30.691  24.886  25.534  1.00  0.00     0.143 C 
ATOM     90  C   UNL A   1      31.653  22.991  23.489  1.00  0.00     0.143 C 
ATOM     91  C   UNL A   1      31.834  23.910  25.818  1.00  0.00     0.125 C 
ATOM     92  N   UNL A   1      31.800  22.771  24.917  1.00  0.00    -0.317 N 
ATOM     93  C   UNL A   1      31.839  23.243  27.186  1.00  0.00     0.144 C 
ATOM     94  C   UNL A   1      32.308  21.648  25.543  1.00  0.00     0.317 C 
ATOM     95  N   UNL A   1      32.395  21.943  26.900  1.00  0.00    -0.336 N 
ATOM     96  O   UNL A   1      32.631  20.589  25.032  1.00  0.00    -0.249 OA
ATOM     97  H   UNL A   1      32.785  21.344  27.576  1.00  0.00     0.165 HD
ENDBRANCH  82  87
ENDBRANCH  77  80
ENDBRANCH  75  76
ENDBRANCH  74  75
ENDBRANCH  73  74
ENDBRANCH   1  73
TORSDOF 14
ENDMDL
