MODEL 1
REMARK VINA RESULT:     -13.4      0.000      0.000
REMARK SMILES O=C(NCCCCCCNC(=O)c1cc(-c2ccc(C(F)(F)F)cc2)cc([N+](=O)[O-])c1)c1ccc(-c2c3nc(c(-c4c(F)c(F)c(F)c(F)c4F)c4ccc([nH]4)c(-c4c(F)c(F)c(F)c(F)c4F)c4nc(c(-c5c(F)c(F)c(F)c(F)c5F)c5ccc2[nH]5)C=C4)C=C3)cc1
REMARK SMILES IDX 6 1 5 2 4 3 3 4 1 5 2 6 32 8 33 9 94 10 34 11 93 12 35 13
REMARK SMILES IDX 36 14 37 15 87 16 38 17 92 18 86 19 88 20 39 21 91 22 85 23
REMARK SMILES IDX 84 24 40 26 72 27 52 28 71 29 53 30 56 31 70 32 89 33 54 34
REMARK SMILES IDX 55 35 69 37 90 38 57 39 41 40 42 41 50 42 43 43 44 44 48 45
REMARK SMILES IDX 51 46 45 47 46 48 49 49 47 50 73 51 74 52 82 53 75 54 76 55
REMARK SMILES IDX 80 56 83 57 77 58 78 59 81 60 79 61 58 62 59 63 67 64 60 65
REMARK SMILES IDX 61 66 65 67 68 68 62 69 63 70 66 71 64 72 7 73 8 74 9 75
REMARK SMILES IDX 10 76 11 77 12 79 13 80 14 81 31 82 15 83 27 84 26 85 16 86
REMARK SMILES IDX 17 87 25 88 18 89 24 90 19 91 20 92 21 93 22 94 23 95 28 96
REMARK SMILES IDX 29 97 30 98
REMARK H PARENT 3 7 88 25 56 36 10 78
REMARK Flexibility Score: inf
ROOT
ATOM      1  C   UNL A   1      31.599  28.435  24.106  1.00  0.00     0.002 C 
ENDROOT
BRANCH   1   2
ATOM      2  C   UNL A   1      31.632  28.940  25.548  1.00  0.00     0.021 C 
BRANCH   2   3
ATOM      3  C   UNL A   1      32.872  29.735  25.935  1.00  0.00     0.116 C 
BRANCH   3   4
ATOM      4  N   UNL A   1      32.571  31.093  26.363  1.00  0.00    -0.352 N 
ATOM      5  O   UNL A   1      32.793  32.988  27.571  1.00  0.00    -0.269 OA
ATOM      6  C   UNL A   1      33.260  31.903  27.232  1.00  0.00     0.251 C 
ATOM      7  H   UNL A   1      31.758  31.487  25.972  1.00  0.00     0.163 HD
BRANCH   6   8
ATOM      8  C   UNL A   1      34.553  31.452  27.794  1.00  0.00     0.039 A 
ATOM      9  C   UNL A   1      34.742  30.126  28.186  1.00  0.00     0.014 A 
ATOM     10  C   UNL A   1      35.587  32.382  27.947  1.00  0.00     0.014 A 
ATOM     11  C   UNL A   1      35.893  29.770  28.880  1.00  0.00     0.010 A 
ATOM     12  C   UNL A   1      36.781  31.999  28.566  1.00  0.00     0.010 A 
ATOM     13  C   UNL A   1      36.926  30.701  29.080  1.00  0.00    -0.014 A 
BRANCH  13  14
ATOM     14  C   UNL A   1      38.148  30.284  29.816  1.00  0.00     0.031 A 
ATOM     15  C   UNL A   1      38.383  30.716  31.239  1.00  0.00     0.074 A 
ATOM     16  C   UNL A   1      39.031  29.471  29.207  1.00  0.00     0.049 A 
ATOM     17  N   UNL A   1      39.367  30.403  32.046  1.00  0.00    -0.248 NA
ATOM     18  C   UNL A   1      37.391  31.625  31.833  1.00  0.00     0.031 C 
ATOM     19  C   UNL A   1      38.922  28.997  27.826  1.00  0.00     0.029 A 
ATOM     20  N   UNL A   1      40.178  28.880  29.671  1.00  0.00    -0.354 N 
ATOM     21  C   UNL A   1      39.128  31.093  33.227  1.00  0.00     0.074 A 
ATOM     22  C   UNL A   1      37.917  31.861  33.028  1.00  0.00     0.031 C 
ATOM     23  C   UNL A   1      39.927  28.146  27.573  1.00  0.00     0.029 A 
ATOM     24  C   UNL A   1      40.779  28.055  28.753  1.00  0.00     0.049 A 
ATOM     25  H   UNL A   1      40.535  29.032  30.576  1.00  0.00     0.167 HD
ATOM     26  C   UNL A   1      39.847  31.079  34.376  1.00  0.00     0.037 A 
ATOM     27  C   UNL A   1      41.895  27.310  28.849  1.00  0.00     0.037 A 
ATOM     28  C   UNL A   1      41.034  30.289  34.583  1.00  0.00     0.049 A 
ATOM     29  C   UNL A   1      42.668  27.309  30.136  1.00  0.00     0.074 A 
ATOM     30  C   UNL A   1      41.807  30.174  35.726  1.00  0.00     0.029 A 
ATOM     31  N   UNL A   1      41.622  29.479  33.622  1.00  0.00    -0.354 N 
ATOM     32  N   UNL A   1      42.407  27.933  31.258  1.00  0.00    -0.248 NA
ATOM     33  C   UNL A   1      43.891  26.496  30.169  1.00  0.00     0.031 C 
ATOM     34  C   UNL A   1      42.884  29.327  35.445  1.00  0.00     0.029 A 
ATOM     35  C   UNL A   1      42.757  28.875  34.142  1.00  0.00     0.049 A 
ATOM     36  H   UNL A   1      41.283  29.351  32.708  1.00  0.00     0.167 HD
ATOM     37  C   UNL A   1      43.417  27.571  32.139  1.00  0.00     0.074 A 
ATOM     38  C   UNL A   1      44.286  26.659  31.425  1.00  0.00     0.031 C 
ATOM     39  C   UNL A   1      43.606  27.961  33.423  1.00  0.00     0.037 A 
BRANCH  26  40
ATOM     40  C   UNL A   1      39.382  31.959  35.501  1.00  0.00     0.064 A 
ATOM     41  C   UNL A   1      39.768  33.304  35.596  1.00  0.00     0.173 A 
ATOM     42  C   UNL A   1      38.498  31.460  36.471  1.00  0.00     0.173 A 
ATOM     43  F   UNL A   1      40.621  33.826  34.700  1.00  0.00    -0.203 F 
ATOM     44  C   UNL A   1      39.308  34.110  36.635  1.00  0.00     0.198 A 
ATOM     45  C   UNL A   1      38.018  32.276  37.493  1.00  0.00     0.198 A 
ATOM     46  F   UNL A   1      38.091  30.184  36.423  1.00  0.00    -0.203 F 
ATOM     47  F   UNL A   1      39.725  35.380  36.730  1.00  0.00    -0.200 F 
ATOM     48  C   UNL A   1      38.429  33.598  37.577  1.00  0.00     0.200 A 
ATOM     49  F   UNL A   1      37.160  31.784  38.395  1.00  0.00    -0.200 F 
ATOM     50  F   UNL A   1      37.982  34.378  38.572  1.00  0.00    -0.200 F 
ENDBRANCH  26  40
BRANCH  27  51
ATOM     51  C   UNL A   1      42.331  26.484  27.694  1.00  0.00     0.064 A 
ATOM     52  C   UNL A   1      43.302  26.954  26.799  1.00  0.00     0.173 A 
ATOM     53  C   UNL A   1      41.797  25.207  27.469  1.00  0.00     0.173 A 
ATOM     54  F   UNL A   1      43.828  28.176  26.963  1.00  0.00    -0.203 F 
ATOM     55  C   UNL A   1      43.711  26.183  25.713  1.00  0.00     0.198 A 
ATOM     56  C   UNL A   1      42.226  24.426  26.399  1.00  0.00     0.198 A 
ATOM     57  F   UNL A   1      40.869  24.711  28.301  1.00  0.00    -0.203 F 
ATOM     58  F   UNL A   1      44.612  26.672  24.851  1.00  0.00    -0.200 F 
ATOM     59  C   UNL A   1      43.178  24.917  25.519  1.00  0.00     0.200 A 
ATOM     60  F   UNL A   1      41.721  23.198  26.225  1.00  0.00    -0.200 F 
ATOM     61  F   UNL A   1      43.578  24.173  24.479  1.00  0.00    -0.200 F 
ENDBRANCH  27  51
BRANCH  39  62
ATOM     62  C   UNL A   1      44.776  27.367  34.150  1.00  0.00     0.064 A 
ATOM     63  C   UNL A   1      46.028  28.000  34.172  1.00  0.00     0.173 A 
ATOM     64  C   UNL A   1      44.637  26.157  34.847  1.00  0.00     0.173 A 
ATOM     65  F   UNL A   1      46.216  29.149  33.506  1.00  0.00    -0.203 F 
ATOM     66  C   UNL A   1      47.106  27.425  34.840  1.00  0.00     0.198 A 
ATOM     67  C   UNL A   1      45.710  25.601  35.538  1.00  0.00     0.198 A 
ATOM     68  F   UNL A   1      43.459  25.516  34.860  1.00  0.00    -0.203 F 
ATOM     69  F   UNL A   1      48.307  28.019  34.804  1.00  0.00    -0.200 F 
ATOM     70  C   UNL A   1      46.945  26.231  35.527  1.00  0.00     0.200 A 
ATOM     71  F   UNL A   1      45.550  24.452  36.208  1.00  0.00    -0.200 F 
ATOM     72  F   UNL A   1      47.985  25.680  36.169  1.00  0.00    -0.200 F 
ENDBRANCH  39  62
ENDBRANCH  13  14
ENDBRANCH   6   8
ENDBRANCH   3   4
ENDBRANCH   2   3
ENDBRANCH   1   2
BRANCH   1  73
ATOM     73  C   UNL A   1      30.297  28.689  23.342  1.00  0.00     0.002 C 
BRANCH  73  74
ATOM     74  C   UNL A   1      29.057  27.954  23.861  1.00  0.00     0.021 C 
BRANCH  74  75
ATOM     75  C   UNL A   1      29.143  26.430  23.854  1.00  0.00     0.116 C 
BRANCH  75  76
ATOM     76  N   UNL A   1      29.518  25.896  25.149  1.00  0.00    -0.352 N 
ATOM     77  C   UNL A   1      30.385  24.883  25.463  1.00  0.00     0.251 C 
ATOM     78  H   UNL A   1      29.082  26.325  25.922  1.00  0.00     0.163 HD
ATOM     79  O   UNL A   1      30.448  24.459  26.614  1.00  0.00    -0.269 OA
BRANCH  77  80
ATOM     80  C   UNL A   1      31.250  24.286  24.423  1.00  0.00     0.047 A 
ATOM     81  C   UNL A   1      31.527  22.914  24.495  1.00  0.00     0.023 A 
ATOM     82  C   UNL A   1      31.854  25.076  23.443  1.00  0.00     0.099 A 
ATOM     83  C   UNL A   1      32.388  22.303  23.568  1.00  0.00    -0.011 A 
ATOM     84  C   UNL A   1      32.675  24.468  22.491  1.00  0.00     0.270 A 
ATOM     85  C   UNL A   1      32.940  23.091  22.545  1.00  0.00     0.094 A 
BRANCH  83  86
ATOM     86  C   UNL A   1      32.759  20.890  23.709  1.00  0.00    -0.018 A 
ATOM     87  C   UNL A   1      33.743  20.469  24.614  1.00  0.00     0.009 A 
ATOM     88  C   UNL A   1      32.144  19.922  22.897  1.00  0.00     0.009 A 
ATOM     89  C   UNL A   1      34.105  19.120  24.701  1.00  0.00     0.014 A 
ATOM     90  C   UNL A   1      32.505  18.576  22.980  1.00  0.00     0.014 A 
ATOM     91  C   UNL A   1      33.492  18.159  23.881  1.00  0.00     0.056 A 
BRANCH  91  92
ATOM     92  C   UNL A   1      33.905  16.710  23.967  1.00  0.00     0.416 C 
ATOM     93  F   UNL A   1      34.892  16.503  24.882  1.00  0.00    -0.166 F 
ATOM     94  F   UNL A   1      32.876  15.897  24.335  1.00  0.00    -0.166 F 
ATOM     95  F   UNL A   1      34.374  16.207  22.792  1.00  0.00    -0.166 F 
ENDBRANCH  91  92
ENDBRANCH  83  86
BRANCH  84  96
ATOM     96  N   UNL A   1      33.273  25.284  21.427  1.00  0.00     0.062 N 
ATOM     97  O   UNL A   1      33.980  26.243  21.764  1.00  0.00    -0.258 OA
ATOM     98  O   UNL A   1      33.043  24.952  20.256  1.00  0.00    -0.258 OA
ENDBRANCH  84  96
ENDBRANCH  77  80
ENDBRANCH  75  76
ENDBRANCH  74  75
ENDBRANCH  73  74
ENDBRANCH   1  73
TORSDOF 16
ENDMDL
MODEL 2
REMARK VINA RESULT:     -13.4      0.167      2.004
REMARK SMILES O=C(NCCCCCCNC(=O)c1cc(-c2ccc(C(F)(F)F)cc2)cc([N+](=O)[O-])c1)c1ccc(-c2c3nc(c(-c4c(F)c(F)c(F)c(F)c4F)c4ccc([nH]4)c(-c4c(F)c(F)c(F)c(F)c4F)c4nc(c(-c5c(F)c(F)c(F)c(F)c5F)c5ccc2[nH]5)C=C4)C=C3)cc1
REMARK SMILES IDX 6 1 5 2 4 3 3 4 1 5 2 6 32 8 33 9 94 10 34 11 93 12 35 13
REMARK SMILES IDX 36 14 37 15 87 16 38 17 92 18 86 19 88 20 39 21 91 22 85 23
REMARK SMILES IDX 84 24 40 26 72 27 52 28 71 29 53 30 56 31 70 32 89 33 54 34
REMARK SMILES IDX 55 35 69 37 90 38 57 39 41 40 42 41 50 42 43 43 44 44 48 45
REMARK SMILES IDX 51 46 45 47 46 48 49 49 47 50 73 51 74 52 82 53 75 54 76 55
REMARK SMILES IDX 80 56 83 57 77 58 78 59 81 60 79 61 58 62 59 63 67 64 60 65
REMARK SMILES IDX 61 66 65 67 68 68 62 69 63 70 66 71 64 72 7 73 8 74 9 75
REMARK SMILES IDX 10 76 11 77 12 79 13 80 14 81 31 82 15 83 27 84 26 85 16 86
REMARK SMILES IDX 17 87 25 88 18 89 24 90 19 91 20 92 21 93 22 94 23 95 28 96
REMARK SMILES IDX 29 97 30 98
REMARK H PARENT 3 7 88 25 56 36 10 78
REMARK Flexibility Score: inf
ROOT
ATOM      1  C   UNL A   1      31.643  28.370  24.019  1.00  0.00     0.002 C 
ENDROOT
BRANCH   1   2
ATOM      2  C   UNL A   1      31.496  28.977  25.414  1.00  0.00     0.021 C 
BRANCH   2   3
ATOM      3  C   UNL A   1      32.716  29.727  25.933  1.00  0.00     0.116 C 
BRANCH   3   4
ATOM      4  N   UNL A   1      32.419  31.092  26.340  1.00  0.00    -0.352 N 
ATOM      5  O   UNL A   1      32.646  33.005  27.520  1.00  0.00    -0.269 OA
ATOM      6  C   UNL A   1      33.110  31.913  27.197  1.00  0.00     0.251 C 
ATOM      7  H   UNL A   1      31.607  31.482  25.944  1.00  0.00     0.163 HD
BRANCH   6   8
ATOM      8  C   UNL A   1      34.402  31.468  27.766  1.00  0.00     0.039 A 
ATOM      9  C   UNL A   1      34.589  30.146  28.173  1.00  0.00     0.014 A 
ATOM     10  C   UNL A   1      35.437  32.398  27.910  1.00  0.00     0.014 A 
ATOM     11  C   UNL A   1      35.740  29.796  28.872  1.00  0.00     0.010 A 
ATOM     12  C   UNL A   1      36.629  32.021  28.535  1.00  0.00     0.010 A 
ATOM     13  C   UNL A   1      36.772  30.729  29.063  1.00  0.00    -0.014 A 
BRANCH  13  14
ATOM     14  C   UNL A   1      37.993  30.320  29.806  1.00  0.00     0.031 A 
ATOM     15  C   UNL A   1      38.213  30.743  31.234  1.00  0.00     0.074 A 
ATOM     16  C   UNL A   1      38.890  29.520  29.197  1.00  0.00     0.049 A 
ATOM     17  N   UNL A   1      39.194  30.434  32.045  1.00  0.00    -0.248 NA
ATOM     18  C   UNL A   1      37.207  31.637  31.827  1.00  0.00     0.031 C 
ATOM     19  C   UNL A   1      38.796  29.056  27.812  1.00  0.00     0.029 A 
ATOM     20  N   UNL A   1      40.039  28.938  29.666  1.00  0.00    -0.354 N 
ATOM     21  C   UNL A   1      38.939  31.112  33.230  1.00  0.00     0.074 A 
ATOM     22  C   UNL A   1      37.721  31.869  33.027  1.00  0.00     0.031 C 
ATOM     23  C   UNL A   1      39.811  28.217  27.560  1.00  0.00     0.029 A 
ATOM     24  C   UNL A   1      40.656  28.126  28.746  1.00  0.00     0.049 A 
ATOM     25  H   UNL A   1      40.387  29.087  30.574  1.00  0.00     0.167 HD
ATOM     26  C   UNL A   1      39.649  31.096  34.384  1.00  0.00     0.037 A 
ATOM     27  C   UNL A   1      41.779  27.392  28.844  1.00  0.00     0.037 A 
ATOM     28  C   UNL A   1      40.843  30.318  34.595  1.00  0.00     0.049 A 
ATOM     29  C   UNL A   1      42.541  27.389  30.138  1.00  0.00     0.074 A 
ATOM     30  C   UNL A   1      41.608  30.202  35.743  1.00  0.00     0.029 A 
ATOM     31  N   UNL A   1      41.447  29.521  33.632  1.00  0.00    -0.354 N 
ATOM     32  N   UNL A   1      42.265  28.001  31.263  1.00  0.00    -0.248 NA
ATOM     33  C   UNL A   1      43.773  26.588  30.174  1.00  0.00     0.031 C 
ATOM     34  C   UNL A   1      42.696  29.368  35.464  1.00  0.00     0.029 A 
ATOM     35  C   UNL A   1      42.584  28.925  34.156  1.00  0.00     0.049 A 
ATOM     36  H   UNL A   1      41.116  29.397  32.714  1.00  0.00     0.167 HD
ATOM     37  C   UNL A   1      43.272  27.643  32.148  1.00  0.00     0.074 A 
ATOM     38  C   UNL A   1      44.157  26.746  31.434  1.00  0.00     0.031 C 
ATOM     39  C   UNL A   1      43.447  28.025  33.437  1.00  0.00     0.037 A 
BRANCH  26  40
ATOM     40  C   UNL A   1      39.166  31.963  35.513  1.00  0.00     0.064 A 
ATOM     41  C   UNL A   1      38.356  31.457  36.539  1.00  0.00     0.173 A 
ATOM     42  C   UNL A   1      39.561  33.308  35.591  1.00  0.00     0.173 A 
ATOM     43  F   UNL A   1      37.941  30.181  36.505  1.00  0.00    -0.203 F 
ATOM     44  C   UNL A   1      37.936  32.271  37.588  1.00  0.00     0.198 A 
ATOM     45  C   UNL A   1      39.163  34.112  36.656  1.00  0.00     0.198 A 
ATOM     46  F   UNL A   1      40.343  33.840  34.640  1.00  0.00    -0.203 F 
ATOM     47  F   UNL A   1      37.127  31.777  38.535  1.00  0.00    -0.200 F 
ATOM     48  C   UNL A   1      38.346  33.595  37.650  1.00  0.00     0.200 A 
ATOM     49  F   UNL A   1      39.569  35.387  36.721  1.00  0.00    -0.200 F 
ATOM     50  F   UNL A   1      37.948  34.374  38.665  1.00  0.00    -0.200 F 
ENDBRANCH  26  40
BRANCH  27  51
ATOM     51  C   UNL A   1      42.232  26.579  27.687  1.00  0.00     0.064 A 
ATOM     52  C   UNL A   1      41.718  25.294  27.465  1.00  0.00     0.173 A 
ATOM     53  C   UNL A   1      43.175  27.073  26.774  1.00  0.00     0.173 A 
ATOM     54  F   UNL A   1      40.827  24.772  28.321  1.00  0.00    -0.203 F 
ATOM     55  C   UNL A   1      42.142  24.528  26.382  1.00  0.00     0.198 A 
ATOM     56  C   UNL A   1      43.578  26.318  25.676  1.00  0.00     0.198 A 
ATOM     57  F   UNL A   1      43.692  28.300  26.940  1.00  0.00    -0.203 F 
ATOM     58  F   UNL A   1      41.664  23.288  26.215  1.00  0.00    -0.200 F 
ATOM     59  C   UNL A   1      43.066  25.043  25.485  1.00  0.00     0.200 A 
ATOM     60  F   UNL A   1      44.457  26.826  24.803  1.00  0.00    -0.200 F 
ATOM     61  F   UNL A   1      43.467  24.309  24.438  1.00  0.00    -0.200 F 
ENDBRANCH  27  51
BRANCH  39  62
ATOM     62  C   UNL A   1      44.619  27.438  34.168  1.00  0.00     0.064 A 
ATOM     63  C   UNL A   1      44.520  26.223  34.862  1.00  0.00     0.173 A 
ATOM     64  C   UNL A   1      45.859  28.093  34.160  1.00  0.00     0.173 A 
ATOM     65  F   UNL A   1      43.350  25.568  34.915  1.00  0.00    -0.203 F 
ATOM     66  C   UNL A   1      45.615  25.702  35.548  1.00  0.00     0.198 A 
ATOM     67  C   UNL A   1      46.958  27.554  34.821  1.00  0.00     0.198 A 
ATOM     68  F   UNL A   1      46.006  29.255  33.506  1.00  0.00    -0.203 F 
ATOM     69  F   UNL A   1      45.484  24.567  36.249  1.00  0.00    -0.200 F 
ATOM     70  C   UNL A   1      46.833  26.363  35.521  1.00  0.00     0.200 A 
ATOM     71  F   UNL A   1      48.137  28.189  34.788  1.00  0.00    -0.200 F 
ATOM     72  F   UNL A   1      47.885  25.860  36.182  1.00  0.00    -0.200 F 
ENDBRANCH  39  62
ENDBRANCH  13  14
ENDBRANCH   6   8
ENDBRANCH   3   4
ENDBRANCH   2   3
ENDBRANCH   1   2
BRANCH   1  73
ATOM     73  C   UNL A   1      30.398  28.430  23.132  1.00  0.00     0.002 C 
BRANCH  73  74
ATOM     74  C   UNL A   1      29.105  27.885  23.747  1.00  0.00     0.021 C 
BRANCH  74  75
ATOM     75  C   UNL A   1      29.021  26.365  23.864  1.00  0.00     0.116 C 
BRANCH  75  76
ATOM     76  N   UNL A   1      29.466  25.889  25.160  1.00  0.00    -0.352 N 
ATOM     77  C   UNL A   1      30.397  24.935  25.470  1.00  0.00     0.251 C 
ATOM     78  H   UNL A   1      29.032  26.316  25.934  1.00  0.00     0.163 HD
ATOM     79  O   UNL A   1      30.520  24.547  26.630  1.00  0.00    -0.269 OA
BRANCH  77  80
ATOM     80  C   UNL A   1      31.260  24.356  24.419  1.00  0.00     0.047 A 
ATOM     81  C   UNL A   1      31.529  22.981  24.460  1.00  0.00     0.023 A 
ATOM     82  C   UNL A   1      31.869  25.164  23.457  1.00  0.00     0.099 A 
ATOM     83  C   UNL A   1      32.387  22.386  23.521  1.00  0.00    -0.011 A 
ATOM     84  C   UNL A   1      32.688  24.572  22.492  1.00  0.00     0.270 A 
ATOM     85  C   UNL A   1      32.945  23.193  22.516  1.00  0.00     0.094 A 
BRANCH  83  86
ATOM     86  C   UNL A   1      32.750  20.968  23.630  1.00  0.00    -0.018 A 
ATOM     87  C   UNL A   1      32.147  19.985  22.832  1.00  0.00     0.009 A 
ATOM     88  C   UNL A   1      33.703  20.561  24.578  1.00  0.00     0.009 A 
ATOM     89  C   UNL A   1      32.484  18.635  22.982  1.00  0.00     0.014 A 
ATOM     90  C   UNL A   1      34.039  19.215  24.733  1.00  0.00     0.014 A 
ATOM     91  C   UNL A   1      33.431  18.236  23.939  1.00  0.00     0.056 A 
BRANCH  91  92
ATOM     92  C   UNL A   1      33.773  16.775  24.108  1.00  0.00     0.416 C 
ATOM     93  F   UNL A   1      32.744  16.059  24.640  1.00  0.00    -0.166 F 
ATOM     94  F   UNL A   1      34.079  16.171  22.927  1.00  0.00    -0.166 F 
ATOM     95  F   UNL A   1      34.840  16.557  24.925  1.00  0.00    -0.166 F 
ENDBRANCH  91  92
ENDBRANCH  83  86
BRANCH  84  96
ATOM     96  N   UNL A   1      33.292  25.408  21.448  1.00  0.00     0.062 N 
ATOM     97  O   UNL A   1      34.037  26.330  21.805  1.00  0.00    -0.258 OA
ATOM     98  O   UNL A   1      33.028  25.129  20.270  1.00  0.00    -0.258 OA
ENDBRANCH  84  96
ENDBRANCH  77  80
ENDBRANCH  75  76
ENDBRANCH  74  75
ENDBRANCH  73  74
ENDBRANCH   1  73
TORSDOF 16
ENDMDL
MODEL 3
REMARK VINA RESULT:     -13.3      5.406     10.446
REMARK SMILES O=C(NCCCCCCNC(=O)c1cc(-c2ccc(C(F)(F)F)cc2)cc([N+](=O)[O-])c1)c1ccc(-c2c3nc(c(-c4c(F)c(F)c(F)c(F)c4F)c4ccc([nH]4)c(-c4c(F)c(F)c(F)c(F)c4F)c4nc(c(-c5c(F)c(F)c(F)c(F)c5F)c5ccc2[nH]5)C=C4)C=C3)cc1
REMARK SMILES IDX 6 1 5 2 4 3 3 4 1 5 2 6 32 8 33 9 94 10 34 11 93 12 35 13
REMARK SMILES IDX 36 14 37 15 87 16 38 17 92 18 86 19 88 20 39 21 91 22 85 23
REMARK SMILES IDX 84 24 40 26 72 27 52 28 71 29 53 30 56 31 70 32 89 33 54 34
REMARK SMILES IDX 55 35 69 37 90 38 57 39 41 40 42 41 50 42 43 43 44 44 48 45
REMARK SMILES IDX 51 46 45 47 46 48 49 49 47 50 73 51 74 52 82 53 75 54 76 55
REMARK SMILES IDX 80 56 83 57 77 58 78 59 81 60 79 61 58 62 59 63 67 64 60 65
REMARK SMILES IDX 61 66 65 67 68 68 62 69 63 70 66 71 64 72 7 73 8 74 9 75
REMARK SMILES IDX 10 76 11 77 12 79 13 80 14 81 31 82 15 83 27 84 26 85 16 86
REMARK SMILES IDX 17 87 25 88 18 89 24 90 19 91 20 92 21 93 22 94 23 95 28 96
REMARK SMILES IDX 29 97 30 98
REMARK H PARENT 3 7 88 25 56 36 10 78
REMARK Flexibility Score: inf
ROOT
ATOM      1  C   UNL A   1      36.833  20.819  25.129  1.00  0.00     0.002 C 
ENDROOT
BRANCH   1   2
ATOM      2  C   UNL A   1      38.010  19.849  25.029  1.00  0.00     0.021 C 
BRANCH   2   3
ATOM      3  C   UNL A   1      39.246  20.236  25.830  1.00  0.00     0.116 C 
BRANCH   3   4
ATOM      4  N   UNL A   1      40.266  19.199  25.846  1.00  0.00    -0.352 N 
ATOM      5  O   UNL A   1      42.351  18.336  25.944  1.00  0.00    -0.269 OA
ATOM      6  C   UNL A   1      41.613  19.308  26.089  1.00  0.00     0.251 C 
ATOM      7  H   UNL A   1      39.943  18.288  25.657  1.00  0.00     0.163 HD
BRANCH   6   8
ATOM      8  C   UNL A   1      42.188  20.612  26.489  1.00  0.00     0.039 A 
ATOM      9  C   UNL A   1      42.321  20.955  27.836  1.00  0.00     0.014 A 
ATOM     10  C   UNL A   1      42.585  21.513  25.495  1.00  0.00     0.014 A 
ATOM     11  C   UNL A   1      42.688  22.249  28.185  1.00  0.00     0.010 A 
ATOM     12  C   UNL A   1      43.039  22.786  25.852  1.00  0.00     0.010 A 
ATOM     13  C   UNL A   1      43.049  23.181  27.198  1.00  0.00    -0.014 A 
BRANCH  13  14
ATOM     14  C   UNL A   1      43.447  24.555  27.606  1.00  0.00     0.031 A 
ATOM     15  C   UNL A   1      44.887  24.990  27.568  1.00  0.00     0.074 A 
ATOM     16  C   UNL A   1      42.490  25.429  27.972  1.00  0.00     0.049 A 
ATOM     17  N   UNL A   1      45.403  26.164  27.839  1.00  0.00    -0.248 NA
ATOM     18  C   UNL A   1      45.881  23.976  27.185  1.00  0.00     0.031 C 
ATOM     19  C   UNL A   1      41.062  25.122  28.063  1.00  0.00     0.029 A 
ATOM     20  N   UNL A   1      42.567  26.756  28.310  1.00  0.00    -0.354 N 
ATOM     21  C   UNL A   1      46.776  26.023  27.686  1.00  0.00     0.074 A 
ATOM     22  C   UNL A   1      47.019  24.644  27.319  1.00  0.00     0.031 C 
ATOM     23  C   UNL A   1      40.391  26.239  28.378  1.00  0.00     0.029 A 
ATOM     24  C   UNL A   1      41.345  27.328  28.562  1.00  0.00     0.049 A 
ATOM     25  H   UNL A   1      43.416  27.250  28.365  1.00  0.00     0.167 HD
ATOM     26  C   UNL A   1      47.744  26.962  27.828  1.00  0.00     0.037 A 
ATOM     27  C   UNL A   1      41.025  28.589  28.907  1.00  0.00     0.037 A 
ATOM     28  C   UNL A   1      47.497  28.341  28.162  1.00  0.00     0.049 A 
ATOM     29  C   UNL A   1      42.118  29.608  29.051  1.00  0.00     0.074 A 
ATOM     30  C   UNL A   1      48.408  29.377  28.286  1.00  0.00     0.029 A 
ATOM     31  N   UNL A   1      46.246  28.879  28.428  1.00  0.00    -0.354 N 
ATOM     32  N   UNL A   1      43.408  29.471  28.861  1.00  0.00    -0.248 NA
ATOM     33  C   UNL A   1      41.709  30.960  29.455  1.00  0.00     0.031 C 
ATOM     34  C   UNL A   1      47.714  30.530  28.665  1.00  0.00     0.029 A 
ATOM     35  C   UNL A   1      46.364  30.226  28.731  1.00  0.00     0.049 A 
ATOM     36  H   UNL A   1      45.400  28.377  28.403  1.00  0.00     0.167 HD
ATOM     37  C   UNL A   1      43.962  30.721  29.099  1.00  0.00     0.074 A 
ATOM     38  C   UNL A   1      42.866  31.608  29.429  1.00  0.00     0.031 C 
ATOM     39  C   UNL A   1      45.263  31.099  29.047  1.00  0.00     0.037 A 
BRANCH  26  40
ATOM     40  C   UNL A   1      49.170  26.527  27.640  1.00  0.00     0.064 A 
ATOM     41  C   UNL A   1      49.730  26.360  26.366  1.00  0.00     0.173 A 
ATOM     42  C   UNL A   1      50.000  26.321  28.753  1.00  0.00     0.173 A 
ATOM     43  F   UNL A   1      48.976  26.533  25.269  1.00  0.00    -0.203 F 
ATOM     44  C   UNL A   1      51.061  25.978  26.212  1.00  0.00     0.198 A 
ATOM     45  C   UNL A   1      51.337  25.967  28.597  1.00  0.00     0.198 A 
ATOM     46  F   UNL A   1      49.517  26.476  29.995  1.00  0.00    -0.203 F 
ATOM     47  F   UNL A   1      51.563  25.782  24.985  1.00  0.00    -0.200 F 
ATOM     48  C   UNL A   1      51.864  25.789  27.326  1.00  0.00     0.200 A 
ATOM     49  F   UNL A   1      52.115  25.796  29.673  1.00  0.00    -0.200 F 
ATOM     50  F   UNL A   1      53.147  25.429  27.176  1.00  0.00    -0.200 F 
ENDBRANCH  26  40
BRANCH  27  51
ATOM     51  C   UNL A   1      39.602  28.958  29.115  1.00  0.00     0.064 A 
ATOM     52  C   UNL A   1      38.808  29.395  28.045  1.00  0.00     0.173 A 
ATOM     53  C   UNL A   1      39.004  28.870  30.380  1.00  0.00     0.173 A 
ATOM     54  F   UNL A   1      39.342  29.512  26.820  1.00  0.00    -0.203 F 
ATOM     55  C   UNL A   1      37.474  29.744  28.237  1.00  0.00     0.198 A 
ATOM     56  C   UNL A   1      37.662  29.193  30.566  1.00  0.00     0.198 A 
ATOM     57  F   UNL A   1      39.720  28.451  31.434  1.00  0.00    -0.203 F 
ATOM     58  F   UNL A   1      36.749  30.197  27.205  1.00  0.00    -0.200 F 
ATOM     59  C   UNL A   1      36.900  29.636  29.495  1.00  0.00     0.200 A 
ATOM     60  F   UNL A   1      37.108  29.070  31.779  1.00  0.00    -0.200 F 
ATOM     61  F   UNL A   1      35.614  29.964  29.677  1.00  0.00    -0.200 F 
ENDBRANCH  27  51
BRANCH  39  62
ATOM     62  C   UNL A   1      45.564  32.544  29.315  1.00  0.00     0.064 A 
ATOM     63  C   UNL A   1      45.871  33.006  30.603  1.00  0.00     0.173 A 
ATOM     64  C   UNL A   1      45.560  33.474  28.264  1.00  0.00     0.173 A 
ATOM     65  F   UNL A   1      45.870  32.159  31.643  1.00  0.00    -0.203 F 
ATOM     66  C   UNL A   1      46.134  34.354  30.833  1.00  0.00     0.198 A 
ATOM     67  C   UNL A   1      45.852  34.815  28.494  1.00  0.00     0.198 A 
ATOM     68  F   UNL A   1      45.277  33.080  27.014  1.00  0.00    -0.203 F 
ATOM     69  F   UNL A   1      46.373  34.784  32.080  1.00  0.00    -0.200 F 
ATOM     70  C   UNL A   1      46.130  35.255  29.780  1.00  0.00     0.200 A 
ATOM     71  F   UNL A   1      45.856  35.683  27.474  1.00  0.00    -0.200 F 
ATOM     72  F   UNL A   1      46.382  36.553  30.004  1.00  0.00    -0.200 F 
ENDBRANCH  39  62
ENDBRANCH  13  14
ENDBRANCH   6   8
ENDBRANCH   3   4
ENDBRANCH   2   3
ENDBRANCH   1   2
BRANCH   1  73
ATOM     73  C   UNL A   1      37.185  22.255  25.521  1.00  0.00     0.002 C 
BRANCH  73  74
ATOM     74  C   UNL A   1      36.665  23.355  24.591  1.00  0.00     0.021 C 
BRANCH  74  75
ATOM     75  C   UNL A   1      35.146  23.476  24.499  1.00  0.00     0.116 C 
BRANCH  75  76
ATOM     76  N   UNL A   1      34.688  23.625  23.131  1.00  0.00    -0.352 N 
ATOM     77  C   UNL A   1      33.455  23.979  22.653  1.00  0.00     0.251 C 
ATOM     78  H   UNL A   1      35.367  23.444  22.440  1.00  0.00     0.163 HD
ATOM     79  O   UNL A   1      33.210  23.890  21.453  1.00  0.00    -0.269 OA
BRANCH  77  80
ATOM     80  C   UNL A   1      32.403  24.465  23.572  1.00  0.00     0.047 A 
ATOM     81  C   UNL A   1      31.727  25.647  23.244  1.00  0.00     0.023 A 
ATOM     82  C   UNL A   1      32.147  23.819  24.783  1.00  0.00     0.099 A 
ATOM     83  C   UNL A   1      30.759  26.187  24.107  1.00  0.00    -0.011 A 
ATOM     84  C   UNL A   1      31.153  24.325  25.625  1.00  0.00     0.270 A 
ATOM     85  C   UNL A   1      30.458  25.497  25.293  1.00  0.00     0.094 A 
BRANCH  83  86
ATOM     86  C   UNL A   1      30.129  27.480  23.812  1.00  0.00    -0.018 A 
ATOM     87  C   UNL A   1      30.803  28.694  24.006  1.00  0.00     0.009 A 
ATOM     88  C   UNL A   1      28.802  27.522  23.352  1.00  0.00     0.009 A 
ATOM     89  C   UNL A   1      30.166  29.914  23.752  1.00  0.00     0.014 A 
ATOM     90  C   UNL A   1      28.163  28.737  23.101  1.00  0.00     0.014 A 
ATOM     91  C   UNL A   1      28.837  29.948  23.302  1.00  0.00     0.056 A 
BRANCH  91  92
ATOM     92  C   UNL A   1      28.151  31.270  23.052  1.00  0.00     0.416 C 
ATOM     93  F   UNL A   1      27.624  31.353  21.799  1.00  0.00    -0.166 F 
ATOM     94  F   UNL A   1      27.116  31.490  23.909  1.00  0.00    -0.166 F 
ATOM     95  F   UNL A   1      28.977  32.344  23.181  1.00  0.00    -0.166 F 
ENDBRANCH  91  92
ENDBRANCH  83  86
BRANCH  84  96
ATOM     96  N   UNL A   1      30.842  23.623  26.876  1.00  0.00     0.062 N 
ATOM     97  O   UNL A   1      29.661  23.601  27.247  1.00  0.00    -0.258 OA
ATOM     98  O   UNL A   1      31.782  23.083  27.477  1.00  0.00    -0.258 OA
ENDBRANCH  84  96
ENDBRANCH  77  80
ENDBRANCH  75  76
ENDBRANCH  74  75
ENDBRANCH  73  74
ENDBRANCH   1  73
TORSDOF 16
ENDMDL
