MODEL 1
REMARK VINA RESULT:     -12.3      0.000      0.000
REMARK SMILES COC(=O)c1ccc([C@H]2Nc3c(C(=O)NCCCCCCNC(=O)c4ccc(-c5c6nc(c(-c7c(F)c(F)c(F)c(F)c7F)c7ccc([nH]7)c(-c7c(F)c(F)c(F)c(F)c7F)c7nc(c(-c8c(F)c(F)c(F)c(F)c8F)c8ccc5[nH]8)C=C7)C=C6)cc4)cccc3[C@@H]3[C@@H]4CC[C@@H](C4)[C@@H]32)cc1
REMARK SMILES IDX 18 1 17 2 16 3 15 4 13 5 14 6 12 8 9 9 10 10 98 11 11 12
REMARK SMILES IDX 92 14 96 15 91 16 93 17 95 18 97 19 88 20 90 21 94 22 89 23
REMARK SMILES IDX 8 24 5 25 6 26 100 27 7 28 99 29 3 30 4 31 2 32 1 33 19 34
REMARK SMILES IDX 20 35 21 36 22 37 23 38 24 40 25 41 26 42 87 43 27 44 86 45
REMARK SMILES IDX 28 46 29 47 30 48 80 49 31 50 85 51 79 52 81 53 32 54 84 55
REMARK SMILES IDX 78 56 77 57 33 59 65 60 45 61 64 62 46 63 49 64 63 65 82 66
REMARK SMILES IDX 47 67 48 68 62 70 83 71 50 72 34 73 35 74 43 75 36 76 37 77
REMARK SMILES IDX 41 78 44 79 38 80 39 81 42 82 40 83 66 84 67 85 75 86 68 87
REMARK SMILES IDX 69 88 73 89 76 90 70 91 71 92 74 93 72 94 51 95 52 96 60 97
REMARK SMILES IDX 53 98 54 99 58 100 61 101 55 102 56 103 59 104 57 105
REMARK H PARENT 15 7 10 13 22 39 81 58 49 69
REMARK Flexibility Score: inf
ROOT
ATOM      1  C   UNL A   1      35.449  34.068  29.331  1.00  0.00     0.002 C 
ENDROOT
BRANCH   1   2
ATOM      2  C   UNL A   1      36.342  33.014  28.678  1.00  0.00     0.021 C 
BRANCH   2   3
ATOM      3  C   UNL A   1      35.705  32.117  27.626  1.00  0.00     0.116 C 
BRANCH   3   4
ATOM      4  N   UNL A   1      35.849  30.693  27.843  1.00  0.00    -0.352 N 
ATOM      5  C   UNL A   1      35.063  29.653  27.379  1.00  0.00     0.253 C 
ATOM      6  O   UNL A   1      35.411  28.498  27.627  1.00  0.00    -0.269 OA
ATOM      7  H   UNL A   1      36.616  30.427  28.400  1.00  0.00     0.163 HD
BRANCH   5   8
ATOM      8  C   UNL A   1      33.762  29.888  26.684  1.00  0.00     0.063 A 
ATOM      9  C   UNL A   1      32.871  26.899  25.066  1.00  0.00     0.113 C 
ATOM     10  N   UNL A   1      33.900  27.936  25.235  1.00  0.00    -0.377 N 
ATOM     11  C   UNL A   1      32.411  27.147  23.623  1.00  0.00     0.027 C 
ATOM     12  C   UNL A   1      33.310  29.146  25.588  1.00  0.00     0.051 A 
ATOM     13  H   UNL A   1      34.867  27.794  25.114  1.00  0.00     0.161 HD
ATOM     14  C   UNL A   1      31.893  28.677  23.584  1.00  0.00     0.030 C 
ATOM     15  C   UNL A   1      31.206  26.394  23.018  1.00  0.00    -0.005 C 
ATOM     16  C   UNL A   1      32.141  29.482  24.864  1.00  0.00    -0.020 A 
ATOM     17  C   UNL A   1      30.454  28.514  23.055  1.00  0.00    -0.003 C 
ATOM     18  C   UNL A   1      30.020  26.323  23.982  1.00  0.00     0.004 C 
ATOM     19  C   UNL A   1      30.672  27.421  22.001  1.00  0.00     0.008 C 
ATOM     20  C   UNL A   1      32.868  30.802  27.243  1.00  0.00     0.016 A 
ATOM     21  C   UNL A   1      31.305  30.456  25.397  1.00  0.00     0.006 A 
ATOM     22  C   UNL A   1      29.551  27.782  24.067  1.00  0.00     0.004 C 
ATOM     23  C   UNL A   1      31.640  31.064  26.617  1.00  0.00     0.001 A 
BRANCH   9  24
ATOM     24  C   UNL A   1      33.492  25.763  25.862  1.00  0.00    -0.025 A 
ATOM     25  C   UNL A   1      34.284  23.072  25.715  1.00  0.00     0.060 A 
ATOM     26  C   UNL A   1      35.152  24.063  25.266  1.00  0.00     0.016 A 
ATOM     27  C   UNL A   1      33.118  23.434  26.413  1.00  0.00     0.016 A 
ATOM     28  C   UNL A   1      34.778  25.397  25.376  1.00  0.00     0.007 A 
ATOM     29  C   UNL A   1      32.722  24.783  26.501  1.00  0.00     0.007 A 
BRANCH  25  30
ATOM     30  C   UNL A   1      34.585  21.681  25.281  1.00  0.00     0.337 C 
ATOM     31  O   UNL A   1      35.691  21.167  25.374  1.00  0.00    -0.246 OA
BRANCH  30  32
ATOM     32  O   UNL A   1      33.509  21.134  24.661  1.00  0.00    -0.465 OA
ATOM     33  C   UNL A   1      33.124  19.867  25.202  1.00  0.00     0.282 C 
ENDBRANCH  30  32
ENDBRANCH  25  30
ENDBRANCH   9  24
ENDBRANCH   5   8
ENDBRANCH   3   4
ENDBRANCH   2   3
ENDBRANCH   1   2
BRANCH   1  34
ATOM     34  C   UNL A   1      33.960  34.055  28.971  1.00  0.00     0.002 C 
BRANCH  34  35
ATOM     35  C   UNL A   1      33.277  35.407  28.756  1.00  0.00     0.021 C 
BRANCH  35  36
ATOM     36  C   UNL A   1      33.455  36.447  29.856  1.00  0.00     0.116 C 
BRANCH  36  37
ATOM     37  N   UNL A   1      32.413  36.410  30.866  1.00  0.00    -0.352 N 
ATOM     38  C   UNL A   1      32.405  35.791  32.094  1.00  0.00     0.251 C 
ATOM     39  H   UNL A   1      31.589  36.899  30.638  1.00  0.00     0.163 HD
ATOM     40  O   UNL A   1      31.386  35.791  32.778  1.00  0.00    -0.269 OA
BRANCH  38  41
ATOM     41  C   UNL A   1      33.613  35.089  32.584  1.00  0.00     0.039 A 
ATOM     42  C   UNL A   1      33.479  33.788  33.076  1.00  0.00     0.014 A 
ATOM     43  C   UNL A   1      34.867  35.704  32.569  1.00  0.00     0.014 A 
ATOM     44  C   UNL A   1      34.610  33.078  33.487  1.00  0.00     0.010 A 
ATOM     45  C   UNL A   1      36.003  34.973  32.913  1.00  0.00     0.010 A 
ATOM     46  C   UNL A   1      35.886  33.651  33.375  1.00  0.00    -0.014 A 
BRANCH  46  47
ATOM     47  C   UNL A   1      37.111  32.891  33.735  1.00  0.00     0.031 A 
ATOM     48  C   UNL A   1      37.847  33.207  35.007  1.00  0.00     0.074 A 
ATOM     49  C   UNL A   1      37.601  31.967  32.886  1.00  0.00     0.049 A 
ATOM     50  N   UNL A   1      38.985  32.732  35.447  1.00  0.00    -0.248 NA
ATOM     51  C   UNL A   1      37.236  34.214  35.889  1.00  0.00     0.031 C 
ATOM     52  C   UNL A   1      36.998  31.591  31.606  1.00  0.00     0.029 A 
ATOM     53  N   UNL A   1      38.726  31.184  32.965  1.00  0.00    -0.354 N 
ATOM     54  C   UNL A   1      39.231  33.390  36.645  1.00  0.00     0.074 A 
ATOM     55  C   UNL A   1      38.153  34.335  36.838  1.00  0.00     0.031 C 
ATOM     56  C   UNL A   1      37.751  30.642  31.027  1.00  0.00     0.029 A 
ATOM     57  C   UNL A   1      38.909  30.370  31.873  1.00  0.00     0.049 A 
ATOM     58  H   UNL A   1      39.343  31.204  33.731  1.00  0.00     0.167 HD
ATOM     59  C   UNL A   1      40.253  33.207  37.516  1.00  0.00     0.037 A 
ATOM     60  C   UNL A   1      39.906  29.513  31.580  1.00  0.00     0.037 A 
ATOM     61  C   UNL A   1      41.312  32.249  37.334  1.00  0.00     0.049 A 
ATOM     62  C   UNL A   1      41.039  29.341  32.557  1.00  0.00     0.074 A 
ATOM     63  C   UNL A   1      42.363  31.953  38.184  1.00  0.00     0.029 A 
ATOM     64  N   UNL A   1      41.452  31.431  36.223  1.00  0.00    -0.354 N 
ATOM     65  N   UNL A   1      41.232  29.929  33.711  1.00  0.00    -0.248 NA
ATOM     66  C   UNL A   1      42.092  28.383  32.189  1.00  0.00     0.031 C 
ATOM     67  C   UNL A   1      43.167  30.989  37.566  1.00  0.00     0.029 A 
ATOM     68  C   UNL A   1      42.586  30.645  36.355  1.00  0.00     0.049 A 
ATOM     69  H   UNL A   1      40.838  31.411  35.453  1.00  0.00     0.167 HD
ATOM     70  C   UNL A   1      42.405  29.391  34.224  1.00  0.00     0.074 A 
ATOM     71  C   UNL A   1      42.876  28.421  33.257  1.00  0.00     0.031 C 
ATOM     72  C   UNL A   1      43.034  29.673  35.391  1.00  0.00     0.037 A 
BRANCH  59  73
ATOM     73  C   UNL A   1      40.276  34.064  38.750  1.00  0.00     0.064 A 
ATOM     74  C   UNL A   1      39.645  33.660  39.937  1.00  0.00     0.173 A 
ATOM     75  C   UNL A   1      40.967  35.285  38.757  1.00  0.00     0.173 A 
ATOM     76  F   UNL A   1      38.961  32.507  39.980  1.00  0.00    -0.203 F 
ATOM     77  C   UNL A   1      39.678  34.462  41.075  1.00  0.00     0.198 A 
ATOM     78  C   UNL A   1      41.025  36.069  39.906  1.00  0.00     0.198 A 
ATOM     79  F   UNL A   1      41.593  35.715  37.651  1.00  0.00    -0.203 F 
ATOM     80  F   UNL A   1      39.025  34.080  42.181  1.00  0.00    -0.200 F 
ATOM     81  C   UNL A   1      40.375  35.662  41.062  1.00  0.00     0.200 A 
ATOM     82  F   UNL A   1      41.710  37.220  39.895  1.00  0.00    -0.200 F 
ATOM     83  F   UNL A   1      40.413  36.429  42.160  1.00  0.00    -0.200 F 
ENDBRANCH  59  73
BRANCH  60  84
ATOM     84  C   UNL A   1      39.871  28.735  30.313  1.00  0.00     0.064 A 
ATOM     85  C   UNL A   1      40.398  29.267  29.128  1.00  0.00     0.173 A 
ATOM     86  C   UNL A   1      39.307  27.453  30.258  1.00  0.00     0.173 A 
ATOM     87  F   UNL A   1      40.929  30.500  29.126  1.00  0.00    -0.203 F 
ATOM     88  C   UNL A   1      40.341  28.557  27.931  1.00  0.00     0.198 A 
ATOM     89  C   UNL A   1      39.277  26.731  29.066  1.00  0.00     0.198 A 
ATOM     90  F   UNL A   1      38.793  26.895  31.364  1.00  0.00    -0.203 F 
ATOM     91  F   UNL A   1      40.808  29.110  26.803  1.00  0.00    -0.200 F 
ATOM     92  C   UNL A   1      39.785  27.286  27.902  1.00  0.00     0.200 A 
ATOM     93  F   UNL A   1      38.752  25.498  29.046  1.00  0.00    -0.200 F 
ATOM     94  F   UNL A   1      39.734  26.602  26.751  1.00  0.00    -0.200 F 
ENDBRANCH  60  84
BRANCH  72  95
ATOM     95  C   UNL A   1      44.276  28.894  35.712  1.00  0.00     0.064 A 
ATOM     96  C   UNL A   1      45.546  29.330  35.307  1.00  0.00     0.173 A 
ATOM     97  C   UNL A   1      44.197  27.723  36.482  1.00  0.00     0.173 A 
ATOM     98  F   UNL A   1      45.673  30.435  34.557  1.00  0.00    -0.203 F 
ATOM     99  C   UNL A   1      46.690  28.610  35.642  1.00  0.00     0.198 A 
ATOM    100  C   UNL A   1      45.345  27.022  36.841  1.00  0.00     0.198 A 
ATOM    101  F   UNL A   1      43.007  27.268  36.901  1.00  0.00    -0.203 F 
ATOM    102  F   UNL A   1      47.889  29.020  35.208  1.00  0.00    -0.200 F 
ATOM    103  C   UNL A   1      46.589  27.462  36.416  1.00  0.00     0.200 A 
ATOM    104  F   UNL A   1      45.247  25.922  37.600  1.00  0.00    -0.200 F 
ATOM    105  F   UNL A   1      47.693  26.777  36.747  1.00  0.00    -0.200 F 
ENDBRANCH  72  95
ENDBRANCH  46  47
ENDBRANCH  38  41
ENDBRANCH  36  37
ENDBRANCH  35  36
ENDBRANCH  34  35
ENDBRANCH   1  34
TORSDOF 16
ENDMDL
MODEL 2
REMARK VINA RESULT:     -12.2      5.488     10.707
REMARK SMILES COC(=O)c1ccc([C@H]2Nc3c(C(=O)NCCCCCCNC(=O)c4ccc(-c5c6nc(c(-c7c(F)c(F)c(F)c(F)c7F)c7ccc([nH]7)c(-c7c(F)c(F)c(F)c(F)c7F)c7nc(c(-c8c(F)c(F)c(F)c(F)c8F)c8ccc5[nH]8)C=C7)C=C6)cc4)cccc3[C@@H]3[C@@H]4CC[C@@H](C4)[C@@H]32)cc1
REMARK SMILES IDX 18 1 17 2 16 3 15 4 13 5 14 6 12 8 9 9 10 10 98 11 11 12
REMARK SMILES IDX 92 14 96 15 91 16 93 17 95 18 97 19 88 20 90 21 94 22 89 23
REMARK SMILES IDX 8 24 5 25 6 26 100 27 7 28 99 29 3 30 4 31 2 32 1 33 19 34
REMARK SMILES IDX 20 35 21 36 22 37 23 38 24 40 25 41 26 42 87 43 27 44 86 45
REMARK SMILES IDX 28 46 29 47 30 48 80 49 31 50 85 51 79 52 81 53 32 54 84 55
REMARK SMILES IDX 78 56 77 57 33 59 65 60 45 61 64 62 46 63 49 64 63 65 82 66
REMARK SMILES IDX 47 67 48 68 62 70 83 71 50 72 34 73 35 74 43 75 36 76 37 77
REMARK SMILES IDX 41 78 44 79 38 80 39 81 42 82 40 83 66 84 67 85 75 86 68 87
REMARK SMILES IDX 69 88 73 89 76 90 70 91 71 92 74 93 72 94 51 95 52 96 60 97
REMARK SMILES IDX 53 98 54 99 58 100 61 101 55 102 56 103 59 104 57 105
REMARK H PARENT 15 7 10 13 22 39 81 58 49 69
REMARK Flexibility Score: inf
ROOT
ATOM      1  C   UNL A   1      39.054  22.265  26.097  1.00  0.00     0.002 C 
ENDROOT
BRANCH   1   2
ATOM      2  C   UNL A   1      38.385  23.628  26.273  1.00  0.00     0.021 C 
BRANCH   2   3
ATOM      3  C   UNL A   1      36.912  23.733  25.902  1.00  0.00     0.116 C 
BRANCH   3   4
ATOM      4  N   UNL A   1      35.975  23.336  26.932  1.00  0.00    -0.352 N 
ATOM      5  C   UNL A   1      34.653  22.946  26.809  1.00  0.00     0.253 C 
ATOM      6  O   UNL A   1      34.054  22.577  27.819  1.00  0.00    -0.269 OA
ATOM      7  H   UNL A   1      36.329  23.346  27.851  1.00  0.00     0.163 HD
BRANCH   5   8
ATOM      8  C   UNL A   1      33.908  23.057  25.519  1.00  0.00     0.063 A 
ATOM      9  C   UNL A   1      32.004  26.008  25.649  1.00  0.00     0.113 C 
ATOM     10  N   UNL A   1      32.314  24.726  26.299  1.00  0.00    -0.377 N 
ATOM     11  C   UNL A   1      30.563  25.777  25.175  1.00  0.00     0.027 C 
ATOM     12  C   UNL A   1      32.731  23.794  25.351  1.00  0.00     0.051 A 
ATOM     13  H   UNL A   1      32.236  24.551  27.265  1.00  0.00     0.161 HD
ATOM     14  C   UNL A   1      30.620  24.485  24.208  1.00  0.00     0.030 C 
ATOM     15  C   UNL A   1      29.832  26.804  24.282  1.00  0.00    -0.005 C 
ATOM     16  C   UNL A   1      31.973  23.768  24.157  1.00  0.00    -0.020 A 
ATOM     17  C   UNL A   1      29.999  25.031  22.907  1.00  0.00    -0.003 C 
ATOM     18  C   UNL A   1      30.719  27.327  23.150  1.00  0.00     0.004 C 
ATOM     19  C   UNL A   1      28.873  25.899  23.483  1.00  0.00     0.008 C 
ATOM     20  C   UNL A   1      34.488  22.520  24.370  1.00  0.00     0.016 A 
ATOM     21  C   UNL A   1      32.536  23.153  23.045  1.00  0.00     0.006 A 
ATOM     22  C   UNL A   1      30.896  26.097  22.249  1.00  0.00     0.004 C 
ATOM     23  C   UNL A   1      33.819  22.590  23.140  1.00  0.00     0.001 A 
BRANCH   9  24
ATOM     24  C   UNL A   1      32.738  26.968  26.570  1.00  0.00    -0.025 A 
ATOM     25  C   UNL A   1      33.127  29.689  27.149  1.00  0.00     0.060 A 
ATOM     26  C   UNL A   1      32.028  29.027  27.690  1.00  0.00     0.016 A 
ATOM     27  C   UNL A   1      34.128  28.950  26.493  1.00  0.00     0.016 A 
ATOM     28  C   UNL A   1      31.857  27.672  27.437  1.00  0.00     0.007 A 
ATOM     29  C   UNL A   1      33.944  27.583  26.210  1.00  0.00     0.007 A 
BRANCH  25  30
ATOM     30  C   UNL A   1      33.085  31.176  27.177  1.00  0.00     0.337 C 
ATOM     31  O   UNL A   1      32.092  31.831  26.890  1.00  0.00    -0.246 OA
BRANCH  30  32
ATOM     32  O   UNL A   1      34.319  31.680  27.430  1.00  0.00    -0.465 OA
ATOM     33  C   UNL A   1      34.320  32.711  28.422  1.00  0.00     0.282 C 
ENDBRANCH  30  32
ENDBRANCH  25  30
ENDBRANCH   9  24
ENDBRANCH   5   8
ENDBRANCH   3   4
ENDBRANCH   2   3
ENDBRANCH   1   2
BRANCH   1  34
ATOM     34  C   UNL A   1      38.307  21.212  25.274  1.00  0.00     0.002 C 
BRANCH  34  35
ATOM     35  C   UNL A   1      38.884  19.795  25.255  1.00  0.00     0.021 C 
BRANCH  35  36
ATOM     36  C   UNL A   1      39.846  19.431  26.379  1.00  0.00     0.116 C 
BRANCH  36  37
ATOM     37  N   UNL A   1      41.075  18.814  25.915  1.00  0.00    -0.352 N 
ATOM     38  C   UNL A   1      42.339  19.347  25.811  1.00  0.00     0.251 C 
ATOM     39  H   UNL A   1      40.993  17.874  25.634  1.00  0.00     0.163 HD
ATOM     40  O   UNL A   1      43.244  18.694  25.302  1.00  0.00    -0.269 OA
BRANCH  38  41
ATOM     41  C   UNL A   1      42.607  20.727  26.277  1.00  0.00     0.039 A 
ATOM     42  C   UNL A   1      42.594  20.984  27.650  1.00  0.00     0.014 A 
ATOM     43  C   UNL A   1      42.864  21.762  25.374  1.00  0.00     0.014 A 
ATOM     44  C   UNL A   1      42.906  22.261  28.123  1.00  0.00     0.010 A 
ATOM     45  C   UNL A   1      43.242  23.017  25.848  1.00  0.00     0.010 A 
ATOM     46  C   UNL A   1      43.269  23.280  27.227  1.00  0.00    -0.014 A 
BRANCH  46  47
ATOM     47  C   UNL A   1      43.676  24.625  27.709  1.00  0.00     0.031 A 
ATOM     48  C   UNL A   1      42.632  25.647  28.064  1.00  0.00     0.074 A 
ATOM     49  C   UNL A   1      44.982  24.953  27.758  1.00  0.00     0.049 A 
ATOM     50  N   UNL A   1      42.781  26.903  28.402  1.00  0.00    -0.248 NA
ATOM     51  C   UNL A   1      41.230  25.204  28.003  1.00  0.00     0.031 C 
ATOM     52  C   UNL A   1      46.091  24.063  27.408  1.00  0.00     0.029 A 
ATOM     53  N   UNL A   1      45.599  26.129  28.109  1.00  0.00    -0.354 N 
ATOM     54  C   UNL A   1      41.497  27.401  28.579  1.00  0.00     0.074 A 
ATOM     55  C   UNL A   1      40.579  26.329  28.262  1.00  0.00     0.031 C 
ATOM     56  C   UNL A   1      47.250  24.719  27.575  1.00  0.00     0.029 A 
ATOM     57  C   UNL A   1      46.968  26.085  28.004  1.00  0.00     0.049 A 
ATOM     58  H   UNL A   1      45.106  26.927  28.407  1.00  0.00     0.167 HD
ATOM     59  C   UNL A   1      41.118  28.636  28.991  1.00  0.00     0.037 A 
ATOM     60  C   UNL A   1      47.891  27.043  28.216  1.00  0.00     0.037 A 
ATOM     61  C   UNL A   1      42.033  29.693  29.331  1.00  0.00     0.049 A 
ATOM     62  C   UNL A   1      47.442  28.411  28.656  1.00  0.00     0.074 A 
ATOM     63  C   UNL A   1      41.749  30.961  29.808  1.00  0.00     0.029 A 
ATOM     64  N   UNL A   1      43.414  29.604  29.229  1.00  0.00    -0.354 N 
ATOM     65  N   UNL A   1      46.229  28.855  28.873  1.00  0.00    -0.248 NA
ATOM     66  C   UNL A   1      48.495  29.413  28.883  1.00  0.00     0.031 C 
ATOM     67  C   UNL A   1      42.955  31.656  29.949  1.00  0.00     0.029 A 
ATOM     68  C   UNL A   1      43.994  30.803  29.613  1.00  0.00     0.049 A 
ATOM     69  H   UNL A   1      43.909  28.808  28.928  1.00  0.00     0.167 HD
ATOM     70  C   UNL A   1      46.371  30.170  29.294  1.00  0.00     0.074 A 
ATOM     71  C   UNL A   1      47.791  30.452  29.311  1.00  0.00     0.031 C 
ATOM     72  C   UNL A   1      45.411  31.063  29.638  1.00  0.00     0.037 A 
BRANCH  59  73
ATOM     73  C   UNL A   1      39.645  28.910  29.099  1.00  0.00     0.064 A 
ATOM     74  C   UNL A   1      38.957  28.765  30.313  1.00  0.00     0.173 A 
ATOM     75  C   UNL A   1      38.920  29.359  27.984  1.00  0.00     0.173 A 
ATOM     76  F   UNL A   1      39.600  28.329  31.407  1.00  0.00    -0.203 F 
ATOM     77  C   UNL A   1      37.592  29.028  30.399  1.00  0.00     0.198 A 
ATOM     78  C   UNL A   1      37.563  29.651  28.082  1.00  0.00     0.198 A 
ATOM     79  F   UNL A   1      39.532  29.520  26.800  1.00  0.00    -0.203 F 
ATOM     80  F   UNL A   1      36.946  28.834  31.557  1.00  0.00    -0.200 F 
ATOM     81  C   UNL A   1      36.898  29.479  29.286  1.00  0.00     0.200 A 
ATOM     82  F   UNL A   1      36.898  30.100  27.008  1.00  0.00    -0.200 F 
ATOM     83  F   UNL A   1      35.586  29.739  29.372  1.00  0.00    -0.200 F 
ENDBRANCH  59  73
BRANCH  60  84
ATOM     84  C   UNL A   1      49.335  26.740  28.032  1.00  0.00     0.064 A 
ATOM     85  C   UNL A   1      49.918  26.765  26.758  1.00  0.00     0.173 A 
ATOM     86  C   UNL A   1      50.157  26.413  29.119  1.00  0.00     0.173 A 
ATOM     87  F   UNL A   1      49.167  27.051  25.684  1.00  0.00    -0.203 F 
ATOM     88  C   UNL A   1      51.263  26.452  26.575  1.00  0.00     0.198 A 
ATOM     89  C   UNL A   1      51.509  26.129  28.939  1.00  0.00     0.198 A 
ATOM     90  F   UNL A   1      49.651  26.380  30.361  1.00  0.00    -0.203 F 
ATOM     91  F   UNL A   1      51.784  26.435  25.340  1.00  0.00    -0.200 F 
ATOM     92  C   UNL A   1      52.059  26.139  27.667  1.00  0.00     0.200 A 
ATOM     93  F   UNL A   1      52.278  25.841  29.999  1.00  0.00    -0.200 F 
ATOM     94  F   UNL A   1      53.354  25.842  27.491  1.00  0.00    -0.200 F 
ENDBRANCH  60  84
BRANCH  72  95
ATOM     95  C   UNL A   1      45.862  32.417  30.105  1.00  0.00     0.064 A 
ATOM     96  C   UNL A   1      45.994  33.497  29.219  1.00  0.00     0.173 A 
ATOM     97  C   UNL A   1      46.114  32.648  31.466  1.00  0.00     0.173 A 
ATOM     98  F   UNL A   1      45.779  33.324  27.907  1.00  0.00    -0.203 F 
ATOM     99  C   UNL A   1      46.384  34.753  29.677  1.00  0.00     0.198 A 
ATOM    100  C   UNL A   1      46.474  33.912  31.924  1.00  0.00     0.198 A 
ATOM    101  F   UNL A   1      45.995  31.650  32.355  1.00  0.00    -0.203 F 
ATOM    102  F   UNL A   1      46.546  35.760  28.808  1.00  0.00    -0.200 F 
ATOM    103  C   UNL A   1      46.614  34.961  31.030  1.00  0.00     0.200 A 
ATOM    104  F   UNL A   1      46.682  34.114  33.232  1.00  0.00    -0.200 F 
ATOM    105  F   UNL A   1      46.977  36.174  31.469  1.00  0.00    -0.200 F 
ENDBRANCH  72  95
ENDBRANCH  46  47
ENDBRANCH  38  41
ENDBRANCH  36  37
ENDBRANCH  35  36
ENDBRANCH  34  35
ENDBRANCH   1  34
TORSDOF 16
ENDMDL
MODEL 3
REMARK VINA RESULT:     -12.2      1.124      2.517
REMARK SMILES COC(=O)c1ccc([C@H]2Nc3c(C(=O)NCCCCCCNC(=O)c4ccc(-c5c6nc(c(-c7c(F)c(F)c(F)c(F)c7F)c7ccc([nH]7)c(-c7c(F)c(F)c(F)c(F)c7F)c7nc(c(-c8c(F)c(F)c(F)c(F)c8F)c8ccc5[nH]8)C=C7)C=C6)cc4)cccc3[C@@H]3[C@@H]4CC[C@@H](C4)[C@@H]32)cc1
REMARK SMILES IDX 18 1 17 2 16 3 15 4 13 5 14 6 12 8 9 9 10 10 98 11 11 12
REMARK SMILES IDX 92 14 96 15 91 16 93 17 95 18 97 19 88 20 90 21 94 22 89 23
REMARK SMILES IDX 8 24 5 25 6 26 100 27 7 28 99 29 3 30 4 31 2 32 1 33 19 34
REMARK SMILES IDX 20 35 21 36 22 37 23 38 24 40 25 41 26 42 87 43 27 44 86 45
REMARK SMILES IDX 28 46 29 47 30 48 80 49 31 50 85 51 79 52 81 53 32 54 84 55
REMARK SMILES IDX 78 56 77 57 33 59 65 60 45 61 64 62 46 63 49 64 63 65 82 66
REMARK SMILES IDX 47 67 48 68 62 70 83 71 50 72 34 73 35 74 43 75 36 76 37 77
REMARK SMILES IDX 41 78 44 79 38 80 39 81 42 82 40 83 66 84 67 85 75 86 68 87
REMARK SMILES IDX 69 88 73 89 76 90 70 91 71 92 74 93 72 94 51 95 52 96 60 97
REMARK SMILES IDX 53 98 54 99 58 100 61 101 55 102 56 103 59 104 57 105
REMARK H PARENT 15 7 10 13 22 39 81 58 49 69
REMARK Flexibility Score: inf
ROOT
ATOM      1  C   UNL A   1      35.320  32.896  27.999  1.00  0.00     0.002 C 
ENDROOT
BRANCH   1   2
ATOM      2  C   UNL A   1      35.556  31.393  27.854  1.00  0.00     0.021 C 
BRANCH   2   3
ATOM      3  C   UNL A   1      34.409  30.468  28.237  1.00  0.00     0.116 C 
BRANCH   3   4
ATOM      4  N   UNL A   1      34.295  29.253  27.459  1.00  0.00    -0.352 N 
ATOM      5  C   UNL A   1      33.470  28.978  26.382  1.00  0.00     0.253 C 
ATOM      6  O   UNL A   1      33.588  27.890  25.816  1.00  0.00    -0.269 OA
ATOM      7  H   UNL A   1      34.888  28.517  27.736  1.00  0.00     0.163 HD
BRANCH   5   8
ATOM      8  C   UNL A   1      32.382  29.908  25.955  1.00  0.00     0.063 A 
ATOM      9  C   UNL A   1      30.075  28.043  24.072  1.00  0.00     0.113 C 
ATOM     10  N   UNL A   1      31.479  28.452  24.223  1.00  0.00    -0.377 N 
ATOM     11  C   UNL A   1      29.677  28.768  22.779  1.00  0.00     0.027 C 
ATOM     12  C   UNL A   1      31.554  29.694  24.848  1.00  0.00     0.051 A 
ATOM     13  H   UNL A   1      32.255  27.924  23.925  1.00  0.00     0.161 HD
ATOM     14  C   UNL A   1      29.935  30.338  23.058  1.00  0.00     0.030 C 
ATOM     15  C   UNL A   1      28.217  28.775  22.274  1.00  0.00    -0.005 C 
ATOM     16  C   UNL A   1      30.627  30.658  24.386  1.00  0.00    -0.020 A 
ATOM     17  C   UNL A   1      28.551  30.947  22.755  1.00  0.00    -0.003 C 
ATOM     18  C   UNL A   1      27.213  29.038  23.398  1.00  0.00     0.004 C 
ATOM     19  C   UNL A   1      28.151  30.121  21.526  1.00  0.00     0.008 C 
ATOM     20  C   UNL A   1      32.066  30.983  26.785  1.00  0.00     0.016 A 
ATOM     21  C   UNL A   1      30.388  31.766  25.192  1.00  0.00     0.006 A 
ATOM     22  C   UNL A   1      27.491  30.499  23.779  1.00  0.00     0.004 C 
ATOM     23  C   UNL A   1      31.061  31.889  26.418  1.00  0.00     0.001 A 
BRANCH   9  24
ATOM     24  C   UNL A   1      30.150  26.610  24.573  1.00  0.00    -0.025 A 
ATOM     25  C   UNL A   1      31.912  24.637  25.516  1.00  0.00     0.060 A 
ATOM     26  C   UNL A   1      31.406  25.581  26.406  1.00  0.00     0.016 A 
ATOM     27  C   UNL A   1      31.387  24.559  24.215  1.00  0.00     0.016 A 
ATOM     28  C   UNL A   1      30.503  26.532  25.949  1.00  0.00     0.007 A 
ATOM     29  C   UNL A   1      30.493  25.538  23.739  1.00  0.00     0.007 A 
BRANCH  25  30
ATOM     30  C   UNL A   1      33.100  23.866  25.973  1.00  0.00     0.337 C 
ATOM     31  O   UNL A   1      33.043  22.717  26.388  1.00  0.00    -0.246 OA
BRANCH  30  32
ATOM     32  O   UNL A   1      34.203  24.657  25.984  1.00  0.00    -0.465 OA
ATOM     33  C   UNL A   1      34.957  24.598  24.770  1.00  0.00     0.282 C 
ENDBRANCH  30  32
ENDBRANCH  25  30
ENDBRANCH   9  24
ENDBRANCH   5   8
ENDBRANCH   3   4
ENDBRANCH   2   3
ENDBRANCH   1   2
BRANCH   1  34
ATOM     34  C   UNL A   1      34.409  33.362  29.138  1.00  0.00     0.002 C 
BRANCH  34  35
ATOM     35  C   UNL A   1      33.290  34.344  28.788  1.00  0.00     0.021 C 
BRANCH  35  36
ATOM     36  C   UNL A   1      33.449  35.773  29.293  1.00  0.00     0.116 C 
BRANCH  36  37
ATOM     37  N   UNL A   1      32.565  36.102  30.396  1.00  0.00    -0.352 N 
ATOM     38  C   UNL A   1      32.675  35.789  31.730  1.00  0.00     0.251 C 
ATOM     39  H   UNL A   1      31.767  36.627  30.153  1.00  0.00     0.163 HD
ATOM     40  O   UNL A   1      31.770  36.076  32.508  1.00  0.00    -0.269 OA
BRANCH  38  41
ATOM     41  C   UNL A   1      33.868  35.072  32.233  1.00  0.00     0.039 A 
ATOM     42  C   UNL A   1      33.701  33.799  32.787  1.00  0.00     0.014 A 
ATOM     43  C   UNL A   1      35.141  35.644  32.168  1.00  0.00     0.014 A 
ATOM     44  C   UNL A   1      34.816  33.072  33.211  1.00  0.00     0.010 A 
ATOM     45  C   UNL A   1      36.259  34.892  32.528  1.00  0.00     0.010 A 
ATOM     46  C   UNL A   1      36.108  33.598  33.052  1.00  0.00    -0.014 A 
BRANCH  46  47
ATOM     47  C   UNL A   1      37.314  32.815  33.427  1.00  0.00     0.031 A 
ATOM     48  C   UNL A   1      38.039  33.116  34.709  1.00  0.00     0.074 A 
ATOM     49  C   UNL A   1      37.798  31.884  32.583  1.00  0.00     0.049 A 
ATOM     50  N   UNL A   1      39.162  32.620  35.164  1.00  0.00    -0.248 NA
ATOM     51  C   UNL A   1      37.434  34.133  35.585  1.00  0.00     0.031 C 
ATOM     52  C   UNL A   1      37.206  31.521  31.294  1.00  0.00     0.029 A 
ATOM     53  N   UNL A   1      38.909  31.081  32.676  1.00  0.00    -0.354 N 
ATOM     54  C   UNL A   1      39.404  33.272  36.366  1.00  0.00     0.074 A 
ATOM     55  C   UNL A   1      38.340  34.235  36.546  1.00  0.00     0.031 C 
ATOM     56  C   UNL A   1      37.950  30.559  30.724  1.00  0.00     0.029 A 
ATOM     57  C   UNL A   1      39.092  30.266  31.584  1.00  0.00     0.049 A 
ATOM     58  H   UNL A   1      39.516  31.088  33.450  1.00  0.00     0.167 HD
ATOM     59  C   UNL A   1      40.411  33.070  37.250  1.00  0.00     0.037 A 
ATOM     60  C   UNL A   1      40.077  29.391  31.304  1.00  0.00     0.037 A 
ATOM     61  C   UNL A   1      41.454  32.093  37.081  1.00  0.00     0.049 A 
ATOM     62  C   UNL A   1      41.194  29.198  32.295  1.00  0.00     0.074 A 
ATOM     63  C   UNL A   1      42.489  31.777  37.944  1.00  0.00     0.029 A 
ATOM     64  N   UNL A   1      41.595  31.274  35.970  1.00  0.00    -0.354 N 
ATOM     65  N   UNL A   1      41.382  29.780  33.453  1.00  0.00    -0.248 NA
ATOM     66  C   UNL A   1      42.234  28.222  31.939  1.00  0.00     0.031 C 
ATOM     67  C   UNL A   1      43.283  30.799  37.335  1.00  0.00     0.029 A 
ATOM     68  C   UNL A   1      42.713  30.467  36.116  1.00  0.00     0.049 A 
ATOM     69  H   UNL A   1      40.991  31.267  35.192  1.00  0.00     0.167 HD
ATOM     70  C   UNL A   1      42.538  29.220  33.980  1.00  0.00     0.074 A 
ATOM     71  C   UNL A   1      43.004  28.244  33.018  1.00  0.00     0.031 C 
ATOM     72  C   UNL A   1      43.156  29.490  35.156  1.00  0.00     0.037 A 
BRANCH  59  73
ATOM     73  C   UNL A   1      40.432  33.923  38.486  1.00  0.00     0.064 A 
ATOM     74  C   UNL A   1      41.141  35.134  38.531  1.00  0.00     0.173 A 
ATOM     75  C   UNL A   1      39.707  33.545  39.626  1.00  0.00     0.173 A 
ATOM     76  F   UNL A   1      41.860  35.536  37.473  1.00  0.00    -0.203 F 
ATOM     77  C   UNL A   1      41.147  35.918  39.682  1.00  0.00     0.198 A 
ATOM     78  C   UNL A   1      39.690  34.347  40.764  1.00  0.00     0.198 A 
ATOM     79  F   UNL A   1      39.007  32.401  39.634  1.00  0.00    -0.203 F 
ATOM     80  F   UNL A   1      41.873  37.044  39.719  1.00  0.00    -0.200 F 
ATOM     81  C   UNL A   1      40.415  35.529  40.794  1.00  0.00     0.200 A 
ATOM     82  F   UNL A   1      38.971  33.977  41.832  1.00  0.00    -0.200 F 
ATOM     83  F   UNL A   1      40.417  36.288  41.899  1.00  0.00    -0.200 F 
ENDBRANCH  59  73
BRANCH  60  84
ATOM     84  C   UNL A   1      40.045  28.616  30.035  1.00  0.00     0.064 A 
ATOM     85  C   UNL A   1      39.428  27.359  29.976  1.00  0.00     0.173 A 
ATOM     86  C   UNL A   1      40.635  29.109  28.863  1.00  0.00     0.173 A 
ATOM     87  F   UNL A   1      38.869  26.835  31.077  1.00  0.00    -0.203 F 
ATOM     88  C   UNL A   1      39.422  26.614  28.799  1.00  0.00     0.198 A 
ATOM     89  C   UNL A   1      40.602  28.376  27.678  1.00  0.00     0.198 A 
ATOM     90  F   UNL A   1      41.234  30.309  28.863  1.00  0.00    -0.203 F 
ATOM     91  F   UNL A   1      38.868  25.394  28.783  1.00  0.00    -0.200 F 
ATOM     92  C   UNL A   1      40.004  27.126  27.649  1.00  0.00     0.200 A 
ATOM     93  F   UNL A   1      41.154  28.881  26.565  1.00  0.00    -0.200 F 
ATOM     94  F   UNL A   1      39.995  26.410  26.515  1.00  0.00    -0.200 F 
ENDBRANCH  60  84
BRANCH  72  95
ATOM     95  C   UNL A   1      44.380  28.688  35.492  1.00  0.00     0.064 A 
ATOM     96  C   UNL A   1      44.300  27.480  36.201  1.00  0.00     0.173 A 
ATOM     97  C   UNL A   1      45.645  29.110  35.052  1.00  0.00     0.173 A 
ATOM     98  F   UNL A   1      43.117  27.041  36.656  1.00  0.00    -0.203 F 
ATOM     99  C   UNL A   1      45.444  26.735  36.475  1.00  0.00     0.198 A 
ATOM    100  C   UNL A   1      46.782  28.347  35.302  1.00  0.00     0.198 A 
ATOM    101  F   UNL A   1      45.774  30.254  34.365  1.00  0.00    -0.203 F 
ATOM    102  F   UNL A   1      45.350  25.606  37.191  1.00  0.00    -0.200 F 
ATOM    103  C   UNL A   1      46.682  27.165  36.018  1.00  0.00     0.200 A 
ATOM    104  F   UNL A   1      47.974  28.757  34.848  1.00  0.00    -0.200 F 
ATOM    105  F   UNL A   1      47.780  26.440  36.274  1.00  0.00    -0.200 F 
ENDBRANCH  72  95
ENDBRANCH  46  47
ENDBRANCH  38  41
ENDBRANCH  36  37
ENDBRANCH  35  36
ENDBRANCH  34  35
ENDBRANCH   1  34
TORSDOF 16
ENDMDL
