MODEL 1
REMARK VINA RESULT:     -12.2      0.000      0.000
REMARK SMILES Cc1cc(C(=O)N2C[C@@H](C(=O)NCCCCCCNC(=O)c3ccc(-c4c5nc(c(-c6c(F)c(F)c(F)c(F)c6F)c6ccc([nH]6)c(-c6c(F)c(F)c(F)c(F)c6F)c6nc(c(-c7c(F)c(F)c(F)c(F)c7F)c7ccc4[nH]7)C=C6)C=C5)cc3)[C@H](C3CC3)C2)sc1C
REMARK SMILES IDX 15 1 14 2 13 3 12 4 10 5 11 6 9 8 7 9 8 10 89 11 85 12 5 13
REMARK SMILES IDX 6 14 4 15 1 16 2 17 3 18 91 19 90 20 92 21 86 22 87 23 88 24
REMARK SMILES IDX 16 25 17 26 18 27 19 28 20 29 21 31 22 32 23 33 84 34 24 35
REMARK SMILES IDX 83 36 25 37 26 38 27 39 77 40 28 41 82 42 76 43 78 44 29 45
REMARK SMILES IDX 81 46 75 47 74 48 30 50 62 51 42 52 61 53 43 54 46 55 60 56
REMARK SMILES IDX 79 57 44 58 45 59 59 61 80 62 47 63 31 64 32 65 40 66 33 67
REMARK SMILES IDX 34 68 38 69 41 70 35 71 36 72 39 73 37 74 63 75 64 76 72 77
REMARK SMILES IDX 65 78 66 79 70 80 73 81 67 82 68 83 71 84 69 85 48 86 49 87
REMARK SMILES IDX 57 88 50 89 51 90 55 91 58 92 52 93 53 94 56 95 54 96
REMARK H PARENT 12 7 19 30 78 49 46 60
REMARK Flexibility Score: inf
ROOT
ATOM      1  C   UNL A   1      31.730  29.566  26.680  1.00  0.00     0.002 C 
ENDROOT
BRANCH   1   2
ATOM      2  C   UNL A   1      33.129  29.318  27.247  1.00  0.00     0.021 C 
BRANCH   2   3
ATOM      3  C   UNL A   1      34.084  28.554  26.338  1.00  0.00     0.116 C 
BRANCH   3   4
ATOM      4  N   UNL A   1      34.157  29.083  24.992  1.00  0.00    -0.356 N 
ATOM      5  C   UNL A   1      33.679  28.552  23.828  1.00  0.00     0.225 C 
ATOM      6  O   UNL A   1      33.744  29.243  22.810  1.00  0.00    -0.275 OA
ATOM      7  H   UNL A   1      34.617  29.950  24.903  1.00  0.00     0.163 HD
BRANCH   5   8
ATOM      8  C   UNL A   1      33.107  27.147  23.804  1.00  0.00     0.103 C 
ATOM      9  N   UNL A   1      33.077  25.166  22.601  1.00  0.00    -0.337 N 
ATOM     10  C   UNL A   1      33.971  26.265  22.904  1.00  0.00     0.133 C 
ATOM     11  C   UNL A   1      31.733  25.671  22.429  1.00  0.00     0.124 C 
ATOM     12  C   UNL A   1      31.713  27.051  23.133  1.00  0.00     0.026 C 
BRANCH   9  13
ATOM     13  C   UNL A   1      33.316  23.808  22.499  1.00  0.00     0.263 C 
ATOM     14  O   UNL A   1      33.326  23.290  21.379  1.00  0.00    -0.268 OA
BRANCH  13  15
ATOM     15  C   UNL A   1      33.435  22.982  23.698  1.00  0.00     0.093 A 
ATOM     16  C   UNL A   1      32.840  19.673  25.406  1.00  0.00     0.045 C 
ATOM     17  C   UNL A   1      33.159  21.098  25.095  1.00  0.00    -0.037 A 
ATOM     18  C   UNL A   1      33.220  21.615  23.758  1.00  0.00     0.029 A 
ATOM     19  C   UNL A   1      33.390  22.101  26.021  1.00  0.00     0.005 A 
ATOM     20  S   UNL A   1      33.576  23.625  25.276  1.00  0.00    -0.135 S 
ATOM     21  C   UNL A   1      33.429  22.004  27.510  1.00  0.00     0.056 C 
ENDBRANCH  13  15
ENDBRANCH   9  13
BRANCH  12  22
ATOM     22  C   UNL A   1      30.487  27.152  24.018  1.00  0.00    -0.005 C 
ATOM     23  C   UNL A   1      29.139  27.666  23.575  1.00  0.00     0.004 C 
ATOM     24  C   UNL A   1      29.329  26.202  23.870  1.00  0.00     0.004 C 
ENDBRANCH  12  22
ENDBRANCH   5   8
ENDBRANCH   3   4
ENDBRANCH   2   3
ENDBRANCH   1   2
BRANCH   1  25
ATOM     25  C   UNL A   1      31.514  30.900  25.959  1.00  0.00     0.002 C 
BRANCH  25  26
ATOM     26  C   UNL A   1      31.348  32.132  26.852  1.00  0.00     0.021 C 
BRANCH  26  27
ATOM     27  C   UNL A   1      32.624  32.914  27.145  1.00  0.00     0.116 C 
BRANCH  27  28
ATOM     28  N   UNL A   1      32.364  34.267  27.603  1.00  0.00    -0.352 N 
ATOM     29  C   UNL A   1      32.964  34.984  28.608  1.00  0.00     0.251 C 
ATOM     30  H   UNL A   1      31.649  34.742  27.119  1.00  0.00     0.163 HD
ATOM     31  O   UNL A   1      32.508  36.072  28.943  1.00  0.00    -0.269 OA
BRANCH  29  32
ATOM     32  C   UNL A   1      34.146  34.437  29.308  1.00  0.00     0.039 A 
ATOM     33  C   UNL A   1      33.957  33.772  30.523  1.00  0.00     0.014 A 
ATOM     34  C   UNL A   1      35.434  34.589  28.789  1.00  0.00     0.014 A 
ATOM     35  C   UNL A   1      35.050  33.211  31.186  1.00  0.00     0.010 A 
ATOM     36  C   UNL A   1      36.513  33.965  29.411  1.00  0.00     0.010 A 
ATOM     37  C   UNL A   1      36.333  33.274  30.619  1.00  0.00    -0.014 A 
BRANCH  37  38
ATOM     38  C   UNL A   1      37.496  32.628  31.278  1.00  0.00     0.031 A 
ATOM     39  C   UNL A   1      38.214  31.493  30.603  1.00  0.00     0.074 A 
ATOM     40  C   UNL A   1      37.869  33.024  32.511  1.00  0.00     0.049 A 
ATOM     41  N   UNL A   1      39.204  30.757  31.044  1.00  0.00    -0.248 NA
ATOM     42  C   UNL A   1      37.740  31.116  29.262  1.00  0.00     0.031 C 
ATOM     43  C   UNL A   1      37.228  34.086  33.287  1.00  0.00     0.029 A 
ATOM     44  N   UNL A   1      38.873  32.573  33.332  1.00  0.00    -0.354 N 
ATOM     45  C   UNL A   1      39.459  29.827  30.045  1.00  0.00     0.074 A 
ATOM     46  C   UNL A   1      38.486  30.054  28.998  1.00  0.00     0.031 C 
ATOM     47  C   UNL A   1      37.865  34.219  34.461  1.00  0.00     0.029 A 
ATOM     48  C   UNL A   1      38.931  33.225  34.539  1.00  0.00     0.049 A 
ATOM     49  H   UNL A   1      39.491  31.849  33.079  1.00  0.00     0.167 HD
ATOM     50  C   UNL A   1      40.433  28.887  29.994  1.00  0.00     0.037 A 
ATOM     51  C   UNL A   1      39.747  33.036  35.594  1.00  0.00     0.037 A 
ATOM     52  C   UNL A   1      41.411  28.678  31.029  1.00  0.00     0.049 A 
ATOM     53  C   UNL A   1      40.806  31.970  35.520  1.00  0.00     0.074 A 
ATOM     54  C   UNL A   1      42.471  27.789  31.048  1.00  0.00     0.029 A 
ATOM     55  N   UNL A   1      41.444  29.365  32.235  1.00  0.00    -0.354 N 
ATOM     56  N   UNL A   1      41.083  31.143  34.541  1.00  0.00    -0.248 NA
ATOM     57  C   UNL A   1      41.673  31.816  36.697  1.00  0.00     0.031 C 
ATOM     58  C   UNL A   1      43.113  27.900  32.286  1.00  0.00     0.029 A 
ATOM     59  C   UNL A   1      42.490  28.899  33.016  1.00  0.00     0.049 A 
ATOM     60  H   UNL A   1      40.817  30.078  32.496  1.00  0.00     0.167 HD
ATOM     61  C   UNL A   1      42.170  30.392  34.971  1.00  0.00     0.074 A 
ATOM     62  C   UNL A   1      42.514  30.874  36.292  1.00  0.00     0.031 C 
ATOM     63  C   UNL A   1      42.824  29.394  34.328  1.00  0.00     0.037 A 
BRANCH  50  64
ATOM     64  C   UNL A   1      40.486  28.007  28.777  1.00  0.00     0.064 A 
ATOM     65  C   UNL A   1      41.245  28.354  27.648  1.00  0.00     0.173 A 
ATOM     66  C   UNL A   1      39.799  26.784  28.751  1.00  0.00     0.173 A 
ATOM     67  F   UNL A   1      41.914  29.517  27.615  1.00  0.00    -0.203 F 
ATOM     68  C   UNL A   1      41.287  27.527  26.529  1.00  0.00     0.198 A 
ATOM     69  C   UNL A   1      39.871  25.943  27.643  1.00  0.00     0.198 A 
ATOM     70  F   UNL A   1      39.063  26.398  29.805  1.00  0.00    -0.203 F 
ATOM     71  F   UNL A   1      41.974  27.907  25.443  1.00  0.00    -0.200 F 
ATOM     72  C   UNL A   1      40.607  26.320  26.530  1.00  0.00     0.200 A 
ATOM     73  F   UNL A   1      39.224  24.769  27.652  1.00  0.00    -0.200 F 
ATOM     74  F   UNL A   1      40.654  25.520  25.455  1.00  0.00    -0.200 F 
ENDBRANCH  50  64
BRANCH  51  75
ATOM     75  C   UNL A   1      39.605  33.887  36.805  1.00  0.00     0.064 A 
ATOM     76  C   UNL A   1      38.824  33.467  37.893  1.00  0.00     0.173 A 
ATOM     77  C   UNL A   1      40.234  35.137  36.899  1.00  0.00     0.173 A 
ATOM     78  F   UNL A   1      38.186  32.289  37.843  1.00  0.00    -0.203 F 
ATOM     79  C   UNL A   1      38.661  34.275  39.016  1.00  0.00     0.198 A 
ATOM     80  C   UNL A   1      40.095  35.929  38.037  1.00  0.00     0.198 A 
ATOM     81  F   UNL A   1      40.996  35.583  35.890  1.00  0.00    -0.203 F 
ATOM     82  F   UNL A   1      37.869  33.871  40.019  1.00  0.00    -0.200 F 
ATOM     83  C   UNL A   1      39.302  35.503  39.091  1.00  0.00     0.200 A 
ATOM     84  F   UNL A   1      40.729  37.108  38.110  1.00  0.00    -0.200 F 
ATOM     85  F   UNL A   1      39.147  36.278  40.172  1.00  0.00    -0.200 F 
ENDBRANCH  51  75
BRANCH  63  86
ATOM     86  C   UNL A   1      44.001  28.778  35.029  1.00  0.00     0.064 A 
ATOM     87  C   UNL A   1      43.863  27.655  35.858  1.00  0.00     0.173 A 
ATOM     88  C   UNL A   1      45.291  29.297  34.837  1.00  0.00     0.173 A 
ATOM     89  F   UNL A   1      42.650  27.130  36.087  1.00  0.00    -0.203 F 
ATOM     90  C   UNL A   1      44.969  27.093  36.491  1.00  0.00     0.198 A 
ATOM     91  C   UNL A   1      46.398  28.711  35.443  1.00  0.00     0.198 A 
ATOM     92  F   UNL A   1      45.480  30.365  34.047  1.00  0.00    -0.203 F 
ATOM     93  F   UNL A   1      44.805  26.052  37.321  1.00  0.00    -0.200 F 
ATOM     94  C   UNL A   1      46.236  27.614  36.277  1.00  0.00     0.200 A 
ATOM     95  F   UNL A   1      47.624  29.207  35.222  1.00  0.00    -0.200 F 
ATOM     96  F   UNL A   1      47.299  27.066  36.880  1.00  0.00    -0.200 F 
ENDBRANCH  63  86
ENDBRANCH  37  38
ENDBRANCH  29  32
ENDBRANCH  27  28
ENDBRANCH  26  27
ENDBRANCH  25  26
ENDBRANCH   1  25
TORSDOF 16
ENDMDL
MODEL 2
REMARK VINA RESULT:     -11.9      3.733      8.574
REMARK SMILES Cc1cc(C(=O)N2C[C@@H](C(=O)NCCCCCCNC(=O)c3ccc(-c4c5nc(c(-c6c(F)c(F)c(F)c(F)c6F)c6ccc([nH]6)c(-c6c(F)c(F)c(F)c(F)c6F)c6nc(c(-c7c(F)c(F)c(F)c(F)c7F)c7ccc4[nH]7)C=C6)C=C5)cc3)[C@H](C3CC3)C2)sc1C
REMARK SMILES IDX 15 1 14 2 13 3 12 4 10 5 11 6 9 8 7 9 8 10 89 11 85 12 5 13
REMARK SMILES IDX 6 14 4 15 1 16 2 17 3 18 91 19 90 20 92 21 86 22 87 23 88 24
REMARK SMILES IDX 16 25 17 26 18 27 19 28 20 29 21 31 22 32 23 33 84 34 24 35
REMARK SMILES IDX 83 36 25 37 26 38 27 39 77 40 28 41 82 42 76 43 78 44 29 45
REMARK SMILES IDX 81 46 75 47 74 48 30 50 62 51 42 52 61 53 43 54 46 55 60 56
REMARK SMILES IDX 79 57 44 58 45 59 59 61 80 62 47 63 31 64 32 65 40 66 33 67
REMARK SMILES IDX 34 68 38 69 41 70 35 71 36 72 39 73 37 74 63 75 64 76 72 77
REMARK SMILES IDX 65 78 66 79 70 80 73 81 67 82 68 83 71 84 69 85 48 86 49 87
REMARK SMILES IDX 57 88 50 89 51 90 55 91 58 92 52 93 53 94 56 95 54 96
REMARK H PARENT 12 7 19 30 78 49 46 60
REMARK Flexibility Score: inf
ROOT
ATOM      1  C   UNL A   1      32.233  29.753  24.951  1.00  0.00     0.002 C 
ENDROOT
BRANCH   1   2
ATOM      2  C   UNL A   1      32.263  28.992  23.623  1.00  0.00     0.021 C 
BRANCH   2   3
ATOM      3  C   UNL A   1      33.640  28.549  23.147  1.00  0.00     0.116 C 
BRANCH   3   4
ATOM      4  N   UNL A   1      33.606  27.684  21.986  1.00  0.00    -0.356 N 
ATOM      5  C   UNL A   1      33.251  26.368  21.899  1.00  0.00     0.225 C 
ATOM      6  O   UNL A   1      33.173  25.865  20.776  1.00  0.00    -0.275 OA
ATOM      7  H   UNL A   1      33.877  28.106  21.137  1.00  0.00     0.163 HD
BRANCH   5   8
ATOM      8  C   UNL A   1      32.981  25.562  23.156  1.00  0.00     0.103 C 
ATOM      9  N   UNL A   1      32.880  23.408  24.003  1.00  0.00    -0.337 N 
ATOM     10  C   UNL A   1      33.602  24.174  23.008  1.00  0.00     0.133 C 
ATOM     11  C   UNL A   1      31.498  23.832  24.028  1.00  0.00     0.124 C 
ATOM     12  C   UNL A   1      31.481  25.239  23.381  1.00  0.00     0.026 C 
BRANCH   9  13
ATOM     13  C   UNL A   1      33.313  22.429  24.880  1.00  0.00     0.263 C 
ATOM     14  O   UNL A   1      32.477  21.674  25.385  1.00  0.00    -0.268 OA
BRANCH  13  15
ATOM     15  C   UNL A   1      34.712  22.370  25.294  1.00  0.00     0.093 A 
ATOM     16  C   UNL A   1      37.862  24.192  26.284  1.00  0.00     0.045 C 
ATOM     17  C   UNL A   1      36.858  23.164  25.877  1.00  0.00    -0.037 A 
ATOM     18  C   UNL A   1      35.453  23.434  25.782  1.00  0.00     0.029 A 
ATOM     19  C   UNL A   1      37.135  21.861  25.503  1.00  0.00     0.005 A 
ATOM     20  S   UNL A   1      35.737  21.041  24.968  1.00  0.00    -0.135 S 
ATOM     21  C   UNL A   1      38.454  21.162  25.462  1.00  0.00     0.056 C 
ENDBRANCH  13  15
ENDBRANCH   9  13
BRANCH  12  22
ATOM     22  C   UNL A   1      30.669  26.185  24.242  1.00  0.00    -0.005 C 
ATOM     23  C   UNL A   1      29.163  26.190  24.340  1.00  0.00     0.004 C 
ATOM     24  C   UNL A   1      29.994  25.718  25.503  1.00  0.00     0.004 C 
ENDBRANCH  12  22
ENDBRANCH   5   8
ENDBRANCH   3   4
ENDBRANCH   2   3
ENDBRANCH   1   2
BRANCH   1  25
ATOM     25  C   UNL A   1      31.750  28.969  26.174  1.00  0.00     0.002 C 
BRANCH  25  26
ATOM     26  C   UNL A   1      32.797  28.106  26.881  1.00  0.00     0.021 C 
BRANCH  26  27
ATOM     27  C   UNL A   1      34.140  28.777  27.144  1.00  0.00     0.116 C 
BRANCH  27  28
ATOM     28  N   UNL A   1      34.006  30.081  27.769  1.00  0.00    -0.352 N 
ATOM     29  C   UNL A   1      34.882  30.761  28.578  1.00  0.00     0.251 C 
ATOM     30  H   UNL A   1      33.158  30.548  27.586  1.00  0.00     0.163 HD
ATOM     31  O   UNL A   1      34.531  31.798  29.130  1.00  0.00    -0.269 OA
BRANCH  29  32
ATOM     32  C   UNL A   1      36.245  30.233  28.808  1.00  0.00     0.039 A 
ATOM     33  C   UNL A   1      37.222  30.454  27.833  1.00  0.00     0.014 A 
ATOM     34  C   UNL A   1      36.559  29.511  29.961  1.00  0.00     0.014 A 
ATOM     35  C   UNL A   1      38.526  30.002  28.042  1.00  0.00     0.010 A 
ATOM     36  C   UNL A   1      37.875  29.125  30.203  1.00  0.00     0.010 A 
ATOM     37  C   UNL A   1      38.872  29.363  29.244  1.00  0.00    -0.014 A 
BRANCH  37  38
ATOM     38  C   UNL A   1      40.268  28.932  29.510  1.00  0.00     0.031 A 
ATOM     39  C   UNL A   1      41.200  29.823  30.283  1.00  0.00     0.074 A 
ATOM     40  C   UNL A   1      40.714  27.765  29.005  1.00  0.00     0.049 A 
ATOM     41  N   UNL A   1      42.470  29.655  30.559  1.00  0.00    -0.248 NA
ATOM     42  C   UNL A   1      40.638  31.082  30.794  1.00  0.00     0.031 C 
ATOM     43  C   UNL A   1      39.919  26.832  28.205  1.00  0.00     0.029 A 
ATOM     44  N   UNL A   1      41.948  27.168  29.081  1.00  0.00    -0.354 N 
ATOM     45  C   UNL A   1      42.858  30.789  31.259  1.00  0.00     0.074 A 
ATOM     46  C   UNL A   1      41.706  31.664  31.320  1.00  0.00     0.031 C 
ATOM     47  C   UNL A   1      40.677  25.773  27.881  1.00  0.00     0.029 A 
ATOM     48  C   UNL A   1      42.022  25.970  28.414  1.00  0.00     0.049 A 
ATOM     49  H   UNL A   1      42.708  27.563  29.567  1.00  0.00     0.167 HD
ATOM     50  C   UNL A   1      44.058  31.066  31.823  1.00  0.00     0.037 A 
ATOM     51  C   UNL A   1      43.060  25.130  28.243  1.00  0.00     0.037 A 
ATOM     52  C   UNL A   1      45.195  30.185  31.777  1.00  0.00     0.049 A 
ATOM     53  C   UNL A   1      44.389  25.471  28.861  1.00  0.00     0.074 A 
ATOM     54  C   UNL A   1      46.438  30.348  32.364  1.00  0.00     0.029 A 
ATOM     55  N   UNL A   1      45.230  28.974  31.099  1.00  0.00    -0.354 N 
ATOM     56  N   UNL A   1      44.725  26.514  29.581  1.00  0.00    -0.248 NA
ATOM     57  C   UNL A   1      45.483  24.512  28.649  1.00  0.00     0.031 C 
ATOM     58  C   UNL A   1      47.241  29.264  31.996  1.00  0.00     0.029 A 
ATOM     59  C   UNL A   1      46.482  28.394  31.231  1.00  0.00     0.049 A 
ATOM     60  H   UNL A   1      44.477  28.585  30.599  1.00  0.00     0.167 HD
ATOM     61  C   UNL A   1      46.056  26.325  29.931  1.00  0.00     0.074 A 
ATOM     62  C   UNL A   1      46.461  25.058  29.359  1.00  0.00     0.031 C 
ATOM     63  C   UNL A   1      46.869  27.128  30.660  1.00  0.00     0.037 A 
BRANCH  50  64
ATOM     64  C   UNL A   1      44.205  32.380  32.537  1.00  0.00     0.064 A 
ATOM     65  C   UNL A   1      44.651  33.534  31.874  1.00  0.00     0.173 A 
ATOM     66  C   UNL A   1      43.863  32.497  33.893  1.00  0.00     0.173 A 
ATOM     67  F   UNL A   1      45.002  33.477  30.580  1.00  0.00    -0.203 F 
ATOM     68  C   UNL A   1      44.780  34.745  32.549  1.00  0.00     0.198 A 
ATOM     69  C   UNL A   1      43.961  33.717  34.556  1.00  0.00     0.198 A 
ATOM     70  F   UNL A   1      43.424  31.427  34.575  1.00  0.00    -0.203 F 
ATOM     71  F   UNL A   1      45.261  35.819  31.908  1.00  0.00    -0.200 F 
ATOM     72  C   UNL A   1      44.428  34.838  33.886  1.00  0.00     0.200 A 
ATOM     73  F   UNL A   1      43.605  33.808  35.845  1.00  0.00    -0.200 F 
ATOM     74  F   UNL A   1      44.545  36.006  34.533  1.00  0.00    -0.200 F 
ENDBRANCH  50  64
BRANCH  51  75
ATOM     75  C   UNL A   1      42.882  23.876  27.465  1.00  0.00     0.064 A 
ATOM     76  C   UNL A   1      42.386  22.714  28.075  1.00  0.00     0.173 A 
ATOM     77  C   UNL A   1      43.211  23.806  26.103  1.00  0.00     0.173 A 
ATOM     78  F   UNL A   1      42.076  22.724  29.380  1.00  0.00    -0.203 F 
ATOM     79  C   UNL A   1      42.248  21.527  27.358  1.00  0.00     0.198 A 
ATOM     80  C   UNL A   1      43.043  22.626  25.381  1.00  0.00     0.198 A 
ATOM     81  F   UNL A   1      43.685  24.889  25.470  1.00  0.00    -0.203 F 
ATOM     82  F   UNL A   1      41.819  20.419  27.979  1.00  0.00    -0.200 F 
ATOM     83  C   UNL A   1      42.570  21.485  26.011  1.00  0.00     0.200 A 
ATOM     84  F   UNL A   1      43.341  22.596  24.075  1.00  0.00    -0.200 F 
ATOM     85  F   UNL A   1      42.435  20.345  25.322  1.00  0.00    -0.200 F 
ENDBRANCH  51  75
BRANCH  63  86
ATOM     86  C   UNL A   1      48.268  26.645  30.913  1.00  0.00     0.064 A 
ATOM     87  C   UNL A   1      48.570  25.780  31.975  1.00  0.00     0.173 A 
ATOM     88  C   UNL A   1      49.314  27.023  30.057  1.00  0.00     0.173 A 
ATOM     89  F   UNL A   1      47.610  25.401  32.831  1.00  0.00    -0.203 F 
ATOM     90  C   UNL A   1      49.874  25.335  32.187  1.00  0.00     0.198 A 
ATOM     91  C   UNL A   1      50.608  26.549  30.251  1.00  0.00     0.198 A 
ATOM     92  F   UNL A   1      49.078  27.843  29.021  1.00  0.00    -0.203 F 
ATOM     93  F   UNL A   1      50.148  24.551  33.240  1.00  0.00    -0.200 F 
ATOM     94  C   UNL A   1      50.889  25.712  31.321  1.00  0.00     0.200 A 
ATOM     95  F   UNL A   1      51.585  26.901  29.404  1.00  0.00    -0.200 F 
ATOM     96  F   UNL A   1      52.140  25.276  31.522  1.00  0.00    -0.200 F 
ENDBRANCH  63  86
ENDBRANCH  37  38
ENDBRANCH  29  32
ENDBRANCH  27  28
ENDBRANCH  26  27
ENDBRANCH  25  26
ENDBRANCH   1  25
TORSDOF 16
ENDMDL
MODEL 3
REMARK VINA RESULT:     -11.7      1.884      3.677
REMARK SMILES Cc1cc(C(=O)N2C[C@@H](C(=O)NCCCCCCNC(=O)c3ccc(-c4c5nc(c(-c6c(F)c(F)c(F)c(F)c6F)c6ccc([nH]6)c(-c6c(F)c(F)c(F)c(F)c6F)c6nc(c(-c7c(F)c(F)c(F)c(F)c7F)c7ccc4[nH]7)C=C6)C=C5)cc3)[C@H](C3CC3)C2)sc1C
REMARK SMILES IDX 15 1 14 2 13 3 12 4 10 5 11 6 9 8 7 9 8 10 89 11 85 12 5 13
REMARK SMILES IDX 6 14 4 15 1 16 2 17 3 18 91 19 90 20 92 21 86 22 87 23 88 24
REMARK SMILES IDX 16 25 17 26 18 27 19 28 20 29 21 31 22 32 23 33 84 34 24 35
REMARK SMILES IDX 83 36 25 37 26 38 27 39 77 40 28 41 82 42 76 43 78 44 29 45
REMARK SMILES IDX 81 46 75 47 74 48 30 50 62 51 42 52 61 53 43 54 46 55 60 56
REMARK SMILES IDX 79 57 44 58 45 59 59 61 80 62 47 63 31 64 32 65 40 66 33 67
REMARK SMILES IDX 34 68 38 69 41 70 35 71 36 72 39 73 37 74 63 75 64 76 72 77
REMARK SMILES IDX 65 78 66 79 70 80 73 81 67 82 68 83 71 84 69 85 48 86 49 87
REMARK SMILES IDX 57 88 50 89 51 90 55 91 58 92 52 93 53 94 56 95 54 96
REMARK H PARENT 12 7 19 30 78 49 46 60
REMARK Flexibility Score: inf
ROOT
ATOM      1  C   UNL A   1      32.417  29.575  26.752  1.00  0.00     0.002 C 
ENDROOT
BRANCH   1   2
ATOM      2  C   UNL A   1      33.531  28.914  25.938  1.00  0.00     0.021 C 
BRANCH   2   3
ATOM      3  C   UNL A   1      33.240  27.502  25.445  1.00  0.00     0.116 C 
BRANCH   3   4
ATOM      4  N   UNL A   1      33.857  27.189  24.172  1.00  0.00    -0.356 N 
ATOM      5  C   UNL A   1      33.272  27.002  22.953  1.00  0.00     0.225 C 
ATOM      6  O   UNL A   1      34.010  26.870  21.974  1.00  0.00    -0.275 OA
ATOM      7  H   UNL A   1      34.838  27.099  24.189  1.00  0.00     0.163 HD
BRANCH   5   8
ATOM      8  C   UNL A   1      31.761  26.943  22.827  1.00  0.00     0.103 C 
ATOM      9  N   UNL A   1      29.794  27.965  23.503  1.00  0.00    -0.337 N 
ATOM     10  C   UNL A   1      31.170  28.301  23.204  1.00  0.00     0.133 C 
ATOM     11  C   UNL A   1      29.745  26.688  24.178  1.00  0.00     0.124 C 
ATOM     12  C   UNL A   1      31.086  25.987  23.844  1.00  0.00     0.026 C 
BRANCH   9  13
ATOM     13  C   UNL A   1      28.617  28.635  23.218  1.00  0.00     0.263 C 
ATOM     14  O   UNL A   1      27.547  28.031  23.337  1.00  0.00    -0.268 OA
BRANCH  13  15
ATOM     15  C   UNL A   1      28.647  29.990  22.673  1.00  0.00     0.093 A 
ATOM     16  C   UNL A   1      28.950  33.701  23.274  1.00  0.00     0.045 C 
ATOM     17  C   UNL A   1      28.725  32.350  22.678  1.00  0.00    -0.037 A 
ATOM     18  C   UNL A   1      29.022  31.128  23.368  1.00  0.00     0.029 A 
ATOM     19  C   UNL A   1      28.174  32.091  21.434  1.00  0.00     0.005 A 
ATOM     20  S   UNL A   1      27.948  30.419  21.174  1.00  0.00    -0.135 S 
ATOM     21  C   UNL A   1      27.730  33.062  20.391  1.00  0.00     0.056 C 
ENDBRANCH  13  15
ENDBRANCH   9  13
BRANCH  12  22
ATOM     22  C   UNL A   1      30.820  24.560  23.413  1.00  0.00    -0.005 C 
ATOM     23  C   UNL A   1      31.882  23.514  23.176  1.00  0.00     0.004 C 
ATOM     24  C   UNL A   1      30.971  23.408  24.370  1.00  0.00     0.004 C 
ENDBRANCH  12  22
ENDBRANCH   5   8
ENDBRANCH   3   4
ENDBRANCH   2   3
ENDBRANCH   1   2
BRANCH   1  25
ATOM     25  C   UNL A   1      31.556  30.606  26.017  1.00  0.00     0.002 C 
BRANCH  25  26
ATOM     26  C   UNL A   1      31.401  31.968  26.698  1.00  0.00     0.021 C 
BRANCH  26  27
ATOM     27  C   UNL A   1      32.689  32.761  26.891  1.00  0.00     0.116 C 
BRANCH  27  28
ATOM     28  N   UNL A   1      32.467  34.054  27.514  1.00  0.00    -0.352 N 
ATOM     29  C   UNL A   1      33.090  34.627  28.594  1.00  0.00     0.251 C 
ATOM     30  H   UNL A   1      31.763  34.603  27.097  1.00  0.00     0.163 HD
ATOM     31  O   UNL A   1      32.665  35.677  29.064  1.00  0.00    -0.269 OA
BRANCH  29  32
ATOM     32  C   UNL A   1      34.260  33.967  29.214  1.00  0.00     0.039 A 
ATOM     33  C   UNL A   1      35.528  34.514  29.001  1.00  0.00     0.014 A 
ATOM     34  C   UNL A   1      34.118  32.810  29.984  1.00  0.00     0.014 A 
ATOM     35  C   UNL A   1      36.645  33.935  29.607  1.00  0.00     0.010 A 
ATOM     36  C   UNL A   1      35.221  32.277  30.648  1.00  0.00     0.010 A 
ATOM     37  C   UNL A   1      36.497  32.831  30.462  1.00  0.00    -0.014 A 
BRANCH  37  38
ATOM     38  C   UNL A   1      37.665  32.242  31.165  1.00  0.00     0.031 A 
ATOM     39  C   UNL A   1      38.440  31.120  30.532  1.00  0.00     0.074 A 
ATOM     40  C   UNL A   1      37.990  32.676  32.398  1.00  0.00     0.049 A 
ATOM     41  N   UNL A   1      39.444  30.430  31.014  1.00  0.00    -0.248 NA
ATOM     42  C   UNL A   1      38.017  30.700  29.188  1.00  0.00     0.031 C 
ATOM     43  C   UNL A   1      37.290  33.729  33.135  1.00  0.00     0.029 A 
ATOM     44  N   UNL A   1      38.987  32.278  33.254  1.00  0.00    -0.354 N 
ATOM     45  C   UNL A   1      39.760  29.491  30.042  1.00  0.00     0.074 A 
ATOM     46  C   UNL A   1      38.808  29.661  28.965  1.00  0.00     0.031 C 
ATOM     47  C   UNL A   1      37.890  33.908  34.322  1.00  0.00     0.029 A 
ATOM     48  C   UNL A   1      38.990  32.956  34.449  1.00  0.00     0.049 A 
ATOM     49  H   UNL A   1      39.637  31.573  33.033  1.00  0.00     0.167 HD
ATOM     50  C   UNL A   1      40.767  28.586  30.036  1.00  0.00     0.037 A 
ATOM     51  C   UNL A   1      39.783  32.818  35.528  1.00  0.00     0.037 A 
ATOM     52  C   UNL A   1      41.724  28.433  31.100  1.00  0.00     0.049 A 
ATOM     53  C   UNL A   1      40.881  31.790  35.504  1.00  0.00     0.074 A 
ATOM     54  C   UNL A   1      42.815  27.585  31.166  1.00  0.00     0.029 A 
ATOM     55  N   UNL A   1      41.700  29.145  32.292  1.00  0.00    -0.354 N 
ATOM     56  N   UNL A   1      41.214  30.954  34.551  1.00  0.00    -0.248 NA
ATOM     57  C   UNL A   1      41.721  31.691  36.706  1.00  0.00     0.031 C 
ATOM     58  C   UNL A   1      43.419  27.743  32.418  1.00  0.00     0.029 A 
ATOM     59  C   UNL A   1      42.741  28.733  33.109  1.00  0.00     0.049 A 
ATOM     60  H   UNL A   1      41.042  29.839  32.522  1.00  0.00     0.167 HD
ATOM     61  C   UNL A   1      42.315  30.252  35.024  1.00  0.00     0.074 A 
ATOM     62  C   UNL A   1      42.606  30.773  36.343  1.00  0.00     0.031 C 
ATOM     63  C   UNL A   1      43.021  29.266  34.420  1.00  0.00     0.037 A 
BRANCH  50  64
ATOM     64  C   UNL A   1      40.885  27.684  28.839  1.00  0.00     0.064 A 
ATOM     65  C   UNL A   1      41.818  27.930  27.819  1.00  0.00     0.173 A 
ATOM     66  C   UNL A   1      40.081  26.540  28.727  1.00  0.00     0.173 A 
ATOM     67  F   UNL A   1      42.605  29.015  27.871  1.00  0.00    -0.203 F 
ATOM     68  C   UNL A   1      41.917  27.084  26.718  1.00  0.00     0.198 A 
ATOM     69  C   UNL A   1      40.206  25.677  27.641  1.00  0.00     0.198 A 
ATOM     70  F   UNL A   1      39.176  26.252  29.676  1.00  0.00    -0.203 F 
ATOM     71  F   UNL A   1      42.777  27.370  25.731  1.00  0.00    -0.200 F 
ATOM     72  C   UNL A   1      41.118  25.955  26.633  1.00  0.00     0.200 A 
ATOM     73  F   UNL A   1      39.442  24.579  27.568  1.00  0.00    -0.200 F 
ATOM     74  F   UNL A   1      41.219  25.137  25.576  1.00  0.00    -0.200 F 
ENDBRANCH  50  64
BRANCH  51  75
ATOM     75  C   UNL A   1      39.578  33.687  36.717  1.00  0.00     0.064 A 
ATOM     76  C   UNL A   1      38.779  33.263  37.790  1.00  0.00     0.173 A 
ATOM     77  C   UNL A   1      40.164  34.958  36.804  1.00  0.00     0.173 A 
ATOM     78  F   UNL A   1      38.180  32.064  37.745  1.00  0.00    -0.203 F 
ATOM     79  C   UNL A   1      38.557  34.087  38.892  1.00  0.00     0.198 A 
ATOM     80  C   UNL A   1      39.966  35.768  37.921  1.00  0.00     0.198 A 
ATOM     81  F   UNL A   1      40.941  35.409  35.809  1.00  0.00    -0.203 F 
ATOM     82  F   UNL A   1      37.748  33.677  39.879  1.00  0.00    -0.200 F 
ATOM     83  C   UNL A   1      39.155  35.336  38.960  1.00  0.00     0.200 A 
ATOM     84  F   UNL A   1      40.559  36.967  37.989  1.00  0.00    -0.200 F 
ATOM     85  F   UNL A   1      38.944  36.126  40.020  1.00  0.00    -0.200 F 
ENDBRANCH  51  75
BRANCH  63  86
ATOM     86  C   UNL A   1      44.201  28.708  35.164  1.00  0.00     0.064 A 
ATOM     87  C   UNL A   1      44.082  27.595  36.009  1.00  0.00     0.173 A 
ATOM     88  C   UNL A   1      45.475  29.272  34.998  1.00  0.00     0.173 A 
ATOM     89  F   UNL A   1      42.883  27.028  36.214  1.00  0.00    -0.203 F 
ATOM     90  C   UNL A   1      45.190  27.086  36.682  1.00  0.00     0.198 A 
ATOM     91  C   UNL A   1      46.587  28.740  35.645  1.00  0.00     0.198 A 
ATOM     92  F   UNL A   1      45.646  30.333  34.194  1.00  0.00    -0.203 F 
ATOM     93  F   UNL A   1      45.043  26.054  37.526  1.00  0.00    -0.200 F 
ATOM     94  C   UNL A   1      46.442  27.652  36.493  1.00  0.00     0.200 A 
ATOM     95  F   UNL A   1      47.798  29.278  35.448  1.00  0.00    -0.200 F 
ATOM     96  F   UNL A   1      47.508  27.155  37.136  1.00  0.00    -0.200 F 
ENDBRANCH  63  86
ENDBRANCH  37  38
ENDBRANCH  29  32
ENDBRANCH  27  28
ENDBRANCH  26  27
ENDBRANCH  25  26
ENDBRANCH   1  25
TORSDOF 16
ENDMDL
