MODEL 1
REMARK VINA RESULT:     -11.8      0.000      0.000
REMARK SMILES CC(=O)N1CCC[C@@H](Cc2nccnc2C(=O)NCCCCCCNC(=O)c2ccc(-c3c4nc(c(-c5c(F)c(F)c(F)c(F)c5F)c5ccc([nH]5)c(-c5c(F)c(F)c(F)c(F)c5F)c5nc(c(-c6c(F)c(F)c(F)c(F)c6F)c6ccc3[nH]6)C=C5)C=C4)cc2)C1
REMARK SMILES IDX 21 1 20 2 19 3 18 4 16 5 17 6 15 8 10 9 11 10 12 11 14 12
REMARK SMILES IDX 13 13 9 14 8 15 4 16 5 17 91 18 6 19 7 20 2 21 1 22 3 23
REMARK SMILES IDX 22 24 23 25 24 26 25 27 26 28 27 30 28 31 29 32 90 33 30 34
REMARK SMILES IDX 89 35 31 36 32 37 33 38 83 39 34 40 88 41 82 42 84 43 35 44
REMARK SMILES IDX 87 45 81 46 80 47 36 49 68 50 48 51 67 52 49 53 52 54 66 55
REMARK SMILES IDX 85 56 50 57 51 58 65 60 86 61 53 62 37 63 38 64 46 65 39 66
REMARK SMILES IDX 40 67 44 68 47 69 41 70 42 71 45 72 43 73 69 74 70 75 78 76
REMARK SMILES IDX 71 77 72 78 76 79 79 80 73 81 74 82 77 83 75 84 54 85 55 86
REMARK SMILES IDX 63 87 56 88 57 89 61 90 64 91 58 92 59 93 62 94 60 95
REMARK H PARENT 18 7 25 29 84 48 52 59
REMARK Flexibility Score: inf
ROOT
ATOM      1  C   UNL A   1      31.976  29.920  26.879  1.00  0.00     0.002 C 
ENDROOT
BRANCH   1   2
ATOM      2  C   UNL A   1      33.377  29.508  26.436  1.00  0.00     0.021 C 
BRANCH   2   3
ATOM      3  C   UNL A   1      33.727  28.042  26.643  1.00  0.00     0.116 C 
BRANCH   3   4
ATOM      4  N   UNL A   1      32.620  27.144  26.779  1.00  0.00    -0.351 N 
ATOM      5  C   UNL A   1      31.998  26.248  25.937  1.00  0.00     0.271 C 
ATOM      6  O   UNL A   1      31.163  25.547  26.528  1.00  0.00    -0.267 OA
ATOM      7  H   UNL A   1      32.211  27.172  27.675  1.00  0.00     0.163 HD
BRANCH   5   8
ATOM      8  C   UNL A   1      32.154  26.041  24.429  1.00  0.00     0.149 A 
ATOM      9  C   UNL A   1      32.109  26.915  23.330  1.00  0.00     0.072 A 
ATOM     10  N   UNL A   1      32.370  26.483  22.050  1.00  0.00    -0.257 NA
ATOM     11  C   UNL A   1      32.685  25.189  21.875  1.00  0.00     0.131 A 
ATOM     12  N   UNL A   1      32.454  24.720  24.192  1.00  0.00    -0.248 NA
ATOM     13  C   UNL A   1      32.721  24.319  22.932  1.00  0.00     0.132 A 
BRANCH   9  14
ATOM     14  C   UNL A   1      31.769  28.367  23.303  1.00  0.00     0.064 C 
BRANCH  14  15
ATOM     15  C   UNL A   1      30.250  28.669  23.482  1.00  0.00     0.015 C 
ATOM     16  N   UNL A   1      28.398  30.203  22.927  1.00  0.00    -0.343 N 
ATOM     17  C   UNL A   1      27.426  29.121  22.784  1.00  0.00     0.119 C 
ATOM     18  C   UNL A   1      29.793  29.861  22.614  1.00  0.00     0.123 C 
ATOM     19  C   UNL A   1      27.847  27.892  23.575  1.00  0.00     0.022 C 
ATOM     20  C   UNL A   1      29.274  27.491  23.211  1.00  0.00     0.007 C 
BRANCH  16  21
ATOM     21  C   UNL A   1      27.948  31.453  23.323  1.00  0.00     0.219 C 
ATOM     22  C   UNL A   1      28.819  32.635  22.984  1.00  0.00     0.114 C 
ATOM     23  O   UNL A   1      26.879  31.622  23.907  1.00  0.00    -0.275 OA
ENDBRANCH  16  21
ENDBRANCH  14  15
ENDBRANCH   9  14
ENDBRANCH   5   8
ENDBRANCH   3   4
ENDBRANCH   2   3
ENDBRANCH   1   2
BRANCH   1  24
ATOM     24  C   UNL A   1      31.273  30.974  26.015  1.00  0.00     0.002 C 
BRANCH  24  25
ATOM     25  C   UNL A   1      31.281  32.414  26.537  1.00  0.00     0.021 C 
BRANCH  25  26
ATOM     26  C   UNL A   1      32.608  32.912  27.100  1.00  0.00     0.116 C 
BRANCH  26  27
ATOM     27  N   UNL A   1      32.492  34.218  27.724  1.00  0.00    -0.352 N 
ATOM     28  C   UNL A   1      33.174  34.758  28.779  1.00  0.00     0.251 C 
ATOM     29  H   UNL A   1      31.815  34.810  27.323  1.00  0.00     0.163 HD
ATOM     30  O   UNL A   1      32.800  35.829  29.260  1.00  0.00    -0.269 OA
BRANCH  28  31
ATOM     31  C   UNL A   1      34.344  34.068  29.362  1.00  0.00     0.039 A 
ATOM     32  C   UNL A   1      34.122  33.019  30.259  1.00  0.00     0.014 A 
ATOM     33  C   UNL A   1      35.649  34.475  29.074  1.00  0.00     0.014 A 
ATOM     34  C   UNL A   1      35.205  32.356  30.838  1.00  0.00     0.010 A 
ATOM     35  C   UNL A   1      36.730  33.764  29.591  1.00  0.00     0.010 A 
ATOM     36  C   UNL A   1      36.519  32.709  30.492  1.00  0.00    -0.014 A 
BRANCH  36  37
ATOM     37  C   UNL A   1      37.684  32.014  31.096  1.00  0.00     0.031 A 
ATOM     38  C   UNL A   1      38.137  32.377  32.484  1.00  0.00     0.074 A 
ATOM     39  C   UNL A   1      38.352  31.085  30.388  1.00  0.00     0.049 A 
ATOM     40  N   UNL A   1      39.162  31.930  33.167  1.00  0.00    -0.248 NA
ATOM     41  C   UNL A   1      37.346  33.397  33.193  1.00  0.00     0.031 C 
ATOM     42  C   UNL A   1      38.026  30.665  29.024  1.00  0.00     0.029 A 
ATOM     43  N   UNL A   1      39.451  30.330  30.713  1.00  0.00    -0.354 N 
ATOM     44  C   UNL A   1      39.141  32.618  34.374  1.00  0.00     0.074 A 
ATOM     45  C   UNL A   1      38.042  33.556  34.308  1.00  0.00     0.031 C 
ATOM     46  C   UNL A   1      38.889  29.710  28.640  1.00  0.00     0.029 A 
ATOM     47  C   UNL A   1      39.852  29.480  29.712  1.00  0.00     0.049 A 
ATOM     48  H   UNL A   1      39.908  30.391  31.583  1.00  0.00     0.167 HD
ATOM     49  C   UNL A   1      39.947  32.462  35.452  1.00  0.00     0.037 A 
ATOM     50  C   UNL A   1      40.885  28.617  29.665  1.00  0.00     0.037 A 
ATOM     51  C   UNL A   1      41.032  31.519  35.519  1.00  0.00     0.049 A 
ATOM     52  C   UNL A   1      41.786  28.488  30.866  1.00  0.00     0.074 A 
ATOM     53  C   UNL A   1      41.896  31.268  36.570  1.00  0.00     0.029 A 
ATOM     54  N   UNL A   1      41.401  30.669  34.486  1.00  0.00    -0.354 N 
ATOM     55  N   UNL A   1      41.726  29.106  32.020  1.00  0.00    -0.248 NA
ATOM     56  C   UNL A   1      42.894  27.528  30.758  1.00  0.00     0.031 C 
ATOM     57  C   UNL A   1      42.814  30.295  36.160  1.00  0.00     0.029 A 
ATOM     58  C   UNL A   1      42.487  29.898  34.873  1.00  0.00     0.049 A 
ATOM     59  H   UNL A   1      40.959  30.620  33.608  1.00  0.00     0.167 HD
ATOM     60  C   UNL A   1      42.754  28.579  32.790  1.00  0.00     0.074 A 
ATOM     61  C   UNL A   1      43.417  27.584  31.975  1.00  0.00     0.031 C 
ATOM     62  C   UNL A   1      43.115  28.891  34.060  1.00  0.00     0.037 A 
BRANCH  49  63
ATOM     63  C   UNL A   1      39.677  33.327  36.650  1.00  0.00     0.064 A 
ATOM     64  C   UNL A   1      40.331  34.556  36.830  1.00  0.00     0.173 A 
ATOM     65  C   UNL A   1      38.731  32.943  37.612  1.00  0.00     0.173 A 
ATOM     66  F   UNL A   1      41.253  34.966  35.944  1.00  0.00    -0.203 F 
ATOM     67  C   UNL A   1      40.072  35.352  37.942  1.00  0.00     0.198 A 
ATOM     68  C   UNL A   1      38.450  33.758  38.707  1.00  0.00     0.198 A 
ATOM     69  F   UNL A   1      38.072  31.782  37.488  1.00  0.00    -0.203 F 
ATOM     70  F   UNL A   1      40.746  36.497  38.116  1.00  0.00    -0.200 F 
ATOM     71  C   UNL A   1      39.126  34.957  38.875  1.00  0.00     0.200 A 
ATOM     72  F   UNL A   1      37.524  33.382  39.599  1.00  0.00    -0.200 F 
ATOM     73  F   UNL A   1      38.869  35.729  39.940  1.00  0.00    -0.200 F 
ENDBRANCH  49  63
BRANCH  50  74
ATOM     74  C   UNL A   1      41.114  27.783  28.455  1.00  0.00     0.064 A 
ATOM     75  C   UNL A   1      41.986  28.210  27.443  1.00  0.00     0.173 A 
ATOM     76  C   UNL A   1      40.446  26.564  28.267  1.00  0.00     0.173 A 
ATOM     77  F   UNL A   1      42.634  29.377  27.567  1.00  0.00    -0.203 F 
ATOM     78  C   UNL A   1      42.153  27.468  26.275  1.00  0.00     0.198 A 
ATOM     79  C   UNL A   1      40.639  25.807  27.113  1.00  0.00     0.198 A 
ATOM     80  F   UNL A   1      39.605  26.106  29.207  1.00  0.00    -0.203 F 
ATOM     81  F   UNL A   1      42.945  27.932  25.298  1.00  0.00    -0.200 F 
ATOM     82  C   UNL A   1      41.483  26.267  26.112  1.00  0.00     0.200 A 
ATOM     83  F   UNL A   1      40.001  24.638  26.967  1.00  0.00    -0.200 F 
ATOM     84  F   UNL A   1      41.640  25.555  24.987  1.00  0.00    -0.200 F 
ENDBRANCH  50  74
BRANCH  62  85
ATOM     85  C   UNL A   1      44.234  28.095  34.672  1.00  0.00     0.064 A 
ATOM     86  C   UNL A   1      44.005  26.892  35.354  1.00  0.00     0.173 A 
ATOM     87  C   UNL A   1      45.561  28.534  34.540  1.00  0.00     0.173 A 
ATOM     88  F   UNL A   1      42.753  26.437  35.519  1.00  0.00    -0.203 F 
ATOM     89  C   UNL A   1      45.059  26.176  35.914  1.00  0.00     0.198 A 
ATOM     90  C   UNL A   1      46.615  27.797  35.071  1.00  0.00     0.198 A 
ATOM     91  F   UNL A   1      45.836  29.674  33.890  1.00  0.00    -0.203 F 
ATOM     92  F   UNL A   1      44.812  25.059  36.612  1.00  0.00    -0.200 F 
ATOM     93  C   UNL A   1      46.364  26.624  35.765  1.00  0.00     0.200 A 
ATOM     94  F   UNL A   1      47.876  28.225  34.913  1.00  0.00    -0.200 F 
ATOM     95  F   UNL A   1      47.377  25.930  36.299  1.00  0.00    -0.200 F 
ENDBRANCH  62  85
ENDBRANCH  36  37
ENDBRANCH  28  31
ENDBRANCH  26  27
ENDBRANCH  25  26
ENDBRANCH  24  25
ENDBRANCH   1  24
TORSDOF 16
ENDMDL
MODEL 2
REMARK VINA RESULT:     -11.7      0.541      1.676
REMARK SMILES CC(=O)N1CCC[C@@H](Cc2nccnc2C(=O)NCCCCCCNC(=O)c2ccc(-c3c4nc(c(-c5c(F)c(F)c(F)c(F)c5F)c5ccc([nH]5)c(-c5c(F)c(F)c(F)c(F)c5F)c5nc(c(-c6c(F)c(F)c(F)c(F)c6F)c6ccc3[nH]6)C=C5)C=C4)cc2)C1
REMARK SMILES IDX 21 1 20 2 19 3 18 4 16 5 17 6 15 8 10 9 11 10 12 11 14 12
REMARK SMILES IDX 13 13 9 14 8 15 4 16 5 17 91 18 6 19 7 20 2 21 1 22 3 23
REMARK SMILES IDX 22 24 23 25 24 26 25 27 26 28 27 30 28 31 29 32 90 33 30 34
REMARK SMILES IDX 89 35 31 36 32 37 33 38 83 39 34 40 88 41 82 42 84 43 35 44
REMARK SMILES IDX 87 45 81 46 80 47 36 49 68 50 48 51 67 52 49 53 52 54 66 55
REMARK SMILES IDX 85 56 50 57 51 58 65 60 86 61 53 62 37 63 38 64 46 65 39 66
REMARK SMILES IDX 40 67 44 68 47 69 41 70 42 71 45 72 43 73 69 74 70 75 78 76
REMARK SMILES IDX 71 77 72 78 76 79 79 80 73 81 74 82 77 83 75 84 54 85 55 86
REMARK SMILES IDX 63 87 56 88 57 89 61 90 64 91 58 92 59 93 62 94 60 95
REMARK H PARENT 18 7 25 29 84 48 52 59
REMARK Flexibility Score: inf
ROOT
ATOM      1  C   UNL A   1      32.258  29.897  26.660  1.00  0.00     0.002 C 
ENDROOT
BRANCH   1   2
ATOM      2  C   UNL A   1      31.685  28.701  27.414  1.00  0.00     0.021 C 
BRANCH   2   3
ATOM      3  C   UNL A   1      31.546  27.420  26.605  1.00  0.00     0.116 C 
BRANCH   3   4
ATOM      4  N   UNL A   1      32.741  26.650  26.435  1.00  0.00    -0.351 N 
ATOM      5  C   UNL A   1      33.412  26.143  25.344  1.00  0.00     0.271 C 
ATOM      6  O   UNL A   1      34.514  25.663  25.649  1.00  0.00    -0.267 OA
ATOM      7  H   UNL A   1      33.181  26.433  27.289  1.00  0.00     0.163 HD
BRANCH   5   8
ATOM      8  C   UNL A   1      32.983  26.049  23.879  1.00  0.00     0.149 A 
ATOM      9  C   UNL A   1      32.463  26.985  22.969  1.00  0.00     0.072 A 
ATOM     10  N   UNL A   1      32.233  26.663  21.650  1.00  0.00    -0.257 NA
ATOM     11  C   UNL A   1      32.534  25.418  21.246  1.00  0.00     0.131 A 
ATOM     12  N   UNL A   1      33.247  24.780  23.419  1.00  0.00    -0.248 NA
ATOM     13  C   UNL A   1      33.028  24.488  22.120  1.00  0.00     0.132 A 
BRANCH   9  14
ATOM     14  C   UNL A   1      32.052  28.398  23.212  1.00  0.00     0.064 C 
BRANCH  14  15
ATOM     15  C   UNL A   1      30.521  28.585  23.442  1.00  0.00     0.015 C 
ATOM     16  N   UNL A   1      28.538  29.962  22.931  1.00  0.00    -0.343 N 
ATOM     17  C   UNL A   1      27.649  28.806  22.839  1.00  0.00     0.119 C 
ATOM     18  C   UNL A   1      29.943  29.723  22.573  1.00  0.00     0.123 C 
ATOM     19  C   UNL A   1      28.190  27.627  23.633  1.00  0.00     0.022 C 
ATOM     20  C   UNL A   1      29.631  27.330  23.223  1.00  0.00     0.007 C 
BRANCH  16  21
ATOM     21  C   UNL A   1      28.006  31.181  23.324  1.00  0.00     0.219 C 
ATOM     22  C   UNL A   1      28.785  32.418  22.963  1.00  0.00     0.114 C 
ATOM     23  O   UNL A   1      26.937  31.278  23.925  1.00  0.00    -0.275 OA
ENDBRANCH  16  21
ENDBRANCH  14  15
ENDBRANCH   9  14
ENDBRANCH   5   8
ENDBRANCH   3   4
ENDBRANCH   2   3
ENDBRANCH   1   2
BRANCH   1  24
ATOM     24  C   UNL A   1      31.239  30.849  26.023  1.00  0.00     0.002 C 
BRANCH  24  25
ATOM     25  C   UNL A   1      31.263  32.306  26.496  1.00  0.00     0.021 C 
BRANCH  25  26
ATOM     26  C   UNL A   1      32.593  32.807  27.047  1.00  0.00     0.116 C 
BRANCH  26  27
ATOM     27  N   UNL A   1      32.488  34.127  27.641  1.00  0.00    -0.352 N 
ATOM     28  C   UNL A   1      33.177  34.689  28.680  1.00  0.00     0.251 C 
ATOM     29  H   UNL A   1      31.812  34.714  27.229  1.00  0.00     0.163 HD
ATOM     30  O   UNL A   1      32.811  35.773  29.137  1.00  0.00    -0.269 OA
BRANCH  28  31
ATOM     31  C   UNL A   1      34.346  34.006  29.273  1.00  0.00     0.039 A 
ATOM     32  C   UNL A   1      34.122  32.958  30.172  1.00  0.00     0.014 A 
ATOM     33  C   UNL A   1      35.651  34.419  28.995  1.00  0.00     0.014 A 
ATOM     34  C   UNL A   1      35.204  32.302  30.761  1.00  0.00     0.010 A 
ATOM     35  C   UNL A   1      36.732  33.715  29.522  1.00  0.00     0.010 A 
ATOM     36  C   UNL A   1      36.519  32.661  30.424  1.00  0.00    -0.014 A 
BRANCH  36  37
ATOM     37  C   UNL A   1      37.682  31.973  31.039  1.00  0.00     0.031 A 
ATOM     38  C   UNL A   1      38.124  32.344  32.430  1.00  0.00     0.074 A 
ATOM     39  C   UNL A   1      38.360  31.045  30.339  1.00  0.00     0.049 A 
ATOM     40  N   UNL A   1      39.145  31.903  33.121  1.00  0.00    -0.248 NA
ATOM     41  C   UNL A   1      37.323  33.362  33.129  1.00  0.00     0.031 C 
ATOM     42  C   UNL A   1      38.046  30.619  28.975  1.00  0.00     0.029 A 
ATOM     43  N   UNL A   1      39.459  30.296  30.675  1.00  0.00    -0.354 N 
ATOM     44  C   UNL A   1      39.113  32.595  34.326  1.00  0.00     0.074 A 
ATOM     45  C   UNL A   1      38.010  33.528  34.248  1.00  0.00     0.031 C 
ATOM     46  C   UNL A   1      38.916  29.667  28.600  1.00  0.00     0.029 A 
ATOM     47  C   UNL A   1      39.872  29.444  29.680  1.00  0.00     0.049 A 
ATOM     48  H   UNL A   1      39.910  30.362  31.549  1.00  0.00     0.167 HD
ATOM     49  C   UNL A   1      39.911  32.447  35.410  1.00  0.00     0.037 A 
ATOM     50  C   UNL A   1      40.910  28.586  29.644  1.00  0.00     0.037 A 
ATOM     51  C   UNL A   1      41.000  31.509  35.488  1.00  0.00     0.049 A 
ATOM     52  C   UNL A   1      41.802  28.465  30.852  1.00  0.00     0.074 A 
ATOM     53  C   UNL A   1      41.858  31.265  36.547  1.00  0.00     0.029 A 
ATOM     54  N   UNL A   1      41.381  30.657  34.461  1.00  0.00    -0.354 N 
ATOM     55  N   UNL A   1      41.730  29.087  32.003  1.00  0.00    -0.248 NA
ATOM     56  C   UNL A   1      42.915  27.510  30.755  1.00  0.00     0.031 C 
ATOM     57  C   UNL A   1      42.783  30.295  36.147  1.00  0.00     0.029 A 
ATOM     58  C   UNL A   1      42.467  29.893  34.859  1.00  0.00     0.049 A 
ATOM     59  H   UNL A   1      40.945  30.603  33.580  1.00  0.00     0.167 HD
ATOM     60  C   UNL A   1      42.755  28.568  32.783  1.00  0.00     0.074 A 
ATOM     61  C   UNL A   1      43.429  27.572  31.975  1.00  0.00     0.031 C 
ATOM     62  C   UNL A   1      43.106  28.885  34.054  1.00  0.00     0.037 A 
BRANCH  49  63
ATOM     63  C   UNL A   1      39.629  33.314  36.604  1.00  0.00     0.064 A 
ATOM     64  C   UNL A   1      38.739  32.908  37.610  1.00  0.00     0.173 A 
ATOM     65  C   UNL A   1      40.278  34.547  36.764  1.00  0.00     0.173 A 
ATOM     66  F   UNL A   1      38.083  31.742  37.503  1.00  0.00    -0.203 F 
ATOM     67  C   UNL A   1      38.486  33.717  38.715  1.00  0.00     0.198 A 
ATOM     68  C   UNL A   1      40.049  35.339  37.886  1.00  0.00     0.198 A 
ATOM     69  F   UNL A   1      41.144  34.982  35.836  1.00  0.00    -0.203 F 
ATOM     70  F   UNL A   1      37.594  33.330  39.637  1.00  0.00    -0.200 F 
ATOM     71  C   UNL A   1      39.147  34.927  38.857  1.00  0.00     0.200 A 
ATOM     72  F   UNL A   1      40.700  36.500  38.030  1.00  0.00    -0.200 F 
ATOM     73  F   UNL A   1      38.911  35.700  39.925  1.00  0.00    -0.200 F 
ENDBRANCH  49  63
BRANCH  50  74
ATOM     74  C   UNL A   1      41.151  27.749  28.439  1.00  0.00     0.064 A 
ATOM     75  C   UNL A   1      42.014  28.185  27.422  1.00  0.00     0.173 A 
ATOM     76  C   UNL A   1      40.503  26.518  28.258  1.00  0.00     0.173 A 
ATOM     77  F   UNL A   1      42.643  29.363  27.539  1.00  0.00    -0.203 F 
ATOM     78  C   UNL A   1      42.193  27.439  26.259  1.00  0.00     0.198 A 
ATOM     79  C   UNL A   1      40.708  25.757  27.108  1.00  0.00     0.198 A 
ATOM     80  F   UNL A   1      39.672  26.051  29.202  1.00  0.00    -0.203 F 
ATOM     81  F   UNL A   1      42.975  27.910  25.278  1.00  0.00    -0.200 F 
ATOM     82  C   UNL A   1      41.543  26.225  26.104  1.00  0.00     0.200 A 
ATOM     83  F   UNL A   1      40.089  24.577  26.970  1.00  0.00    -0.200 F 
ATOM     84  F   UNL A   1      41.711  25.510  24.983  1.00  0.00    -0.200 F 
ENDBRANCH  50  74
BRANCH  62  85
ATOM     85  C   UNL A   1      44.223  28.097  34.677  1.00  0.00     0.064 A 
ATOM     86  C   UNL A   1      45.554  28.540  34.647  1.00  0.00     0.173 A 
ATOM     87  C   UNL A   1      43.947  26.893  35.343  1.00  0.00     0.173 A 
ATOM     88  F   UNL A   1      45.872  29.678  34.010  1.00  0.00    -0.203 F 
ATOM     89  C   UNL A   1      46.570  27.789  35.230  1.00  0.00     0.198 A 
ATOM     90  C   UNL A   1      44.961  26.163  35.955  1.00  0.00     0.198 A 
ATOM     91  F   UNL A   1      42.690  26.428  35.408  1.00  0.00    -0.203 F 
ATOM     92  F   UNL A   1      47.842  28.202  35.139  1.00  0.00    -0.200 F 
ATOM     93  C   UNL A   1      46.273  26.605  35.890  1.00  0.00     0.200 A 
ATOM     94  F   UNL A   1      44.669  25.027  36.605  1.00  0.00    -0.200 F 
ATOM     95  F   UNL A   1      47.252  25.888  36.456  1.00  0.00    -0.200 F 
ENDBRANCH  62  85
ENDBRANCH  36  37
ENDBRANCH  28  31
ENDBRANCH  26  27
ENDBRANCH  25  26
ENDBRANCH  24  25
ENDBRANCH   1  24
TORSDOF 16
ENDMDL
MODEL 3
REMARK VINA RESULT:     -11.7      0.925      7.386
REMARK SMILES CC(=O)N1CCC[C@@H](Cc2nccnc2C(=O)NCCCCCCNC(=O)c2ccc(-c3c4nc(c(-c5c(F)c(F)c(F)c(F)c5F)c5ccc([nH]5)c(-c5c(F)c(F)c(F)c(F)c5F)c5nc(c(-c6c(F)c(F)c(F)c(F)c6F)c6ccc3[nH]6)C=C5)C=C4)cc2)C1
REMARK SMILES IDX 21 1 20 2 19 3 18 4 16 5 17 6 15 8 10 9 11 10 12 11 14 12
REMARK SMILES IDX 13 13 9 14 8 15 4 16 5 17 91 18 6 19 7 20 2 21 1 22 3 23
REMARK SMILES IDX 22 24 23 25 24 26 25 27 26 28 27 30 28 31 29 32 90 33 30 34
REMARK SMILES IDX 89 35 31 36 32 37 33 38 83 39 34 40 88 41 82 42 84 43 35 44
REMARK SMILES IDX 87 45 81 46 80 47 36 49 68 50 48 51 67 52 49 53 52 54 66 55
REMARK SMILES IDX 85 56 50 57 51 58 65 60 86 61 53 62 37 63 38 64 46 65 39 66
REMARK SMILES IDX 40 67 44 68 47 69 41 70 42 71 45 72 43 73 69 74 70 75 78 76
REMARK SMILES IDX 71 77 72 78 76 79 79 80 73 81 74 82 77 83 75 84 54 85 55 86
REMARK SMILES IDX 63 87 56 88 57 89 61 90 64 91 58 92 59 93 62 94 60 95
REMARK H PARENT 18 7 25 29 84 48 52 59
REMARK Flexibility Score: inf
ROOT
ATOM      1  C   UNL A   1      32.522  30.341  26.404  1.00  0.00     0.002 C 
ENDROOT
BRANCH   1   2
ATOM      2  C   UNL A   1      32.397  29.257  27.470  1.00  0.00     0.021 C 
BRANCH   2   3
ATOM      3  C   UNL A   1      32.595  27.830  26.983  1.00  0.00     0.116 C 
BRANCH   3   4
ATOM      4  N   UNL A   1      31.411  27.035  26.863  1.00  0.00    -0.351 N 
ATOM      5  C   UNL A   1      30.878  26.246  25.867  1.00  0.00     0.271 C 
ATOM      6  O   UNL A   1      29.894  25.599  26.253  1.00  0.00    -0.267 OA
ATOM      7  H   UNL A   1      30.850  27.057  27.672  1.00  0.00     0.163 HD
BRANCH   5   8
ATOM      8  C   UNL A   1      31.286  26.101  24.400  1.00  0.00     0.149 A 
ATOM      9  C   UNL A   1      31.614  27.029  23.398  1.00  0.00     0.072 A 
ATOM     10  N   UNL A   1      32.040  26.630  22.151  1.00  0.00    -0.257 NA
ATOM     11  C   UNL A   1      32.147  25.311  21.916  1.00  0.00     0.131 A 
ATOM     12  N   UNL A   1      31.387  24.762  24.098  1.00  0.00    -0.248 NA
ATOM     13  C   UNL A   1      31.819  24.391  22.875  1.00  0.00     0.132 A 
BRANCH   9  14
ATOM     14  C   UNL A   1      31.551  28.518  23.445  1.00  0.00     0.064 C 
BRANCH  14  15
ATOM     15  C   UNL A   1      30.119  29.101  23.247  1.00  0.00     0.015 C 
ATOM     16  N   UNL A   1      28.712  30.649  21.937  1.00  0.00    -0.343 N 
ATOM     17  C   UNL A   1      27.561  29.749  21.943  1.00  0.00     0.119 C 
ATOM     18  C   UNL A   1      30.032  30.005  21.999  1.00  0.00     0.123 C 
ATOM     19  C   UNL A   1      27.613  28.792  23.124  1.00  0.00     0.022 C 
ATOM     20  C   UNL A   1      28.959  28.071  23.161  1.00  0.00     0.007 C 
BRANCH  16  21
ATOM     21  C   UNL A   1      28.489  32.015  21.858  1.00  0.00     0.219 C 
ATOM     22  C   UNL A   1      28.860  32.842  23.060  1.00  0.00     0.114 C 
ATOM     23  O   UNL A   1      28.028  32.558  20.854  1.00  0.00    -0.275 OA
ENDBRANCH  16  21
ENDBRANCH  14  15
ENDBRANCH   9  14
ENDBRANCH   5   8
ENDBRANCH   3   4
ENDBRANCH   2   3
ENDBRANCH   1   2
BRANCH   1  24
ATOM     24  C   UNL A   1      31.263  31.174  26.132  1.00  0.00     0.002 C 
BRANCH  24  25
ATOM     25  C   UNL A   1      31.328  32.662  26.490  1.00  0.00     0.021 C 
BRANCH  25  26
ATOM     26  C   UNL A   1      32.551  33.104  27.286  1.00  0.00     0.116 C 
BRANCH  26  27
ATOM     27  N   UNL A   1      32.446  34.475  27.753  1.00  0.00    -0.352 N 
ATOM     28  C   UNL A   1      33.100  35.118  28.767  1.00  0.00     0.251 C 
ATOM     29  H   UNL A   1      31.799  35.031  27.260  1.00  0.00     0.163 HD
ATOM     30  O   UNL A   1      32.736  36.245  29.107  1.00  0.00    -0.269 OA
BRANCH  28  31
ATOM     31  C   UNL A   1      34.229  34.475  29.471  1.00  0.00     0.039 A 
ATOM     32  C   UNL A   1      35.510  34.589  28.923  1.00  0.00     0.014 A 
ATOM     33  C   UNL A   1      34.031  33.721  30.631  1.00  0.00     0.014 A 
ATOM     34  C   UNL A   1      36.595  33.980  29.556  1.00  0.00     0.010 A 
ATOM     35  C   UNL A   1      35.124  33.180  31.304  1.00  0.00     0.010 A 
ATOM     36  C   UNL A   1      36.414  33.289  30.763  1.00  0.00    -0.014 A 
BRANCH  36  37
ATOM     37  C   UNL A   1      37.557  32.637  31.452  1.00  0.00     0.031 A 
ATOM     38  C   UNL A   1      38.281  31.496  30.789  1.00  0.00     0.074 A 
ATOM     39  C   UNL A   1      37.921  33.045  32.682  1.00  0.00     0.049 A 
ATOM     40  N   UNL A   1      39.263  30.759  31.244  1.00  0.00    -0.248 NA
ATOM     41  C   UNL A   1      37.825  31.118  29.441  1.00  0.00     0.031 C 
ATOM     42  C   UNL A   1      37.282  34.121  33.440  1.00  0.00     0.029 A 
ATOM     43  N   UNL A   1      38.915  32.598  33.516  1.00  0.00    -0.354 N 
ATOM     44  C   UNL A   1      39.533  29.830  30.246  1.00  0.00     0.074 A 
ATOM     45  C   UNL A   1      38.573  30.055  29.189  1.00  0.00     0.031 C 
ATOM     46  C   UNL A   1      37.914  34.268  34.615  1.00  0.00     0.029 A 
ATOM     47  C   UNL A   1      38.976  33.271  34.712  1.00  0.00     0.049 A 
ATOM     48  H   UNL A   1      39.527  31.863  33.280  1.00  0.00     0.167 HD
ATOM     49  C   UNL A   1      40.511  28.894  30.203  1.00  0.00     0.037 A 
ATOM     50  C   UNL A   1      39.795  33.098  35.767  1.00  0.00     0.037 A 
ATOM     51  C   UNL A   1      41.473  28.681  31.253  1.00  0.00     0.049 A 
ATOM     52  C   UNL A   1      40.852  32.026  35.705  1.00  0.00     0.074 A 
ATOM     53  C   UNL A   1      42.516  27.773  31.299  1.00  0.00     0.029 A 
ATOM     54  N   UNL A   1      41.507  29.390  32.444  1.00  0.00    -0.354 N 
ATOM     55  N   UNL A   1      41.130  31.189  34.736  1.00  0.00    -0.248 NA
ATOM     56  C   UNL A   1      41.718  31.886  36.884  1.00  0.00     0.031 C 
ATOM     57  C   UNL A   1      43.156  27.904  32.536  1.00  0.00     0.029 A 
ATOM     58  C   UNL A   1      42.549  28.934  33.237  1.00  0.00     0.049 A 
ATOM     59  H   UNL A   1      40.884  30.112  32.692  1.00  0.00     0.167 HD
ATOM     60  C   UNL A   1      42.228  30.456  35.167  1.00  0.00     0.074 A 
ATOM     61  C   UNL A   1      42.571  30.955  36.483  1.00  0.00     0.031 C 
ATOM     62  C   UNL A   1      42.895  29.462  34.530  1.00  0.00     0.037 A 
BRANCH  49  63
ATOM     63  C   UNL A   1      40.594  28.034  28.974  1.00  0.00     0.064 A 
ATOM     64  C   UNL A   1      39.834  26.860  28.848  1.00  0.00     0.173 A 
ATOM     65  C   UNL A   1      41.411  28.402  27.895  1.00  0.00     0.173 A 
ATOM     66  F   UNL A   1      39.043  26.456  29.854  1.00  0.00    -0.203 F 
ATOM     67  C   UNL A   1      39.915  26.072  27.703  1.00  0.00     0.198 A 
ATOM     68  C   UNL A   1      41.464  27.629  26.738  1.00  0.00     0.198 A 
ATOM     69  F   UNL A   1      42.153  29.518  27.958  1.00  0.00    -0.203 F 
ATOM     70  F   UNL A   1      39.219  24.929  27.629  1.00  0.00    -0.200 F 
ATOM     71  C   UNL A   1      40.722  26.460  26.646  1.00  0.00     0.200 A 
ATOM     72  F   UNL A   1      42.233  28.015  25.711  1.00  0.00    -0.200 F 
ATOM     73  F   UNL A   1      40.791  25.707  25.540  1.00  0.00    -0.200 F 
ENDBRANCH  49  63
BRANCH  50  74
ATOM     74  C   UNL A   1      39.673  33.972  36.964  1.00  0.00     0.064 A 
ATOM     75  C   UNL A   1      40.338  35.205  37.024  1.00  0.00     0.173 A 
ATOM     76  C   UNL A   1      38.922  33.583  38.083  1.00  0.00     0.173 A 
ATOM     77  F   UNL A   1      41.084  35.614  35.987  1.00  0.00    -0.203 F 
ATOM     78  C   UNL A   1      40.285  35.999  38.168  1.00  0.00     0.198 A 
ATOM     79  C   UNL A   1      38.843  34.394  39.215  1.00  0.00     0.198 A 
ATOM     80  F   UNL A   1      38.261  32.416  38.077  1.00  0.00    -0.203 F 
ATOM     81  F   UNL A   1      40.981  37.143  38.219  1.00  0.00    -0.200 F 
ATOM     82  C   UNL A   1      39.536  35.594  39.260  1.00  0.00     0.200 A 
ATOM     83  F   UNL A   1      38.105  34.005  40.263  1.00  0.00    -0.200 F 
ATOM     84  F   UNL A   1      39.488  36.356  40.363  1.00  0.00    -0.200 F 
ENDBRANCH  50  74
BRANCH  62  85
ATOM     85  C   UNL A   1      44.106  28.896  35.215  1.00  0.00     0.064 A 
ATOM     86  C   UNL A   1      45.393  29.411  34.998  1.00  0.00     0.173 A 
ATOM     87  C   UNL A   1      43.967  27.842  36.131  1.00  0.00     0.173 A 
ATOM     88  F   UNL A   1      45.581  30.410  34.122  1.00  0.00    -0.203 F 
ATOM     89  C   UNL A   1      46.499  28.866  35.644  1.00  0.00     0.198 A 
ATOM     90  C   UNL A   1      45.071  27.324  36.802  1.00  0.00     0.198 A 
ATOM     91  F   UNL A   1      42.758  27.318  36.383  1.00  0.00    -0.203 F 
ATOM     92  F   UNL A   1      47.726  29.335  35.377  1.00  0.00    -0.200 F 
ATOM     93  C   UNL A   1      46.337  27.829  36.551  1.00  0.00     0.200 A 
ATOM     94  F   UNL A   1      44.909  26.331  37.689  1.00  0.00    -0.200 F 
ATOM     95  F   UNL A   1      47.402  27.311  37.177  1.00  0.00    -0.200 F 
ENDBRANCH  62  85
ENDBRANCH  36  37
ENDBRANCH  28  31
ENDBRANCH  26  27
ENDBRANCH  25  26
ENDBRANCH  24  25
ENDBRANCH   1  24
TORSDOF 16
ENDMDL
