MODEL 1
REMARK VINA RESULT:     -12.8      0.000      0.000
REMARK SMILES Cc1nn(CC(=O)NCCCCCCNC(=O)c2ccc(-c3c4nc(c(-c5c(F)c(F)c(F)c(F)c5F)c5ccc([nH]5)c(-c5c(F)c(F)c(F)c(F)c5F)c5nc(c(-c6c(F)c(F)c(F)c(F)c6F)c6ccc3[nH]6)C=C5)C=C4)cc2)c(C)c1NS(=O)(=O)c1cccc2cccnc12
REMARK SMILES IDX 10 1 9 2 8 3 6 4 7 5 5 7 4 8 1 9 2 10 3 11 83 12 81 13 82 14
REMARK SMILES IDX 84 15 85 17 86 18 87 19 88 20 89 21 97 22 90 23 92 24 96 25
REMARK SMILES IDX 91 26 93 27 95 28 94 29 11 30 12 31 13 32 14 33 15 34 16 35
REMARK SMILES IDX 17 37 18 38 19 39 80 40 20 41 79 42 21 43 22 44 23 45 73 46
REMARK SMILES IDX 24 47 78 48 72 49 74 50 25 51 77 52 71 53 70 54 26 56 58 57
REMARK SMILES IDX 38 58 57 59 39 60 42 61 56 62 75 63 40 64 41 65 55 67 76 68
REMARK SMILES IDX 43 69 27 70 28 71 36 72 29 73 30 74 34 75 37 76 31 77 32 78
REMARK SMILES IDX 35 79 33 80 59 81 60 82 68 83 61 84 62 85 66 86 69 87 63 88
REMARK SMILES IDX 64 89 67 90 65 91 44 92 45 93 53 94 46 95 47 96 51 97 54 98
REMARK SMILES IDX 48 99 49 100 52 101 50 102
REMARK H PARENT 8 6 84 16 15 36 74 55 42 66
REMARK Flexibility Score: inf
ROOT
ATOM      1  C   UNL A   1      31.846  29.523  26.634  1.00  0.00     0.021 C 
ENDROOT
BRANCH   1   2
ATOM      2  C   UNL A   1      31.592  29.617  25.130  1.00  0.00     0.116 C 
BRANCH   2   3
ATOM      3  N   UNL A   1      32.809  29.409  24.367  1.00  0.00    -0.354 N 
ATOM      4  C   UNL A   1      33.078  28.597  23.307  1.00  0.00     0.241 C 
ATOM      5  O   UNL A   1      34.225  28.651  22.847  1.00  0.00    -0.273 OA
ATOM      6  H   UNL A   1      33.575  29.950  24.668  1.00  0.00     0.163 HD
BRANCH   4   7
ATOM      7  C   UNL A   1      32.017  27.818  22.572  1.00  0.00     0.244 C 
BRANCH   7   8
ATOM      8  N   UNL A   1      31.872  26.418  22.929  1.00  0.00    -0.258 N 
ATOM      9  C   UNL A   1      32.768  23.059  22.490  1.00  0.00     0.071 C 
ATOM     10  C   UNL A   1      32.249  24.346  23.022  1.00  0.00     0.084 A 
ATOM     11  N   UNL A   1      32.706  25.481  22.461  1.00  0.00    -0.175 NA
ATOM     12  C   UNL A   1      31.195  24.603  23.967  1.00  0.00     0.093 A 
ATOM     13  C   UNL A   1      30.795  25.859  23.569  1.00  0.00     0.060 A 
ATOM     14  C   UNL A   1      29.500  26.552  23.617  1.00  0.00     0.069 C 
BRANCH  12  15
ATOM     15  N   UNL A   1      30.506  23.687  24.791  1.00  0.00    -0.276 N 
ATOM     16  H   UNL A   1      29.793  23.153  24.372  1.00  0.00     0.180 HD
BRANCH  15  17
ATOM     17  S   UNL A   1      30.808  23.423  26.478  1.00  0.00     0.264 S 
ATOM     18  O   UNL A   1      31.030  24.752  27.009  1.00  0.00    -0.201 OA
ATOM     19  O   UNL A   1      29.688  22.642  26.968  1.00  0.00    -0.201 OA
BRANCH  17  20
ATOM     20  C   UNL A   1      32.346  22.555  26.658  1.00  0.00     0.114 A 
ATOM     21  C   UNL A   1      33.213  22.981  27.682  1.00  0.00     0.024 A 
ATOM     22  C   UNL A   1      32.698  21.484  25.831  1.00  0.00     0.091 A 
ATOM     23  C   UNL A   1      34.532  22.531  27.709  1.00  0.00     0.002 A 
ATOM     24  C   UNL A   1      34.074  21.159  25.773  1.00  0.00     0.002 A 
ATOM     25  N   UNL A   1      31.822  20.723  25.141  1.00  0.00    -0.255 NA
ATOM     26  C   UNL A   1      34.983  21.695  26.695  1.00  0.00     0.010 A 
ATOM     27  C   UNL A   1      34.528  20.260  24.800  1.00  0.00     0.012 A 
ATOM     28  C   UNL A   1      32.288  19.683  24.410  1.00  0.00     0.112 A 
ATOM     29  C   UNL A   1      33.615  19.483  24.116  1.00  0.00     0.021 A 
ENDBRANCH  17  20
ENDBRANCH  15  17
ENDBRANCH  12  15
ENDBRANCH   7   8
ENDBRANCH   4   7
ENDBRANCH   2   3
ENDBRANCH   1   2
BRANCH   1  30
ATOM     30  C   UNL A   1      33.247  29.007  26.998  1.00  0.00     0.002 C 
BRANCH  30  31
ATOM     31  C   UNL A   1      34.259  30.060  27.479  1.00  0.00     0.002 C 
BRANCH  31  32
ATOM     32  C   UNL A   1      33.755  31.503  27.548  1.00  0.00     0.021 C 
BRANCH  32  33
ATOM     33  C   UNL A   1      34.729  32.523  28.097  1.00  0.00     0.116 C 
BRANCH  33  34
ATOM     34  N   UNL A   1      34.548  32.779  29.527  1.00  0.00    -0.352 N 
ATOM     35  C   UNL A   1      35.241  32.241  30.602  1.00  0.00     0.251 C 
ATOM     36  H   UNL A   1      33.837  33.420  29.758  1.00  0.00     0.163 HD
ATOM     37  O   UNL A   1      34.769  32.244  31.724  1.00  0.00    -0.269 OA
BRANCH  35  38
ATOM     38  C   UNL A   1      36.578  31.670  30.354  1.00  0.00     0.039 A 
ATOM     39  C   UNL A   1      37.724  32.455  30.207  1.00  0.00     0.014 A 
ATOM     40  C   UNL A   1      36.663  30.287  30.310  1.00  0.00     0.014 A 
ATOM     41  C   UNL A   1      38.953  31.810  30.072  1.00  0.00     0.010 A 
ATOM     42  C   UNL A   1      37.868  29.684  30.493  1.00  0.00     0.010 A 
ATOM     43  C   UNL A   1      39.007  30.415  30.226  1.00  0.00    -0.014 A 
BRANCH  43  44
ATOM     44  C   UNL A   1      40.248  29.660  30.189  1.00  0.00     0.031 A 
ATOM     45  C   UNL A   1      40.839  29.429  31.526  1.00  0.00     0.074 A 
ATOM     46  C   UNL A   1      40.668  29.017  29.074  1.00  0.00     0.049 A 
ATOM     47  N   UNL A   1      41.927  29.935  31.998  1.00  0.00    -0.248 NA
ATOM     48  C   UNL A   1      40.045  28.683  32.517  1.00  0.00     0.031 C 
ATOM     49  C   UNL A   1      39.988  28.887  27.776  1.00  0.00     0.029 A 
ATOM     50  N   UNL A   1      41.773  28.246  28.898  1.00  0.00    -0.354 N 
ATOM     51  C   UNL A   1      42.072  29.394  33.270  1.00  0.00     0.074 A 
ATOM     52  C   UNL A   1      40.796  28.825  33.610  1.00  0.00     0.031 C 
ATOM     53  C   UNL A   1      40.577  27.916  27.043  1.00  0.00     0.029 A 
ATOM     54  C   UNL A   1      41.772  27.479  27.735  1.00  0.00     0.049 A 
ATOM     55  H   UNL A   1      42.517  28.231  29.542  1.00  0.00     0.167 HD
ATOM     56  C   UNL A   1      43.313  29.208  33.798  1.00  0.00     0.037 A 
ATOM     57  C   UNL A   1      42.688  26.539  27.391  1.00  0.00     0.037 A 
ATOM     58  C   UNL A   1      44.292  29.994  33.080  1.00  0.00     0.049 A 
ATOM     59  C   UNL A   1      43.900  26.797  28.208  1.00  0.00     0.074 A 
ATOM     60  C   UNL A   1      44.454  31.342  32.821  1.00  0.00     0.029 A 
ATOM     61  N   UNL A   1      45.076  29.346  32.155  1.00  0.00    -0.354 N 
ATOM     62  N   UNL A   1      44.651  27.856  28.074  1.00  0.00    -0.248 NA
ATOM     63  C   UNL A   1      43.993  26.121  29.493  1.00  0.00     0.031 C 
ATOM     64  C   UNL A   1      44.919  31.407  31.472  1.00  0.00     0.029 A 
ATOM     65  C   UNL A   1      45.095  30.101  31.011  1.00  0.00     0.049 A 
ATOM     66  H   UNL A   1      45.543  28.489  32.291  1.00  0.00     0.167 HD
ATOM     67  C   UNL A   1      44.961  28.232  29.373  1.00  0.00     0.074 A 
ATOM     68  C   UNL A   1      44.593  27.083  30.199  1.00  0.00     0.031 C 
ATOM     69  C   UNL A   1      45.202  29.539  29.685  1.00  0.00     0.037 A 
BRANCH  56  70
ATOM     70  C   UNL A   1      43.707  28.022  34.652  1.00  0.00     0.064 A 
ATOM     71  C   UNL A   1      43.464  26.726  34.151  1.00  0.00     0.173 A 
ATOM     72  C   UNL A   1      44.010  28.087  36.030  1.00  0.00     0.173 A 
ATOM     73  F   UNL A   1      43.167  26.537  32.857  1.00  0.00    -0.203 F 
ATOM     74  C   UNL A   1      43.414  25.606  34.986  1.00  0.00     0.198 A 
ATOM     75  C   UNL A   1      44.011  26.960  36.850  1.00  0.00     0.198 A 
ATOM     76  F   UNL A   1      44.208  29.240  36.675  1.00  0.00    -0.203 F 
ATOM     77  F   UNL A   1      43.034  24.423  34.487  1.00  0.00    -0.200 F 
ATOM     78  C   UNL A   1      43.675  25.727  36.338  1.00  0.00     0.200 A 
ATOM     79  F   UNL A   1      44.254  27.101  38.161  1.00  0.00    -0.200 F 
ATOM     80  F   UNL A   1      43.555  24.672  37.152  1.00  0.00    -0.200 F 
ENDBRANCH  56  70
BRANCH  57  81
ATOM     81  C   UNL A   1      42.483  25.263  26.663  1.00  0.00     0.064 A 
ATOM     82  C   UNL A   1      43.268  24.931  25.544  1.00  0.00     0.173 A 
ATOM     83  C   UNL A   1      41.728  24.215  27.226  1.00  0.00     0.173 A 
ATOM     84  F   UNL A   1      44.054  25.858  24.976  1.00  0.00    -0.203 F 
ATOM     85  C   UNL A   1      43.318  23.627  25.039  1.00  0.00     0.198 A 
ATOM     86  C   UNL A   1      41.777  22.915  26.720  1.00  0.00     0.198 A 
ATOM     87  F   UNL A   1      41.010  24.408  28.342  1.00  0.00    -0.203 F 
ATOM     88  F   UNL A   1      44.131  23.336  24.014  1.00  0.00    -0.200 F 
ATOM     89  C   UNL A   1      42.581  22.617  25.636  1.00  0.00     0.200 A 
ATOM     90  F   UNL A   1      41.096  21.937  27.335  1.00  0.00    -0.200 F 
ATOM     91  F   UNL A   1      42.682  21.354  25.199  1.00  0.00    -0.200 F 
ENDBRANCH  57  81
BRANCH  69  92
ATOM     92  C   UNL A   1      45.381  30.509  28.548  1.00  0.00     0.064 A 
ATOM     93  C   UNL A   1      44.348  31.286  27.994  1.00  0.00     0.173 A 
ATOM     94  C   UNL A   1      46.682  30.762  28.097  1.00  0.00     0.173 A 
ATOM     95  F   UNL A   1      43.088  31.176  28.435  1.00  0.00    -0.203 F 
ATOM     96  C   UNL A   1      44.603  32.239  27.008  1.00  0.00     0.198 A 
ATOM     97  C   UNL A   1      46.941  31.739  27.138  1.00  0.00     0.198 A 
ATOM     98  F   UNL A   1      47.718  30.088  28.623  1.00  0.00    -0.203 F 
ATOM     99  F   UNL A   1      43.596  32.958  26.489  1.00  0.00    -0.200 F 
ATOM    100  C   UNL A   1      45.902  32.470  26.587  1.00  0.00     0.200 A 
ATOM    101  F   UNL A   1      48.204  31.990  26.770  1.00  0.00    -0.200 F 
ATOM    102  F   UNL A   1      46.155  33.412  25.669  1.00  0.00    -0.200 F 
ENDBRANCH  69  92
ENDBRANCH  43  44
ENDBRANCH  35  38
ENDBRANCH  33  34
ENDBRANCH  32  33
ENDBRANCH  31  32
ENDBRANCH  30  31
ENDBRANCH   1  30
TORSDOF 17
ENDMDL
MODEL 2
REMARK VINA RESULT:     -12.4      1.165      1.917
REMARK SMILES Cc1nn(CC(=O)NCCCCCCNC(=O)c2ccc(-c3c4nc(c(-c5c(F)c(F)c(F)c(F)c5F)c5ccc([nH]5)c(-c5c(F)c(F)c(F)c(F)c5F)c5nc(c(-c6c(F)c(F)c(F)c(F)c6F)c6ccc3[nH]6)C=C5)C=C4)cc2)c(C)c1NS(=O)(=O)c1cccc2cccnc12
REMARK SMILES IDX 10 1 9 2 8 3 6 4 7 5 5 7 4 8 1 9 2 10 3 11 83 12 81 13 82 14
REMARK SMILES IDX 84 15 85 17 86 18 87 19 88 20 89 21 97 22 90 23 92 24 96 25
REMARK SMILES IDX 91 26 93 27 95 28 94 29 11 30 12 31 13 32 14 33 15 34 16 35
REMARK SMILES IDX 17 37 18 38 19 39 80 40 20 41 79 42 21 43 22 44 23 45 73 46
REMARK SMILES IDX 24 47 78 48 72 49 74 50 25 51 77 52 71 53 70 54 26 56 58 57
REMARK SMILES IDX 38 58 57 59 39 60 42 61 56 62 75 63 40 64 41 65 55 67 76 68
REMARK SMILES IDX 43 69 27 70 28 71 36 72 29 73 30 74 34 75 37 76 31 77 32 78
REMARK SMILES IDX 35 79 33 80 59 81 60 82 68 83 61 84 62 85 66 86 69 87 63 88
REMARK SMILES IDX 64 89 67 90 65 91 44 92 45 93 53 94 46 95 47 96 51 97 54 98
REMARK SMILES IDX 48 99 49 100 52 101 50 102
REMARK H PARENT 8 6 84 16 15 36 74 55 42 66
REMARK Flexibility Score: inf
ROOT
ATOM      1  C   UNL A   1      32.310  29.221  26.993  1.00  0.00     0.021 C 
ENDROOT
BRANCH   1   2
ATOM      2  C   UNL A   1      31.798  29.744  25.651  1.00  0.00     0.116 C 
BRANCH   2   3
ATOM      3  N   UNL A   1      32.814  29.653  24.618  1.00  0.00    -0.354 N 
ATOM      4  C   UNL A   1      32.843  28.966  23.442  1.00  0.00     0.241 C 
ATOM      5  O   UNL A   1      33.858  29.102  22.748  1.00  0.00    -0.273 OA
ATOM      6  H   UNL A   1      33.625  30.181  24.799  1.00  0.00     0.163 HD
BRANCH   4   7
ATOM      7  C   UNL A   1      31.648  28.238  22.881  1.00  0.00     0.244 C 
BRANCH   7   8
ATOM      8  N   UNL A   1      31.658  26.790  22.988  1.00  0.00    -0.258 N 
ATOM      9  C   UNL A   1      32.891  23.674  21.964  1.00  0.00     0.071 C 
ATOM     10  C   UNL A   1      32.252  24.786  22.714  1.00  0.00     0.084 A 
ATOM     11  N   UNL A   1      32.575  26.043  22.359  1.00  0.00    -0.175 NA
ATOM     12  C   UNL A   1      31.198  24.760  23.694  1.00  0.00     0.093 A 
ATOM     13  C   UNL A   1      30.659  26.017  23.523  1.00  0.00     0.060 A 
ATOM     14  C   UNL A   1      29.301  26.548  23.696  1.00  0.00     0.069 C 
BRANCH  12  15
ATOM     15  N   UNL A   1      30.626  23.646  24.347  1.00  0.00    -0.276 N 
ATOM     16  H   UNL A   1      29.783  23.295  23.982  1.00  0.00     0.180 HD
BRANCH  15  17
ATOM     17  S   UNL A   1      31.284  22.848  25.737  1.00  0.00     0.264 S 
ATOM     18  O   UNL A   1      31.792  23.927  26.559  1.00  0.00    -0.201 OA
ATOM     19  O   UNL A   1      30.222  22.004  26.254  1.00  0.00    -0.201 OA
BRANCH  17  20
ATOM     20  C   UNL A   1      32.698  21.896  25.240  1.00  0.00     0.114 A 
ATOM     21  C   UNL A   1      32.464  20.599  24.746  1.00  0.00     0.024 A 
ATOM     22  C   UNL A   1      34.000  22.401  25.322  1.00  0.00     0.091 A 
ATOM     23  C   UNL A   1      33.527  19.711  24.594  1.00  0.00     0.002 A 
ATOM     24  C   UNL A   1      35.046  21.446  25.317  1.00  0.00     0.002 A 
ATOM     25  N   UNL A   1      34.319  23.712  25.351  1.00  0.00    -0.255 NA
ATOM     26  C   UNL A   1      34.803  20.110  24.973  1.00  0.00     0.010 A 
ATOM     27  C   UNL A   1      36.349  21.854  25.627  1.00  0.00     0.012 A 
ATOM     28  C   UNL A   1      35.623  24.071  25.384  1.00  0.00     0.112 A 
ATOM     29  C   UNL A   1      36.655  23.200  25.637  1.00  0.00     0.021 A 
ENDBRANCH  17  20
ENDBRANCH  15  17
ENDBRANCH  12  15
ENDBRANCH   7   8
ENDBRANCH   4   7
ENDBRANCH   2   3
ENDBRANCH   1   2
BRANCH   1  30
ATOM     30  C   UNL A   1      33.795  28.826  26.983  1.00  0.00     0.002 C 
BRANCH  30  31
ATOM     31  C   UNL A   1      34.773  29.836  27.605  1.00  0.00     0.002 C 
BRANCH  31  32
ATOM     32  C   UNL A   1      34.309  31.293  27.646  1.00  0.00     0.021 C 
BRANCH  32  33
ATOM     33  C   UNL A   1      35.302  32.294  28.198  1.00  0.00     0.116 C 
BRANCH  33  34
ATOM     34  N   UNL A   1      35.116  32.563  29.624  1.00  0.00    -0.352 N 
ATOM     35  C   UNL A   1      35.718  31.946  30.712  1.00  0.00     0.251 C 
ATOM     36  H   UNL A   1      34.475  33.278  29.842  1.00  0.00     0.163 HD
ATOM     37  O   UNL A   1      35.221  31.998  31.823  1.00  0.00    -0.269 OA
BRANCH  35  38
ATOM     38  C   UNL A   1      36.988  31.231  30.493  1.00  0.00     0.039 A 
ATOM     39  C   UNL A   1      38.221  31.881  30.400  1.00  0.00     0.014 A 
ATOM     40  C   UNL A   1      36.917  29.848  30.419  1.00  0.00     0.014 A 
ATOM     41  C   UNL A   1      39.372  31.102  30.289  1.00  0.00     0.010 A 
ATOM     42  C   UNL A   1      38.038  29.107  30.626  1.00  0.00     0.010 A 
ATOM     43  C   UNL A   1      39.261  29.708  30.411  1.00  0.00    -0.014 A 
BRANCH  43  44
ATOM     44  C   UNL A   1      40.408  28.816  30.396  1.00  0.00     0.031 A 
ATOM     45  C   UNL A   1      40.946  28.522  31.742  1.00  0.00     0.074 A 
ATOM     46  C   UNL A   1      40.771  28.128  29.288  1.00  0.00     0.049 A 
ATOM     47  N   UNL A   1      42.076  28.901  32.233  1.00  0.00    -0.248 NA
ATOM     48  C   UNL A   1      40.056  27.873  32.719  1.00  0.00     0.031 C 
ATOM     49  C   UNL A   1      40.103  28.073  27.979  1.00  0.00     0.029 A 
ATOM     50  N   UNL A   1      41.784  27.236  29.131  1.00  0.00    -0.354 N 
ATOM     51  C   UNL A   1      42.137  28.350  33.508  1.00  0.00     0.074 A 
ATOM     52  C   UNL A   1      40.799  27.930  33.826  1.00  0.00     0.031 C 
ATOM     53  C   UNL A   1      40.590  27.040  27.256  1.00  0.00     0.029 A 
ATOM     54  C   UNL A   1      41.715  26.472  27.968  1.00  0.00     0.049 A 
ATOM     55  H   UNL A   1      42.510  27.137  29.788  1.00  0.00     0.167 HD
ATOM     56  C   UNL A   1      43.340  28.024  34.057  1.00  0.00     0.037 A 
ATOM     57  C   UNL A   1      42.524  25.433  27.639  1.00  0.00     0.037 A 
ATOM     58  C   UNL A   1      44.414  28.692  33.356  1.00  0.00     0.049 A 
ATOM     59  C   UNL A   1      43.743  25.552  28.477  1.00  0.00     0.074 A 
ATOM     60  C   UNL A   1      44.733  30.012  33.100  1.00  0.00     0.029 A 
ATOM     61  N   UNL A   1      45.135  27.957  32.445  1.00  0.00    -0.354 N 
ATOM     62  N   UNL A   1      44.612  26.518  28.357  1.00  0.00    -0.248 NA
ATOM     63  C   UNL A   1      43.737  24.872  29.763  1.00  0.00     0.031 C 
ATOM     64  C   UNL A   1      45.226  30.021  31.759  1.00  0.00     0.029 A 
ATOM     65  C   UNL A   1      45.259  28.703  31.301  1.00  0.00     0.049 A 
ATOM     66  H   UNL A   1      45.498  27.053  32.588  1.00  0.00     0.167 HD
ATOM     67  C   UNL A   1      44.941  26.858  29.661  1.00  0.00     0.074 A 
ATOM     68  C   UNL A   1      44.430  25.760  30.480  1.00  0.00     0.031 C 
ATOM     69  C   UNL A   1      45.324  28.130  29.977  1.00  0.00     0.037 A 
BRANCH  56  70
ATOM     70  C   UNL A   1      43.581  26.802  34.917  1.00  0.00     0.064 A 
ATOM     71  C   UNL A   1      43.957  26.992  36.262  1.00  0.00     0.173 A 
ATOM     72  C   UNL A   1      43.768  25.492  34.420  1.00  0.00     0.173 A 
ATOM     73  F   UNL A   1      43.825  28.193  36.846  1.00  0.00    -0.203 F 
ATOM     74  C   UNL A   1      44.576  25.986  37.009  1.00  0.00     0.198 A 
ATOM     75  C   UNL A   1      44.338  24.476  35.185  1.00  0.00     0.198 A 
ATOM     76  F   UNL A   1      43.519  25.156  33.151  1.00  0.00    -0.203 F 
ATOM     77  F   UNL A   1      45.048  26.262  38.232  1.00  0.00    -0.200 F 
ATOM     78  C   UNL A   1      44.778  24.732  36.464  1.00  0.00     0.200 A 
ATOM     79  F   UNL A   1      44.537  23.270  34.633  1.00  0.00    -0.200 F 
ATOM     80  F   UNL A   1      45.437  23.789  37.148  1.00  0.00    -0.200 F 
ENDBRANCH  56  70
BRANCH  57  81
ATOM     81  C   UNL A   1      42.187  24.186  26.908  1.00  0.00     0.064 A 
ATOM     82  C   UNL A   1      43.147  23.526  26.119  1.00  0.00     0.173 A 
ATOM     83  C   UNL A   1      41.020  23.458  27.206  1.00  0.00     0.173 A 
ATOM     84  F   UNL A   1      44.308  24.130  25.828  1.00  0.00    -0.203 F 
ATOM     85  C   UNL A   1      42.962  22.210  25.683  1.00  0.00     0.198 A 
ATOM     86  C   UNL A   1      40.835  22.145  26.768  1.00  0.00     0.198 A 
ATOM     87  F   UNL A   1      40.080  23.967  28.018  1.00  0.00    -0.203 F 
ATOM     88  F   UNL A   1      43.929  21.591  24.991  1.00  0.00    -0.200 F 
ATOM     89  C   UNL A   1      41.811  21.516  26.019  1.00  0.00     0.200 A 
ATOM     90  F   UNL A   1      39.738  21.469  27.140  1.00  0.00    -0.200 F 
ATOM     91  F   UNL A   1      41.663  20.232  25.663  1.00  0.00    -0.200 F 
ENDBRANCH  57  81
BRANCH  69  92
ATOM     92  C   UNL A   1      45.632  29.072  28.843  1.00  0.00     0.064 A 
ATOM     93  C   UNL A   1      44.685  29.905  28.221  1.00  0.00     0.173 A 
ATOM     94  C   UNL A   1      46.971  29.234  28.468  1.00  0.00     0.173 A 
ATOM     95  F   UNL A   1      43.397  29.881  28.587  1.00  0.00    -0.203 F 
ATOM     96  C   UNL A   1      45.059  30.827  27.243  1.00  0.00     0.198 A 
ATOM     97  C   UNL A   1      47.348  30.180  27.518  1.00  0.00     0.198 A 
ATOM     98  F   UNL A   1      47.928  28.504  29.062  1.00  0.00    -0.203 F 
ATOM     99  F   UNL A   1      44.133  31.601  26.658  1.00  0.00    -0.200 F 
ATOM    100  C   UNL A   1      46.393  30.968  26.899  1.00  0.00     0.200 A 
ATOM    101  F   UNL A   1      48.644  30.345  27.223  1.00  0.00    -0.200 F 
ATOM    102  F   UNL A   1      46.759  31.881  25.988  1.00  0.00    -0.200 F 
ENDBRANCH  69  92
ENDBRANCH  43  44
ENDBRANCH  35  38
ENDBRANCH  33  34
ENDBRANCH  32  33
ENDBRANCH  31  32
ENDBRANCH  30  31
ENDBRANCH   1  30
TORSDOF 17
ENDMDL
MODEL 3
REMARK VINA RESULT:     -12.4      1.639      2.401
REMARK SMILES Cc1nn(CC(=O)NCCCCCCNC(=O)c2ccc(-c3c4nc(c(-c5c(F)c(F)c(F)c(F)c5F)c5ccc([nH]5)c(-c5c(F)c(F)c(F)c(F)c5F)c5nc(c(-c6c(F)c(F)c(F)c(F)c6F)c6ccc3[nH]6)C=C5)C=C4)cc2)c(C)c1NS(=O)(=O)c1cccc2cccnc12
REMARK SMILES IDX 10 1 9 2 8 3 6 4 7 5 5 7 4 8 1 9 2 10 3 11 83 12 81 13 82 14
REMARK SMILES IDX 84 15 85 17 86 18 87 19 88 20 89 21 97 22 90 23 92 24 96 25
REMARK SMILES IDX 91 26 93 27 95 28 94 29 11 30 12 31 13 32 14 33 15 34 16 35
REMARK SMILES IDX 17 37 18 38 19 39 80 40 20 41 79 42 21 43 22 44 23 45 73 46
REMARK SMILES IDX 24 47 78 48 72 49 74 50 25 51 77 52 71 53 70 54 26 56 58 57
REMARK SMILES IDX 38 58 57 59 39 60 42 61 56 62 75 63 40 64 41 65 55 67 76 68
REMARK SMILES IDX 43 69 27 70 28 71 36 72 29 73 30 74 34 75 37 76 31 77 32 78
REMARK SMILES IDX 35 79 33 80 59 81 60 82 68 83 61 84 62 85 66 86 69 87 63 88
REMARK SMILES IDX 64 89 67 90 65 91 44 92 45 93 53 94 46 95 47 96 51 97 54 98
REMARK SMILES IDX 48 99 49 100 52 101 50 102
REMARK H PARENT 8 6 84 16 15 36 74 55 42 66
REMARK Flexibility Score: inf
ROOT
ATOM      1  C   UNL A   1      35.301  29.288  27.450  1.00  0.00     0.021 C 
ENDROOT
BRANCH   1   2
ATOM      2  C   UNL A   1      33.975  29.386  26.698  1.00  0.00     0.116 C 
BRANCH   2   3
ATOM      3  N   UNL A   1      32.878  28.834  27.472  1.00  0.00    -0.354 N 
ATOM      4  C   UNL A   1      31.800  28.089  27.100  1.00  0.00     0.241 C 
ATOM      5  O   UNL A   1      31.031  27.741  28.004  1.00  0.00    -0.273 OA
ATOM      6  H   UNL A   1      32.921  29.031  28.436  1.00  0.00     0.163 HD
BRANCH   4   7
ATOM      7  C   UNL A   1      31.625  27.522  25.714  1.00  0.00     0.244 C 
BRANCH   7   8
ATOM      8  N   UNL A   1      32.439  26.369  25.374  1.00  0.00    -0.258 N 
ATOM      9  C   UNL A   1      35.382  24.506  25.756  1.00  0.00     0.071 C 
ATOM     10  C   UNL A   1      34.000  24.954  25.445  1.00  0.00     0.084 A 
ATOM     11  N   UNL A   1      33.557  26.072  26.049  1.00  0.00    -0.175 NA
ATOM     12  C   UNL A   1      33.066  24.469  24.464  1.00  0.00     0.093 A 
ATOM     13  C   UNL A   1      32.316  25.603  24.243  1.00  0.00     0.060 A 
ATOM     14  C   UNL A   1      31.593  26.103  23.066  1.00  0.00     0.069 C 
BRANCH  12  15
ATOM     15  N   UNL A   1      33.144  23.305  23.669  1.00  0.00    -0.276 N 
ATOM     16  H   UNL A   1      33.625  23.377  22.814  1.00  0.00     0.180 HD
BRANCH  15  17
ATOM     17  S   UNL A   1      32.466  21.762  24.071  1.00  0.00     0.264 S 
ATOM     18  O   UNL A   1      31.685  22.019  25.264  1.00  0.00    -0.201 OA
ATOM     19  O   UNL A   1      31.794  21.295  22.873  1.00  0.00    -0.201 OA
BRANCH  17  20
ATOM     20  C   UNL A   1      33.774  20.667  24.562  1.00  0.00     0.114 A 
ATOM     21  C   UNL A   1      35.020  21.246  24.870  1.00  0.00     0.024 A 
ATOM     22  C   UNL A   1      33.593  19.283  24.653  1.00  0.00     0.091 A 
ATOM     23  C   UNL A   1      36.149  20.439  24.998  1.00  0.00     0.002 A 
ATOM     24  C   UNL A   1      34.766  18.492  24.626  1.00  0.00     0.002 A 
ATOM     25  N   UNL A   1      32.401  18.671  24.814  1.00  0.00    -0.255 NA
ATOM     26  C   UNL A   1      36.033  19.071  24.779  1.00  0.00     0.010 A 
ATOM     27  C   UNL A   1      34.655  17.104  24.480  1.00  0.00     0.012 A 
ATOM     28  C   UNL A   1      32.364  17.324  24.935  1.00  0.00     0.112 A 
ATOM     29  C   UNL A   1      33.428  16.498  24.663  1.00  0.00     0.021 A 
ENDBRANCH  17  20
ENDBRANCH  15  17
ENDBRANCH  12  15
ENDBRANCH   7   8
ENDBRANCH   4   7
ENDBRANCH   2   3
ENDBRANCH   1   2
BRANCH   1  30
ATOM     30  C   UNL A   1      35.979  30.645  27.700  1.00  0.00     0.002 C 
BRANCH  30  31
ATOM     31  C   UNL A   1      35.043  31.850  27.892  1.00  0.00     0.002 C 
BRANCH  31  32
ATOM     32  C   UNL A   1      35.713  33.220  28.000  1.00  0.00     0.021 C 
BRANCH  32  33
ATOM     33  C   UNL A   1      36.644  33.415  29.178  1.00  0.00     0.116 C 
BRANCH  33  34
ATOM     34  N   UNL A   1      35.954  33.373  30.469  1.00  0.00    -0.352 N 
ATOM     35  C   UNL A   1      35.915  32.346  31.401  1.00  0.00     0.251 C 
ATOM     36  H   UNL A   1      35.449  34.184  30.707  1.00  0.00     0.163 HD
ATOM     37  O   UNL A   1      35.033  32.286  32.238  1.00  0.00    -0.269 OA
BRANCH  35  38
ATOM     38  C   UNL A   1      36.981  31.328  31.362  1.00  0.00     0.039 A 
ATOM     39  C   UNL A   1      36.748  29.997  31.008  1.00  0.00     0.014 A 
ATOM     40  C   UNL A   1      38.264  31.761  31.661  1.00  0.00     0.014 A 
ATOM     41  C   UNL A   1      37.842  29.139  30.909  1.00  0.00     0.010 A 
ATOM     42  C   UNL A   1      39.331  31.019  31.263  1.00  0.00     0.010 A 
ATOM     43  C   UNL A   1      39.135  29.672  31.034  1.00  0.00    -0.014 A 
BRANCH  43  44
ATOM     44  C   UNL A   1      40.341  28.880  30.863  1.00  0.00     0.031 A 
ATOM     45  C   UNL A   1      41.036  28.580  32.134  1.00  0.00     0.074 A 
ATOM     46  C   UNL A   1      40.641  28.266  29.694  1.00  0.00     0.049 A 
ATOM     47  N   UNL A   1      42.178  29.033  32.527  1.00  0.00    -0.248 NA
ATOM     48  C   UNL A   1      40.305  27.823  33.164  1.00  0.00     0.031 C 
ATOM     49  C   UNL A   1      39.848  28.207  28.456  1.00  0.00     0.029 A 
ATOM     50  N   UNL A   1      41.699  27.468  29.396  1.00  0.00    -0.354 N 
ATOM     51  C   UNL A   1      42.412  28.440  33.763  1.00  0.00     0.074 A 
ATOM     52  C   UNL A   1      41.151  27.899  34.193  1.00  0.00     0.031 C 
ATOM     53  C   UNL A   1      40.338  27.246  27.642  1.00  0.00     0.029 A 
ATOM     54  C   UNL A   1      41.572  26.746  28.211  1.00  0.00     0.049 A 
ATOM     55  H   UNL A   1      42.495  27.405  29.972  1.00  0.00     0.167 HD
ATOM     56  C   UNL A   1      43.687  28.195  34.174  1.00  0.00     0.037 A 
ATOM     57  C   UNL A   1      42.422  25.791  27.756  1.00  0.00     0.037 A 
ATOM     58  C   UNL A   1      44.628  28.975  33.401  1.00  0.00     0.049 A 
ATOM     59  C   UNL A   1      43.708  25.979  28.474  1.00  0.00     0.074 A 
ATOM     60  C   UNL A   1      44.814  30.327  33.176  1.00  0.00     0.029 A 
ATOM     61  N   UNL A   1      45.307  28.338  32.390  1.00  0.00    -0.354 N 
ATOM     62  N   UNL A   1      44.481  27.017  28.312  1.00  0.00    -0.248 NA
ATOM     63  C   UNL A   1      43.887  25.252  29.721  1.00  0.00     0.031 C 
ATOM     64  C   UNL A   1      45.163  30.427  31.795  1.00  0.00     0.029 A 
ATOM     65  C   UNL A   1      45.254  29.135  31.276  1.00  0.00     0.049 A 
ATOM     66  H   UNL A   1      45.753  27.463  32.454  1.00  0.00     0.167 HD
ATOM     67  C   UNL A   1      44.915  27.334  29.591  1.00  0.00     0.074 A 
ATOM     68  C   UNL A   1      44.579  26.167  30.405  1.00  0.00     0.031 C 
ATOM     69  C   UNL A   1      45.226  28.621  29.926  1.00  0.00     0.037 A 
BRANCH  56  70
ATOM     70  C   UNL A   1      44.111  26.965  34.948  1.00  0.00     0.064 A 
ATOM     71  C   UNL A   1      44.900  27.139  36.104  1.00  0.00     0.173 A 
ATOM     72  C   UNL A   1      44.054  25.642  34.453  1.00  0.00     0.173 A 
ATOM     73  F   UNL A   1      45.030  28.350  36.668  1.00  0.00    -0.203 F 
ATOM     74  C   UNL A   1      45.659  26.099  36.647  1.00  0.00     0.198 A 
ATOM     75  C   UNL A   1      44.772  24.596  35.029  1.00  0.00     0.198 A 
ATOM     76  F   UNL A   1      43.401  25.315  33.334  1.00  0.00    -0.203 F 
ATOM     77  F   UNL A   1      46.505  26.352  37.654  1.00  0.00    -0.200 F 
ATOM     78  C   UNL A   1      45.605  24.831  36.100  1.00  0.00     0.200 A 
ATOM     79  F   UNL A   1      44.716  23.377  34.475  1.00  0.00    -0.200 F 
ATOM     80  F   UNL A   1      46.386  23.852  36.570  1.00  0.00    -0.200 F 
ENDBRANCH  56  70
BRANCH  57  81
ATOM     81  C   UNL A   1      42.111  24.550  27.005  1.00  0.00     0.064 A 
ATOM     82  C   UNL A   1      42.844  24.192  25.859  1.00  0.00     0.173 A 
ATOM     83  C   UNL A   1      41.299  23.543  27.563  1.00  0.00     0.173 A 
ATOM     84  F   UNL A   1      43.679  25.076  25.292  1.00  0.00    -0.203 F 
ATOM     85  C   UNL A   1      42.790  22.901  25.323  1.00  0.00     0.198 A 
ATOM     86  C   UNL A   1      41.244  22.255  27.026  1.00  0.00     0.198 A 
ATOM     87  F   UNL A   1      40.623  23.758  28.702  1.00  0.00    -0.203 F 
ATOM     88  F   UNL A   1      43.556  22.579  24.271  1.00  0.00    -0.200 F 
ATOM     89  C   UNL A   1      42.000  21.930  25.915  1.00  0.00     0.200 A 
ATOM     90  F   UNL A   1      40.511  21.312  27.636  1.00  0.00    -0.200 F 
ATOM     91  F   UNL A   1      42.001  20.674  25.448  1.00  0.00    -0.200 F 
ENDBRANCH  57  81
BRANCH  69  92
ATOM     92  C   UNL A   1      45.341  29.627  28.812  1.00  0.00     0.064 A 
ATOM     93  C   UNL A   1      44.284  30.436  28.359  1.00  0.00     0.173 A 
ATOM     94  C   UNL A   1      46.612  29.877  28.280  1.00  0.00     0.173 A 
ATOM     95  F   UNL A   1      43.056  30.327  28.882  1.00  0.00    -0.203 F 
ATOM     96  C   UNL A   1      44.485  31.418  27.389  1.00  0.00     0.198 A 
ATOM     97  C   UNL A   1      46.818  30.883  27.339  1.00  0.00     0.198 A 
ATOM     98  F   UNL A   1      47.670  29.173  28.710  1.00  0.00    -0.203 F 
ATOM     99  F   UNL A   1      43.456  32.168  26.966  1.00  0.00    -0.200 F 
ATOM    100  C   UNL A   1      45.755  31.646  26.887  1.00  0.00     0.200 A 
ATOM    101  F   UNL A   1      48.056  31.130  26.891  1.00  0.00    -0.200 F 
ATOM    102  F   UNL A   1      45.958  32.616  25.985  1.00  0.00    -0.200 F 
ENDBRANCH  69  92
ENDBRANCH  43  44
ENDBRANCH  35  38
ENDBRANCH  33  34
ENDBRANCH  32  33
ENDBRANCH  31  32
ENDBRANCH  30  31
ENDBRANCH   1  30
TORSDOF 17
ENDMDL
