MODEL 1
REMARK VINA RESULT:     -13.4      0.000      0.000
REMARK SMILES Cc1ccc(-c2cc(C(=O)NCCCCCCNC(=O)c3ccc(-c4c5nc(c(-c6c(F)c(F)c(F)c(F)c6F)c6ccc([nH]6)c(-c6c(F)c(F)c(F)c(F)c6F)c6nc(c(-c7c(F)c(F)c(F)c(F)c7F)c7ccc4[nH]7)C=C6)C=C5)cc3)ccc2F)cc1O
REMARK SMILES IDX 14 1 13 2 12 3 11 4 9 5 10 6 8 8 6 9 7 10 86 11 85 12 87 13
REMARK SMILES IDX 84 14 5 15 1 16 2 17 3 18 89 19 4 20 88 21 90 22 15 24 16 25
REMARK SMILES IDX 17 26 18 27 19 28 20 30 21 31 22 32 83 33 23 34 82 35 24 36
REMARK SMILES IDX 25 37 26 38 76 39 27 40 81 41 75 42 77 43 28 44 80 45 74 46
REMARK SMILES IDX 73 47 29 49 61 50 41 51 60 52 42 53 45 54 59 55 78 56 43 57
REMARK SMILES IDX 44 58 58 60 79 61 46 62 30 63 31 64 39 65 32 66 33 67 37 68
REMARK SMILES IDX 40 69 34 70 35 71 38 72 36 73 62 74 63 75 71 76 64 77 65 78
REMARK SMILES IDX 69 79 72 80 66 81 67 82 70 83 68 84 47 85 48 86 56 87 49 88
REMARK SMILES IDX 50 89 54 90 57 91 51 92 52 93 55 94 53 95
REMARK H PARENT 11 7 90 23 18 29 77 48 45 59
REMARK Flexibility Score: inf
ROOT
ATOM      1  C   UNL A   1      32.490  29.450  26.828  1.00  0.00     0.002 C 
ENDROOT
BRANCH   1   2
ATOM      2  C   UNL A   1      31.695  28.227  27.311  1.00  0.00     0.021 C 
BRANCH   2   3
ATOM      3  C   UNL A   1      31.606  27.118  26.260  1.00  0.00     0.116 C 
BRANCH   3   4
ATOM      4  N   UNL A   1      31.154  25.891  26.878  1.00  0.00    -0.352 N 
ATOM      5  C   UNL A   1      31.040  24.596  26.449  1.00  0.00     0.251 C 
ATOM      6  O   UNL A   1      30.548  23.797  27.248  1.00  0.00    -0.269 OA
ATOM      7  H   UNL A   1      30.866  26.014  27.811  1.00  0.00     0.163 HD
BRANCH   5   8
ATOM      8  C   UNL A   1      31.510  24.092  25.125  1.00  0.00     0.040 A 
ATOM      9  C   UNL A   1      32.461  22.160  23.926  1.00  0.00     0.018 A 
ATOM     10  C   UNL A   1      31.972  22.760  25.100  1.00  0.00     0.025 A 
ATOM     11  C   UNL A   1      32.523  22.945  22.772  1.00  0.00     0.131 A 
ATOM     12  C   UNL A   1      32.039  24.249  22.761  1.00  0.00     0.041 A 
ATOM     13  F   UNL A   1      33.011  22.440  21.629  1.00  0.00    -0.206 F 
ATOM     14  C   UNL A   1      31.495  24.805  23.923  1.00  0.00     0.017 A 
BRANCH   9  15
ATOM     15  C   UNL A   1      32.826  20.740  23.907  1.00  0.00    -0.012 A 
ATOM     16  C   UNL A   1      34.020  16.579  23.675  1.00  0.00     0.048 C 
ATOM     17  C   UNL A   1      33.574  18.009  23.755  1.00  0.00    -0.009 A 
ATOM     18  C   UNL A   1      34.233  18.889  24.626  1.00  0.00     0.008 A 
ATOM     19  C   UNL A   1      32.528  18.511  22.977  1.00  0.00     0.119 A 
ATOM     20  C   UNL A   1      33.866  20.238  24.698  1.00  0.00     0.009 A 
ATOM     21  C   UNL A   1      32.154  19.851  23.054  1.00  0.00     0.055 A 
BRANCH  19  22
ATOM     22  O   UNL A   1      31.824  17.743  22.092  1.00  0.00    -0.508 OA
ATOM     23  H   UNL A   1      31.549  16.882  22.335  1.00  0.00     0.293 HD
ENDBRANCH  19  22
ENDBRANCH   9  15
ENDBRANCH   5   8
ENDBRANCH   3   4
ENDBRANCH   2   3
ENDBRANCH   1   2
BRANCH   1  24
ATOM     24  C   UNL A   1      31.703  30.418  25.935  1.00  0.00     0.002 C 
BRANCH  24  25
ATOM     25  C   UNL A   1      31.441  31.795  26.552  1.00  0.00     0.021 C 
BRANCH  25  26
ATOM     26  C   UNL A   1      32.656  32.409  27.238  1.00  0.00     0.116 C 
BRANCH  26  27
ATOM     27  N   UNL A   1      32.455  33.823  27.516  1.00  0.00    -0.352 N 
ATOM     28  C   UNL A   1      33.018  34.604  28.494  1.00  0.00     0.251 C 
ATOM     29  H   UNL A   1      31.824  34.286  26.918  1.00  0.00     0.163 HD
ATOM     30  O   UNL A   1      32.563  35.715  28.743  1.00  0.00    -0.269 OA
BRANCH  28  31
ATOM     31  C   UNL A   1      34.176  34.093  29.258  1.00  0.00     0.039 A 
ATOM     32  C   UNL A   1      33.949  33.298  30.383  1.00  0.00     0.014 A 
ATOM     33  C   UNL A   1      35.480  34.411  28.867  1.00  0.00     0.014 A 
ATOM     34  C   UNL A   1      35.034  32.769  31.084  1.00  0.00     0.010 A 
ATOM     35  C   UNL A   1      36.559  33.829  29.526  1.00  0.00     0.010 A 
ATOM     36  C   UNL A   1      36.347  33.003  30.639  1.00  0.00    -0.014 A 
BRANCH  36  37
ATOM     37  C   UNL A   1      37.513  32.389  31.322  1.00  0.00     0.031 A 
ATOM     38  C   UNL A   1      38.260  31.261  30.666  1.00  0.00     0.074 A 
ATOM     39  C   UNL A   1      37.864  32.813  32.552  1.00  0.00     0.049 A 
ATOM     40  N   UNL A   1      39.241  30.535  31.140  1.00  0.00    -0.248 NA
ATOM     41  C   UNL A   1      37.840  30.887  29.306  1.00  0.00     0.031 C 
ATOM     42  C   UNL A   1      37.203  33.886  33.296  1.00  0.00     0.029 A 
ATOM     43  N   UNL A   1      38.859  32.389  33.397  1.00  0.00    -0.354 N 
ATOM     44  C   UNL A   1      39.548  29.621  30.141  1.00  0.00     0.074 A 
ATOM     45  C   UNL A   1      38.621  29.846  29.055  1.00  0.00     0.031 C 
ATOM     46  C   UNL A   1      37.829  34.057  34.471  1.00  0.00     0.029 A 
ATOM     47  C   UNL A   1      38.903  33.076  34.586  1.00  0.00     0.049 A 
ATOM     48  H   UNL A   1      39.483  31.661  33.172  1.00  0.00     0.167 HD
ATOM     49  C   UNL A   1      40.538  28.697  30.125  1.00  0.00     0.037 A 
ATOM     50  C   UNL A   1      39.712  32.923  35.653  1.00  0.00     0.037 A 
ATOM     51  C   UNL A   1      41.476  28.496  31.196  1.00  0.00     0.049 A 
ATOM     52  C   UNL A   1      40.770  31.852  35.623  1.00  0.00     0.074 A 
ATOM     53  C   UNL A   1      42.532  27.604  31.256  1.00  0.00     0.029 A 
ATOM     54  N   UNL A   1      41.478  29.202  32.389  1.00  0.00    -0.354 N 
ATOM     55  N   UNL A   1      41.073  31.017  34.659  1.00  0.00    -0.248 NA
ATOM     56  C   UNL A   1      41.594  31.697  36.830  1.00  0.00     0.031 C 
ATOM     57  C   UNL A   1      43.148  27.740  32.503  1.00  0.00     0.029 A 
ATOM     58  C   UNL A   1      42.507  28.752  33.199  1.00  0.00     0.049 A 
ATOM     59  H   UNL A   1      40.842  29.915  32.626  1.00  0.00     0.167 HD
ATOM     60  C   UNL A   1      42.140  30.264  35.128  1.00  0.00     0.074 A 
ATOM     61  C   UNL A   1      42.440  30.746  36.460  1.00  0.00     0.031 C 
ATOM     62  C   UNL A   1      42.809  29.261  34.512  1.00  0.00     0.037 A 
BRANCH  49  63
ATOM     63  C   UNL A   1      40.689  27.844  28.901  1.00  0.00     0.064 A 
ATOM     64  C   UNL A   1      41.473  28.276  27.822  1.00  0.00     0.173 A 
ATOM     65  C   UNL A   1      39.961  26.655  28.752  1.00  0.00     0.173 A 
ATOM     66  F   UNL A   1      42.184  29.411  27.912  1.00  0.00    -0.203 F 
ATOM     67  C   UNL A   1      41.503  27.560  26.628  1.00  0.00     0.198 A 
ATOM     68  C   UNL A   1      40.014  25.928  27.567  1.00  0.00     0.198 A 
ATOM     69  F   UNL A   1      39.203  26.196  29.760  1.00  0.00    -0.203 F 
ATOM     70  F   UNL A   1      42.224  28.014  25.594  1.00  0.00    -0.200 F 
ATOM     71  C   UNL A   1      40.773  26.388  26.501  1.00  0.00     0.200 A 
ATOM     72  F   UNL A   1      39.322  24.786  27.452  1.00  0.00    -0.200 F 
ATOM     73  F   UNL A   1      40.798  25.704  25.349  1.00  0.00    -0.200 F 
ENDBRANCH  49  63
BRANCH  50  74
ATOM     74  C   UNL A   1      39.574  33.820  36.831  1.00  0.00     0.064 A 
ATOM     75  C   UNL A   1      40.215  35.065  36.888  1.00  0.00     0.173 A 
ATOM     76  C   UNL A   1      38.781  33.445  37.925  1.00  0.00     0.173 A 
ATOM     77  F   UNL A   1      40.987  35.471  35.869  1.00  0.00    -0.203 F 
ATOM     78  C   UNL A   1      40.077  35.896  37.998  1.00  0.00     0.198 A 
ATOM     79  C   UNL A   1      38.619  34.290  39.022  1.00  0.00     0.198 A 
ATOM     80  F   UNL A   1      38.129  32.272  37.909  1.00  0.00    -0.203 F 
ATOM     81  F   UNL A   1      40.722  37.071  38.038  1.00  0.00    -0.200 F 
ATOM     82  C   UNL A   1      39.272  35.512  39.060  1.00  0.00     0.200 A 
ATOM     83  F   UNL A   1      37.817  33.926  40.031  1.00  0.00    -0.200 F 
ATOM     84  F   UNL A   1      39.119  36.322  40.116  1.00  0.00    -0.200 F 
ENDBRANCH  50  74
BRANCH  62  85
ATOM     85  C   UNL A   1      43.958  28.631  35.241  1.00  0.00     0.064 A 
ATOM     86  C   UNL A   1      43.740  27.544  36.101  1.00  0.00     0.173 A 
ATOM     87  C   UNL A   1      45.253  29.162  35.165  1.00  0.00     0.173 A 
ATOM     88  F   UNL A   1      42.517  27.006  36.216  1.00  0.00    -0.203 F 
ATOM     89  C   UNL A   1      44.773  27.028  36.878  1.00  0.00     0.198 A 
ATOM     90  C   UNL A   1      46.290  28.624  35.921  1.00  0.00     0.198 A 
ATOM     91  F   UNL A   1      45.513  30.193  34.346  1.00  0.00    -0.203 F 
ATOM     92  F   UNL A   1      44.532  26.017  37.725  1.00  0.00    -0.200 F 
ATOM     93  C   UNL A   1      46.047  27.566  36.786  1.00  0.00     0.200 A 
ATOM     94  F   UNL A   1      47.526  29.132  35.816  1.00  0.00    -0.200 F 
ATOM     95  F   UNL A   1      47.042  27.067  37.532  1.00  0.00    -0.200 F 
ENDBRANCH  62  85
ENDBRANCH  36  37
ENDBRANCH  28  31
ENDBRANCH  26  27
ENDBRANCH  25  26
ENDBRANCH  24  25
ENDBRANCH   1  24
TORSDOF 15
ENDMDL
MODEL 2
REMARK VINA RESULT:     -13.3      3.523      8.719
REMARK SMILES Cc1ccc(-c2cc(C(=O)NCCCCCCNC(=O)c3ccc(-c4c5nc(c(-c6c(F)c(F)c(F)c(F)c6F)c6ccc([nH]6)c(-c6c(F)c(F)c(F)c(F)c6F)c6nc(c(-c7c(F)c(F)c(F)c(F)c7F)c7ccc4[nH]7)C=C6)C=C5)cc3)ccc2F)cc1O
REMARK SMILES IDX 14 1 13 2 12 3 11 4 9 5 10 6 8 8 6 9 7 10 86 11 85 12 87 13
REMARK SMILES IDX 84 14 5 15 1 16 2 17 3 18 89 19 4 20 88 21 90 22 15 24 16 25
REMARK SMILES IDX 17 26 18 27 19 28 20 30 21 31 22 32 83 33 23 34 82 35 24 36
REMARK SMILES IDX 25 37 26 38 76 39 27 40 81 41 75 42 77 43 28 44 80 45 74 46
REMARK SMILES IDX 73 47 29 49 61 50 41 51 60 52 42 53 45 54 59 55 78 56 43 57
REMARK SMILES IDX 44 58 58 60 79 61 46 62 30 63 31 64 39 65 32 66 33 67 37 68
REMARK SMILES IDX 40 69 34 70 35 71 38 72 36 73 62 74 63 75 71 76 64 77 65 78
REMARK SMILES IDX 69 79 72 80 66 81 67 82 70 83 68 84 47 85 48 86 56 87 49 88
REMARK SMILES IDX 50 89 54 90 57 91 51 92 52 93 55 94 53 95
REMARK H PARENT 11 7 90 23 18 29 77 48 45 59
REMARK Flexibility Score: inf
ROOT
ATOM      1  C   UNL A   1      31.154  27.244  25.155  1.00  0.00     0.002 C 
ENDROOT
BRANCH   1   2
ATOM      2  C   UNL A   1      31.332  28.081  23.879  1.00  0.00     0.021 C 
BRANCH   2   3
ATOM      3  C   UNL A   1      30.606  27.489  22.669  1.00  0.00     0.116 C 
BRANCH   3   4
ATOM      4  N   UNL A   1      31.570  27.012  21.702  1.00  0.00    -0.352 N 
ATOM      5  C   UNL A   1      32.401  25.926  21.643  1.00  0.00     0.251 C 
ATOM      6  O   UNL A   1      33.151  25.863  20.668  1.00  0.00    -0.269 OA
ATOM      7  H   UNL A   1      31.646  27.596  20.913  1.00  0.00     0.163 HD
BRANCH   5   8
ATOM      8  C   UNL A   1      32.417  24.811  22.636  1.00  0.00     0.040 A 
ATOM      9  C   UNL A   1      33.849  23.418  24.080  1.00  0.00     0.018 A 
ATOM     10  C   UNL A   1      33.682  24.461  23.150  1.00  0.00     0.025 A 
ATOM     11  C   UNL A   1      32.716  22.692  24.453  1.00  0.00     0.131 A 
ATOM     12  C   UNL A   1      31.452  23.041  23.989  1.00  0.00     0.041 A 
ATOM     13  F   UNL A   1      32.816  21.664  25.309  1.00  0.00    -0.206 F 
ATOM     14  C   UNL A   1      31.299  24.124  23.117  1.00  0.00     0.017 A 
BRANCH   9  15
ATOM     15  C   UNL A   1      35.160  23.155  24.682  1.00  0.00    -0.012 A 
ATOM     16  C   UNL A   1      39.125  22.423  26.274  1.00  0.00     0.048 C 
ATOM     17  C   UNL A   1      37.744  22.645  25.733  1.00  0.00    -0.009 A 
ATOM     18  C   UNL A   1      37.104  23.873  25.959  1.00  0.00     0.008 A 
ATOM     19  C   UNL A   1      37.067  21.675  24.990  1.00  0.00     0.119 A 
ATOM     20  C   UNL A   1      35.830  24.125  25.438  1.00  0.00     0.009 A 
ATOM     21  C   UNL A   1      35.795  21.920  24.478  1.00  0.00     0.055 A 
BRANCH  19  22
ATOM     22  O   UNL A   1      37.601  20.449  24.704  1.00  0.00    -0.508 OA
ATOM     23  H   UNL A   1      37.203  19.907  24.053  1.00  0.00     0.293 HD
ENDBRANCH  19  22
ENDBRANCH   9  15
ENDBRANCH   5   8
ENDBRANCH   3   4
ENDBRANCH   2   3
ENDBRANCH   1   2
BRANCH   1  24
ATOM     24  C   UNL A   1      32.461  26.748  25.788  1.00  0.00     0.002 C 
BRANCH  24  25
ATOM     25  C   UNL A   1      33.104  27.719  26.781  1.00  0.00     0.021 C 
BRANCH  25  26
ATOM     26  C   UNL A   1      34.055  28.724  26.141  1.00  0.00     0.116 C 
BRANCH  26  27
ATOM     27  N   UNL A   1      33.861  30.061  26.680  1.00  0.00    -0.352 N 
ATOM     28  C   UNL A   1      34.577  30.718  27.649  1.00  0.00     0.251 C 
ATOM     29  H   UNL A   1      33.108  30.567  26.296  1.00  0.00     0.163 HD
ATOM     30  O   UNL A   1      34.139  31.744  28.159  1.00  0.00    -0.269 OA
BRANCH  28  31
ATOM     31  C   UNL A   1      35.880  30.176  28.086  1.00  0.00     0.039 A 
ATOM     32  C   UNL A   1      36.984  30.295  27.239  1.00  0.00     0.014 A 
ATOM     33  C   UNL A   1      36.006  29.543  29.326  1.00  0.00     0.014 A 
ATOM     34  C   UNL A   1      38.231  29.832  27.662  1.00  0.00     0.010 A 
ATOM     35  C   UNL A   1      37.261  29.142  29.773  1.00  0.00     0.010 A 
ATOM     36  C   UNL A   1      38.385  29.283  28.946  1.00  0.00    -0.014 A 
BRANCH  36  37
ATOM     37  C   UNL A   1      39.715  28.854  29.447  1.00  0.00     0.031 A 
ATOM     38  C   UNL A   1      40.453  29.704  30.443  1.00  0.00     0.074 A 
ATOM     39  C   UNL A   1      40.278  27.729  28.964  1.00  0.00     0.049 A 
ATOM     40  N   UNL A   1      41.660  29.549  30.926  1.00  0.00    -0.248 NA
ATOM     41  C   UNL A   1      39.752  30.894  30.951  1.00  0.00     0.031 C 
ATOM     42  C   UNL A   1      39.666  26.833  27.980  1.00  0.00     0.029 A 
ATOM     43  N   UNL A   1      41.492  27.148  29.229  1.00  0.00    -0.354 N 
ATOM     44  C   UNL A   1      41.860  30.619  31.788  1.00  0.00     0.074 A 
ATOM     45  C   UNL A   1      40.676  31.446  31.725  1.00  0.00     0.031 C 
ATOM     46  C   UNL A   1      40.493  25.802  27.749  1.00  0.00     0.029 A 
ATOM     47  C   UNL A   1      41.714  25.987  28.528  1.00  0.00     0.049 A 
ATOM     48  H   UNL A   1      42.144  27.527  29.861  1.00  0.00     0.167 HD
ATOM     49  C   UNL A   1      42.929  30.870  32.581  1.00  0.00     0.037 A 
ATOM     50  C   UNL A   1      42.785  25.169  28.509  1.00  0.00     0.037 A 
ATOM     51  C   UNL A   1      44.093  30.030  32.661  1.00  0.00     0.049 A 
ATOM     52  C   UNL A   1      43.977  25.504  29.364  1.00  0.00     0.074 A 
ATOM     53  C   UNL A   1      45.212  30.187  33.459  1.00  0.00     0.029 A 
ATOM     54  N   UNL A   1      44.285  28.871  31.925  1.00  0.00    -0.354 N 
ATOM     55  N   UNL A   1      44.141  26.501  30.200  1.00  0.00    -0.248 NA
ATOM     56  C   UNL A   1      45.137  24.606  29.271  1.00  0.00     0.031 C 
ATOM     57  C   UNL A   1      46.100  29.147  33.176  1.00  0.00     0.029 A 
ATOM     58  C   UNL A   1      45.512  28.313  32.238  1.00  0.00     0.049 A 
ATOM     59  H   UNL A   1      43.644  28.500  31.275  1.00  0.00     0.167 HD
ATOM     60  C   UNL A   1      45.402  26.331  30.755  1.00  0.00     0.074 A 
ATOM     61  C   UNL A   1      45.959  25.130  30.169  1.00  0.00     0.031 C 
ATOM     62  C   UNL A   1      46.041  27.102  31.666  1.00  0.00     0.037 A 
BRANCH  49  63
ATOM     63  C   UNL A   1      42.889  32.086  33.457  1.00  0.00     0.064 A 
ATOM     64  C   UNL A   1      42.291  32.034  34.724  1.00  0.00     0.173 A 
ATOM     65  C   UNL A   1      43.338  33.330  32.991  1.00  0.00     0.173 A 
ATOM     66  F   UNL A   1      41.839  30.869  35.213  1.00  0.00    -0.203 F 
ATOM     67  C   UNL A   1      42.122  33.190  35.483  1.00  0.00     0.198 A 
ATOM     68  C   UNL A   1      43.191  34.479  33.763  1.00  0.00     0.198 A 
ATOM     69  F   UNL A   1      43.926  33.429  31.789  1.00  0.00    -0.203 F 
ATOM     70  F   UNL A   1      41.508  33.124  36.672  1.00  0.00    -0.200 F 
ATOM     71  C   UNL A   1      42.570  34.410  35.001  1.00  0.00     0.200 A 
ATOM     72  F   UNL A   1      43.642  35.654  33.304  1.00  0.00    -0.200 F 
ATOM     73  F   UNL A   1      42.401  35.522  35.730  1.00  0.00    -0.200 F 
ENDBRANCH  49  63
BRANCH  50  74
ATOM     74  C   UNL A   1      42.773  23.941  27.670  1.00  0.00     0.064 A 
ATOM     75  C   UNL A   1      42.437  22.689  28.204  1.00  0.00     0.173 A 
ATOM     76  C   UNL A   1      43.092  24.004  26.306  1.00  0.00     0.173 A 
ATOM     77  F   UNL A   1      42.126  22.573  29.503  1.00  0.00    -0.203 F 
ATOM     78  C   UNL A   1      42.430  21.545  27.407  1.00  0.00     0.198 A 
ATOM     79  C   UNL A   1      43.056  22.865  25.505  1.00  0.00     0.198 A 
ATOM     80  F   UNL A   1      43.400  25.183  25.745  1.00  0.00    -0.203 F 
ATOM     81  F   UNL A   1      42.130  20.356  27.948  1.00  0.00    -0.200 F 
ATOM     82  C   UNL A   1      42.731  21.635  26.056  1.00  0.00     0.200 A 
ATOM     83  F   UNL A   1      43.319  22.964  24.195  1.00  0.00    -0.200 F 
ATOM     84  F   UNL A   1      42.700  20.541  25.286  1.00  0.00    -0.200 F 
ENDBRANCH  50  74
BRANCH  62  85
ATOM     85  C   UNL A   1      47.401  26.667  32.124  1.00  0.00     0.064 A 
ATOM     86  C   UNL A   1      48.552  27.135  31.471  1.00  0.00     0.173 A 
ATOM     87  C   UNL A   1      47.561  25.716  33.141  1.00  0.00     0.173 A 
ATOM     88  F   UNL A   1      48.450  28.038  30.484  1.00  0.00    -0.203 F 
ATOM     89  C   UNL A   1      49.812  26.646  31.803  1.00  0.00     0.198 A 
ATOM     90  C   UNL A   1      48.825  25.252  33.491  1.00  0.00     0.198 A 
ATOM     91  F   UNL A   1      46.491  25.250  33.804  1.00  0.00    -0.203 F 
ATOM     92  F   UNL A   1      50.892  27.074  31.136  1.00  0.00    -0.200 F 
ATOM     93  C   UNL A   1      49.947  25.707  32.814  1.00  0.00     0.200 A 
ATOM     94  F   UNL A   1      48.958  24.360  34.483  1.00  0.00    -0.200 F 
ATOM     95  F   UNL A   1      51.161  25.239  33.136  1.00  0.00    -0.200 F 
ENDBRANCH  62  85
ENDBRANCH  36  37
ENDBRANCH  28  31
ENDBRANCH  26  27
ENDBRANCH  25  26
ENDBRANCH  24  25
ENDBRANCH   1  24
TORSDOF 15
ENDMDL
MODEL 3
REMARK VINA RESULT:     -13.2      0.586      2.018
REMARK SMILES Cc1ccc(-c2cc(C(=O)NCCCCCCNC(=O)c3ccc(-c4c5nc(c(-c6c(F)c(F)c(F)c(F)c6F)c6ccc([nH]6)c(-c6c(F)c(F)c(F)c(F)c6F)c6nc(c(-c7c(F)c(F)c(F)c(F)c7F)c7ccc4[nH]7)C=C6)C=C5)cc3)ccc2F)cc1O
REMARK SMILES IDX 14 1 13 2 12 3 11 4 9 5 10 6 8 8 6 9 7 10 86 11 85 12 87 13
REMARK SMILES IDX 84 14 5 15 1 16 2 17 3 18 89 19 4 20 88 21 90 22 15 24 16 25
REMARK SMILES IDX 17 26 18 27 19 28 20 30 21 31 22 32 83 33 23 34 82 35 24 36
REMARK SMILES IDX 25 37 26 38 76 39 27 40 81 41 75 42 77 43 28 44 80 45 74 46
REMARK SMILES IDX 73 47 29 49 61 50 41 51 60 52 42 53 45 54 59 55 78 56 43 57
REMARK SMILES IDX 44 58 58 60 79 61 46 62 30 63 31 64 39 65 32 66 33 67 37 68
REMARK SMILES IDX 40 69 34 70 35 71 38 72 36 73 62 74 63 75 71 76 64 77 65 78
REMARK SMILES IDX 69 79 72 80 66 81 67 82 70 83 68 84 47 85 48 86 56 87 49 88
REMARK SMILES IDX 50 89 54 90 57 91 51 92 52 93 55 94 53 95
REMARK H PARENT 11 7 90 23 18 29 77 48 45 59
REMARK Flexibility Score: inf
ROOT
ATOM      1  C   UNL A   1      31.749  29.385  26.727  1.00  0.00     0.002 C 
ENDROOT
BRANCH   1   2
ATOM      2  C   UNL A   1      31.381  28.032  26.098  1.00  0.00     0.021 C 
BRANCH   2   3
ATOM      3  C   UNL A   1      32.376  26.921  26.443  1.00  0.00     0.116 C 
BRANCH   3   4
ATOM      4  N   UNL A   1      31.671  25.785  26.995  1.00  0.00    -0.352 N 
ATOM      5  C   UNL A   1      31.295  24.567  26.498  1.00  0.00     0.251 C 
ATOM      6  O   UNL A   1      30.639  23.847  27.253  1.00  0.00    -0.269 OA
ATOM      7  H   UNL A   1      31.404  25.916  27.933  1.00  0.00     0.163 HD
BRANCH   5   8
ATOM      8  C   UNL A   1      31.666  24.045  25.149  1.00  0.00     0.040 A 
ATOM      9  C   UNL A   1      32.502  22.090  23.904  1.00  0.00     0.018 A 
ATOM     10  C   UNL A   1      32.105  22.706  25.104  1.00  0.00     0.025 A 
ATOM     11  C   UNL A   1      32.496  22.865  22.741  1.00  0.00     0.131 A 
ATOM     12  C   UNL A   1      32.032  24.176  22.753  1.00  0.00     0.041 A 
ATOM     13  F   UNL A   1      32.897  22.343  21.572  1.00  0.00    -0.206 F 
ATOM     14  C   UNL A   1      31.578  24.749  23.945  1.00  0.00     0.017 A 
BRANCH   9  15
ATOM     15  C   UNL A   1      32.843  20.664  23.872  1.00  0.00    -0.012 A 
ATOM     16  C   UNL A   1      33.969  16.486  23.602  1.00  0.00     0.048 C 
ATOM     17  C   UNL A   1      33.547  17.922  23.695  1.00  0.00    -0.009 A 
ATOM     18  C   UNL A   1      34.220  18.784  24.575  1.00  0.00     0.008 A 
ATOM     19  C   UNL A   1      32.510  18.448  22.921  1.00  0.00     0.119 A 
ATOM     20  C   UNL A   1      33.874  20.137  24.659  1.00  0.00     0.009 A 
ATOM     21  C   UNL A   1      32.158  19.794  23.011  1.00  0.00     0.055 A 
BRANCH  19  22
ATOM     22  O   UNL A   1      31.794  17.701  22.028  1.00  0.00    -0.508 OA
ATOM     23  H   UNL A   1      32.192  17.420  21.229  1.00  0.00     0.293 HD
ENDBRANCH  19  22
ENDBRANCH   9  15
ENDBRANCH   5   8
ENDBRANCH   3   4
ENDBRANCH   2   3
ENDBRANCH   1   2
BRANCH   1  24
ATOM     24  C   UNL A   1      31.585  30.594  25.796  1.00  0.00     0.002 C 
BRANCH  24  25
ATOM     25  C   UNL A   1      31.372  31.931  26.511  1.00  0.00     0.021 C 
BRANCH  25  26
ATOM     26  C   UNL A   1      32.635  32.508  27.141  1.00  0.00     0.116 C 
BRANCH  26  27
ATOM     27  N   UNL A   1      32.474  33.916  27.467  1.00  0.00    -0.352 N 
ATOM     28  C   UNL A   1      33.079  34.653  28.454  1.00  0.00     0.251 C 
ATOM     29  H   UNL A   1      31.839  34.412  26.900  1.00  0.00     0.163 HD
ATOM     30  O   UNL A   1      32.657  35.765  28.749  1.00  0.00    -0.269 OA
BRANCH  28  31
ATOM     31  C   UNL A   1      34.243  34.092  29.172  1.00  0.00     0.039 A 
ATOM     32  C   UNL A   1      34.026  33.274  30.283  1.00  0.00     0.014 A 
ATOM     33  C   UNL A   1      35.545  34.385  28.754  1.00  0.00     0.014 A 
ATOM     34  C   UNL A   1      35.115  32.699  30.939  1.00  0.00     0.010 A 
ATOM     35  C   UNL A   1      36.625  33.758  29.367  1.00  0.00     0.010 A 
ATOM     36  C   UNL A   1      36.421  32.909  30.465  1.00  0.00    -0.014 A 
BRANCH  36  37
ATOM     37  C   UNL A   1      37.588  32.247  31.098  1.00  0.00     0.031 A 
ATOM     38  C   UNL A   1      38.327  31.162  30.365  1.00  0.00     0.074 A 
ATOM     39  C   UNL A   1      37.947  32.586  32.352  1.00  0.00     0.049 A 
ATOM     40  N   UNL A   1      39.307  30.402  30.785  1.00  0.00    -0.248 NA
ATOM     41  C   UNL A   1      37.898  30.881  28.986  1.00  0.00     0.031 C 
ATOM     42  C   UNL A   1      37.295  33.611  33.169  1.00  0.00     0.029 A 
ATOM     43  N   UNL A   1      38.945  32.104  33.161  1.00  0.00    -0.354 N 
ATOM     44  C   UNL A   1      39.606  29.556  29.726  1.00  0.00     0.074 A 
ATOM     45  C   UNL A   1      38.674  29.855  28.662  1.00  0.00     0.031 C 
ATOM     46  C   UNL A   1      37.927  33.701  34.350  1.00  0.00     0.029 A 
ATOM     47  C   UNL A   1      38.998  32.710  34.394  1.00  0.00     0.049 A 
ATOM     48  H   UNL A   1      39.565  31.390  32.886  1.00  0.00     0.167 HD
ATOM     49  C   UNL A   1      40.592  28.631  29.643  1.00  0.00     0.037 A 
ATOM     50  C   UNL A   1      39.812  32.484  35.444  1.00  0.00     0.037 A 
ATOM     51  C   UNL A   1      41.534  28.356  30.693  1.00  0.00     0.049 A 
ATOM     52  C   UNL A   1      40.865  31.413  35.337  1.00  0.00     0.074 A 
ATOM     53  C   UNL A   1      42.587  27.458  30.688  1.00  0.00     0.029 A 
ATOM     54  N   UNL A   1      41.546  28.981  31.930  1.00  0.00    -0.354 N 
ATOM     55  N   UNL A   1      41.159  30.643  34.318  1.00  0.00    -0.248 NA
ATOM     56  C   UNL A   1      41.695  31.175  36.527  1.00  0.00     0.031 C 
ATOM     57  C   UNL A   1      43.210  27.509  31.937  1.00  0.00     0.029 A 
ATOM     58  C   UNL A   1      42.577  28.475  32.703  1.00  0.00     0.049 A 
ATOM     59  H   UNL A   1      40.914  29.680  32.217  1.00  0.00     0.167 HD
ATOM     60  C   UNL A   1      42.226  29.856  34.730  1.00  0.00     0.074 A 
ATOM     61  C   UNL A   1      42.535  30.247  36.090  1.00  0.00     0.031 C 
ATOM     62  C   UNL A   1      42.888  28.894  34.045  1.00  0.00     0.037 A 
BRANCH  49  63
ATOM     63  C   UNL A   1      40.733  27.860  28.365  1.00  0.00     0.064 A 
ATOM     64  C   UNL A   1      40.164  26.585  28.233  1.00  0.00     0.173 A 
ATOM     65  C   UNL A   1      41.531  28.337  27.315  1.00  0.00     0.173 A 
ATOM     66  F   UNL A   1      39.397  26.081  29.213  1.00  0.00    -0.203 F 
ATOM     67  C   UNL A   1      40.411  25.804  27.106  1.00  0.00     0.198 A 
ATOM     68  C   UNL A   1      41.755  27.564  26.179  1.00  0.00     0.198 A 
ATOM     69  F   UNL A   1      42.089  29.554  27.390  1.00  0.00    -0.203 F 
ATOM     70  F   UNL A   1      39.894  24.571  27.021  1.00  0.00    -0.200 F 
ATOM     71  C   UNL A   1      41.207  26.294  26.082  1.00  0.00     0.200 A 
ATOM     72  F   UNL A   1      42.509  28.046  25.181  1.00  0.00    -0.200 F 
ATOM     73  F   UNL A   1      41.448  25.539  25.001  1.00  0.00    -0.200 F 
ENDBRANCH  49  63
BRANCH  50  74
ATOM     74  C   UNL A   1      39.683  33.301  36.680  1.00  0.00     0.064 A 
ATOM     75  C   UNL A   1      38.764  32.971  37.687  1.00  0.00     0.173 A 
ATOM     76  C   UNL A   1      40.492  34.429  36.878  1.00  0.00     0.173 A 
ATOM     77  F   UNL A   1      37.966  31.904  37.546  1.00  0.00    -0.203 F 
ATOM     78  C   UNL A   1      38.653  33.745  38.840  1.00  0.00     0.198 A 
ATOM     79  C   UNL A   1      40.400  35.184  38.046  1.00  0.00     0.198 A 
ATOM     80  F   UNL A   1      41.400  34.772  35.953  1.00  0.00    -0.203 F 
ATOM     81  F   UNL A   1      37.749  33.423  39.776  1.00  0.00    -0.200 F 
ATOM     82  C   UNL A   1      39.477  34.846  39.023  1.00  0.00     0.200 A 
ATOM     83  F   UNL A   1      41.219  36.228  38.229  1.00  0.00    -0.200 F 
ATOM     84  F   UNL A   1      39.388  35.574  40.143  1.00  0.00    -0.200 F 
ENDBRANCH  50  74
BRANCH  62  85
ATOM     85  C   UNL A   1      44.038  28.213  34.724  1.00  0.00     0.064 A 
ATOM     86  C   UNL A   1      45.326  28.768  34.663  1.00  0.00     0.173 A 
ATOM     87  C   UNL A   1      43.886  26.967  35.348  1.00  0.00     0.173 A 
ATOM     88  F   UNL A   1      45.524  29.954  34.068  1.00  0.00    -0.203 F 
ATOM     89  C   UNL A   1      46.424  28.087  35.181  1.00  0.00     0.198 A 
ATOM     90  C   UNL A   1      44.982  26.302  35.891  1.00  0.00     0.198 A 
ATOM     91  F   UNL A   1      42.672  26.403  35.442  1.00  0.00    -0.203 F 
ATOM     92  F   UNL A   1      47.650  28.616  35.073  1.00  0.00    -0.200 F 
ATOM     93  C   UNL A   1      46.251  26.857  35.796  1.00  0.00     0.200 A 
ATOM     94  F   UNL A   1      44.812  25.123  36.504  1.00  0.00    -0.200 F 
ATOM     95  F   UNL A   1      47.308  26.203  36.297  1.00  0.00    -0.200 F 
ENDBRANCH  62  85
ENDBRANCH  36  37
ENDBRANCH  28  31
ENDBRANCH  26  27
ENDBRANCH  25  26
ENDBRANCH  24  25
ENDBRANCH   1  24
TORSDOF 15
ENDMDL
