MODEL 1
REMARK VINA RESULT:     -12.3      0.000      0.000
REMARK SMILES CC(C)c1cc(O)cc(C(C)C)c1O[C@@H]1O[C@@H](C(=O)NCCCCCCNC(=O)c2ccc(-c3c4nc(c(-c5c(F)c(F)c(F)c(F)c5F)c5ccc([nH]5)c(-c5c(F)c(F)c(F)c(F)c5F)c5nc(c(-c6c(F)c(F)c(F)c(F)c6F)c6ccc3[nH]6)C=C5)C=C4)cc2)[C@@H](O)[C@H](O)[C@@H]1O
REMARK SMILES IDX 23 1 22 2 21 3 20 4 18 5 19 6 17 8 15 9 16 10 97 11 95 12
REMARK SMILES IDX 93 13 14 14 13 15 4 16 5 17 6 18 9 19 8 20 2 21 1 22 3 23
REMARK SMILES IDX 7 24 10 26 11 27 12 28 98 29 96 31 94 33 24 35 25 36 26 37
REMARK SMILES IDX 27 38 28 39 29 41 30 42 31 43 92 44 32 45 91 46 33 47 34 48
REMARK SMILES IDX 35 49 85 50 36 51 90 52 84 53 86 54 37 55 89 56 83 57 82 58
REMARK SMILES IDX 38 60 70 61 50 62 69 63 51 64 54 65 68 66 87 67 52 68 53 69
REMARK SMILES IDX 67 71 88 72 55 73 39 74 40 75 48 76 41 77 42 78 46 79 49 80
REMARK SMILES IDX 43 81 44 82 47 83 45 84 71 85 72 86 80 87 73 88 74 89 78 90
REMARK SMILES IDX 81 91 75 92 76 93 79 94 77 95 56 96 57 97 65 98 58 99 59 100
REMARK SMILES IDX 63 101 66 102 60 103 61 104 64 105 62 106
REMARK H PARENT 20 7 7 25 98 30 96 32 94 34 27 40 86 59 54 70
REMARK Flexibility Score: inf
ROOT
ATOM      1  C   UNL A   1      32.644  30.123  27.289  1.00  0.00     0.002 C 
ENDROOT
BRANCH   1   2
ATOM      2  C   UNL A   1      32.772  28.613  27.068  1.00  0.00     0.021 C 
BRANCH   2   3
ATOM      3  C   UNL A   1      34.031  28.203  26.317  1.00  0.00     0.116 C 
BRANCH   3   4
ATOM      4  N   UNL A   1      34.038  28.571  24.914  1.00  0.00    -0.354 N 
ATOM      5  C   UNL A   1      33.190  28.320  23.883  1.00  0.00     0.252 C 
ATOM      6  O   UNL A   1      33.243  29.152  22.964  1.00  0.00    -0.272 OA
ATOM      7  H   UNL A   1      34.817  29.114  24.656  1.00  0.00     0.163 HD
BRANCH   5   8
ATOM      8  C   UNL A   1      32.253  27.076  23.728  1.00  0.00     0.242 C 
ATOM      9  C   UNL A   1      33.918  25.357  24.012  1.00  0.00     0.339 C 
ATOM     10  O   UNL A   1      32.711  25.949  24.503  1.00  0.00    -0.324 OA
ATOM     11  C   UNL A   1      34.029  25.122  22.471  1.00  0.00     0.214 C 
ATOM     12  C   UNL A   1      33.168  26.084  21.628  1.00  0.00     0.181 C 
ATOM     13  C   UNL A   1      31.883  26.532  22.352  1.00  0.00     0.184 C 
BRANCH   9  14
ATOM     14  O   UNL A   1      34.359  24.210  24.752  1.00  0.00    -0.461 OA
BRANCH  14  15
ATOM     15  C   UNL A   1      33.899  22.926  24.813  1.00  0.00     0.130 A 
ATOM     16  C   UNL A   1      34.964  21.981  24.675  1.00  0.00     0.001 A 
ATOM     17  C   UNL A   1      34.688  20.598  24.634  1.00  0.00     0.054 A 
ATOM     18  C   UNL A   1      33.393  20.141  24.751  1.00  0.00     0.116 A 
ATOM     19  C   UNL A   1      32.573  22.437  24.934  1.00  0.00     0.001 A 
ATOM     20  C   UNL A   1      32.357  21.038  24.913  1.00  0.00     0.054 A 
BRANCH  16  21
ATOM     21  C   UNL A   1      36.441  22.368  24.536  1.00  0.00     0.017 C 
ATOM     22  C   UNL A   1      37.370  21.286  25.089  1.00  0.00     0.012 C 
ATOM     23  C   UNL A   1      36.844  22.799  23.123  1.00  0.00     0.012 C 
ENDBRANCH  16  21
BRANCH  18  24
ATOM     24  O   UNL A   1      33.085  18.816  24.705  1.00  0.00    -0.508 OA
ATOM     25  H   UNL A   1      32.612  18.420  25.410  1.00  0.00     0.293 HD
ENDBRANCH  18  24
BRANCH  19  26
ATOM     26  C   UNL A   1      31.319  23.269  25.094  1.00  0.00     0.017 C 
ATOM     27  C   UNL A   1      30.587  23.592  23.783  1.00  0.00     0.012 C 
ATOM     28  C   UNL A   1      30.360  22.676  26.125  1.00  0.00     0.012 C 
ENDBRANCH  19  26
ENDBRANCH  14  15
ENDBRANCH   9  14
BRANCH  11  29
ATOM     29  O   UNL A   1      33.717  23.781  22.049  1.00  0.00    -0.384 OA
ATOM     30  H   UNL A   1      32.886  23.497  22.462  1.00  0.00     0.211 HD
ENDBRANCH  11  29
BRANCH  12  31
ATOM     31  O   UNL A   1      32.838  25.467  20.373  1.00  0.00    -0.387 OA
ATOM     32  H   UNL A   1      32.617  26.152  19.724  1.00  0.00     0.211 HD
ENDBRANCH  12  31
BRANCH  13  33
ATOM     33  O   UNL A   1      31.033  27.419  21.623  1.00  0.00    -0.387 OA
ATOM     34  H   UNL A   1      30.978  28.269  22.086  1.00  0.00     0.211 HD
ENDBRANCH  13  33
ENDBRANCH   5   8
ENDBRANCH   3   4
ENDBRANCH   2   3
ENDBRANCH   1   2
BRANCH   1  35
ATOM     35  C   UNL A   1      31.535  30.835  26.501  1.00  0.00     0.002 C 
BRANCH  35  36
ATOM     36  C   UNL A   1      31.404  32.346  26.719  1.00  0.00     0.021 C 
BRANCH  36  37
ATOM     37  C   UNL A   1      32.717  33.088  26.959  1.00  0.00     0.116 C 
BRANCH  37  38
ATOM     38  N   UNL A   1      32.509  34.360  27.627  1.00  0.00    -0.352 N 
ATOM     39  C   UNL A   1      33.054  34.863  28.777  1.00  0.00     0.251 C 
ATOM     40  H   UNL A   1      31.871  34.961  27.178  1.00  0.00     0.163 HD
ATOM     41  O   UNL A   1      32.587  35.882  29.275  1.00  0.00    -0.269 OA
BRANCH  39  42
ATOM     42  C   UNL A   1      34.200  34.194  29.427  1.00  0.00     0.039 A 
ATOM     43  C   UNL A   1      35.490  34.533  29.006  1.00  0.00     0.014 A 
ATOM     44  C   UNL A   1      34.017  33.184  30.377  1.00  0.00     0.014 A 
ATOM     45  C   UNL A   1      36.595  33.882  29.555  1.00  0.00     0.010 A 
ATOM     46  C   UNL A   1      35.122  32.572  30.965  1.00  0.00     0.010 A 
ATOM     47  C   UNL A   1      36.419  32.904  30.546  1.00  0.00    -0.014 A 
BRANCH  47  48
ATOM     48  C   UNL A   1      37.589  32.203  31.125  1.00  0.00     0.031 A 
ATOM     49  C   UNL A   1      38.082  32.563  32.497  1.00  0.00     0.074 A 
ATOM     50  C   UNL A   1      38.217  31.258  30.402  1.00  0.00     0.049 A 
ATOM     51  N   UNL A   1      39.092  32.071  33.170  1.00  0.00    -0.248 NA
ATOM     52  C   UNL A   1      37.358  33.634  33.200  1.00  0.00     0.031 C 
ATOM     53  C   UNL A   1      37.859  30.861  29.039  1.00  0.00     0.029 A 
ATOM     54  N   UNL A   1      39.293  30.465  30.710  1.00  0.00    -0.354 N 
ATOM     55  C   UNL A   1      39.124  32.770  34.368  1.00  0.00     0.074 A 
ATOM     56  C   UNL A   1      38.068  33.757  34.313  1.00  0.00     0.031 C 
ATOM     57  C   UNL A   1      38.690  29.888  28.634  1.00  0.00     0.029 A 
ATOM     58  C   UNL A   1      39.648  29.606  29.699  1.00  0.00     0.049 A 
ATOM     59  H   UNL A   1      39.764  30.506  31.573  1.00  0.00     0.167 HD
ATOM     60  C   UNL A   1      39.945  32.587  35.430  1.00  0.00     0.037 A 
ATOM     61  C   UNL A   1      40.636  28.693  29.642  1.00  0.00     0.037 A 
ATOM     62  C   UNL A   1      40.985  31.594  35.489  1.00  0.00     0.049 A 
ATOM     63  C   UNL A   1      41.515  28.492  30.846  1.00  0.00     0.074 A 
ATOM     64  C   UNL A   1      41.857  31.313  36.526  1.00  0.00     0.029 A 
ATOM     65  N   UNL A   1      41.289  30.713  34.460  1.00  0.00    -0.354 N 
ATOM     66  N   UNL A   1      41.503  29.124  31.994  1.00  0.00    -0.248 NA
ATOM     67  C   UNL A   1      42.535  27.439  30.750  1.00  0.00     0.031 C 
ATOM     68  C   UNL A   1      42.704  30.275  36.117  1.00  0.00     0.029 A 
ATOM     69  C   UNL A   1      42.336  29.889  34.838  1.00  0.00     0.049 A 
ATOM     70  H   UNL A   1      40.827  30.679  33.591  1.00  0.00     0.167 HD
ATOM     71  C   UNL A   1      42.495  28.535  32.764  1.00  0.00     0.074 A 
ATOM     72  C   UNL A   1      43.077  27.481  31.959  1.00  0.00     0.031 C 
ATOM     73  C   UNL A   1      42.895  28.843  34.022  1.00  0.00     0.037 A 
BRANCH  60  74
ATOM     74  C   UNL A   1      39.738  33.472  36.624  1.00  0.00     0.064 A 
ATOM     75  C   UNL A   1      40.393  34.709  36.738  1.00  0.00     0.173 A 
ATOM     76  C   UNL A   1      38.853  33.101  37.647  1.00  0.00     0.173 A 
ATOM     77  F   UNL A   1      41.259  35.101  35.792  1.00  0.00    -0.203 F 
ATOM     78  C   UNL A   1      40.186  35.530  37.841  1.00  0.00     0.198 A 
ATOM     79  C   UNL A   1      38.629  33.938  38.738  1.00  0.00     0.198 A 
ATOM     80  F   UNL A   1      38.199  31.932  37.585  1.00  0.00    -0.203 F 
ATOM     81  F   UNL A   1      40.854  36.687  37.949  1.00  0.00    -0.200 F 
ATOM     82  C   UNL A   1      39.300  35.147  38.838  1.00  0.00     0.200 A 
ATOM     83  F   UNL A   1      37.766  33.572  39.696  1.00  0.00    -0.200 F 
ATOM     84  F   UNL A   1      39.098  35.943  39.897  1.00  0.00    -0.200 F 
ENDBRANCH  60  74
BRANCH  61  85
ATOM     85  C   UNL A   1      40.821  27.880  28.416  1.00  0.00     0.064 A 
ATOM     86  C   UNL A   1      40.176  26.645  28.265  1.00  0.00     0.173 A 
ATOM     87  C   UNL A   1      41.646  28.318  27.370  1.00  0.00     0.173 A 
ATOM     88  F   UNL A   1      39.392  26.176  29.246  1.00  0.00    -0.203 F 
ATOM     89  C   UNL A   1      40.365  25.868  27.124  1.00  0.00     0.198 A 
ATOM     90  C   UNL A   1      41.815  27.553  26.219  1.00  0.00     0.198 A 
ATOM     91  F   UNL A   1      42.281  29.495  27.465  1.00  0.00    -0.203 F 
ATOM     92  F   UNL A   1      39.771  24.672  27.024  1.00  0.00    -0.200 F 
ATOM     93  C   UNL A   1      41.181  26.325  26.099  1.00  0.00     0.200 A 
ATOM     94  F   UNL A   1      42.594  28.002  25.226  1.00  0.00    -0.200 F 
ATOM     95  F   UNL A   1      41.362  25.578  25.002  1.00  0.00    -0.200 F 
ENDBRANCH  61  85
BRANCH  73  96
ATOM     96  C   UNL A   1      43.997  28.013  34.608  1.00  0.00     0.064 A 
ATOM     97  C   UNL A   1      45.340  28.405  34.508  1.00  0.00     0.173 A 
ATOM     98  C   UNL A   1      43.704  26.827  35.297  1.00  0.00     0.173 A 
ATOM     99  F   UNL A   1      45.669  29.522  33.843  1.00  0.00    -0.203 F 
ATOM    100  C   UNL A   1      46.353  27.624  35.055  1.00  0.00     0.198 A 
ATOM    101  C   UNL A   1      44.719  26.062  35.865  1.00  0.00     0.198 A 
ATOM    102  F   UNL A   1      42.434  26.414  35.424  1.00  0.00    -0.203 F 
ATOM    103  F   UNL A   1      47.634  27.992  34.908  1.00  0.00    -0.200 F 
ATOM    104  C   UNL A   1      46.042  26.456  35.737  1.00  0.00     0.200 A 
ATOM    105  F   UNL A   1      44.416  24.939  36.531  1.00  0.00    -0.200 F 
ATOM    106  F   UNL A   1      47.019  25.707  36.263  1.00  0.00    -0.200 F 
ENDBRANCH  73  96
ENDBRANCH  47  48
ENDBRANCH  39  42
ENDBRANCH  37  38
ENDBRANCH  36  37
ENDBRANCH  35  36
ENDBRANCH   1  35
TORSDOF 21
ENDMDL
MODEL 2
REMARK VINA RESULT:     -12.1      4.923     10.699
REMARK SMILES CC(C)c1cc(O)cc(C(C)C)c1O[C@@H]1O[C@@H](C(=O)NCCCCCCNC(=O)c2ccc(-c3c4nc(c(-c5c(F)c(F)c(F)c(F)c5F)c5ccc([nH]5)c(-c5c(F)c(F)c(F)c(F)c5F)c5nc(c(-c6c(F)c(F)c(F)c(F)c6F)c6ccc3[nH]6)C=C5)C=C4)cc2)[C@@H](O)[C@H](O)[C@@H]1O
REMARK SMILES IDX 23 1 22 2 21 3 20 4 18 5 19 6 17 8 15 9 16 10 97 11 95 12
REMARK SMILES IDX 93 13 14 14 13 15 4 16 5 17 6 18 9 19 8 20 2 21 1 22 3 23
REMARK SMILES IDX 7 24 10 26 11 27 12 28 98 29 96 31 94 33 24 35 25 36 26 37
REMARK SMILES IDX 27 38 28 39 29 41 30 42 31 43 92 44 32 45 91 46 33 47 34 48
REMARK SMILES IDX 35 49 85 50 36 51 90 52 84 53 86 54 37 55 89 56 83 57 82 58
REMARK SMILES IDX 38 60 70 61 50 62 69 63 51 64 54 65 68 66 87 67 52 68 53 69
REMARK SMILES IDX 67 71 88 72 55 73 39 74 40 75 48 76 41 77 42 78 46 79 49 80
REMARK SMILES IDX 43 81 44 82 47 83 45 84 71 85 72 86 80 87 73 88 74 89 78 90
REMARK SMILES IDX 81 91 75 92 76 93 79 94 77 95 56 96 57 97 65 98 58 99 59 100
REMARK SMILES IDX 63 101 66 102 60 103 61 104 64 105 62 106
REMARK H PARENT 20 7 7 25 98 30 96 32 94 34 27 40 86 59 54 70
REMARK Flexibility Score: inf
ROOT
ATOM      1  C   UNL A   1      38.789  22.361  26.031  1.00  0.00     0.002 C 
ENDROOT
BRANCH   1   2
ATOM      2  C   UNL A   1      37.970  23.594  26.425  1.00  0.00     0.021 C 
BRANCH   2   3
ATOM      3  C   UNL A   1      36.529  23.558  25.937  1.00  0.00     0.116 C 
BRANCH   3   4
ATOM      4  N   UNL A   1      35.596  22.954  26.870  1.00  0.00    -0.354 N 
ATOM      5  C   UNL A   1      34.395  22.338  26.716  1.00  0.00     0.252 C 
ATOM      6  O   UNL A   1      34.107  21.546  27.626  1.00  0.00    -0.272 OA
ATOM      7  H   UNL A   1      35.894  22.999  27.806  1.00  0.00     0.163 HD
BRANCH   5   8
ATOM      8  C   UNL A   1      33.352  22.598  25.578  1.00  0.00     0.242 C 
ATOM      9  C   UNL A   1      32.839  24.894  26.104  1.00  0.00     0.339 C 
ATOM     10  O   UNL A   1      33.357  23.973  25.139  1.00  0.00    -0.324 OA
ATOM     11  C   UNL A   1      31.522  24.495  26.845  1.00  0.00     0.214 C 
ATOM     12  C   UNL A   1      31.291  22.973  26.935  1.00  0.00     0.181 C 
ATOM     13  C   UNL A   1      31.889  22.203  25.742  1.00  0.00     0.184 C 
BRANCH   9  14
ATOM     14  O   UNL A   1      32.801  26.258  25.661  1.00  0.00    -0.461 OA
BRANCH  14  15
ATOM     15  C   UNL A   1      32.089  26.883  24.678  1.00  0.00     0.130 A 
ATOM     16  C   UNL A   1      31.700  28.202  25.072  1.00  0.00     0.001 A 
ATOM     17  C   UNL A   1      30.889  28.987  24.225  1.00  0.00     0.054 A 
ATOM     18  C   UNL A   1      30.484  28.502  23.000  1.00  0.00     0.116 A 
ATOM     19  C   UNL A   1      31.664  26.402  23.414  1.00  0.00     0.001 A 
ATOM     20  C   UNL A   1      30.874  27.243  22.593  1.00  0.00     0.054 A 
BRANCH  16  21
ATOM     21  C   UNL A   1      32.088  28.848  26.407  1.00  0.00     0.017 C 
ATOM     22  C   UNL A   1      31.916  30.367  26.378  1.00  0.00     0.012 C 
ATOM     23  C   UNL A   1      31.410  28.219  27.626  1.00  0.00     0.012 C 
ENDBRANCH  16  21
BRANCH  18  24
ATOM     24  O   UNL A   1      29.693  29.225  22.160  1.00  0.00    -0.508 OA
ATOM     25  H   UNL A   1      28.761  29.147  22.211  1.00  0.00     0.293 HD
ENDBRANCH  18  24
BRANCH  19  26
ATOM     26  C   UNL A   1      31.974  25.046  22.817  1.00  0.00     0.017 C 
ATOM     27  C   UNL A   1      30.822  24.032  22.886  1.00  0.00     0.012 C 
ATOM     28  C   UNL A   1      32.526  25.152  21.395  1.00  0.00     0.012 C 
ENDBRANCH  19  26
ENDBRANCH  14  15
ENDBRANCH   9  14
BRANCH  11  29
ATOM     29  O   UNL A   1      30.328  25.081  26.292  1.00  0.00    -0.384 OA
ATOM     30  H   UNL A   1      30.550  25.917  25.853  1.00  0.00     0.211 HD
ENDBRANCH  11  29
BRANCH  12  31
ATOM     31  O   UNL A   1      29.885  22.701  27.044  1.00  0.00    -0.387 OA
ATOM     32  H   UNL A   1      29.739  22.019  27.718  1.00  0.00     0.211 HD
ENDBRANCH  12  31
BRANCH  13  33
ATOM     33  O   UNL A   1      31.703  20.786  25.757  1.00  0.00    -0.387 OA
ATOM     34  H   UNL A   1      32.557  20.349  25.898  1.00  0.00     0.211 HD
ENDBRANCH  13  33
ENDBRANCH   5   8
ENDBRANCH   3   4
ENDBRANCH   2   3
ENDBRANCH   1   2
BRANCH   1  35
ATOM     35  C   UNL A   1      38.147  21.415  25.005  1.00  0.00     0.002 C 
BRANCH  35  36
ATOM     36  C   UNL A   1      38.636  19.963  25.015  1.00  0.00     0.021 C 
BRANCH  36  37
ATOM     37  C   UNL A   1      39.313  19.510  26.306  1.00  0.00     0.116 C 
BRANCH  37  38
ATOM     38  N   UNL A   1      40.571  18.831  26.051  1.00  0.00    -0.352 N 
ATOM     39  C   UNL A   1      41.842  19.324  25.937  1.00  0.00     0.251 C 
ATOM     40  H   UNL A   1      40.498  17.855  25.942  1.00  0.00     0.163 HD
ATOM     41  O   UNL A   1      42.739  18.600  25.518  1.00  0.00    -0.269 OA
BRANCH  39  42
ATOM     42  C   UNL A   1      42.150  20.720  26.315  1.00  0.00     0.039 A 
ATOM     43  C   UNL A   1      42.313  21.661  25.293  1.00  0.00     0.014 A 
ATOM     44  C   UNL A   1      42.361  21.089  27.647  1.00  0.00     0.014 A 
ATOM     45  C   UNL A   1      42.661  22.975  25.607  1.00  0.00     0.010 A 
ATOM     46  C   UNL A   1      42.654  22.414  27.965  1.00  0.00     0.010 A 
ATOM     47  C   UNL A   1      42.824  23.363  26.946  1.00  0.00    -0.014 A 
BRANCH  47  48
ATOM     48  C   UNL A   1      43.202  24.755  27.283  1.00  0.00     0.031 A 
ATOM     49  C   UNL A   1      44.602  25.239  27.034  1.00  0.00     0.074 A 
ATOM     50  C   UNL A   1      42.287  25.573  27.834  1.00  0.00     0.049 A 
ATOM     51  N   UNL A   1      45.125  26.417  27.269  1.00  0.00    -0.248 NA
ATOM     52  C   UNL A   1      45.547  24.265  26.465  1.00  0.00     0.031 C 
ATOM     53  C   UNL A   1      40.911  25.198  28.167  1.00  0.00     0.029 A 
ATOM     54  N   UNL A   1      42.376  26.888  28.214  1.00  0.00    -0.354 N 
ATOM     55  C   UNL A   1      46.454  26.323  26.879  1.00  0.00     0.074 A 
ATOM     56  C   UNL A   1      46.674  24.962  26.442  1.00  0.00     0.031 C 
ATOM     57  C   UNL A   1      40.282  26.263  28.689  1.00  0.00     0.029 A 
ATOM     58  C   UNL A   1      41.211  27.387  28.743  1.00  0.00     0.049 A 
ATOM     59  H   UNL A   1      43.197  27.423  28.117  1.00  0.00     0.167 HD
ATOM     60  C   UNL A   1      47.399  27.294  26.864  1.00  0.00     0.037 A 
ATOM     61  C   UNL A   1      40.928  28.615  29.215  1.00  0.00     0.037 A 
ATOM     62  C   UNL A   1      47.173  28.652  27.285  1.00  0.00     0.049 A 
ATOM     63  C   UNL A   1      41.988  29.681  29.160  1.00  0.00     0.074 A 
ATOM     64  C   UNL A   1      48.056  29.716  27.287  1.00  0.00     0.029 A 
ATOM     65  N   UNL A   1      45.967  29.131  27.776  1.00  0.00    -0.354 N 
ATOM     66  N   UNL A   1      43.227  29.596  28.740  1.00  0.00    -0.248 NA
ATOM     67  C   UNL A   1      41.603  31.020  29.630  1.00  0.00     0.031 C 
ATOM     68  C   UNL A   1      47.391  30.836  27.802  1.00  0.00     0.029 A 
ATOM     69  C   UNL A   1      46.084  30.476  28.087  1.00  0.00     0.049 A 
ATOM     70  H   UNL A   1      45.149  28.594  27.886  1.00  0.00     0.167 HD
ATOM     71  C   UNL A   1      43.764  30.868  28.876  1.00  0.00     0.074 A 
ATOM     72  C   UNL A   1      42.709  31.712  29.397  1.00  0.00     0.031 C 
ATOM     73  C   UNL A   1      45.019  31.298  28.599  1.00  0.00     0.037 A 
BRANCH  60  74
ATOM     74  C   UNL A   1      48.762  26.923  26.358  1.00  0.00     0.064 A 
ATOM     75  C   UNL A   1      49.740  26.396  27.215  1.00  0.00     0.173 A 
ATOM     76  C   UNL A   1      49.085  27.062  25.000  1.00  0.00     0.173 A 
ATOM     77  F   UNL A   1      49.483  26.256  28.524  1.00  0.00    -0.203 F 
ATOM     78  C   UNL A   1      50.997  26.042  26.736  1.00  0.00     0.198 A 
ATOM     79  C   UNL A   1      50.337  26.684  24.519  1.00  0.00     0.198 A 
ATOM     80  F   UNL A   1      48.185  27.558  24.137  1.00  0.00    -0.203 F 
ATOM     81  F   UNL A   1      51.929  25.579  27.581  1.00  0.00    -0.200 F 
ATOM     82  C   UNL A   1      51.293  26.181  25.388  1.00  0.00     0.200 A 
ATOM     83  F   UNL A   1      50.619  26.808  23.214  1.00  0.00    -0.200 F 
ATOM     84  F   UNL A   1      52.503  25.834  24.928  1.00  0.00    -0.200 F 
ENDBRANCH  60  74
BRANCH  61  85
ATOM     85  C   UNL A   1      39.575  28.909  29.746  1.00  0.00     0.064 A 
ATOM     86  C   UNL A   1      38.570  29.423  28.917  1.00  0.00     0.173 A 
ATOM     87  C   UNL A   1      39.258  28.683  31.094  1.00  0.00     0.173 A 
ATOM     88  F   UNL A   1      38.831  29.673  27.625  1.00  0.00    -0.203 F 
ATOM     89  C   UNL A   1      37.305  29.721  29.418  1.00  0.00     0.198 A 
ATOM     90  C   UNL A   1      37.986  28.957  31.589  1.00  0.00     0.198 A 
ATOM     91  F   UNL A   1      40.185  28.187  31.927  1.00  0.00    -0.203 F 
ATOM     92  F   UNL A   1      36.375  30.252  28.613  1.00  0.00    -0.200 F 
ATOM     93  C   UNL A   1      37.012  29.483  30.753  1.00  0.00     0.200 A 
ATOM     94  F   UNL A   1      37.703  28.716  32.876  1.00  0.00    -0.200 F 
ATOM     95  F   UNL A   1      35.795  29.769  31.235  1.00  0.00    -0.200 F 
ENDBRANCH  61  85
BRANCH  73  96
ATOM     96  C   UNL A   1      45.308  32.749  28.837  1.00  0.00     0.064 A 
ATOM     97  C   UNL A   1      45.077  33.713  27.844  1.00  0.00     0.173 A 
ATOM     98  C   UNL A   1      45.798  33.182  30.077  1.00  0.00     0.173 A 
ATOM     99  F   UNL A   1      44.625  33.343  26.637  1.00  0.00    -0.203 F 
ATOM    100  C   UNL A   1      45.351  35.057  28.078  1.00  0.00     0.198 A 
ATOM    101  C   UNL A   1      46.047  34.531  30.315  1.00  0.00     0.198 A 
ATOM    102  F   UNL A   1      46.030  32.299  31.060  1.00  0.00    -0.203 F 
ATOM    103  F   UNL A   1      45.167  35.956  27.101  1.00  0.00    -0.200 F 
ATOM    104  C   UNL A   1      45.830  35.466  29.314  1.00  0.00     0.200 A 
ATOM    105  F   UNL A   1      46.502  34.926  31.512  1.00  0.00    -0.200 F 
ATOM    106  F   UNL A   1      46.093  36.760  29.536  1.00  0.00    -0.200 F 
ENDBRANCH  73  96
ENDBRANCH  47  48
ENDBRANCH  39  42
ENDBRANCH  37  38
ENDBRANCH  36  37
ENDBRANCH  35  36
ENDBRANCH   1  35
TORSDOF 21
ENDMDL
MODEL 3
REMARK VINA RESULT:     -12.1      0.704      7.079
REMARK SMILES CC(C)c1cc(O)cc(C(C)C)c1O[C@@H]1O[C@@H](C(=O)NCCCCCCNC(=O)c2ccc(-c3c4nc(c(-c5c(F)c(F)c(F)c(F)c5F)c5ccc([nH]5)c(-c5c(F)c(F)c(F)c(F)c5F)c5nc(c(-c6c(F)c(F)c(F)c(F)c6F)c6ccc3[nH]6)C=C5)C=C4)cc2)[C@@H](O)[C@H](O)[C@@H]1O
REMARK SMILES IDX 23 1 22 2 21 3 20 4 18 5 19 6 17 8 15 9 16 10 97 11 95 12
REMARK SMILES IDX 93 13 14 14 13 15 4 16 5 17 6 18 9 19 8 20 2 21 1 22 3 23
REMARK SMILES IDX 7 24 10 26 11 27 12 28 98 29 96 31 94 33 24 35 25 36 26 37
REMARK SMILES IDX 27 38 28 39 29 41 30 42 31 43 92 44 32 45 91 46 33 47 34 48
REMARK SMILES IDX 35 49 85 50 36 51 90 52 84 53 86 54 37 55 89 56 83 57 82 58
REMARK SMILES IDX 38 60 70 61 50 62 69 63 51 64 54 65 68 66 87 67 52 68 53 69
REMARK SMILES IDX 67 71 88 72 55 73 39 74 40 75 48 76 41 77 42 78 46 79 49 80
REMARK SMILES IDX 43 81 44 82 47 83 45 84 71 85 72 86 80 87 73 88 74 89 78 90
REMARK SMILES IDX 81 91 75 92 76 93 79 94 77 95 56 96 57 97 65 98 58 99 59 100
REMARK SMILES IDX 63 101 66 102 60 103 61 104 64 105 62 106
REMARK H PARENT 20 7 7 25 98 30 96 32 94 34 27 40 86 59 54 70
REMARK Flexibility Score: inf
ROOT
ATOM      1  C   UNL A   1      32.206  30.106  27.381  1.00  0.00     0.002 C 
ENDROOT
BRANCH   1   2
ATOM      2  C   UNL A   1      32.510  28.647  27.029  1.00  0.00     0.021 C 
BRANCH   2   3
ATOM      3  C   UNL A   1      33.874  28.438  26.386  1.00  0.00     0.116 C 
BRANCH   3   4
ATOM      4  N   UNL A   1      33.930  28.775  24.976  1.00  0.00    -0.354 N 
ATOM      5  C   UNL A   1      33.124  28.493  23.920  1.00  0.00     0.252 C 
ATOM      6  O   UNL A   1      33.203  29.305  22.985  1.00  0.00    -0.272 OA
ATOM      7  H   UNL A   1      34.713  29.320  24.735  1.00  0.00     0.163 HD
BRANCH   5   8
ATOM      8  C   UNL A   1      32.205  27.237  23.758  1.00  0.00     0.242 C 
ATOM      9  C   UNL A   1      33.882  25.540  24.102  1.00  0.00     0.339 C 
ATOM     10  O   UNL A   1      32.658  26.124  24.557  1.00  0.00    -0.324 OA
ATOM     11  C   UNL A   1      34.033  25.290  22.567  1.00  0.00     0.214 C 
ATOM     12  C   UNL A   1      33.180  26.230  21.692  1.00  0.00     0.181 C 
ATOM     13  C   UNL A   1      31.874  26.672  22.381  1.00  0.00     0.184 C 
BRANCH   9  14
ATOM     14  O   UNL A   1      34.320  24.408  24.865  1.00  0.00    -0.461 OA
BRANCH  14  15
ATOM     15  C   UNL A   1      33.914  23.104  24.886  1.00  0.00     0.130 A 
ATOM     16  C   UNL A   1      35.016  22.210  24.710  1.00  0.00     0.001 A 
ATOM     17  C   UNL A   1      34.797  20.818  24.624  1.00  0.00     0.054 A 
ATOM     18  C   UNL A   1      33.522  20.304  24.733  1.00  0.00     0.116 A 
ATOM     19  C   UNL A   1      32.610  22.557  24.997  1.00  0.00     0.001 A 
ATOM     20  C   UNL A   1      32.451  21.152  24.931  1.00  0.00     0.054 A 
BRANCH  16  21
ATOM     21  C   UNL A   1      36.475  22.662  24.576  1.00  0.00     0.017 C 
ATOM     22  C   UNL A   1      37.406  21.867  25.492  1.00  0.00     0.012 C 
ATOM     23  C   UNL A   1      36.987  22.700  23.134  1.00  0.00     0.012 C 
ENDBRANCH  16  21
BRANCH  18  24
ATOM     24  O   UNL A   1      33.269  18.970  24.645  1.00  0.00    -0.508 OA
ATOM     25  H   UNL A   1      32.549  18.662  24.131  1.00  0.00     0.293 HD
ENDBRANCH  18  24
BRANCH  19  26
ATOM     26  C   UNL A   1      31.324  23.331  25.192  1.00  0.00     0.017 C 
ATOM     27  C   UNL A   1      30.590  23.699  23.894  1.00  0.00     0.012 C 
ATOM     28  C   UNL A   1      30.380  22.644  26.180  1.00  0.00     0.012 C 
ENDBRANCH  19  26
ENDBRANCH  14  15
ENDBRANCH   9  14
BRANCH  11  29
ATOM     29  O   UNL A   1      33.746  23.940  22.153  1.00  0.00    -0.384 OA
ATOM     30  H   UNL A   1      33.454  23.940  21.228  1.00  0.00     0.211 HD
ENDBRANCH  11  29
BRANCH  12  31
ATOM     31  O   UNL A   1      32.887  25.596  20.437  1.00  0.00    -0.387 OA
ATOM     32  H   UNL A   1      33.668  25.635  19.864  1.00  0.00     0.211 HD
ENDBRANCH  12  31
BRANCH  13  33
ATOM     33  O   UNL A   1      31.030  27.540  21.621  1.00  0.00    -0.387 OA
ATOM     34  H   UNL A   1      31.234  27.446  20.678  1.00  0.00     0.211 HD
ENDBRANCH  13  33
ENDBRANCH   5   8
ENDBRANCH   3   4
ENDBRANCH   2   3
ENDBRANCH   1   2
BRANCH   1  35
ATOM     35  C   UNL A   1      31.412  30.907  26.339  1.00  0.00     0.002 C 
BRANCH  35  36
ATOM     36  C   UNL A   1      31.417  32.431  26.501  1.00  0.00     0.021 C 
BRANCH  36  37
ATOM     37  C   UNL A   1      32.693  33.022  27.094  1.00  0.00     0.116 C 
BRANCH  37  38
ATOM     38  N   UNL A   1      32.478  34.355  27.628  1.00  0.00    -0.352 N 
ATOM     39  C   UNL A   1      32.989  34.960  28.744  1.00  0.00     0.251 C 
ATOM     40  H   UNL A   1      31.865  34.916  27.101  1.00  0.00     0.163 HD
ATOM     41  O   UNL A   1      32.519  36.027  29.125  1.00  0.00    -0.269 OA
BRANCH  39  42
ATOM     42  C   UNL A   1      34.102  34.345  29.497  1.00  0.00     0.039 A 
ATOM     43  C   UNL A   1      35.405  34.532  29.022  1.00  0.00     0.014 A 
ATOM     44  C   UNL A   1      33.872  33.524  30.606  1.00  0.00     0.014 A 
ATOM     45  C   UNL A   1      36.476  33.920  29.673  1.00  0.00     0.010 A 
ATOM     46  C   UNL A   1      34.947  32.958  31.288  1.00  0.00     0.010 A 
ATOM     47  C   UNL A   1      36.255  33.136  30.816  1.00  0.00    -0.014 A 
BRANCH  47  48
ATOM     48  C   UNL A   1      37.390  32.477  31.504  1.00  0.00     0.031 A 
ATOM     49  C   UNL A   1      38.107  31.330  30.851  1.00  0.00     0.074 A 
ATOM     50  C   UNL A   1      37.757  32.901  32.728  1.00  0.00     0.049 A 
ATOM     51  N   UNL A   1      39.114  30.621  31.296  1.00  0.00    -0.248 NA
ATOM     52  C   UNL A   1      37.613  30.908  29.530  1.00  0.00     0.031 C 
ATOM     53  C   UNL A   1      37.102  33.972  33.482  1.00  0.00     0.029 A 
ATOM     54  N   UNL A   1      38.767  32.479  33.555  1.00  0.00    -0.354 N 
ATOM     55  C   UNL A   1      39.371  29.674  30.315  1.00  0.00     0.074 A 
ATOM     56  C   UNL A   1      38.384  29.861  29.274  1.00  0.00     0.031 C 
ATOM     57  C   UNL A   1      37.737  34.133  34.654  1.00  0.00     0.029 A 
ATOM     58  C   UNL A   1      38.828  33.168  34.741  1.00  0.00     0.049 A 
ATOM     59  H   UNL A   1      39.388  31.752  33.320  1.00  0.00     0.167 HD
ATOM     60  C   UNL A   1      40.359  28.748  30.275  1.00  0.00     0.037 A 
ATOM     61  C   UNL A   1      39.674  33.034  35.780  1.00  0.00     0.037 A 
ATOM     62  C   UNL A   1      41.349  28.574  31.305  1.00  0.00     0.049 A 
ATOM     63  C   UNL A   1      40.778  32.017  35.696  1.00  0.00     0.074 A 
ATOM     64  C   UNL A   1      42.405  27.681  31.350  1.00  0.00     0.029 A 
ATOM     65  N   UNL A   1      41.405  29.320  32.474  1.00  0.00    -0.354 N 
ATOM     66  N   UNL A   1      41.045  31.161  34.740  1.00  0.00    -0.248 NA
ATOM     67  C   UNL A   1      41.710  31.958  36.832  1.00  0.00     0.031 C 
ATOM     68  C   UNL A   1      43.087  27.870  32.558  1.00  0.00     0.029 A 
ATOM     69  C   UNL A   1      42.476  28.904  33.248  1.00  0.00     0.049 A 
ATOM     70  H   UNL A   1      40.776  30.037  32.717  1.00  0.00     0.167 HD
ATOM     71  C   UNL A   1      42.182  30.477  35.146  1.00  0.00     0.074 A 
ATOM     72  C   UNL A   1      42.567  31.032  36.426  1.00  0.00     0.031 C 
ATOM     73  C   UNL A   1      42.844  29.475  34.518  1.00  0.00     0.037 A 
BRANCH  60  74
ATOM     74  C   UNL A   1      40.427  27.862  29.066  1.00  0.00     0.064 A 
ATOM     75  C   UNL A   1      41.236  28.188  27.967  1.00  0.00     0.173 A 
ATOM     76  C   UNL A   1      39.707  26.659  29.017  1.00  0.00     0.173 A 
ATOM     77  F   UNL A   1      41.933  29.334  27.960  1.00  0.00    -0.203 F 
ATOM     78  C   UNL A   1      41.303  27.355  26.854  1.00  0.00     0.198 A 
ATOM     79  C   UNL A   1      39.797  25.815  27.913  1.00  0.00     0.198 A 
ATOM     80  F   UNL A   1      38.921  26.298  30.043  1.00  0.00    -0.203 F 
ATOM     81  F   UNL A   1      42.050  27.708  25.798  1.00  0.00    -0.200 F 
ATOM     82  C   UNL A   1      40.589  26.167  26.830  1.00  0.00     0.200 A 
ATOM     83  F   UNL A   1      39.114  24.662  27.894  1.00  0.00    -0.200 F 
ATOM     84  F   UNL A   1      40.661  25.363  25.760  1.00  0.00    -0.200 F 
ENDBRANCH  60  74
BRANCH  61  85
ATOM     85  C   UNL A   1      39.528  33.909  36.968  1.00  0.00     0.064 A 
ATOM     86  C   UNL A   1      40.133  35.172  37.014  1.00  0.00     0.173 A 
ATOM     87  C   UNL A   1      38.782  33.502  38.084  1.00  0.00     0.173 A 
ATOM     88  F   UNL A   1      40.872  35.597  35.978  1.00  0.00    -0.203 F 
ATOM     89  C   UNL A   1      40.018  35.986  38.138  1.00  0.00     0.198 A 
ATOM     90  C   UNL A   1      38.645  34.326  39.197  1.00  0.00     0.198 A 
ATOM     91  F   UNL A   1      38.179  32.304  38.087  1.00  0.00    -0.203 F 
ATOM     92  F   UNL A   1      40.642  37.170  38.173  1.00  0.00    -0.200 F 
ATOM     93  C   UNL A   1      39.269  35.565  39.227  1.00  0.00     0.200 A 
ATOM     94  F   UNL A   1      37.912  33.921  40.243  1.00  0.00    -0.200 F 
ATOM     95  F   UNL A   1      39.156  36.349  40.308  1.00  0.00    -0.200 F 
ENDBRANCH  61  85
BRANCH  73  96
ATOM     96  C   UNL A   1      44.064  28.935  35.200  1.00  0.00     0.064 A 
ATOM     97  C   UNL A   1      43.983  27.865  36.104  1.00  0.00     0.173 A 
ATOM     98  C   UNL A   1      45.329  29.475  34.927  1.00  0.00     0.173 A 
ATOM     99  F   UNL A   1      42.792  27.328  36.409  1.00  0.00    -0.203 F 
ATOM    100  C   UNL A   1      45.124  27.374  36.732  1.00  0.00     0.198 A 
ATOM    101  C   UNL A   1      46.470  28.964  35.538  1.00  0.00     0.198 A 
ATOM    102  F   UNL A   1      45.458  30.494  34.065  1.00  0.00    -0.203 F 
ATOM    103  F   UNL A   1      45.019  26.383  37.629  1.00  0.00    -0.200 F 
ATOM    104  C   UNL A   1      46.366  27.920  36.445  1.00  0.00     0.200 A 
ATOM    105  F   UNL A   1      47.671  29.486  35.254  1.00  0.00    -0.200 F 
ATOM    106  F   UNL A   1      47.463  27.445  37.050  1.00  0.00    -0.200 F 
ENDBRANCH  73  96
ENDBRANCH  47  48
ENDBRANCH  39  42
ENDBRANCH  37  38
ENDBRANCH  36  37
ENDBRANCH  35  36
ENDBRANCH   1  35
TORSDOF 21
ENDMDL
