MODEL 1
REMARK VINA RESULT:     -12.0      0.000      0.000
REMARK SMILES O=C(Cc1ccn(C(F)F)c(=O)c1)NCCCCCCNC(=O)c1ccc(-c2c3nc(c(-c4c(F)c(F)c(F)c(F)c4F)c4ccc([nH]4)c(-c4c(F)c(F)c(F)c(F)c4F)c4nc(c(-c5c(F)c(F)c(F)c(F)c5F)c5ccc2[nH]5)C=C4)C=C3)cc1
REMARK SMILES IDX 17 1 16 2 15 3 14 4 1 5 2 6 3 8 4 9 5 10 13 11 6 12 11 13
REMARK SMILES IDX 7 14 12 15 8 16 9 17 10 18 18 19 19 20 20 21 21 22 22 23
REMARK SMILES IDX 23 25 24 26 25 27 86 28 26 29 85 30 27 31 28 32 29 33 79 34
REMARK SMILES IDX 30 35 84 36 78 37 80 38 31 39 83 40 77 41 76 42 32 44 64 45
REMARK SMILES IDX 44 46 63 47 45 48 48 49 62 50 81 51 46 52 47 53 61 55 82 56
REMARK SMILES IDX 49 57 33 58 34 59 42 60 35 61 36 62 40 63 43 64 37 65 38 66
REMARK SMILES IDX 41 67 39 68 65 69 66 70 74 71 67 72 68 73 72 74 75 75 69 76
REMARK SMILES IDX 70 77 73 78 71 79 50 80 51 81 59 82 52 83 53 84 57 85 60 86
REMARK SMILES IDX 54 87 55 88 58 89 56 90
REMARK H PARENT 14 7 21 24 80 43 48 54
REMARK Flexibility Score: inf
ROOT
ATOM      1  C   UNL A   1      32.678  29.489  25.661  1.00  0.00     0.002 C 
ENDROOT
BRANCH   1   2
ATOM      2  C   UNL A   1      33.795  28.522  26.076  1.00  0.00     0.021 C 
BRANCH   2   3
ATOM      3  C   UNL A   1      33.373  27.064  26.235  1.00  0.00     0.116 C 
BRANCH   3   4
ATOM      4  N   UNL A   1      32.464  26.645  25.190  1.00  0.00    -0.356 N 
ATOM      5  O   UNL A   1      30.647  26.268  26.551  1.00  0.00    -0.275 OA
ATOM      6  C   UNL A   1      31.144  26.321  25.431  1.00  0.00     0.224 C 
ATOM      7  H   UNL A   1      32.800  26.588  24.266  1.00  0.00     0.163 HD
BRANCH   6   8
ATOM      8  C   UNL A   1      30.343  26.020  24.166  1.00  0.00     0.135 C 
BRANCH   8   9
ATOM      9  C   UNL A   1      29.687  27.228  23.531  1.00  0.00    -0.032 A 
ATOM     10  C   UNL A   1      30.571  28.148  22.838  1.00  0.00     0.022 A 
ATOM     11  C   UNL A   1      28.373  27.509  23.580  1.00  0.00     0.076 A 
ATOM     12  C   UNL A   1      30.091  29.275  22.296  1.00  0.00     0.095 A 
ATOM     13  C   UNL A   1      27.827  28.771  23.006  1.00  0.00     0.255 A 
ATOM     14  N   UNL A   1      28.748  29.592  22.378  1.00  0.00    -0.258 N 
ATOM     15  O   UNL A   1      26.631  29.006  23.144  1.00  0.00    -0.269 OA
BRANCH  14  16
ATOM     16  C   UNL A   1      28.254  30.833  21.840  1.00  0.00     0.451 C 
ATOM     17  F   UNL A   1      29.246  31.749  21.721  1.00  0.00    -0.185 F 
ATOM     18  F   UNL A   1      27.710  30.641  20.614  1.00  0.00    -0.185 F 
ENDBRANCH  14  16
ENDBRANCH   8   9
ENDBRANCH   6   8
ENDBRANCH   3   4
ENDBRANCH   2   3
ENDBRANCH   1   2
BRANCH   1  19
ATOM     19  C   UNL A   1      31.945  30.201  26.802  1.00  0.00     0.002 C 
BRANCH  19  20
ATOM     20  C   UNL A   1      31.814  31.718  26.664  1.00  0.00     0.021 C 
BRANCH  20  21
ATOM     21  C   UNL A   1      32.847  32.538  27.428  1.00  0.00     0.116 C 
BRANCH  21  22
ATOM     22  N   UNL A   1      32.431  33.910  27.684  1.00  0.00    -0.352 N 
ATOM     23  C   UNL A   1      32.986  34.829  28.547  1.00  0.00     0.251 C 
ATOM     24  H   UNL A   1      31.649  34.222  27.174  1.00  0.00     0.163 HD
ATOM     25  O   UNL A   1      32.465  35.925  28.717  1.00  0.00    -0.269 OA
BRANCH  23  26
ATOM     26  C   UNL A   1      34.198  34.459  29.312  1.00  0.00     0.039 A 
ATOM     27  C   UNL A   1      35.467  34.623  28.754  1.00  0.00     0.014 A 
ATOM     28  C   UNL A   1      34.053  33.874  30.573  1.00  0.00     0.014 A 
ATOM     29  C   UNL A   1      36.568  34.039  29.372  1.00  0.00     0.010 A 
ATOM     30  C   UNL A   1      35.172  33.354  31.228  1.00  0.00     0.010 A 
ATOM     31  C   UNL A   1      36.429  33.376  30.603  1.00  0.00    -0.014 A 
BRANCH  31  32
ATOM     32  C   UNL A   1      37.598  32.667  31.186  1.00  0.00     0.031 A 
ATOM     33  C   UNL A   1      38.066  32.987  32.582  1.00  0.00     0.074 A 
ATOM     34  C   UNL A   1      38.192  31.680  30.490  1.00  0.00     0.049 A 
ATOM     35  N   UNL A   1      39.046  32.452  33.268  1.00  0.00    -0.248 NA
ATOM     36  C   UNL A   1      37.339  34.043  33.305  1.00  0.00     0.031 C 
ATOM     37  C   UNL A   1      37.817  31.261  29.140  1.00  0.00     0.029 A 
ATOM     38  N   UNL A   1      39.213  30.830  30.833  1.00  0.00    -0.354 N 
ATOM     39  C   UNL A   1      39.064  33.117  34.488  1.00  0.00     0.074 A 
ATOM     40  C   UNL A   1      38.015  34.111  34.444  1.00  0.00     0.031 C 
ATOM     41  C   UNL A   1      38.559  30.200  28.789  1.00  0.00     0.029 A 
ATOM     42  C   UNL A   1      39.498  29.899  29.867  1.00  0.00     0.049 A 
ATOM     43  H   UNL A   1      39.696  30.885  31.689  1.00  0.00     0.167 HD
ATOM     44  C   UNL A   1      39.873  32.905  35.554  1.00  0.00     0.037 A 
ATOM     45  C   UNL A   1      40.416  28.913  29.846  1.00  0.00     0.037 A 
ATOM     46  C   UNL A   1      40.897  31.895  35.614  1.00  0.00     0.049 A 
ATOM     47  C   UNL A   1      41.325  28.727  31.027  1.00  0.00     0.074 A 
ATOM     48  C   UNL A   1      41.751  31.594  36.661  1.00  0.00     0.029 A 
ATOM     49  N   UNL A   1      41.199  31.015  34.587  1.00  0.00    -0.354 N 
ATOM     50  N   UNL A   1      41.338  29.369  32.169  1.00  0.00    -0.248 NA
ATOM     51  C   UNL A   1      42.359  27.689  30.909  1.00  0.00     0.031 C 
ATOM     52  C   UNL A   1      42.593  30.554  36.255  1.00  0.00     0.029 A 
ATOM     53  C   UNL A   1      42.239  30.183  34.968  1.00  0.00     0.049 A 
ATOM     54  H   UNL A   1      40.742  30.986  33.715  1.00  0.00     0.167 HD
ATOM     55  C   UNL A   1      42.374  28.814  32.906  1.00  0.00     0.074 A 
ATOM     56  C   UNL A   1      42.953  27.766  32.092  1.00  0.00     0.031 C 
ATOM     57  C   UNL A   1      42.810  29.150  34.143  1.00  0.00     0.037 A 
BRANCH  44  58
ATOM     58  C   UNL A   1      39.691  33.785  36.755  1.00  0.00     0.064 A 
ATOM     59  C   UNL A   1      40.272  35.060  36.824  1.00  0.00     0.173 A 
ATOM     60  C   UNL A   1      38.870  33.378  37.817  1.00  0.00     0.173 A 
ATOM     61  F   UNL A   1      41.074  35.490  35.838  1.00  0.00    -0.203 F 
ATOM     62  C   UNL A   1      40.046  35.890  37.918  1.00  0.00     0.198 A 
ATOM     63  C   UNL A   1      38.629  34.219  38.900  1.00  0.00     0.198 A 
ATOM     64  F   UNL A   1      38.287  32.170  37.795  1.00  0.00    -0.203 F 
ATOM     65  F   UNL A   1      40.633  37.094  37.976  1.00  0.00    -0.200 F 
ATOM     66  C   UNL A   1      39.220  35.473  38.951  1.00  0.00     0.200 A 
ATOM     67  F   UNL A   1      37.821  33.819  39.892  1.00  0.00    -0.200 F 
ATOM     68  F   UNL A   1      38.993  36.280  39.997  1.00  0.00    -0.200 F 
ENDBRANCH  44  58
BRANCH  45  69
ATOM     69  C   UNL A   1      40.509  28.025  28.661  1.00  0.00     0.064 A 
ATOM     70  C   UNL A   1      39.823  26.803  28.624  1.00  0.00     0.173 A 
ATOM     71  C   UNL A   1      41.260  28.389  27.534  1.00  0.00     0.173 A 
ATOM     72  F   UNL A   1      39.110  26.404  29.688  1.00  0.00    -0.203 F 
ATOM     73  C   UNL A   1      39.887  25.979  27.504  1.00  0.00     0.198 A 
ATOM     74  C   UNL A   1      41.303  27.576  26.406  1.00  0.00     0.198 A 
ATOM     75  F   UNL A   1      41.933  29.549  27.524  1.00  0.00    -0.203 F 
ATOM     76  F   UNL A   1      39.243  24.804  27.502  1.00  0.00    -0.200 F 
ATOM     77  C   UNL A   1      40.620  26.369  26.393  1.00  0.00     0.200 A 
ATOM     78  F   UNL A   1      42.002  27.962  25.330  1.00  0.00    -0.200 F 
ATOM     79  F   UNL A   1      40.669  25.581  25.310  1.00  0.00    -0.200 F 
ENDBRANCH  45  69
BRANCH  57  80
ATOM     80  C   UNL A   1      43.971  28.382  34.696  1.00  0.00     0.064 A 
ATOM     81  C   UNL A   1      45.286  28.847  34.548  1.00  0.00     0.173 A 
ATOM     82  C   UNL A   1      43.766  27.203  35.428  1.00  0.00     0.173 A 
ATOM     83  F   UNL A   1      45.531  29.962  33.844  1.00  0.00    -0.203 F 
ATOM     84  C   UNL A   1      46.356  28.151  35.102  1.00  0.00     0.198 A 
ATOM     85  C   UNL A   1      44.837  26.523  36.000  1.00  0.00     0.198 A 
ATOM     86  F   UNL A   1      42.527  26.723  35.601  1.00  0.00    -0.203 F 
ATOM     87  F   UNL A   1      47.608  28.596  34.923  1.00  0.00    -0.200 F 
ATOM     88  C   UNL A   1      46.131  26.995  35.834  1.00  0.00     0.200 A 
ATOM     89  F   UNL A   1      44.617  25.411  36.715  1.00  0.00    -0.200 F 
ATOM     90  F   UNL A   1      47.161  26.332  36.376  1.00  0.00    -0.200 F 
ENDBRANCH  57  80
ENDBRANCH  31  32
ENDBRANCH  23  26
ENDBRANCH  21  22
ENDBRANCH  20  21
ENDBRANCH  19  20
ENDBRANCH   1  19
TORSDOF 15
ENDMDL
MODEL 2
REMARK VINA RESULT:     -11.7      0.401      2.021
REMARK SMILES O=C(Cc1ccn(C(F)F)c(=O)c1)NCCCCCCNC(=O)c1ccc(-c2c3nc(c(-c4c(F)c(F)c(F)c(F)c4F)c4ccc([nH]4)c(-c4c(F)c(F)c(F)c(F)c4F)c4nc(c(-c5c(F)c(F)c(F)c(F)c5F)c5ccc2[nH]5)C=C4)C=C3)cc1
REMARK SMILES IDX 17 1 16 2 15 3 14 4 1 5 2 6 3 8 4 9 5 10 13 11 6 12 11 13
REMARK SMILES IDX 7 14 12 15 8 16 9 17 10 18 18 19 19 20 20 21 21 22 22 23
REMARK SMILES IDX 23 25 24 26 25 27 86 28 26 29 85 30 27 31 28 32 29 33 79 34
REMARK SMILES IDX 30 35 84 36 78 37 80 38 31 39 83 40 77 41 76 42 32 44 64 45
REMARK SMILES IDX 44 46 63 47 45 48 48 49 62 50 81 51 46 52 47 53 61 55 82 56
REMARK SMILES IDX 49 57 33 58 34 59 42 60 35 61 36 62 40 63 43 64 37 65 38 66
REMARK SMILES IDX 41 67 39 68 65 69 66 70 74 71 67 72 68 73 72 74 75 75 69 76
REMARK SMILES IDX 70 77 73 78 71 79 50 80 51 81 59 82 52 83 53 84 57 85 60 86
REMARK SMILES IDX 54 87 55 88 58 89 56 90
REMARK H PARENT 14 7 21 24 80 43 48 54
REMARK Flexibility Score: inf
ROOT
ATOM      1  C   UNL A   1      33.125  29.324  25.673  1.00  0.00     0.002 C 
ENDROOT
BRANCH   1   2
ATOM      2  C   UNL A   1      33.990  28.149  26.149  1.00  0.00     0.021 C 
BRANCH   2   3
ATOM      3  C   UNL A   1      33.240  26.842  26.396  1.00  0.00     0.116 C 
BRANCH   3   4
ATOM      4  N   UNL A   1      32.382  26.490  25.286  1.00  0.00    -0.356 N 
ATOM      5  O   UNL A   1      30.476  26.127  26.525  1.00  0.00    -0.275 OA
ATOM      6  C   UNL A   1      31.041  26.202  25.438  1.00  0.00     0.224 C 
ATOM      7  H   UNL A   1      32.770  26.453  24.382  1.00  0.00     0.163 HD
BRANCH   6   8
ATOM      8  C   UNL A   1      30.307  25.971  24.119  1.00  0.00     0.135 C 
BRANCH   8   9
ATOM      9  C   UNL A   1      29.665  27.208  23.528  1.00  0.00    -0.032 A 
ATOM     10  C   UNL A   1      30.564  28.163  22.905  1.00  0.00     0.022 A 
ATOM     11  C   UNL A   1      28.349  27.485  23.557  1.00  0.00     0.076 A 
ATOM     12  C   UNL A   1      30.095  29.315  22.408  1.00  0.00     0.095 A 
ATOM     13  C   UNL A   1      27.815  28.774  23.032  1.00  0.00     0.255 A 
ATOM     14  N   UNL A   1      28.750  29.627  22.470  1.00  0.00    -0.258 N 
ATOM     15  O   UNL A   1      26.615  29.000  23.151  1.00  0.00    -0.269 OA
BRANCH  14  16
ATOM     16  C   UNL A   1      28.267  30.892  21.983  1.00  0.00     0.451 C 
ATOM     17  F   UNL A   1      29.272  31.795  21.872  1.00  0.00    -0.185 F 
ATOM     18  F   UNL A   1      27.695  30.749  20.762  1.00  0.00    -0.185 F 
ENDBRANCH  14  16
ENDBRANCH   8   9
ENDBRANCH   6   8
ENDBRANCH   3   4
ENDBRANCH   2   3
ENDBRANCH   1   2
BRANCH   1  19
ATOM     19  C   UNL A   1      32.067  29.825  26.661  1.00  0.00     0.002 C 
BRANCH  19  20
ATOM     20  C   UNL A   1      31.798  31.329  26.641  1.00  0.00     0.021 C 
BRANCH  20  21
ATOM     21  C   UNL A   1      32.881  32.199  27.267  1.00  0.00     0.116 C 
BRANCH  21  22
ATOM     22  N   UNL A   1      32.457  33.569  27.520  1.00  0.00    -0.352 N 
ATOM     23  C   UNL A   1      32.994  34.486  28.397  1.00  0.00     0.251 C 
ATOM     24  H   UNL A   1      31.685  33.881  26.996  1.00  0.00     0.163 HD
ATOM     25  O   UNL A   1      32.467  35.581  28.561  1.00  0.00    -0.269 OA
BRANCH  23  26
ATOM     26  C   UNL A   1      34.190  34.116  29.185  1.00  0.00     0.039 A 
ATOM     27  C   UNL A   1      35.468  34.454  28.735  1.00  0.00     0.014 A 
ATOM     28  C   UNL A   1      34.030  33.358  30.349  1.00  0.00     0.014 A 
ATOM     29  C   UNL A   1      36.582  33.883  29.343  1.00  0.00     0.010 A 
ATOM     30  C   UNL A   1      35.154  32.847  31.002  1.00  0.00     0.010 A 
ATOM     31  C   UNL A   1      36.436  33.052  30.467  1.00  0.00    -0.014 A 
BRANCH  31  32
ATOM     32  C   UNL A   1      37.630  32.367  31.029  1.00  0.00     0.031 A 
ATOM     33  C   UNL A   1      38.098  32.674  32.428  1.00  0.00     0.074 A 
ATOM     34  C   UNL A   1      38.249  31.413  30.309  1.00  0.00     0.049 A 
ATOM     35  N   UNL A   1      39.099  32.156  33.096  1.00  0.00    -0.248 NA
ATOM     36  C   UNL A   1      37.345  33.693  33.176  1.00  0.00     0.031 C 
ATOM     37  C   UNL A   1      37.878  31.009  28.953  1.00  0.00     0.029 A 
ATOM     38  N   UNL A   1      39.298  30.588  30.629  1.00  0.00    -0.354 N 
ATOM     39  C   UNL A   1      39.106  32.796  34.329  1.00  0.00     0.074 A 
ATOM     40  C   UNL A   1      38.027  33.759  34.312  1.00  0.00     0.031 C 
ATOM     41  C   UNL A   1      38.648  29.979  28.576  1.00  0.00     0.029 A 
ATOM     42  C   UNL A   1      39.604  29.685  29.642  1.00  0.00     0.049 A 
ATOM     43  H   UNL A   1      39.785  30.640  31.482  1.00  0.00     0.167 HD
ATOM     44  C   UNL A   1      39.928  32.588  35.386  1.00  0.00     0.037 A 
ATOM     45  C   UNL A   1      40.551  28.728  29.596  1.00  0.00     0.037 A 
ATOM     46  C   UNL A   1      40.982  31.609  35.419  1.00  0.00     0.049 A 
ATOM     47  C   UNL A   1      41.474  28.547  30.766  1.00  0.00     0.074 A 
ATOM     48  C   UNL A   1      41.853  31.314  36.454  1.00  0.00     0.029 A 
ATOM     49  N   UNL A   1      41.303  30.759  34.372  1.00  0.00    -0.354 N 
ATOM     50  N   UNL A   1      41.475  29.166  31.921  1.00  0.00    -0.248 NA
ATOM     51  C   UNL A   1      42.538  27.543  30.621  1.00  0.00     0.031 C 
ATOM     52  C   UNL A   1      42.723  30.308  36.021  1.00  0.00     0.029 A 
ATOM     53  C   UNL A   1      42.371  29.952  34.730  1.00  0.00     0.049 A 
ATOM     54  H   UNL A   1      40.842  30.734  33.503  1.00  0.00     0.167 HD
ATOM     55  C   UNL A   1      42.533  28.629  32.640  1.00  0.00     0.074 A 
ATOM     56  C   UNL A   1      43.137  27.614  31.802  1.00  0.00     0.031 C 
ATOM     57  C   UNL A   1      42.967  28.953  33.881  1.00  0.00     0.037 A 
BRANCH  44  58
ATOM     58  C   UNL A   1      39.728  33.439  36.605  1.00  0.00     0.064 A 
ATOM     59  C   UNL A   1      38.838  33.064  37.622  1.00  0.00     0.173 A 
ATOM     60  C   UNL A   1      40.486  34.605  36.790  1.00  0.00     0.173 A 
ATOM     61  F   UNL A   1      38.084  31.962  37.486  1.00  0.00    -0.203 F 
ATOM     62  C   UNL A   1      38.706  33.832  38.775  1.00  0.00     0.198 A 
ATOM     63  C   UNL A   1      40.366  35.359  37.955  1.00  0.00     0.198 A 
ATOM     64  F   UNL A   1      41.354  35.003  35.849  1.00  0.00    -0.203 F 
ATOM     65  F   UNL A   1      37.830  33.470  39.723  1.00  0.00    -0.200 F 
ATOM     66  C   UNL A   1      39.474  34.975  38.944  1.00  0.00     0.200 A 
ATOM     67  F   UNL A   1      41.118  36.456  38.121  1.00  0.00    -0.200 F 
ATOM     68  F   UNL A   1      39.355  35.705  40.062  1.00  0.00    -0.200 F 
ENDBRANCH  44  58
BRANCH  45  69
ATOM     69  C   UNL A   1      40.662  27.867  28.392  1.00  0.00     0.064 A 
ATOM     70  C   UNL A   1      41.432  28.266  27.292  1.00  0.00     0.173 A 
ATOM     71  C   UNL A   1      40.024  26.619  28.328  1.00  0.00     0.173 A 
ATOM     72  F   UNL A   1      42.041  29.461  27.301  1.00  0.00    -0.203 F 
ATOM     73  C   UNL A   1      41.559  27.450  26.172  1.00  0.00     0.198 A 
ATOM     74  C   UNL A   1      40.172  25.793  27.218  1.00  0.00     0.198 A 
ATOM     75  F   UNL A   1      39.277  26.195  29.357  1.00  0.00    -0.203 F 
ATOM     76  F   UNL A   1      42.280  27.864  25.121  1.00  0.00    -0.200 F 
ATOM     77  C   UNL A   1      40.936  26.211  26.139  1.00  0.00     0.200 A 
ATOM     78  F   UNL A   1      39.580  24.592  27.195  1.00  0.00    -0.200 F 
ATOM     79  F   UNL A   1      41.071  25.419  25.065  1.00  0.00    -0.200 F 
ENDBRANCH  45  69
BRANCH  57  80
ATOM     80  C   UNL A   1      44.155  28.210  34.411  1.00  0.00     0.064 A 
ATOM     81  C   UNL A   1      44.006  26.986  35.080  1.00  0.00     0.173 A 
ATOM     82  C   UNL A   1      45.455  28.693  34.200  1.00  0.00     0.173 A 
ATOM     83  F   UNL A   1      42.782  26.492  35.317  1.00  0.00    -0.203 F 
ATOM     84  C   UNL A   1      45.116  26.279  35.530  1.00  0.00     0.198 A 
ATOM     85  C   UNL A   1      46.564  27.971  34.632  1.00  0.00     0.198 A 
ATOM     86  F   UNL A   1      45.647  29.855  33.560  1.00  0.00    -0.203 F 
ATOM     87  F   UNL A   1      44.951  25.127  36.195  1.00  0.00    -0.200 F 
ATOM     88  C   UNL A   1      46.394  26.768  35.300  1.00  0.00     0.200 A 
ATOM     89  F   UNL A   1      47.798  28.440  34.400  1.00  0.00    -0.200 F 
ATOM     90  F   UNL A   1      47.462  26.080  35.725  1.00  0.00    -0.200 F 
ENDBRANCH  57  80
ENDBRANCH  31  32
ENDBRANCH  23  26
ENDBRANCH  21  22
ENDBRANCH  20  21
ENDBRANCH  19  20
ENDBRANCH   1  19
TORSDOF 15
ENDMDL
MODEL 3
REMARK VINA RESULT:     -11.5      1.034      7.437
REMARK SMILES O=C(Cc1ccn(C(F)F)c(=O)c1)NCCCCCCNC(=O)c1ccc(-c2c3nc(c(-c4c(F)c(F)c(F)c(F)c4F)c4ccc([nH]4)c(-c4c(F)c(F)c(F)c(F)c4F)c4nc(c(-c5c(F)c(F)c(F)c(F)c5F)c5ccc2[nH]5)C=C4)C=C3)cc1
REMARK SMILES IDX 17 1 16 2 15 3 14 4 1 5 2 6 3 8 4 9 5 10 13 11 6 12 11 13
REMARK SMILES IDX 7 14 12 15 8 16 9 17 10 18 18 19 19 20 20 21 21 22 22 23
REMARK SMILES IDX 23 25 24 26 25 27 86 28 26 29 85 30 27 31 28 32 29 33 79 34
REMARK SMILES IDX 30 35 84 36 78 37 80 38 31 39 83 40 77 41 76 42 32 44 64 45
REMARK SMILES IDX 44 46 63 47 45 48 48 49 62 50 81 51 46 52 47 53 61 55 82 56
REMARK SMILES IDX 49 57 33 58 34 59 42 60 35 61 36 62 40 63 43 64 37 65 38 66
REMARK SMILES IDX 41 67 39 68 65 69 66 70 74 71 67 72 68 73 72 74 75 75 69 76
REMARK SMILES IDX 70 77 73 78 71 79 50 80 51 81 59 82 52 83 53 84 57 85 60 86
REMARK SMILES IDX 54 87 55 88 58 89 56 90
REMARK H PARENT 14 7 21 24 80 43 48 54
REMARK Flexibility Score: inf
ROOT
ATOM      1  C   UNL A   1      33.029  29.794  27.081  1.00  0.00     0.002 C 
ENDROOT
BRANCH   1   2
ATOM      2  C   UNL A   1      32.957  28.263  27.161  1.00  0.00     0.021 C 
BRANCH   2   3
ATOM      3  C   UNL A   1      33.837  27.514  26.163  1.00  0.00     0.116 C 
BRANCH   3   4
ATOM      4  N   UNL A   1      33.324  27.603  24.813  1.00  0.00    -0.356 N 
ATOM      5  O   UNL A   1      33.509  25.365  24.307  1.00  0.00    -0.275 OA
ATOM      6  C   UNL A   1      33.157  26.500  24.001  1.00  0.00     0.224 C 
ATOM      7  H   UNL A   1      33.084  28.489  24.457  1.00  0.00     0.163 HD
BRANCH   6   8
ATOM      8  C   UNL A   1      32.494  26.816  22.662  1.00  0.00     0.135 C 
BRANCH   8   9
ATOM      9  C   UNL A   1      31.196  27.587  22.766  1.00  0.00    -0.032 A 
ATOM     10  C   UNL A   1      30.084  26.892  23.388  1.00  0.00     0.022 A 
ATOM     11  C   UNL A   1      31.002  28.839  22.314  1.00  0.00     0.076 A 
ATOM     12  C   UNL A   1      28.879  27.471  23.470  1.00  0.00     0.095 A 
ATOM     13  C   UNL A   1      29.662  29.488  22.375  1.00  0.00     0.255 A 
ATOM     14  N   UNL A   1      28.660  28.742  22.972  1.00  0.00    -0.258 N 
ATOM     15  O   UNL A   1      29.531  30.604  21.883  1.00  0.00    -0.269 OA
BRANCH  14  16
ATOM     16  C   UNL A   1      27.348  29.331  23.017  1.00  0.00     0.451 C 
ATOM     17  F   UNL A   1      26.425  28.448  23.470  1.00  0.00    -0.185 F 
ATOM     18  F   UNL A   1      27.335  30.410  23.837  1.00  0.00    -0.185 F 
ENDBRANCH  14  16
ENDBRANCH   8   9
ENDBRANCH   6   8
ENDBRANCH   3   4
ENDBRANCH   2   3
ENDBRANCH   1   2
BRANCH   1  19
ATOM     19  C   UNL A   1      31.700  30.519  26.848  1.00  0.00     0.002 C 
BRANCH  19  20
ATOM     20  C   UNL A   1      31.799  32.022  26.586  1.00  0.00     0.021 C 
BRANCH  20  21
ATOM     21  C   UNL A   1      32.780  32.780  27.472  1.00  0.00     0.116 C 
BRANCH  21  22
ATOM     22  N   UNL A   1      32.412  34.171  27.694  1.00  0.00    -0.352 N 
ATOM     23  C   UNL A   1      32.962  35.074  28.577  1.00  0.00     0.251 C 
ATOM     24  H   UNL A   1      31.672  34.511  27.140  1.00  0.00     0.163 HD
ATOM     25  O   UNL A   1      32.481  36.194  28.710  1.00  0.00    -0.269 OA
BRANCH  23  26
ATOM     26  C   UNL A   1      34.113  34.660  29.408  1.00  0.00     0.039 A 
ATOM     27  C   UNL A   1      35.397  34.599  28.862  1.00  0.00     0.014 A 
ATOM     28  C   UNL A   1      33.890  34.260  30.728  1.00  0.00     0.014 A 
ATOM     29  C   UNL A   1      36.415  33.969  29.571  1.00  0.00     0.010 A 
ATOM     30  C   UNL A   1      34.933  33.695  31.466  1.00  0.00     0.010 A 
ATOM     31  C   UNL A   1      36.187  33.487  30.871  1.00  0.00    -0.014 A 
BRANCH  31  32
ATOM     32  C   UNL A   1      37.257  32.721  31.563  1.00  0.00     0.031 A 
ATOM     33  C   UNL A   1      37.970  31.597  30.856  1.00  0.00     0.074 A 
ATOM     34  C   UNL A   1      37.642  33.086  32.799  1.00  0.00     0.049 A 
ATOM     35  N   UNL A   1      38.948  30.839  31.287  1.00  0.00    -0.248 NA
ATOM     36  C   UNL A   1      37.531  31.284  29.486  1.00  0.00     0.031 C 
ATOM     37  C   UNL A   1      37.047  34.170  33.579  1.00  0.00     0.029 A 
ATOM     38  N   UNL A   1      38.646  32.607  33.604  1.00  0.00    -0.354 N 
ATOM     39  C   UNL A   1      39.226  29.952  30.254  1.00  0.00     0.074 A 
ATOM     40  C   UNL A   1      38.300  30.247  29.182  1.00  0.00     0.031 C 
ATOM     41  C   UNL A   1      37.728  34.312  34.726  1.00  0.00     0.029 A 
ATOM     42  C   UNL A   1      38.774  33.293  34.786  1.00  0.00     0.049 A 
ATOM     43  H   UNL A   1      39.217  31.845  33.358  1.00  0.00     0.167 HD
ATOM     44  C   UNL A   1      40.178  28.990  30.199  1.00  0.00     0.037 A 
ATOM     45  C   UNL A   1      39.634  33.119  35.807  1.00  0.00     0.037 A 
ATOM     46  C   UNL A   1      41.122  28.715  31.249  1.00  0.00     0.049 A 
ATOM     47  C   UNL A   1      40.654  32.019  35.736  1.00  0.00     0.074 A 
ATOM     48  C   UNL A   1      42.136  27.773  31.273  1.00  0.00     0.029 A 
ATOM     49  N   UNL A   1      41.175  29.388  32.460  1.00  0.00    -0.354 N 
ATOM     50  N   UNL A   1      40.898  31.182  34.758  1.00  0.00    -0.248 NA
ATOM     51  C   UNL A   1      41.507  31.829  36.917  1.00  0.00     0.031 C 
ATOM     52  C   UNL A   1      42.781  27.853  32.512  1.00  0.00     0.029 A 
ATOM     53  C   UNL A   1      42.192  28.870  33.245  1.00  0.00     0.049 A 
ATOM     54  H   UNL A   1      40.577  30.125  32.723  1.00  0.00     0.167 HD
ATOM     55  C   UNL A   1      41.932  30.370  35.201  1.00  0.00     0.074 A 
ATOM     56  C   UNL A   1      42.286  30.829  36.528  1.00  0.00     0.031 C 
ATOM     57  C   UNL A   1      42.526  29.332  34.567  1.00  0.00     0.037 A 
BRANCH  44  58
ATOM     58  C   UNL A   1      40.252  28.151  28.957  1.00  0.00     0.064 A 
ATOM     59  C   UNL A   1      41.024  28.543  27.853  1.00  0.00     0.173 A 
ATOM     60  C   UNL A   1      39.602  26.909  28.898  1.00  0.00     0.173 A 
ATOM     61  F   UNL A   1      41.656  29.726  27.858  1.00  0.00    -0.203 F 
ATOM     62  C   UNL A   1      41.131  27.726  26.731  1.00  0.00     0.198 A 
ATOM     63  C   UNL A   1      39.729  26.086  27.783  1.00  0.00     0.198 A 
ATOM     64  F   UNL A   1      38.857  26.488  29.931  1.00  0.00    -0.203 F 
ATOM     65  F   UNL A   1      41.852  28.132  25.676  1.00  0.00    -0.200 F 
ATOM     66  C   UNL A   1      40.491  26.496  26.699  1.00  0.00     0.200 A 
ATOM     67  F   UNL A   1      39.119  24.893  27.759  1.00  0.00    -0.200 F 
ATOM     68  F   UNL A   1      40.607  25.706  25.623  1.00  0.00    -0.200 F 
ENDBRANCH  44  58
BRANCH  45  69
ATOM     69  C   UNL A   1      39.563  34.022  36.984  1.00  0.00     0.064 A 
ATOM     70  C   UNL A   1      38.809  33.673  38.112  1.00  0.00     0.173 A 
ATOM     71  C   UNL A   1      40.266  35.235  37.014  1.00  0.00     0.173 A 
ATOM     72  F   UNL A   1      38.102  32.533  38.118  1.00  0.00    -0.203 F 
ATOM     73  C   UNL A   1      38.760  34.505  39.227  1.00  0.00     0.198 A 
ATOM     74  C   UNL A   1      40.237  36.054  38.139  1.00  0.00     0.198 A 
ATOM     75  F   UNL A   1      41.001  35.611  35.958  1.00  0.00    -0.203 F 
ATOM     76  F   UNL A   1      38.012  34.163  40.284  1.00  0.00    -0.200 F 
ATOM     77  C   UNL A   1      39.480  35.691  39.243  1.00  0.00     0.200 A 
ATOM     78  F   UNL A   1      40.944  37.192  38.156  1.00  0.00    -0.200 F 
ATOM     79  F   UNL A   1      39.444  36.485  40.323  1.00  0.00    -0.200 F 
ENDBRANCH  45  69
BRANCH  57  80
ATOM     80  C   UNL A   1      43.621  28.616  35.297  1.00  0.00     0.064 A 
ATOM     81  C   UNL A   1      44.965  28.986  35.135  1.00  0.00     0.173 A 
ATOM     82  C   UNL A   1      43.324  27.592  36.209  1.00  0.00     0.173 A 
ATOM     83  F   UNL A   1      45.298  29.949  34.263  1.00  0.00    -0.203 F 
ATOM     84  C   UNL A   1      45.972  28.346  35.849  1.00  0.00     0.198 A 
ATOM     85  C   UNL A   1      44.333  26.970  36.938  1.00  0.00     0.198 A 
ATOM     86  F   UNL A   1      42.054  27.208  36.402  1.00  0.00    -0.203 F 
ATOM     87  F   UNL A   1      47.253  28.693  35.656  1.00  0.00    -0.200 F 
ATOM     88  C   UNL A   1      45.656  27.345  36.755  1.00  0.00     0.200 A 
ATOM     89  F   UNL A   1      44.025  26.010  37.821  1.00  0.00    -0.200 F 
ATOM     90  F   UNL A   1      46.627  26.737  37.450  1.00  0.00    -0.200 F 
ENDBRANCH  57  80
ENDBRANCH  31  32
ENDBRANCH  23  26
ENDBRANCH  21  22
ENDBRANCH  20  21
ENDBRANCH  19  20
ENDBRANCH   1  19
TORSDOF 15
ENDMDL
