MODEL 1
REMARK VINA RESULT:     -14.4      0.000      0.000
REMARK SMILES Cc1ccc(CCC(=O)N2CCC3(CC2)[C@H](C(=O)NCCCCCCNC(=O)c2ccc(-c4c5nc(c(-c6c(F)c(F)c(F)c(F)c6F)c6ccc([nH]6)c(-c6c(F)c(F)c(F)c(F)c6F)c6nc(c(-c7c(F)c(F)c(F)c(F)c7F)c7ccc4[nH]7)C=C6)C=C5)cc2)CC(=O)N3C)cc1
REMARK SMILES IDX 22 1 21 2 20 3 19 4 17 5 18 6 16 8 8 9 9 10 10 11 11 12
REMARK SMILES IDX 15 13 12 14 14 15 13 16 95 17 92 18 93 19 96 20 94 21 7 22
REMARK SMILES IDX 6 23 5 24 1 25 2 26 3 27 98 28 4 29 97 30 23 31 24 32 25 33
REMARK SMILES IDX 26 34 27 35 28 37 29 38 30 39 91 40 31 41 90 42 32 43 33 44
REMARK SMILES IDX 34 45 84 46 35 47 89 48 83 49 85 50 36 51 88 52 82 53 81 54
REMARK SMILES IDX 37 56 69 57 49 58 68 59 50 60 53 61 67 62 86 63 51 64 52 65
REMARK SMILES IDX 66 67 87 68 54 69 38 70 39 71 47 72 40 73 41 74 45 75 48 76
REMARK SMILES IDX 42 77 43 78 46 79 44 80 70 81 71 82 79 83 72 84 73 85 77 86
REMARK SMILES IDX 80 87 74 88 75 89 78 90 76 91 55 92 56 93 64 94 57 95 58 96
REMARK SMILES IDX 62 97 65 98 59 99 60 100 63 101 61 102
REMARK H PARENT 19 7 26 36 85 55 53 66
REMARK Flexibility Score: inf
ROOT
ATOM      1  C   UNL A   1      31.502  29.494  24.384  1.00  0.00     0.002 C 
ENDROOT
BRANCH   1   2
ATOM      2  C   UNL A   1      32.316  28.465  23.598  1.00  0.00     0.021 C 
BRANCH   2   3
ATOM      3  C   UNL A   1      31.498  27.662  22.578  1.00  0.00     0.116 C 
BRANCH   3   4
ATOM      4  N   UNL A   1      32.260  26.653  21.860  1.00  0.00    -0.356 N 
ATOM      5  C   UNL A   1      32.419  25.311  21.998  1.00  0.00     0.226 C 
ATOM      6  O   UNL A   1      33.093  24.755  21.122  1.00  0.00    -0.275 OA
ATOM      7  H   UNL A   1      32.774  27.024  21.109  1.00  0.00     0.163 HD
BRANCH   5   8
ATOM      8  C   UNL A   1      31.839  24.457  23.130  1.00  0.00     0.113 C 
ATOM      9  C   UNL A   1      35.779  22.414  26.001  1.00  0.00     0.222 C 
ATOM     10  O   UNL A   1      36.954  22.776  26.103  1.00  0.00    -0.275 OA
ATOM     11  N   UNL A   1      34.752  23.339  26.044  1.00  0.00    -0.343 N 
ATOM     12  C   UNL A   1      34.954  24.678  25.531  1.00  0.00     0.122 C 
ATOM     13  C   UNL A   1      33.393  23.088  26.446  1.00  0.00     0.122 C 
ATOM     14  C   UNL A   1      34.047  24.842  24.314  1.00  0.00     0.051 C 
ATOM     15  C   UNL A   1      32.448  23.156  25.247  1.00  0.00     0.051 C 
ATOM     16  C   UNL A   1      32.536  24.525  24.519  1.00  0.00     0.058 C 
ATOM     17  N   UNL A   1      31.645  25.474  25.216  1.00  0.00    -0.339 N 
ATOM     18  C   UNL A   1      30.366  24.758  23.360  1.00  0.00     0.116 C 
ATOM     19  C   UNL A   1      30.356  25.493  24.666  1.00  0.00     0.223 C 
ATOM     20  C   UNL A   1      31.843  26.038  26.535  1.00  0.00     0.147 C 
ATOM     21  O   UNL A   1      29.370  26.026  25.147  1.00  0.00    -0.275 OA
BRANCH   9  22
ATOM     22  C   UNL A   1      35.474  20.976  25.561  1.00  0.00     0.105 C 
BRANCH  22  23
ATOM     23  C   UNL A   1      34.505  20.692  24.399  1.00  0.00     0.045 C 
BRANCH  23  24
ATOM     24  C   UNL A   1      33.963  19.272  24.370  1.00  0.00    -0.047 A 
ATOM     25  C   UNL A   1      32.675  15.392  25.672  1.00  0.00     0.044 C 
ATOM     26  C   UNL A   1      33.092  16.683  25.030  1.00  0.00    -0.051 A 
ATOM     27  C   UNL A   1      34.420  16.905  24.653  1.00  0.00     0.004 A 
ATOM     28  C   UNL A   1      32.169  17.728  24.905  1.00  0.00     0.004 A 
ATOM     29  C   UNL A   1      34.845  18.184  24.287  1.00  0.00     0.004 A 
ATOM     30  C   UNL A   1      32.601  19.014  24.568  1.00  0.00     0.004 A 
ENDBRANCH  23  24
ENDBRANCH  22  23
ENDBRANCH   9  22
ENDBRANCH   5   8
ENDBRANCH   3   4
ENDBRANCH   2   3
ENDBRANCH   1   2
BRANCH   1  31
ATOM     31  C   UNL A   1      31.685  29.421  25.905  1.00  0.00     0.002 C 
BRANCH  31  32
ATOM     32  C   UNL A   1      32.497  30.564  26.522  1.00  0.00     0.021 C 
BRANCH  32  33
ATOM     33  C   UNL A   1      33.741  30.097  27.262  1.00  0.00     0.116 C 
BRANCH  33  34
ATOM     34  N   UNL A   1      34.381  31.148  28.034  1.00  0.00    -0.352 N 
ATOM     35  C   UNL A   1      35.482  31.111  28.859  1.00  0.00     0.251 C 
ATOM     36  H   UNL A   1      33.957  32.033  27.953  1.00  0.00     0.163 HD
ATOM     37  O   UNL A   1      35.731  32.091  29.561  1.00  0.00    -0.269 OA
BRANCH  35  38
ATOM     38  C   UNL A   1      36.455  29.991  28.795  1.00  0.00     0.039 A 
ATOM     39  C   UNL A   1      36.662  29.249  29.970  1.00  0.00     0.014 A 
ATOM     40  C   UNL A   1      37.296  29.797  27.706  1.00  0.00     0.014 A 
ATOM     41  C   UNL A   1      37.836  28.519  30.133  1.00  0.00     0.010 A 
ATOM     42  C   UNL A   1      38.508  29.175  27.902  1.00  0.00     0.010 A 
ATOM     43  C   UNL A   1      38.802  28.591  29.138  1.00  0.00    -0.014 A 
BRANCH  43  44
ATOM     44  C   UNL A   1      40.174  28.138  29.284  1.00  0.00     0.031 A 
ATOM     45  C   UNL A   1      40.564  26.814  28.761  1.00  0.00     0.074 A 
ATOM     46  C   UNL A   1      41.106  29.027  29.694  1.00  0.00     0.049 A 
ATOM     47  N   UNL A   1      41.684  26.233  29.012  1.00  0.00    -0.248 NA
ATOM     48  C   UNL A   1      39.684  26.012  27.919  1.00  0.00     0.031 C 
ATOM     49  C   UNL A   1      42.553  28.941  29.512  1.00  0.00     0.029 A 
ATOM     50  N   UNL A   1      40.927  30.138  30.536  1.00  0.00    -0.354 N 
ATOM     51  C   UNL A   1      41.801  25.148  28.174  1.00  0.00     0.074 A 
ATOM     52  C   UNL A   1      40.500  25.017  27.562  1.00  0.00     0.031 C 
ATOM     53  C   UNL A   1      43.152  29.729  30.418  1.00  0.00     0.029 A 
ATOM     54  C   UNL A   1      42.112  30.210  31.308  1.00  0.00     0.049 A 
ATOM     55  H   UNL A   1      40.147  30.737  30.580  1.00  0.00     0.167 HD
ATOM     56  C   UNL A   1      43.031  24.578  28.018  1.00  0.00     0.037 A 
ATOM     57  C   UNL A   1      42.097  30.001  32.657  1.00  0.00     0.037 A 
ATOM     58  C   UNL A   1      43.996  25.186  28.936  1.00  0.00     0.049 A 
ATOM     59  C   UNL A   1      42.975  28.860  33.108  1.00  0.00     0.074 A 
ATOM     60  C   UNL A   1      44.956  26.172  28.778  1.00  0.00     0.029 A 
ATOM     61  N   UNL A   1      43.827  25.015  30.306  1.00  0.00    -0.354 N 
ATOM     62  N   UNL A   1      43.335  27.871  32.336  1.00  0.00    -0.248 NA
ATOM     63  C   UNL A   1      43.518  28.742  34.457  1.00  0.00     0.031 C 
ATOM     64  C   UNL A   1      45.342  26.619  30.067  1.00  0.00     0.029 A 
ATOM     65  C   UNL A   1      44.631  25.891  31.006  1.00  0.00     0.049 A 
ATOM     66  H   UNL A   1      43.219  24.360  30.719  1.00  0.00     0.167 HD
ATOM     67  C   UNL A   1      44.139  27.009  33.039  1.00  0.00     0.074 A 
ATOM     68  C   UNL A   1      44.229  27.604  34.359  1.00  0.00     0.031 C 
ATOM     69  C   UNL A   1      44.657  25.883  32.461  1.00  0.00     0.037 A 
BRANCH  56  70
ATOM     70  C   UNL A   1      43.443  23.668  26.876  1.00  0.00     0.064 A 
ATOM     71  C   UNL A   1      43.064  22.305  26.873  1.00  0.00     0.173 A 
ATOM     72  C   UNL A   1      44.249  24.045  25.788  1.00  0.00     0.173 A 
ATOM     73  F   UNL A   1      42.217  21.809  27.783  1.00  0.00    -0.203 F 
ATOM     74  C   UNL A   1      43.542  21.387  25.932  1.00  0.00     0.198 A 
ATOM     75  C   UNL A   1      44.766  23.120  24.872  1.00  0.00     0.198 A 
ATOM     76  F   UNL A   1      44.519  25.326  25.525  1.00  0.00    -0.203 F 
ATOM     77  F   UNL A   1      43.152  20.106  25.993  1.00  0.00    -0.200 F 
ATOM     78  C   UNL A   1      44.421  21.789  24.950  1.00  0.00     0.200 A 
ATOM     79  F   UNL A   1      45.599  23.539  23.908  1.00  0.00    -0.200 F 
ATOM     80  F   UNL A   1      44.910  20.907  24.068  1.00  0.00    -0.200 F 
ENDBRANCH  56  70
BRANCH  57  81
ATOM     81  C   UNL A   1      40.812  30.406  33.286  1.00  0.00     0.064 A 
ATOM     82  C   UNL A   1      40.557  31.785  33.425  1.00  0.00     0.173 A 
ATOM     83  C   UNL A   1      39.716  29.537  33.324  1.00  0.00     0.173 A 
ATOM     84  F   UNL A   1      41.576  32.659  33.396  1.00  0.00    -0.203 F 
ATOM     85  C   UNL A   1      39.255  32.280  33.458  1.00  0.00     0.198 A 
ATOM     86  C   UNL A   1      38.411  30.038  33.374  1.00  0.00     0.198 A 
ATOM     87  F   UNL A   1      39.891  28.215  33.183  1.00  0.00    -0.203 F 
ATOM     88  F   UNL A   1      39.045  33.604  33.462  1.00  0.00    -0.200 F 
ATOM     89  C   UNL A   1      38.183  31.406  33.399  1.00  0.00     0.200 A 
ATOM     90  F   UNL A   1      37.371  29.195  33.295  1.00  0.00    -0.200 F 
ATOM     91  F   UNL A   1      36.933  31.883  33.323  1.00  0.00    -0.200 F 
ENDBRANCH  57  81
BRANCH  69  92
ATOM     92  C   UNL A   1      45.322  24.711  33.159  1.00  0.00     0.064 A 
ATOM     93  C   UNL A   1      46.632  24.723  33.661  1.00  0.00     0.173 A 
ATOM     94  C   UNL A   1      44.569  23.550  33.484  1.00  0.00     0.173 A 
ATOM     95  F   UNL A   1      47.421  25.797  33.541  1.00  0.00    -0.203 F 
ATOM     96  C   UNL A   1      47.167  23.643  34.375  1.00  0.00     0.198 A 
ATOM     97  C   UNL A   1      45.082  22.506  34.252  1.00  0.00     0.198 A 
ATOM     98  F   UNL A   1      43.293  23.402  33.098  1.00  0.00    -0.203 F 
ATOM     99  F   UNL A   1      48.438  23.693  34.794  1.00  0.00    -0.200 F 
ATOM    100  C   UNL A   1      46.388  22.544  34.683  1.00  0.00     0.200 A 
ATOM    101  F   UNL A   1      44.292  21.476  34.590  1.00  0.00    -0.200 F 
ATOM    102  F   UNL A   1      46.889  21.540  35.414  1.00  0.00    -0.200 F 
ENDBRANCH  69  92
ENDBRANCH  43  44
ENDBRANCH  35  38
ENDBRANCH  33  34
ENDBRANCH  32  33
ENDBRANCH  31  32
ENDBRANCH   1  31
TORSDOF 16
ENDMDL
MODEL 2
REMARK VINA RESULT:     -14.2      1.437      4.238
REMARK SMILES Cc1ccc(CCC(=O)N2CCC3(CC2)[C@H](C(=O)NCCCCCCNC(=O)c2ccc(-c4c5nc(c(-c6c(F)c(F)c(F)c(F)c6F)c6ccc([nH]6)c(-c6c(F)c(F)c(F)c(F)c6F)c6nc(c(-c7c(F)c(F)c(F)c(F)c7F)c7ccc4[nH]7)C=C6)C=C5)cc2)CC(=O)N3C)cc1
REMARK SMILES IDX 22 1 21 2 20 3 19 4 17 5 18 6 16 8 8 9 9 10 10 11 11 12
REMARK SMILES IDX 15 13 12 14 14 15 13 16 95 17 92 18 93 19 96 20 94 21 7 22
REMARK SMILES IDX 6 23 5 24 1 25 2 26 3 27 98 28 4 29 97 30 23 31 24 32 25 33
REMARK SMILES IDX 26 34 27 35 28 37 29 38 30 39 91 40 31 41 90 42 32 43 33 44
REMARK SMILES IDX 34 45 84 46 35 47 89 48 83 49 85 50 36 51 88 52 82 53 81 54
REMARK SMILES IDX 37 56 69 57 49 58 68 59 50 60 53 61 67 62 86 63 51 64 52 65
REMARK SMILES IDX 66 67 87 68 54 69 38 70 39 71 47 72 40 73 41 74 45 75 48 76
REMARK SMILES IDX 42 77 43 78 46 79 44 80 70 81 71 82 79 83 72 84 73 85 77 86
REMARK SMILES IDX 80 87 74 88 75 89 78 90 76 91 55 92 56 93 64 94 57 95 58 96
REMARK SMILES IDX 62 97 65 98 59 99 60 100 63 101 61 102
REMARK H PARENT 19 7 26 36 85 55 53 66
REMARK Flexibility Score: inf
ROOT
ATOM      1  C   UNL A   1      31.295  27.855  26.851  1.00  0.00     0.002 C 
ENDROOT
BRANCH   1   2
ATOM      2  C   UNL A   1      31.574  26.545  26.112  1.00  0.00     0.021 C 
BRANCH   2   3
ATOM      3  C   UNL A   1      30.642  25.391  26.504  1.00  0.00     0.116 C 
BRANCH   3   4
ATOM      4  N   UNL A   1      31.288  24.326  27.253  1.00  0.00    -0.356 N 
ATOM      5  C   UNL A   1      31.882  23.154  26.912  1.00  0.00     0.226 C 
ATOM      6  O   UNL A   1      32.418  22.530  27.837  1.00  0.00    -0.275 OA
ATOM      7  H   UNL A   1      31.296  24.491  28.223  1.00  0.00     0.163 HD
BRANCH   5   8
ATOM      8  C   UNL A   1      31.939  22.562  25.500  1.00  0.00     0.113 C 
ATOM      9  C   UNL A   1      33.542  26.266  22.089  1.00  0.00     0.222 C 
ATOM     10  O   UNL A   1      34.156  27.318  22.292  1.00  0.00    -0.275 OA
ATOM     11  N   UNL A   1      33.936  25.091  22.701  1.00  0.00    -0.343 N 
ATOM     12  C   UNL A   1      34.539  25.121  24.017  1.00  0.00     0.122 C 
ATOM     13  C   UNL A   1      33.699  23.756  22.219  1.00  0.00     0.122 C 
ATOM     14  C   UNL A   1      33.579  24.421  24.975  1.00  0.00     0.051 C 
ATOM     15  C   UNL A   1      32.677  23.034  23.096  1.00  0.00     0.051 C 
ATOM     16  C   UNL A   1      33.122  22.985  24.582  1.00  0.00     0.058 C 
ATOM     17  N   UNL A   1      34.020  21.825  24.755  1.00  0.00    -0.339 N 
ATOM     18  C   UNL A   1      31.928  21.041  25.530  1.00  0.00     0.116 C 
ATOM     19  C   UNL A   1      33.324  20.669  25.136  1.00  0.00     0.223 C 
ATOM     20  C   UNL A   1      35.362  21.685  24.233  1.00  0.00     0.147 C 
ATOM     21  O   UNL A   1      33.767  19.532  25.163  1.00  0.00    -0.275 OA
BRANCH   9  22
ATOM     22  C   UNL A   1      32.187  26.318  21.369  1.00  0.00     0.105 C 
BRANCH  22  23
ATOM     23  C   UNL A   1      30.874  26.086  22.138  1.00  0.00     0.045 C 
BRANCH  23  24
ATOM     24  C   UNL A   1      30.234  27.354  22.679  1.00  0.00    -0.047 A 
ATOM     25  C   UNL A   1      27.794  30.873  22.948  1.00  0.00     0.044 C 
ATOM     26  C   UNL A   1      28.723  29.698  23.031  1.00  0.00    -0.051 A 
ATOM     27  C   UNL A   1      30.020  29.767  22.514  1.00  0.00     0.004 A 
ATOM     28  C   UNL A   1      28.258  28.476  23.531  1.00  0.00     0.004 A 
ATOM     29  C   UNL A   1      30.787  28.607  22.374  1.00  0.00     0.004 A 
ATOM     30  C   UNL A   1      29.013  27.312  23.364  1.00  0.00     0.004 A 
ENDBRANCH  23  24
ENDBRANCH  22  23
ENDBRANCH   9  22
ENDBRANCH   5   8
ENDBRANCH   3   4
ENDBRANCH   2   3
ENDBRANCH   1   2
BRANCH   1  31
ATOM     31  C   UNL A   1      31.774  29.113  26.116  1.00  0.00     0.002 C 
BRANCH  31  32
ATOM     32  C   UNL A   1      32.375  30.203  27.008  1.00  0.00     0.021 C 
BRANCH  32  33
ATOM     33  C   UNL A   1      33.892  30.288  26.929  1.00  0.00     0.116 C 
BRANCH  33  34
ATOM     34  N   UNL A   1      34.459  31.299  27.804  1.00  0.00    -0.352 N 
ATOM     35  C   UNL A   1      35.491  31.222  28.712  1.00  0.00     0.251 C 
ATOM     36  H   UNL A   1      34.036  32.185  27.736  1.00  0.00     0.163 HD
ATOM     37  O   UNL A   1      35.675  32.165  29.482  1.00  0.00    -0.269 OA
BRANCH  35  38
ATOM     38  C   UNL A   1      36.476  30.112  28.667  1.00  0.00     0.039 A 
ATOM     39  C   UNL A   1      36.613  29.326  29.823  1.00  0.00     0.014 A 
ATOM     40  C   UNL A   1      37.386  29.966  27.627  1.00  0.00     0.014 A 
ATOM     41  C   UNL A   1      37.781  28.596  30.032  1.00  0.00     0.010 A 
ATOM     42  C   UNL A   1      38.588  29.343  27.876  1.00  0.00     0.010 A 
ATOM     43  C   UNL A   1      38.807  28.714  29.105  1.00  0.00    -0.014 A 
BRANCH  43  44
ATOM     44  C   UNL A   1      40.171  28.263  29.321  1.00  0.00     0.031 A 
ATOM     45  C   UNL A   1      40.598  26.953  28.791  1.00  0.00     0.074 A 
ATOM     46  C   UNL A   1      41.072  29.147  29.804  1.00  0.00     0.049 A 
ATOM     47  N   UNL A   1      41.705  26.371  29.095  1.00  0.00    -0.248 NA
ATOM     48  C   UNL A   1      39.773  26.167  27.882  1.00  0.00     0.031 C 
ATOM     49  C   UNL A   1      42.528  29.071  29.706  1.00  0.00     0.029 A 
ATOM     50  N   UNL A   1      40.838  30.237  30.660  1.00  0.00    -0.354 N 
ATOM     51  C   UNL A   1      41.877  25.306  28.241  1.00  0.00     0.074 A 
ATOM     52  C   UNL A   1      40.615  25.184  27.550  1.00  0.00     0.031 C 
ATOM     53  C   UNL A   1      43.069  29.840  30.663  1.00  0.00     0.029 A 
ATOM     54  C   UNL A   1      41.976  30.296  31.501  1.00  0.00     0.049 A 
ATOM     55  H   UNL A   1      40.053  30.831  30.672  1.00  0.00     0.167 HD
ATOM     56  C   UNL A   1      43.118  24.745  28.145  1.00  0.00     0.037 A 
ATOM     57  C   UNL A   1      41.882  30.057  32.842  1.00  0.00     0.037 A 
ATOM     58  C   UNL A   1      44.023  25.336  29.131  1.00  0.00     0.049 A 
ATOM     59  C   UNL A   1      42.739  28.909  33.318  1.00  0.00     0.074 A 
ATOM     60  C   UNL A   1      44.985  26.330  29.052  1.00  0.00     0.029 A 
ATOM     61  N   UNL A   1      43.776  25.133  30.484  1.00  0.00    -0.354 N 
ATOM     62  N   UNL A   1      43.149  27.940  32.546  1.00  0.00    -0.248 NA
ATOM     63  C   UNL A   1      43.203  28.763  34.693  1.00  0.00     0.031 C 
ATOM     64  C   UNL A   1      45.293  26.749  30.371  1.00  0.00     0.029 A 
ATOM     65  C   UNL A   1      44.532  25.996  31.250  1.00  0.00     0.049 A 
ATOM     66  H   UNL A   1      43.148  24.467  30.846  1.00  0.00     0.167 HD
ATOM     67  C   UNL A   1      43.916  27.065  33.276  1.00  0.00     0.074 A 
ATOM     68  C   UNL A   1      43.925  27.630  34.611  1.00  0.00     0.031 C 
ATOM     69  C   UNL A   1      44.473  25.956  32.703  1.00  0.00     0.037 A 
BRANCH  56  70
ATOM     70  C   UNL A   1      43.600  23.863  27.008  1.00  0.00     0.064 A 
ATOM     71  C   UNL A   1      43.165  22.521  26.908  1.00  0.00     0.173 A 
ATOM     72  C   UNL A   1      44.526  24.246  26.021  1.00  0.00     0.173 A 
ATOM     73  F   UNL A   1      42.211  22.029  27.708  1.00  0.00    -0.203 F 
ATOM     74  C   UNL A   1      43.694  21.621  25.977  1.00  0.00     0.198 A 
ATOM     75  C   UNL A   1      45.090  23.335  25.119  1.00  0.00     0.198 A 
ATOM     76  F   UNL A   1      44.876  25.522  25.843  1.00  0.00    -0.203 F 
ATOM     77  F   UNL A   1      43.245  20.358  25.943  1.00  0.00    -0.200 F 
ATOM     78  C   UNL A   1      44.683  22.019  25.104  1.00  0.00     0.200 A 
ATOM     79  F   UNL A   1      46.032  23.752  24.261  1.00  0.00    -0.200 F 
ATOM     80  F   UNL A   1      45.218  21.151  24.236  1.00  0.00    -0.200 F 
ENDBRANCH  56  70
BRANCH  57  81
ATOM     81  C   UNL A   1      40.561  30.442  33.403  1.00  0.00     0.064 A 
ATOM     82  C   UNL A   1      40.300  31.814  33.580  1.00  0.00     0.173 A 
ATOM     83  C   UNL A   1      39.463  29.576  33.337  1.00  0.00     0.173 A 
ATOM     84  F   UNL A   1      41.319  32.685  33.651  1.00  0.00    -0.203 F 
ATOM     85  C   UNL A   1      38.999  32.313  33.551  1.00  0.00     0.198 A 
ATOM     86  C   UNL A   1      38.159  30.080  33.323  1.00  0.00     0.198 A 
ATOM     87  F   UNL A   1      39.645  28.260  33.155  1.00  0.00    -0.203 F 
ATOM     88  F   UNL A   1      38.790  33.637  33.593  1.00  0.00    -0.200 F 
ATOM     89  C   UNL A   1      37.931  31.447  33.388  1.00  0.00     0.200 A 
ATOM     90  F   UNL A   1      37.124  29.245  33.145  1.00  0.00    -0.200 F 
ATOM     91  F   UNL A   1      36.689  31.931  33.252  1.00  0.00    -0.200 F 
ENDBRANCH  57  81
BRANCH  69  92
ATOM     92  C   UNL A   1      45.103  24.770  33.412  1.00  0.00     0.064 A 
ATOM     93  C   UNL A   1      44.452  23.550  33.652  1.00  0.00     0.173 A 
ATOM     94  C   UNL A   1      46.484  24.786  33.745  1.00  0.00     0.173 A 
ATOM     95  F   UNL A   1      43.184  23.344  33.278  1.00  0.00    -0.203 F 
ATOM     96  C   UNL A   1      45.108  22.457  34.232  1.00  0.00     0.198 A 
ATOM     97  C   UNL A   1      47.150  23.675  34.261  1.00  0.00     0.198 A 
ATOM     98  F   UNL A   1      47.248  25.871  33.550  1.00  0.00    -0.203 F 
ATOM     99  F   UNL A   1      44.426  21.330  34.477  1.00  0.00    -0.200 F 
ATOM    100  C   UNL A   1      46.458  22.515  34.522  1.00  0.00     0.200 A 
ATOM    101  F   UNL A   1      48.472  23.733  34.479  1.00  0.00    -0.200 F 
ATOM    102  F   UNL A   1      47.092  21.447  35.024  1.00  0.00    -0.200 F 
ENDBRANCH  69  92
ENDBRANCH  43  44
ENDBRANCH  35  38
ENDBRANCH  33  34
ENDBRANCH  32  33
ENDBRANCH  31  32
ENDBRANCH   1  31
TORSDOF 16
ENDMDL
MODEL 3
REMARK VINA RESULT:     -14.2      3.063      5.289
REMARK SMILES Cc1ccc(CCC(=O)N2CCC3(CC2)[C@H](C(=O)NCCCCCCNC(=O)c2ccc(-c4c5nc(c(-c6c(F)c(F)c(F)c(F)c6F)c6ccc([nH]6)c(-c6c(F)c(F)c(F)c(F)c6F)c6nc(c(-c7c(F)c(F)c(F)c(F)c7F)c7ccc4[nH]7)C=C6)C=C5)cc2)CC(=O)N3C)cc1
REMARK SMILES IDX 22 1 21 2 20 3 19 4 17 5 18 6 16 8 8 9 9 10 10 11 11 12
REMARK SMILES IDX 15 13 12 14 14 15 13 16 95 17 92 18 93 19 96 20 94 21 7 22
REMARK SMILES IDX 6 23 5 24 1 25 2 26 3 27 98 28 4 29 97 30 23 31 24 32 25 33
REMARK SMILES IDX 26 34 27 35 28 37 29 38 30 39 91 40 31 41 90 42 32 43 33 44
REMARK SMILES IDX 34 45 84 46 35 47 89 48 83 49 85 50 36 51 88 52 82 53 81 54
REMARK SMILES IDX 37 56 69 57 49 58 68 59 50 60 53 61 67 62 86 63 51 64 52 65
REMARK SMILES IDX 66 67 87 68 54 69 38 70 39 71 47 72 40 73 41 74 45 75 48 76
REMARK SMILES IDX 42 77 43 78 46 79 44 80 70 81 71 82 79 83 72 84 73 85 77 86
REMARK SMILES IDX 80 87 74 88 75 89 78 90 76 91 55 92 56 93 64 94 57 95 58 96
REMARK SMILES IDX 62 97 65 98 59 99 60 100 63 101 61 102
REMARK H PARENT 19 7 26 36 85 55 53 66
REMARK Flexibility Score: inf
ROOT
ATOM      1  C   UNL A   1      35.057  31.390  27.654  1.00  0.00     0.002 C 
ENDROOT
BRANCH   1   2
ATOM      2  C   UNL A   1      35.038  29.869  27.816  1.00  0.00     0.021 C 
BRANCH   2   3
ATOM      3  C   UNL A   1      34.117  29.142  26.827  1.00  0.00     0.116 C 
BRANCH   3   4
ATOM      4  N   UNL A   1      32.972  29.925  26.390  1.00  0.00    -0.356 N 
ATOM      5  C   UNL A   1      32.068  29.800  25.385  1.00  0.00     0.226 C 
ATOM      6  O   UNL A   1      31.152  30.632  25.375  1.00  0.00    -0.275 OA
ATOM      7  H   UNL A   1      32.819  30.722  26.946  1.00  0.00     0.163 HD
BRANCH   5   8
ATOM      8  C   UNL A   1      32.097  28.730  24.288  1.00  0.00     0.113 C 
ATOM      9  C   UNL A   1      31.933  23.930  26.494  1.00  0.00     0.222 C 
ATOM     10  O   UNL A   1      31.552  23.587  27.617  1.00  0.00    -0.275 OA
ATOM     11  N   UNL A   1      31.190  24.820  25.740  1.00  0.00    -0.343 N 
ATOM     12  C   UNL A   1      30.413  25.855  26.389  1.00  0.00     0.122 C 
ATOM     13  C   UNL A   1      31.187  24.928  24.305  1.00  0.00     0.122 C 
ATOM     14  C   UNL A   1      31.028  27.198  26.000  1.00  0.00     0.051 C 
ATOM     15  C   UNL A   1      31.868  26.219  23.854  1.00  0.00     0.051 C 
ATOM     16  C   UNL A   1      31.199  27.474  24.477  1.00  0.00     0.058 C 
ATOM     17  N   UNL A   1      30.044  27.845  23.635  1.00  0.00    -0.339 N 
ATOM     18  C   UNL A   1      31.755  29.315  22.926  1.00  0.00     0.116 C 
ATOM     19  C   UNL A   1      30.389  28.771  22.641  1.00  0.00     0.223 C 
ATOM     20  C   UNL A   1      28.802  27.113  23.499  1.00  0.00     0.147 C 
ATOM     21  O   UNL A   1      29.698  29.108  21.692  1.00  0.00    -0.275 OA
BRANCH   9  22
ATOM     22  C   UNL A   1      33.358  23.578  26.047  1.00  0.00     0.105 C 
BRANCH  22  23
ATOM     23  C   UNL A   1      33.636  22.317  25.209  1.00  0.00     0.045 C 
BRANCH  23  24
ATOM     24  C   UNL A   1      35.111  22.030  24.982  1.00  0.00    -0.047 A 
ATOM     25  C   UNL A   1      39.263  21.269  25.752  1.00  0.00     0.044 C 
ATOM     26  C   UNL A   1      37.861  21.535  25.289  1.00  0.00    -0.051 A 
ATOM     27  C   UNL A   1      37.395  22.842  25.117  1.00  0.00     0.004 A 
ATOM     28  C   UNL A   1      36.966  20.471  25.131  1.00  0.00     0.004 A 
ATOM     29  C   UNL A   1      36.033  23.087  24.926  1.00  0.00     0.004 A 
ATOM     30  C   UNL A   1      35.599  20.717  24.970  1.00  0.00     0.004 A 
ENDBRANCH  23  24
ENDBRANCH  22  23
ENDBRANCH   9  22
ENDBRANCH   5   8
ENDBRANCH   3   4
ENDBRANCH   2   3
ENDBRANCH   1   2
BRANCH   1  31
ATOM     31  C   UNL A   1      34.612  32.166  28.900  1.00  0.00     0.002 C 
BRANCH  31  32
ATOM     32  C   UNL A   1      33.698  33.366  28.632  1.00  0.00     0.021 C 
BRANCH  32  33
ATOM     33  C   UNL A   1      34.133  34.635  29.348  1.00  0.00     0.116 C 
BRANCH  33  34
ATOM     34  N   UNL A   1      33.263  35.003  30.450  1.00  0.00    -0.352 N 
ATOM     35  C   UNL A   1      33.329  34.689  31.789  1.00  0.00     0.251 C 
ATOM     36  H   UNL A   1      32.499  35.572  30.198  1.00  0.00     0.163 HD
ATOM     37  O   UNL A   1      32.369  34.960  32.510  1.00  0.00    -0.269 OA
BRANCH  35  38
ATOM     38  C   UNL A   1      34.585  34.188  32.402  1.00  0.00     0.039 A 
ATOM     39  C   UNL A   1      35.733  34.985  32.261  1.00  0.00     0.014 A 
ATOM     40  C   UNL A   1      34.704  32.900  32.909  1.00  0.00     0.014 A 
ATOM     41  C   UNL A   1      36.996  34.412  32.386  1.00  0.00     0.010 A 
ATOM     42  C   UNL A   1      35.942  32.300  32.921  1.00  0.00     0.010 A 
ATOM     43  C   UNL A   1      37.082  33.043  32.596  1.00  0.00    -0.014 A 
BRANCH  43  44
ATOM     44  C   UNL A   1      38.297  32.260  32.458  1.00  0.00     0.031 A 
ATOM     45  C   UNL A   1      38.262  30.984  31.717  1.00  0.00     0.074 A 
ATOM     46  C   UNL A   1      39.472  32.825  32.816  1.00  0.00     0.049 A 
ATOM     47  N   UNL A   1      39.216  30.122  31.707  1.00  0.00    -0.248 NA
ATOM     48  C   UNL A   1      37.105  30.560  30.938  1.00  0.00     0.031 C 
ATOM     49  C   UNL A   1      40.812  32.429  32.391  1.00  0.00     0.029 A 
ATOM     50  N   UNL A   1      39.695  33.796  33.809  1.00  0.00    -0.354 N 
ATOM     51  C   UNL A   1      38.941  29.189  30.733  1.00  0.00     0.074 A 
ATOM     52  C   UNL A   1      37.584  29.471  30.330  1.00  0.00     0.031 C 
ATOM     53  C   UNL A   1      41.705  32.896  33.277  1.00  0.00     0.029 A 
ATOM     54  C   UNL A   1      40.947  33.459  34.378  1.00  0.00     0.049 A 
ATOM     55  H   UNL A   1      39.108  34.547  34.054  1.00  0.00     0.167 HD
ATOM     56  C   UNL A   1      39.953  28.377  30.307  1.00  0.00     0.037 A 
ATOM     57  C   UNL A   1      41.050  33.045  35.675  1.00  0.00     0.037 A 
ATOM     58  C   UNL A   1      41.150  28.583  31.123  1.00  0.00     0.049 A 
ATOM     59  C   UNL A   1      41.654  31.671  35.830  1.00  0.00     0.074 A 
ATOM     60  C   UNL A   1      42.304  29.326  30.934  1.00  0.00     0.029 A 
ATOM     61  N   UNL A   1      41.120  28.238  32.469  1.00  0.00    -0.354 N 
ATOM     62  N   UNL A   1      41.645  30.763  34.893  1.00  0.00    -0.248 NA
ATOM     63  C   UNL A   1      42.316  31.211  37.046  1.00  0.00     0.031 C 
ATOM     64  C   UNL A   1      42.954  29.454  32.187  1.00  0.00     0.029 A 
ATOM     65  C   UNL A   1      42.205  28.774  33.132  1.00  0.00     0.049 A 
ATOM     66  H   UNL A   1      40.420  27.688  32.892  1.00  0.00     0.167 HD
ATOM     67  C   UNL A   1      42.282  29.633  35.342  1.00  0.00     0.074 A 
ATOM     68  C   UNL A   1      42.690  29.968  36.692  1.00  0.00     0.031 C 
ATOM     69  C   UNL A   1      42.414  28.525  34.551  1.00  0.00     0.037 A 
BRANCH  56  70
ATOM     70  C   UNL A   1      39.966  27.592  29.009  1.00  0.00     0.064 A 
ATOM     71  C   UNL A   1      39.326  26.334  28.925  1.00  0.00     0.173 A 
ATOM     72  C   UNL A   1      40.629  27.983  27.831  1.00  0.00     0.173 A 
ATOM     73  F   UNL A   1      38.568  25.863  29.923  1.00  0.00    -0.203 F 
ATOM     74  C   UNL A   1      39.437  25.500  27.808  1.00  0.00     0.198 A 
ATOM     75  C   UNL A   1      40.780  27.131  26.730  1.00  0.00     0.198 A 
ATOM     76  F   UNL A   1      41.101  29.221  27.669  1.00  0.00    -0.203 F 
ATOM     77  F   UNL A   1      38.813  24.313  27.798  1.00  0.00    -0.200 F 
ATOM     78  C   UNL A   1      40.193  25.884  26.722  1.00  0.00     0.200 A 
ATOM     79  F   UNL A   1      41.498  27.537  25.674  1.00  0.00    -0.200 F 
ATOM     80  F   UNL A   1      40.332  25.073  25.665  1.00  0.00    -0.200 F 
ENDBRANCH  56  70
BRANCH  57  81
ATOM     81  C   UNL A   1      40.005  33.635  36.551  1.00  0.00     0.064 A 
ATOM     82  C   UNL A   1      38.892  32.834  36.874  1.00  0.00     0.173 A 
ATOM     83  C   UNL A   1      40.287  34.722  37.389  1.00  0.00     0.173 A 
ATOM     84  F   UNL A   1      38.580  31.781  36.101  1.00  0.00    -0.203 F 
ATOM     85  C   UNL A   1      38.180  33.026  38.056  1.00  0.00     0.198 A 
ATOM     86  C   UNL A   1      39.560  34.920  38.566  1.00  0.00     0.198 A 
ATOM     87  F   UNL A   1      41.341  35.513  37.144  1.00  0.00    -0.203 F 
ATOM     88  F   UNL A   1      37.208  32.168  38.397  1.00  0.00    -0.200 F 
ATOM     89  C   UNL A   1      38.537  34.049  38.918  1.00  0.00     0.200 A 
ATOM     90  F   UNL A   1      39.916  35.897  39.413  1.00  0.00    -0.200 F 
ATOM     91  F   UNL A   1      37.926  34.172  40.104  1.00  0.00    -0.200 F 
ENDBRANCH  57  81
BRANCH  69  92
ATOM     92  C   UNL A   1      42.837  27.132  34.978  1.00  0.00     0.064 A 
ATOM     93  C   UNL A   1      41.962  26.044  35.122  1.00  0.00     0.173 A 
ATOM     94  C   UNL A   1      44.215  26.811  35.113  1.00  0.00     0.173 A 
ATOM     95  F   UNL A   1      40.647  26.166  34.903  1.00  0.00    -0.203 F 
ATOM     96  C   UNL A   1      42.417  24.757  35.434  1.00  0.00     0.198 A 
ATOM     97  C   UNL A   1      44.669  25.516  35.357  1.00  0.00     0.198 A 
ATOM     98  F   UNL A   1      45.174  27.738  34.976  1.00  0.00    -0.203 F 
ATOM     99  F   UNL A   1      41.532  23.765  35.601  1.00  0.00    -0.200 F 
ATOM    100  C   UNL A   1      43.769  24.491  35.536  1.00  0.00     0.200 A 
ATOM    101  F   UNL A   1      45.987  25.268  35.393  1.00  0.00    -0.200 F 
ATOM    102  F   UNL A   1      44.201  23.246  35.779  1.00  0.00    -0.200 F 
ENDBRANCH  69  92
ENDBRANCH  43  44
ENDBRANCH  35  38
ENDBRANCH  33  34
ENDBRANCH  32  33
ENDBRANCH  31  32
ENDBRANCH   1  31
TORSDOF 16
ENDMDL
