MODEL 1
REMARK VINA RESULT:     -12.3      0.000      0.000
REMARK SMILES O=C(Cc1cccn1-c1ccc2c(c1)OCCO2)NCCCCCCNC(=O)c1ccc(-c2c3nc(c(-c4c(F)c(F)c(F)c(F)c4F)c4ccc([nH]4)c(-c4c(F)c(F)c(F)c(F)c4F)c4nc(c(-c5c(F)c(F)c(F)c(F)c5F)c5ccc2[nH]5)C=C4)C=C3)cc1
REMARK SMILES IDX 22 1 21 2 20 3 19 4 1 5 2 6 3 8 4 9 5 10 8 11 6 12 7 13 9 14
REMARK SMILES IDX 10 15 14 16 11 17 13 18 12 19 15 20 18 21 16 22 17 23 23 24
REMARK SMILES IDX 24 25 25 26 26 27 27 28 28 30 29 31 30 32 91 33 31 34 90 35
REMARK SMILES IDX 32 36 33 37 34 38 84 39 35 40 89 41 83 42 85 43 36 44 88 45
REMARK SMILES IDX 82 46 81 47 37 49 69 50 49 51 68 52 50 53 53 54 67 55 86 56
REMARK SMILES IDX 51 57 52 58 66 60 87 61 54 62 38 63 39 64 47 65 40 66 41 67
REMARK SMILES IDX 45 68 48 69 42 70 43 71 46 72 44 73 70 74 71 75 79 76 72 77
REMARK SMILES IDX 73 78 77 79 80 80 74 81 75 82 78 83 76 84 55 85 56 86 64 87
REMARK SMILES IDX 57 88 58 89 62 90 65 91 59 92 60 93 63 94 61 95
REMARK H PARENT 19 7 26 29 85 48 53 59
REMARK Flexibility Score: inf
ROOT
ATOM      1  C   UNL A   1      33.924  27.713  24.789  1.00  0.00     0.002 C 
ENDROOT
BRANCH   1   2
ATOM      2  C   UNL A   1      34.033  28.752  23.665  1.00  0.00     0.021 C 
BRANCH   2   3
ATOM      3  C   UNL A   1      33.377  28.341  22.349  1.00  0.00     0.116 C 
BRANCH   3   4
ATOM      4  N   UNL A   1      32.389  27.307  22.556  1.00  0.00    -0.356 N 
ATOM      5  O   UNL A   1      33.394  25.712  21.240  1.00  0.00    -0.275 OA
ATOM      6  C   UNL A   1      32.489  26.051  21.997  1.00  0.00     0.225 C 
ATOM      7  H   UNL A   1      31.610  27.509  23.122  1.00  0.00     0.163 HD
BRANCH   6   8
ATOM      8  C   UNL A   1      31.345  25.127  22.377  1.00  0.00     0.154 C 
BRANCH   8   9
ATOM      9  C   UNL A   1      30.953  25.256  23.828  1.00  0.00     0.032 A 
ATOM     10  C   UNL A   1      29.927  25.992  24.408  1.00  0.00     0.024 A 
ATOM     11  N   UNL A   1      31.512  24.474  24.836  1.00  0.00    -0.320 N 
ATOM     12  C   UNL A   1      29.786  25.578  25.748  1.00  0.00     0.020 A 
ATOM     13  C   UNL A   1      30.733  24.609  25.969  1.00  0.00     0.091 A 
BRANCH  11  14
ATOM     14  C   UNL A   1      32.670  23.662  24.769  1.00  0.00     0.049 A 
ATOM     15  C   UNL A   1      32.561  22.337  24.325  1.00  0.00     0.031 A 
ATOM     16  C   UNL A   1      33.902  24.166  25.201  1.00  0.00     0.077 A 
ATOM     17  C   UNL A   1      33.698  21.528  24.279  1.00  0.00     0.052 A 
ATOM     18  C   UNL A   1      35.028  23.347  25.168  1.00  0.00     0.163 A 
ATOM     19  C   UNL A   1      34.924  22.027  24.716  1.00  0.00     0.161 A 
ATOM     20  O   UNL A   1      36.198  23.898  25.621  1.00  0.00    -0.486 OA
ATOM     21  O   UNL A   1      35.987  21.161  24.682  1.00  0.00    -0.486 OA
ATOM     22  C   UNL A   1      37.332  23.098  25.268  1.00  0.00     0.271 C 
ATOM     23  C   UNL A   1      37.055  21.625  25.516  1.00  0.00     0.271 C 
ENDBRANCH  11  14
ENDBRANCH   8   9
ENDBRANCH   6   8
ENDBRANCH   3   4
ENDBRANCH   2   3
ENDBRANCH   1   2
BRANCH   1  24
ATOM     24  C   UNL A   1      32.852  28.000  25.847  1.00  0.00     0.002 C 
BRANCH  24  25
ATOM     25  C   UNL A   1      33.335  28.793  27.068  1.00  0.00     0.021 C 
BRANCH  25  26
ATOM     26  C   UNL A   1      34.856  28.852  27.208  1.00  0.00     0.116 C 
BRANCH  26  27
ATOM     27  N   UNL A   1      35.312  30.224  27.352  1.00  0.00    -0.352 N 
ATOM     28  C   UNL A   1      36.413  30.720  28.001  1.00  0.00     0.251 C 
ATOM     29  H   UNL A   1      34.744  30.901  26.918  1.00  0.00     0.163 HD
ATOM     30  O   UNL A   1      36.421  31.891  28.358  1.00  0.00    -0.269 OA
BRANCH  28  31
ATOM     31  C   UNL A   1      37.593  29.873  28.279  1.00  0.00     0.039 A 
ATOM     32  C   UNL A   1      38.570  29.766  27.279  1.00  0.00     0.014 A 
ATOM     33  C   UNL A   1      37.692  29.105  29.444  1.00  0.00     0.014 A 
ATOM     34  C   UNL A   1      39.665  28.932  27.466  1.00  0.00     0.010 A 
ATOM     35  C   UNL A   1      38.799  28.289  29.649  1.00  0.00     0.010 A 
ATOM     36  C   UNL A   1      39.790  28.215  28.664  1.00  0.00    -0.014 A 
BRANCH  36  37
ATOM     37  C   UNL A   1      41.079  27.549  28.954  1.00  0.00     0.031 A 
ATOM     38  C   UNL A   1      41.089  26.107  28.370  1.00  0.00     0.074 A 
ATOM     39  C   UNL A   1      41.992  28.279  29.668  1.00  0.00     0.049 A 
ATOM     40  N   UNL A   1      41.767  25.055  28.720  1.00  0.00    -0.248 NA
ATOM     41  C   UNL A   1      40.159  25.773  27.250  1.00  0.00     0.031 C 
ATOM     42  C   UNL A   1      41.817  29.695  30.075  1.00  0.00     0.029 A 
ATOM     43  N   UNL A   1      43.237  28.008  30.205  1.00  0.00    -0.354 N 
ATOM     44  C   UNL A   1      41.511  24.032  27.770  1.00  0.00     0.074 A 
ATOM     45  C   UNL A   1      40.430  24.498  26.960  1.00  0.00     0.031 C 
ATOM     46  C   UNL A   1      42.845  30.116  30.846  1.00  0.00     0.029 A 
ATOM     47  C   UNL A   1      43.795  29.036  31.021  1.00  0.00     0.049 A 
ATOM     48  H   UNL A   1      43.708  27.160  30.033  1.00  0.00     0.167 HD
ATOM     49  C   UNL A   1      42.304  22.925  27.628  1.00  0.00     0.037 A 
ATOM     50  C   UNL A   1      44.910  28.992  31.823  1.00  0.00     0.037 A 
ATOM     51  C   UNL A   1      43.320  22.946  28.621  1.00  0.00     0.049 A 
ATOM     52  C   UNL A   1      45.518  27.695  31.515  1.00  0.00     0.074 A 
ATOM     53  C   UNL A   1      43.287  22.713  29.969  1.00  0.00     0.029 A 
ATOM     54  N   UNL A   1      44.482  23.601  28.299  1.00  0.00    -0.354 N 
ATOM     55  N   UNL A   1      46.161  27.430  30.419  1.00  0.00    -0.248 NA
ATOM     56  C   UNL A   1      45.304  26.581  32.445  1.00  0.00     0.031 C 
ATOM     57  C   UNL A   1      44.173  23.684  30.475  1.00  0.00     0.029 A 
ATOM     58  C   UNL A   1      44.889  24.268  29.423  1.00  0.00     0.049 A 
ATOM     59  H   UNL A   1      44.936  23.592  27.425  1.00  0.00     0.167 HD
ATOM     60  C   UNL A   1      46.119  26.059  30.391  1.00  0.00     0.074 A 
ATOM     61  C   UNL A   1      45.902  25.618  31.751  1.00  0.00     0.031 C 
ATOM     62  C   UNL A   1      45.724  25.430  29.256  1.00  0.00     0.037 A 
BRANCH  49  63
ATOM     63  C   UNL A   1      42.467  21.892  26.541  1.00  0.00     0.064 A 
ATOM     64  C   UNL A   1      41.898  20.607  26.755  1.00  0.00     0.173 A 
ATOM     65  C   UNL A   1      43.446  21.969  25.545  1.00  0.00     0.173 A 
ATOM     66  F   UNL A   1      40.900  20.434  27.637  1.00  0.00    -0.203 F 
ATOM     67  C   UNL A   1      42.406  19.459  26.149  1.00  0.00     0.198 A 
ATOM     68  C   UNL A   1      43.916  20.819  24.897  1.00  0.00     0.198 A 
ATOM     69  F   UNL A   1      44.043  23.130  25.249  1.00  0.00    -0.203 F 
ATOM     70  F   UNL A   1      41.949  18.253  26.513  1.00  0.00    -0.200 F 
ATOM     71  C   UNL A   1      43.434  19.564  25.237  1.00  0.00     0.200 A 
ATOM     72  F   UNL A   1      44.902  20.924  23.996  1.00  0.00    -0.200 F 
ATOM     73  F   UNL A   1      43.983  18.461  24.710  1.00  0.00    -0.200 F 
ENDBRANCH  49  63
BRANCH  50  74
ATOM     74  C   UNL A   1      45.595  29.791  32.919  1.00  0.00     0.064 A 
ATOM     75  C   UNL A   1      45.390  29.663  34.296  1.00  0.00     0.173 A 
ATOM     76  C   UNL A   1      46.625  30.722  32.576  1.00  0.00     0.173 A 
ATOM     77  F   UNL A   1      44.374  28.938  34.775  1.00  0.00    -0.203 F 
ATOM     78  C   UNL A   1      46.227  30.300  35.238  1.00  0.00     0.198 A 
ATOM     79  C   UNL A   1      47.490  31.304  33.503  1.00  0.00     0.198 A 
ATOM     80  F   UNL A   1      46.839  31.107  31.312  1.00  0.00    -0.203 F 
ATOM     81  F   UNL A   1      45.996  30.142  36.550  1.00  0.00    -0.200 F 
ATOM     82  C   UNL A   1      47.304  31.076  34.841  1.00  0.00     0.200 A 
ATOM     83  F   UNL A   1      48.510  32.063  33.074  1.00  0.00    -0.200 F 
ATOM     84  F   UNL A   1      48.144  31.612  35.737  1.00  0.00    -0.200 F 
ENDBRANCH  50  74
BRANCH  62  85
ATOM     85  C   UNL A   1      45.892  26.260  27.994  1.00  0.00     0.064 A 
ATOM     86  C   UNL A   1      47.177  26.635  27.574  1.00  0.00     0.173 A 
ATOM     87  C   UNL A   1      44.826  26.806  27.256  1.00  0.00     0.173 A 
ATOM     88  F   UNL A   1      48.254  26.143  28.204  1.00  0.00    -0.203 F 
ATOM     89  C   UNL A   1      47.378  27.517  26.507  1.00  0.00     0.198 A 
ATOM     90  C   UNL A   1      45.022  27.685  26.187  1.00  0.00     0.198 A 
ATOM     91  F   UNL A   1      43.566  26.496  27.549  1.00  0.00    -0.203 F 
ATOM     92  F   UNL A   1      48.625  27.851  26.145  1.00  0.00    -0.200 F 
ATOM     93  C   UNL A   1      46.301  28.046  25.817  1.00  0.00     0.200 A 
ATOM     94  F   UNL A   1      43.965  28.174  25.516  1.00  0.00    -0.200 F 
ATOM     95  F   UNL A   1      46.495  28.884  24.788  1.00  0.00    -0.200 F 
ENDBRANCH  62  85
ENDBRANCH  36  37
ENDBRANCH  28  31
ENDBRANCH  26  27
ENDBRANCH  25  26
ENDBRANCH  24  25
ENDBRANCH   1  24
TORSDOF 15
ENDMDL
MODEL 2
REMARK VINA RESULT:     -12.3      4.355      9.094
REMARK SMILES O=C(Cc1cccn1-c1ccc2c(c1)OCCO2)NCCCCCCNC(=O)c1ccc(-c2c3nc(c(-c4c(F)c(F)c(F)c(F)c4F)c4ccc([nH]4)c(-c4c(F)c(F)c(F)c(F)c4F)c4nc(c(-c5c(F)c(F)c(F)c(F)c5F)c5ccc2[nH]5)C=C4)C=C3)cc1
REMARK SMILES IDX 22 1 21 2 20 3 19 4 1 5 2 6 3 8 4 9 5 10 8 11 6 12 7 13 9 14
REMARK SMILES IDX 10 15 14 16 11 17 13 18 12 19 15 20 18 21 16 22 17 23 23 24
REMARK SMILES IDX 24 25 25 26 26 27 27 28 28 30 29 31 30 32 91 33 31 34 90 35
REMARK SMILES IDX 32 36 33 37 34 38 84 39 35 40 89 41 83 42 85 43 36 44 88 45
REMARK SMILES IDX 82 46 81 47 37 49 69 50 49 51 68 52 50 53 53 54 67 55 86 56
REMARK SMILES IDX 51 57 52 58 66 60 87 61 54 62 38 63 39 64 47 65 40 66 41 67
REMARK SMILES IDX 45 68 48 69 42 70 43 71 46 72 44 73 70 74 71 75 79 76 72 77
REMARK SMILES IDX 73 78 77 79 80 80 74 81 75 82 78 83 76 84 55 85 56 86 64 87
REMARK SMILES IDX 57 88 58 89 62 90 65 91 59 92 60 93 63 94 61 95
REMARK H PARENT 19 7 26 29 85 48 53 59
REMARK Flexibility Score: inf
ROOT
ATOM      1  C   UNL A   1      34.798  23.327  26.540  1.00  0.00     0.002 C 
ENDROOT
BRANCH   1   2
ATOM      2  C   UNL A   1      34.402  22.419  27.712  1.00  0.00     0.021 C 
BRANCH   2   3
ATOM      3  C   UNL A   1      32.904  22.146  27.832  1.00  0.00     0.116 C 
BRANCH   3   4
ATOM      4  N   UNL A   1      32.240  22.299  26.558  1.00  0.00    -0.356 N 
ATOM      5  O   UNL A   1      30.906  24.071  27.165  1.00  0.00    -0.275 OA
ATOM      6  C   UNL A   1      31.299  23.277  26.315  1.00  0.00     0.225 C 
ATOM      7  H   UNL A   1      32.471  21.678  25.830  1.00  0.00     0.163 HD
BRANCH   6   8
ATOM      8  C   UNL A   1      30.759  23.257  24.895  1.00  0.00     0.154 C 
BRANCH   8   9
ATOM      9  C   UNL A   1      31.846  23.400  23.859  1.00  0.00     0.032 A 
ATOM     10  C   UNL A   1      32.384  22.450  23.001  1.00  0.00     0.024 A 
ATOM     11  N   UNL A   1      32.385  24.631  23.491  1.00  0.00    -0.320 N 
ATOM     12  C   UNL A   1      33.167  23.116  22.036  1.00  0.00     0.020 A 
ATOM     13  C   UNL A   1      33.107  24.456  22.327  1.00  0.00     0.091 A 
BRANCH  11  14
ATOM     14  C   UNL A   1      32.248  25.876  24.153  1.00  0.00     0.049 A 
ATOM     15  C   UNL A   1      31.142  26.690  23.873  1.00  0.00     0.031 A 
ATOM     16  C   UNL A   1      33.243  26.311  25.034  1.00  0.00     0.077 A 
ATOM     17  C   UNL A   1      31.017  27.927  24.508  1.00  0.00     0.052 A 
ATOM     18  C   UNL A   1      33.119  27.554  25.650  1.00  0.00     0.163 A 
ATOM     19  C   UNL A   1      32.012  28.365  25.380  1.00  0.00     0.161 A 
ATOM     20  O   UNL A   1      34.139  27.926  26.488  1.00  0.00    -0.486 OA
ATOM     21  O   UNL A   1      31.841  29.608  25.933  1.00  0.00    -0.486 OA
ATOM     22  C   UNL A   1      33.779  29.055  27.291  1.00  0.00     0.271 C 
ATOM     23  C   UNL A   1      33.076  30.112  26.456  1.00  0.00     0.271 C 
ENDBRANCH  11  14
ENDBRANCH   8   9
ENDBRANCH   6   8
ENDBRANCH   3   4
ENDBRANCH   2   3
ENDBRANCH   1   2
BRANCH   1  24
ATOM     24  C   UNL A   1      35.499  22.623  25.373  1.00  0.00     0.002 C 
BRANCH  24  25
ATOM     25  C   UNL A   1      36.816  23.266  24.918  1.00  0.00     0.021 C 
BRANCH  25  26
ATOM     26  C   UNL A   1      37.517  24.080  26.005  1.00  0.00     0.116 C 
BRANCH  26  27
ATOM     27  N   UNL A   1      38.720  23.407  26.464  1.00  0.00    -0.352 N 
ATOM     28  C   UNL A   1      39.910  23.932  26.897  1.00  0.00     0.251 C 
ATOM     29  H   UNL A   1      38.675  22.423  26.464  1.00  0.00     0.163 HD
ATOM     30  O   UNL A   1      40.920  23.241  26.857  1.00  0.00    -0.269 OA
BRANCH  28  31
ATOM     31  C   UNL A   1      40.002  25.316  27.412  1.00  0.00     0.039 A 
ATOM     32  C   UNL A   1      39.568  25.552  28.724  1.00  0.00     0.014 A 
ATOM     33  C   UNL A   1      40.393  26.382  26.597  1.00  0.00     0.014 A 
ATOM     34  C   UNL A   1      39.573  26.846  29.232  1.00  0.00     0.010 A 
ATOM     35  C   UNL A   1      40.428  27.674  27.108  1.00  0.00     0.010 A 
ATOM     36  C   UNL A   1      40.029  27.901  28.430  1.00  0.00    -0.014 A 
BRANCH  36  37
ATOM     37  C   UNL A   1      40.278  29.212  29.068  1.00  0.00     0.031 A 
ATOM     38  C   UNL A   1      38.952  30.017  29.193  1.00  0.00     0.074 A 
ATOM     39  C   UNL A   1      41.577  29.486  29.408  1.00  0.00     0.049 A 
ATOM     40  N   UNL A   1      38.740  31.296  29.272  1.00  0.00    -0.248 NA
ATOM     41  C   UNL A   1      37.654  29.278  29.177  1.00  0.00     0.031 C 
ATOM     42  C   UNL A   1      42.708  28.535  29.272  1.00  0.00     0.029 A 
ATOM     43  N   UNL A   1      42.228  30.590  29.925  1.00  0.00    -0.354 N 
ATOM     44  C   UNL A   1      37.357  31.498  29.515  1.00  0.00     0.074 A 
ATOM     45  C   UNL A   1      36.727  30.229  29.333  1.00  0.00     0.031 C 
ATOM     46  C   UNL A   1      43.883  29.119  29.603  1.00  0.00     0.029 A 
ATOM     47  C   UNL A   1      43.649  30.495  29.990  1.00  0.00     0.049 A 
ATOM     48  H   UNL A   1      41.740  31.391  30.228  1.00  0.00     0.167 HD
ATOM     49  C   UNL A   1      36.843  32.675  29.990  1.00  0.00     0.037 A 
ATOM     50  C   UNL A   1      44.568  31.476  30.280  1.00  0.00     0.037 A 
ATOM     51  C   UNL A   1      37.887  33.634  30.093  1.00  0.00     0.049 A 
ATOM     52  C   UNL A   1      43.749  32.619  30.691  1.00  0.00     0.074 A 
ATOM     53  C   UNL A   1      38.571  34.348  29.148  1.00  0.00     0.029 A 
ATOM     54  N   UNL A   1      38.578  33.665  31.278  1.00  0.00    -0.354 N 
ATOM     55  N   UNL A   1      43.133  32.706  31.831  1.00  0.00    -0.248 NA
ATOM     56  C   UNL A   1      43.511  33.696  29.724  1.00  0.00     0.031 C 
ATOM     57  C   UNL A   1      39.887  34.345  29.647  1.00  0.00     0.029 A 
ATOM     58  C   UNL A   1      39.895  33.876  30.967  1.00  0.00     0.049 A 
ATOM     59  H   UNL A   1      38.198  33.556  32.180  1.00  0.00     0.167 HD
ATOM     60  C   UNL A   1      42.185  33.662  31.568  1.00  0.00     0.074 A 
ATOM     61  C   UNL A   1      42.666  34.430  30.441  1.00  0.00     0.031 C 
ATOM     62  C   UNL A   1      40.893  33.426  31.902  1.00  0.00     0.037 A 
BRANCH  49  63
ATOM     63  C   UNL A   1      35.531  33.057  30.630  1.00  0.00     0.064 A 
ATOM     64  C   UNL A   1      34.796  34.128  30.050  1.00  0.00     0.173 A 
ATOM     65  C   UNL A   1      35.187  32.719  31.943  1.00  0.00     0.173 A 
ATOM     66  F   UNL A   1      34.995  34.487  28.772  1.00  0.00    -0.203 F 
ATOM     67  C   UNL A   1      33.919  34.915  30.794  1.00  0.00     0.198 A 
ATOM     68  C   UNL A   1      34.263  33.480  32.670  1.00  0.00     0.198 A 
ATOM     69  F   UNL A   1      35.805  31.722  32.585  1.00  0.00    -0.203 F 
ATOM     70  F   UNL A   1      33.382  36.015  30.248  1.00  0.00    -0.200 F 
ATOM     71  C   UNL A   1      33.672  34.604  32.114  1.00  0.00     0.200 A 
ATOM     72  F   UNL A   1      34.008  33.167  33.948  1.00  0.00    -0.200 F 
ATOM     73  F   UNL A   1      32.894  35.401  32.859  1.00  0.00    -0.200 F 
ENDBRANCH  49  63
BRANCH  50  74
ATOM     74  C   UNL A   1      46.063  31.732  30.216  1.00  0.00     0.064 A 
ATOM     75  C   UNL A   1      46.770  32.282  29.142  1.00  0.00     0.173 A 
ATOM     76  C   UNL A   1      46.873  31.488  31.369  1.00  0.00     0.173 A 
ATOM     77  F   UNL A   1      46.189  32.442  27.947  1.00  0.00    -0.203 F 
ATOM     78  C   UNL A   1      48.120  32.677  29.259  1.00  0.00     0.198 A 
ATOM     79  C   UNL A   1      48.189  31.932  31.507  1.00  0.00     0.198 A 
ATOM     80  F   UNL A   1      46.414  30.805  32.425  1.00  0.00    -0.203 F 
ATOM     81  F   UNL A   1      48.754  33.207  28.202  1.00  0.00    -0.200 F 
ATOM     82  C   UNL A   1      48.811  32.549  30.453  1.00  0.00     0.200 A 
ATOM     83  F   UNL A   1      48.825  31.771  32.677  1.00  0.00    -0.200 F 
ATOM     84  F   UNL A   1      50.066  32.999  30.584  1.00  0.00    -0.200 F 
ENDBRANCH  50  74
BRANCH  62  85
ATOM     85  C   UNL A   1      40.713  32.390  33.000  1.00  0.00     0.064 A 
ATOM     86  C   UNL A   1      41.182  32.661  34.295  1.00  0.00     0.173 A 
ATOM     87  C   UNL A   1      40.213  31.092  32.793  1.00  0.00     0.173 A 
ATOM     88  F   UNL A   1      41.654  33.881  34.591  1.00  0.00    -0.203 F 
ATOM     89  C   UNL A   1      41.175  31.690  35.302  1.00  0.00     0.198 A 
ATOM     90  C   UNL A   1      40.200  30.119  33.797  1.00  0.00     0.198 A 
ATOM     91  F   UNL A   1      39.717  30.735  31.611  1.00  0.00    -0.203 F 
ATOM     92  F   UNL A   1      41.637  31.993  36.523  1.00  0.00    -0.200 F 
ATOM     93  C   UNL A   1      40.688  30.419  35.052  1.00  0.00     0.200 A 
ATOM     94  F   UNL A   1      39.707  28.896  33.542  1.00  0.00    -0.200 F 
ATOM     95  F   UNL A   1      40.672  29.492  36.021  1.00  0.00    -0.200 F 
ENDBRANCH  62  85
ENDBRANCH  36  37
ENDBRANCH  28  31
ENDBRANCH  26  27
ENDBRANCH  25  26
ENDBRANCH  24  25
ENDBRANCH   1  24
TORSDOF 15
ENDMDL
MODEL 3
REMARK VINA RESULT:     -12.3      1.512      2.703
REMARK SMILES O=C(Cc1cccn1-c1ccc2c(c1)OCCO2)NCCCCCCNC(=O)c1ccc(-c2c3nc(c(-c4c(F)c(F)c(F)c(F)c4F)c4ccc([nH]4)c(-c4c(F)c(F)c(F)c(F)c4F)c4nc(c(-c5c(F)c(F)c(F)c(F)c5F)c5ccc2[nH]5)C=C4)C=C3)cc1
REMARK SMILES IDX 22 1 21 2 20 3 19 4 1 5 2 6 3 8 4 9 5 10 8 11 6 12 7 13 9 14
REMARK SMILES IDX 10 15 14 16 11 17 13 18 12 19 15 20 18 21 16 22 17 23 23 24
REMARK SMILES IDX 24 25 25 26 26 27 27 28 28 30 29 31 30 32 91 33 31 34 90 35
REMARK SMILES IDX 32 36 33 37 34 38 84 39 35 40 89 41 83 42 85 43 36 44 88 45
REMARK SMILES IDX 82 46 81 47 37 49 69 50 49 51 68 52 50 53 53 54 67 55 86 56
REMARK SMILES IDX 51 57 52 58 66 60 87 61 54 62 38 63 39 64 47 65 40 66 41 67
REMARK SMILES IDX 45 68 48 69 42 70 43 71 46 72 44 73 70 74 71 75 79 76 72 77
REMARK SMILES IDX 73 78 77 79 80 80 74 81 75 82 78 83 76 84 55 85 56 86 64 87
REMARK SMILES IDX 57 88 58 89 62 90 65 91 59 92 60 93 63 94 61 95
REMARK H PARENT 19 7 26 29 85 48 53 59
REMARK Flexibility Score: inf
ROOT
ATOM      1  C   UNL A   1      33.143  26.463  25.387  1.00  0.00     0.002 C 
ENDROOT
BRANCH   1   2
ATOM      2  C   UNL A   1      31.712  25.909  25.387  1.00  0.00     0.021 C 
BRANCH   2   3
ATOM      3  C   UNL A   1      31.562  24.525  26.016  1.00  0.00     0.116 C 
BRANCH   3   4
ATOM      4  N   UNL A   1      32.850  23.923  26.270  1.00  0.00    -0.356 N 
ATOM      5  O   UNL A   1      32.202  22.669  28.086  1.00  0.00    -0.275 OA
ATOM      6  C   UNL A   1      33.065  23.013  27.283  1.00  0.00     0.225 C 
ATOM      7  H   UNL A   1      33.608  24.173  25.694  1.00  0.00     0.163 HD
BRANCH   6   8
ATOM      8  C   UNL A   1      34.493  22.498  27.340  1.00  0.00     0.154 C 
BRANCH   8   9
ATOM      9  C   UNL A   1      35.294  22.871  26.117  1.00  0.00     0.032 A 
ATOM     10  C   UNL A   1      36.139  23.953  25.906  1.00  0.00     0.024 A 
ATOM     11  N   UNL A   1      35.420  22.035  25.010  1.00  0.00    -0.320 N 
ATOM     12  C   UNL A   1      36.868  23.723  24.721  1.00  0.00     0.020 A 
ATOM     13  C   UNL A   1      36.447  22.515  24.221  1.00  0.00     0.091 A 
BRANCH  11  14
ATOM     14  C   UNL A   1      34.662  20.880  24.698  1.00  0.00     0.049 A 
ATOM     15  C   UNL A   1      33.322  21.016  24.310  1.00  0.00     0.031 A 
ATOM     16  C   UNL A   1      35.234  19.611  24.838  1.00  0.00     0.077 A 
ATOM     17  C   UNL A   1      32.567  19.878  24.024  1.00  0.00     0.052 A 
ATOM     18  C   UNL A   1      34.468  18.480  24.567  1.00  0.00     0.163 A 
ATOM     19  C   UNL A   1      33.134  18.612  24.170  1.00  0.00     0.161 A 
ATOM     20  O   UNL A   1      35.086  17.268  24.740  1.00  0.00    -0.486 OA
ATOM     21  O   UNL A   1      32.319  17.540  23.912  1.00  0.00    -0.486 OA
ATOM     22  C   UNL A   1      34.332  16.201  24.155  1.00  0.00     0.271 C 
ATOM     23  C   UNL A   1      32.854  16.339  24.481  1.00  0.00     0.271 C 
ENDBRANCH  11  14
ENDBRANCH   8   9
ENDBRANCH   6   8
ENDBRANCH   3   4
ENDBRANCH   2   3
ENDBRANCH   1   2
BRANCH   1  24
ATOM     24  C   UNL A   1      33.262  27.975  25.166  1.00  0.00     0.002 C 
BRANCH  24  25
ATOM     25  C   UNL A   1      33.514  28.803  26.432  1.00  0.00     0.021 C 
BRANCH  25  26
ATOM     26  C   UNL A   1      34.984  28.874  26.845  1.00  0.00     0.116 C 
BRANCH  26  27
ATOM     27  N   UNL A   1      35.353  30.228  27.222  1.00  0.00    -0.352 N 
ATOM     28  C   UNL A   1      36.361  30.668  28.040  1.00  0.00     0.251 C 
ATOM     29  H   UNL A   1      34.794  30.938  26.831  1.00  0.00     0.163 HD
ATOM     30  O   UNL A   1      36.275  31.776  28.554  1.00  0.00    -0.269 OA
BRANCH  28  31
ATOM     31  C   UNL A   1      37.552  29.836  28.315  1.00  0.00     0.039 A 
ATOM     32  C   UNL A   1      38.553  29.786  27.335  1.00  0.00     0.014 A 
ATOM     33  C   UNL A   1      37.640  29.027  29.453  1.00  0.00     0.014 A 
ATOM     34  C   UNL A   1      39.661  28.968  27.518  1.00  0.00     0.010 A 
ATOM     35  C   UNL A   1      38.760  28.228  29.654  1.00  0.00     0.010 A 
ATOM     36  C   UNL A   1      39.774  28.211  28.691  1.00  0.00    -0.014 A 
BRANCH  36  37
ATOM     37  C   UNL A   1      41.070  27.561  28.986  1.00  0.00     0.031 A 
ATOM     38  C   UNL A   1      41.097  26.116  28.411  1.00  0.00     0.074 A 
ATOM     39  C   UNL A   1      41.974  28.305  29.698  1.00  0.00     0.049 A 
ATOM     40  N   UNL A   1      41.787  25.073  28.768  1.00  0.00    -0.248 NA
ATOM     41  C   UNL A   1      40.173  25.765  27.292  1.00  0.00     0.031 C 
ATOM     42  C   UNL A   1      41.782  29.721  30.096  1.00  0.00     0.029 A 
ATOM     43  N   UNL A   1      43.221  28.052  30.238  1.00  0.00    -0.354 N 
ATOM     44  C   UNL A   1      41.544  24.042  27.824  1.00  0.00     0.074 A 
ATOM     45  C   UNL A   1      40.459  24.491  27.009  1.00  0.00     0.031 C 
ATOM     46  C   UNL A   1      42.804  30.159  30.867  1.00  0.00     0.029 A 
ATOM     47  C   UNL A   1      43.766  29.090  31.050  1.00  0.00     0.049 A 
ATOM     48  H   UNL A   1      43.702  27.208  30.072  1.00  0.00     0.167 HD
ATOM     49  C   UNL A   1      42.350  22.944  27.689  1.00  0.00     0.037 A 
ATOM     50  C   UNL A   1      44.880  29.063  31.854  1.00  0.00     0.037 A 
ATOM     51  C   UNL A   1      43.364  22.982  28.684  1.00  0.00     0.049 A 
ATOM     52  C   UNL A   1      45.503  27.771  31.554  1.00  0.00     0.074 A 
ATOM     53  C   UNL A   1      43.331  22.756  30.033  1.00  0.00     0.029 A 
ATOM     54  N   UNL A   1      44.519  23.648  28.360  1.00  0.00    -0.354 N 
ATOM     55  N   UNL A   1      46.151  27.508  30.460  1.00  0.00    -0.248 NA
ATOM     56  C   UNL A   1      45.301  26.661  32.490  1.00  0.00     0.031 C 
ATOM     57  C   UNL A   1      44.205  23.740  30.535  1.00  0.00     0.029 A 
ATOM     58  C   UNL A   1      44.917  24.326  29.481  1.00  0.00     0.049 A 
ATOM     59  H   UNL A   1      44.975  23.639  27.487  1.00  0.00     0.167 HD
ATOM     60  C   UNL A   1      46.125  26.136  30.440  1.00  0.00     0.074 A 
ATOM     61  C   UNL A   1      45.910  25.701  31.802  1.00  0.00     0.031 C 
ATOM     62  C   UNL A   1      45.739  25.496  29.309  1.00  0.00     0.037 A 
BRANCH  49  63
ATOM     63  C   UNL A   1      42.526  21.907  26.608  1.00  0.00     0.064 A 
ATOM     64  C   UNL A   1      42.050  20.591  26.865  1.00  0.00     0.173 A 
ATOM     65  C   UNL A   1      43.451  22.029  25.566  1.00  0.00     0.173 A 
ATOM     66  F   UNL A   1      41.108  20.370  27.796  1.00  0.00    -0.203 F 
ATOM     67  C   UNL A   1      42.600  19.469  26.250  1.00  0.00     0.198 A 
ATOM     68  C   UNL A   1      43.961  20.901  24.910  1.00  0.00     0.198 A 
ATOM     69  F   UNL A   1      43.959  23.220  25.228  1.00  0.00    -0.203 F 
ATOM     70  F   UNL A   1      42.238  18.241  26.650  1.00  0.00    -0.200 F 
ATOM     71  C   UNL A   1      43.576  19.623  25.288  1.00  0.00     0.200 A 
ATOM     72  F   UNL A   1      44.896  21.053  23.963  1.00  0.00    -0.200 F 
ATOM     73  F   UNL A   1      44.168  18.549  24.750  1.00  0.00    -0.200 F 
ENDBRANCH  49  63
BRANCH  50  74
ATOM     74  C   UNL A   1      45.554  29.876  32.945  1.00  0.00     0.064 A 
ATOM     75  C   UNL A   1      45.145  29.983  34.278  1.00  0.00     0.173 A 
ATOM     76  C   UNL A   1      46.782  30.555  32.666  1.00  0.00     0.173 A 
ATOM     77  F   UNL A   1      43.952  29.522  34.670  1.00  0.00    -0.203 F 
ATOM     78  C   UNL A   1      45.956  30.589  35.263  1.00  0.00     0.198 A 
ATOM     79  C   UNL A   1      47.611  31.100  33.647  1.00  0.00     0.198 A 
ATOM     80  F   UNL A   1      47.235  30.713  31.417  1.00  0.00    -0.203 F 
ATOM     81  F   UNL A   1      45.524  30.661  36.531  1.00  0.00    -0.200 F 
ATOM     82  C   UNL A   1      47.207  31.100  34.956  1.00  0.00     0.200 A 
ATOM     83  F   UNL A   1      48.808  31.600  33.301  1.00  0.00    -0.200 F 
ATOM     84  F   UNL A   1      48.007  31.601  35.907  1.00  0.00    -0.200 F 
ENDBRANCH  50  74
BRANCH  62  85
ATOM     85  C   UNL A   1      45.899  26.321  28.041  1.00  0.00     0.064 A 
ATOM     86  C   UNL A   1      47.181  26.710  27.623  1.00  0.00     0.173 A 
ATOM     87  C   UNL A   1      44.828  26.849  27.297  1.00  0.00     0.173 A 
ATOM     88  F   UNL A   1      48.262  26.236  28.259  1.00  0.00    -0.203 F 
ATOM     89  C   UNL A   1      47.373  27.589  26.551  1.00  0.00     0.198 A 
ATOM     90  C   UNL A   1      45.015  27.724  26.224  1.00  0.00     0.198 A 
ATOM     91  F   UNL A   1      43.571  26.523  27.589  1.00  0.00    -0.203 F 
ATOM     92  F   UNL A   1      48.616  27.937  26.191  1.00  0.00    -0.200 F 
ATOM     93  C   UNL A   1      46.291  28.099  25.855  1.00  0.00     0.200 A 
ATOM     94  F   UNL A   1      43.955  28.194  25.547  1.00  0.00    -0.200 F 
ATOM     95  F   UNL A   1      46.477  28.933  24.821  1.00  0.00    -0.200 F 
ENDBRANCH  62  85
ENDBRANCH  36  37
ENDBRANCH  28  31
ENDBRANCH  26  27
ENDBRANCH  25  26
ENDBRANCH  24  25
ENDBRANCH   1  24
TORSDOF 15
ENDMDL
