MODEL 1
REMARK VINA RESULT:     -11.9      0.000      0.000
REMARK SMILES COc1cc(F)ccc1-c1ccc(=O)n(CC(=O)NCc2ccc(C(=O)NCCCCCCNC(=O)c3ccc(-c4c5nc(c(-c6c(F)c(F)c(F)c(F)c6F)c6ccc([nH]6)c(-c6c(F)c(F)c(F)c(F)c6F)c6nc(c(-c7c(F)c(F)c(F)c(F)c7F)c7ccc4[nH]7)C=C6)C=C5)cc3)cc2)n1
REMARK SMILES IDX 28 1 27 2 25 3 26 4 24 6 21 7 22 8 101 9 23 10 100 11 20 12
REMARK SMILES IDX 19 13 17 14 18 15 16 17 15 18 10 19 11 20 102 21 12 22 13 23
REMARK SMILES IDX 14 24 9 25 3 26 4 27 5 28 8 29 6 30 7 31 2 32 1 33 29 34
REMARK SMILES IDX 30 35 31 36 32 37 33 38 34 39 35 40 36 42 37 43 38 44 99 45
REMARK SMILES IDX 39 46 98 47 40 48 41 49 42 50 92 51 43 52 97 53 91 54 93 55
REMARK SMILES IDX 44 56 96 57 90 58 89 59 45 61 77 62 57 63 76 64 58 65 61 66
REMARK SMILES IDX 75 67 94 68 59 69 60 70 74 72 95 73 62 74 46 75 47 76 55 77
REMARK SMILES IDX 48 78 49 79 53 80 56 81 50 82 51 83 54 84 52 85 78 86 79 87
REMARK SMILES IDX 87 88 80 89 81 90 85 91 88 92 82 93 83 94 86 95 84 96 63 97
REMARK SMILES IDX 64 98 72 99 65 100 66 101 70 102 73 103 67 104 68 105 71 106
REMARK SMILES IDX 69 107
REMARK H PARENT 27 5 19 16 34 41 93 60 61 71
REMARK Flexibility Score: inf
ROOT
ATOM      1  C   UNL A   1      33.113  29.295  23.301  1.00  0.00     0.116 C 
ENDROOT
BRANCH   1   2
ATOM      2  N   UNL A   1      31.909  29.335  22.499  1.00  0.00    -0.352 N 
ATOM      3  C   UNL A   1      30.751  28.602  22.586  1.00  0.00     0.251 C 
ATOM      4  O   UNL A   1      29.871  28.805  21.751  1.00  0.00    -0.269 OA
ATOM      5  H   UNL A   1      31.922  29.997  21.771  1.00  0.00     0.163 HD
BRANCH   3   6
ATOM      6  C   UNL A   1      30.556  27.536  23.606  1.00  0.00     0.039 A 
ATOM      7  C   UNL A   1      30.311  25.370  25.409  1.00  0.00    -0.029 A 
ATOM      8  C   UNL A   1      30.108  25.191  24.036  1.00  0.00     0.006 A 
ATOM      9  C   UNL A   1      30.557  26.669  25.875  1.00  0.00     0.006 A 
ATOM     10  C   UNL A   1      30.245  26.255  23.142  1.00  0.00     0.014 A 
ATOM     11  C   UNL A   1      30.638  27.747  24.985  1.00  0.00     0.014 A 
BRANCH   7  12
ATOM     12  C   UNL A   1      30.348  24.200  26.363  1.00  0.00     0.151 C 
BRANCH  12  13
ATOM     13  N   UNL A   1      30.591  22.936  25.707  1.00  0.00    -0.350 N 
ATOM     14  C   UNL A   1      31.718  22.168  25.693  1.00  0.00     0.242 C 
ATOM     15  O   UNL A   1      31.589  20.999  25.314  1.00  0.00    -0.273 OA
ATOM     16  H   UNL A   1      29.831  22.576  25.195  1.00  0.00     0.163 HD
BRANCH  14  17
ATOM     17  C   UNL A   1      33.042  22.659  26.287  1.00  0.00     0.248 C 
BRANCH  17  18
ATOM     18  N   UNL A   1      34.160  22.669  25.350  1.00  0.00    -0.220 N 
ATOM     19  C   UNL A   1      36.283  21.964  24.885  1.00  0.00     0.095 A 
ATOM     20  C   UNL A   1      36.272  22.575  23.544  1.00  0.00     0.037 A 
ATOM     21  N   UNL A   1      35.311  22.012  25.741  1.00  0.00    -0.169 NA
ATOM     22  C   UNL A   1      35.129  23.150  23.168  1.00  0.00     0.075 A 
ATOM     23  C   UNL A   1      33.961  23.184  24.074  1.00  0.00     0.267 A 
ATOM     24  O   UNL A   1      32.919  23.696  23.678  1.00  0.00    -0.268 OA
BRANCH  19  25
ATOM     25  C   UNL A   1      37.520  21.247  25.235  1.00  0.00     0.044 A 
ATOM     26  C   UNL A   1      38.596  21.949  25.799  1.00  0.00     0.131 A 
ATOM     27  C   UNL A   1      39.765  21.261  26.123  1.00  0.00     0.086 A 
ATOM     28  C   UNL A   1      39.850  19.896  25.857  1.00  0.00     0.126 A 
ATOM     29  C   UNL A   1      37.612  19.876  24.967  1.00  0.00     0.017 A 
ATOM     30  F   UNL A   1      40.973  19.236  26.171  1.00  0.00    -0.207 F 
ATOM     31  C   UNL A   1      38.789  19.199  25.283  1.00  0.00     0.040 A 
BRANCH  26  32
ATOM     32  O   UNL A   1      38.419  23.272  26.104  1.00  0.00    -0.496 OA
ATOM     33  C   UNL A   1      39.145  23.697  27.256  1.00  0.00     0.278 C 
ENDBRANCH  26  32
ENDBRANCH  19  25
ENDBRANCH  17  18
ENDBRANCH  14  17
ENDBRANCH  12  13
ENDBRANCH   7  12
ENDBRANCH   3   6
ENDBRANCH   1   2
BRANCH   1  34
ATOM     34  C   UNL A   1      34.036  28.126  22.973  1.00  0.00     0.021 C 
BRANCH  34  35
ATOM     35  C   UNL A   1      33.842  26.837  23.777  1.00  0.00     0.002 C 
BRANCH  35  36
ATOM     36  C   UNL A   1      34.106  26.904  25.283  1.00  0.00     0.002 C 
BRANCH  36  37
ATOM     37  C   UNL A   1      34.349  28.289  25.881  1.00  0.00     0.021 C 
BRANCH  37  38
ATOM     38  C   UNL A   1      33.602  28.612  27.167  1.00  0.00     0.116 C 
BRANCH  38  39
ATOM     39  N   UNL A   1      33.550  30.032  27.476  1.00  0.00    -0.352 N 
ATOM     40  C   UNL A   1      34.496  30.827  28.083  1.00  0.00     0.251 C 
ATOM     41  H   UNL A   1      32.719  30.490  27.216  1.00  0.00     0.163 HD
ATOM     42  O   UNL A   1      34.258  31.996  28.335  1.00  0.00    -0.269 OA
BRANCH  40  43
ATOM     43  C   UNL A   1      35.797  30.237  28.483  1.00  0.00     0.039 A 
ATOM     44  C   UNL A   1      35.950  29.587  29.710  1.00  0.00     0.014 A 
ATOM     45  C   UNL A   1      36.892  30.386  27.627  1.00  0.00     0.014 A 
ATOM     46  C   UNL A   1      37.225  29.250  30.156  1.00  0.00     0.010 A 
ATOM     47  C   UNL A   1      38.160  29.976  28.045  1.00  0.00     0.010 A 
ATOM     48  C   UNL A   1      38.347  29.459  29.337  1.00  0.00    -0.014 A 
BRANCH  48  49
ATOM     49  C   UNL A   1      39.710  29.173  29.857  1.00  0.00     0.031 A 
ATOM     50  C   UNL A   1      40.510  28.023  29.305  1.00  0.00     0.074 A 
ATOM     51  C   UNL A   1      40.246  29.972  30.799  1.00  0.00     0.049 A 
ATOM     52  N   UNL A   1      41.699  27.599  29.655  1.00  0.00    -0.248 NA
ATOM     53  C   UNL A   1      39.895  27.244  28.218  1.00  0.00     0.031 C 
ATOM     54  C   UNL A   1      39.582  31.131  31.395  1.00  0.00     0.029 A 
ATOM     55  N   UNL A   1      41.475  29.941  31.407  1.00  0.00    -0.354 N 
ATOM     56  C   UNL A   1      41.962  26.497  28.852  1.00  0.00     0.074 A 
ATOM     57  C   UNL A   1      40.804  26.300  28.009  1.00  0.00     0.031 C 
ATOM     58  C   UNL A   1      40.424  31.723  32.256  1.00  0.00     0.029 A 
ATOM     59  C   UNL A   1      41.662  30.951  32.318  1.00  0.00     0.049 A 
ATOM     60  H   UNL A   1      42.158  29.259  31.211  1.00  0.00     0.167 HD
ATOM     61  C   UNL A   1      43.075  25.726  28.815  1.00  0.00     0.037 A 
ATOM     62  C   UNL A   1      42.704  31.217  33.129  1.00  0.00     0.037 A 
ATOM     63  C   UNL A   1      44.241  25.942  29.631  1.00  0.00     0.049 A 
ATOM     64  C   UNL A   1      43.909  30.319  33.100  1.00  0.00     0.074 A 
ATOM     65  C   UNL A   1      45.428  25.229  29.641  1.00  0.00     0.029 A 
ATOM     66  N   UNL A   1      44.369  26.948  30.575  1.00  0.00    -0.354 N 
ATOM     67  N   UNL A   1      44.143  29.279  32.339  1.00  0.00    -0.248 NA
ATOM     68  C   UNL A   1      44.989  30.624  34.049  1.00  0.00     0.031 C 
ATOM     69  C   UNL A   1      46.259  25.779  30.621  1.00  0.00     0.029 A 
ATOM     70  C   UNL A   1      45.609  26.863  31.189  1.00  0.00     0.049 A 
ATOM     71  H   UNL A   1      43.683  27.624  30.779  1.00  0.00     0.167 HD
ATOM     72  C   UNL A   1      45.397  28.813  32.706  1.00  0.00     0.074 A 
ATOM     73  C   UNL A   1      45.883  29.692  33.750  1.00  0.00     0.031 C 
ATOM     74  C   UNL A   1      46.081  27.748  32.221  1.00  0.00     0.037 A 
BRANCH  61  75
ATOM     75  C   UNL A   1      43.097  24.565  27.865  1.00  0.00     0.064 A 
ATOM     76  C   UNL A   1      42.780  23.273  28.316  1.00  0.00     0.173 A 
ATOM     77  C   UNL A   1      43.508  24.713  26.534  1.00  0.00     0.173 A 
ATOM     78  F   UNL A   1      42.388  23.078  29.585  1.00  0.00    -0.203 F 
ATOM     79  C   UNL A   1      42.889  22.172  27.472  1.00  0.00     0.198 A 
ATOM     80  C   UNL A   1      43.593  23.612  25.685  1.00  0.00     0.198 A 
ATOM     81  F   UNL A   1      43.810  25.928  26.051  1.00  0.00    -0.203 F 
ATOM     82  F   UNL A   1      42.611  20.945  27.934  1.00  0.00    -0.200 F 
ATOM     83  C   UNL A   1      43.293  22.343  26.157  1.00  0.00     0.200 A 
ATOM     84  F   UNL A   1      43.963  23.780  24.407  1.00  0.00    -0.200 F 
ATOM     85  F   UNL A   1      43.392  21.283  25.342  1.00  0.00    -0.200 F 
ENDBRANCH  61  75
BRANCH  62  86
ATOM     86  C   UNL A   1      42.640  32.389  34.036  1.00  0.00     0.064 A 
ATOM     87  C   UNL A   1      42.149  32.273  35.345  1.00  0.00     0.173 A 
ATOM     88  C   UNL A   1      43.029  33.662  33.595  1.00  0.00     0.173 A 
ATOM     89  F   UNL A   1      41.761  31.076  35.812  1.00  0.00    -0.203 F 
ATOM     90  C   UNL A   1      42.024  33.388  36.169  1.00  0.00     0.198 A 
ATOM     91  C   UNL A   1      42.929  34.772  34.430  1.00  0.00     0.198 A 
ATOM     92  F   UNL A   1      43.523  33.819  32.359  1.00  0.00    -0.203 F 
ATOM     93  F   UNL A   1      41.514  33.254  37.401  1.00  0.00    -0.200 F 
ATOM     94  C   UNL A   1      42.417  34.637  35.712  1.00  0.00     0.200 A 
ATOM     95  F   UNL A   1      43.329  35.974  33.993  1.00  0.00    -0.200 F 
ATOM     96  F   UNL A   1      42.303  35.708  36.508  1.00  0.00    -0.200 F 
ENDBRANCH  62  86
BRANCH  74  97
ATOM     97  C   UNL A   1      47.439  27.474  32.793  1.00  0.00     0.064 A 
ATOM     98  C   UNL A   1      48.584  28.028  32.200  1.00  0.00     0.173 A 
ATOM     99  C   UNL A   1      47.614  26.590  33.866  1.00  0.00     0.173 A 
ATOM    100  F   UNL A   1      48.467  28.874  31.164  1.00  0.00    -0.203 F 
ATOM    101  C   UNL A   1      49.857  27.690  32.650  1.00  0.00     0.198 A 
ATOM    102  C   UNL A   1      48.887  26.273  34.329  1.00  0.00     0.198 A 
ATOM    103  F   UNL A   1      46.548  26.046  34.472  1.00  0.00    -0.203 F 
ATOM    104  F   UNL A   1      50.938  28.204  32.046  1.00  0.00    -0.200 F 
ATOM    105  C   UNL A   1      50.007  26.815  33.715  1.00  0.00     0.200 A 
ATOM    106  F   UNL A   1      49.032  25.441  35.369  1.00  0.00    -0.200 F 
ATOM    107  F   UNL A   1      51.233  26.491  34.148  1.00  0.00    -0.200 F 
ENDBRANCH  74  97
ENDBRANCH  48  49
ENDBRANCH  40  43
ENDBRANCH  38  39
ENDBRANCH  37  38
ENDBRANCH  36  37
ENDBRANCH  35  36
ENDBRANCH  34  35
ENDBRANCH   1  34
TORSDOF 19
ENDMDL
MODEL 2
REMARK VINA RESULT:     -11.9      3.181      8.738
REMARK SMILES COc1cc(F)ccc1-c1ccc(=O)n(CC(=O)NCc2ccc(C(=O)NCCCCCCNC(=O)c3ccc(-c4c5nc(c(-c6c(F)c(F)c(F)c(F)c6F)c6ccc([nH]6)c(-c6c(F)c(F)c(F)c(F)c6F)c6nc(c(-c7c(F)c(F)c(F)c(F)c7F)c7ccc4[nH]7)C=C6)C=C5)cc3)cc2)n1
REMARK SMILES IDX 28 1 27 2 25 3 26 4 24 6 21 7 22 8 101 9 23 10 100 11 20 12
REMARK SMILES IDX 19 13 17 14 18 15 16 17 15 18 10 19 11 20 102 21 12 22 13 23
REMARK SMILES IDX 14 24 9 25 3 26 4 27 5 28 8 29 6 30 7 31 2 32 1 33 29 34
REMARK SMILES IDX 30 35 31 36 32 37 33 38 34 39 35 40 36 42 37 43 38 44 99 45
REMARK SMILES IDX 39 46 98 47 40 48 41 49 42 50 92 51 43 52 97 53 91 54 93 55
REMARK SMILES IDX 44 56 96 57 90 58 89 59 45 61 77 62 57 63 76 64 58 65 61 66
REMARK SMILES IDX 75 67 94 68 59 69 60 70 74 72 95 73 62 74 46 75 47 76 55 77
REMARK SMILES IDX 48 78 49 79 53 80 56 81 50 82 51 83 54 84 52 85 78 86 79 87
REMARK SMILES IDX 87 88 80 89 81 90 85 91 88 92 82 93 83 94 86 95 84 96 63 97
REMARK SMILES IDX 64 98 72 99 65 100 66 101 70 102 73 103 67 104 68 105 71 106
REMARK SMILES IDX 69 107
REMARK H PARENT 27 5 19 16 34 41 93 60 61 71
REMARK Flexibility Score: inf
ROOT
ATOM      1  C   UNL A   1      36.366  21.123  25.319  1.00  0.00     0.116 C 
ENDROOT
BRANCH   1   2
ATOM      2  N   UNL A   1      35.390  20.066  25.164  1.00  0.00    -0.352 N 
ATOM      3  C   UNL A   1      34.150  20.071  24.575  1.00  0.00     0.251 C 
ATOM      4  O   UNL A   1      33.488  19.034  24.603  1.00  0.00    -0.269 OA
ATOM      5  H   UNL A   1      35.661  19.199  25.544  1.00  0.00     0.163 HD
BRANCH   3   6
ATOM      6  C   UNL A   1      33.559  21.296  23.970  1.00  0.00     0.039 A 
ATOM      7  C   UNL A   1      32.597  23.607  22.654  1.00  0.00    -0.029 A 
ATOM      8  C   UNL A   1      33.964  23.430  22.891  1.00  0.00     0.006 A 
ATOM      9  C   UNL A   1      31.709  22.648  23.162  1.00  0.00     0.006 A 
ATOM     10  C   UNL A   1      34.443  22.282  23.525  1.00  0.00     0.014 A 
ATOM     11  C   UNL A   1      32.185  21.524  23.848  1.00  0.00     0.014 A 
BRANCH   7  12
ATOM     12  C   UNL A   1      32.081  24.750  21.812  1.00  0.00     0.151 C 
BRANCH  12  13
ATOM     13  N   UNL A   1      33.066  25.782  21.585  1.00  0.00    -0.350 N 
ATOM     14  C   UNL A   1      33.077  27.078  22.007  1.00  0.00     0.242 C 
ATOM     15  O   UNL A   1      34.158  27.675  21.941  1.00  0.00    -0.273 OA
ATOM     16  H   UNL A   1      33.844  25.508  21.049  1.00  0.00     0.163 HD
BRANCH  14  17
ATOM     17  C   UNL A   1      31.869  27.718  22.699  1.00  0.00     0.248 C 
BRANCH  17  18
ATOM     18  N   UNL A   1      31.790  27.467  24.134  1.00  0.00    -0.220 N 
ATOM     19  C   UNL A   1      32.197  26.023  25.857  1.00  0.00     0.095 A 
ATOM     20  C   UNL A   1      31.755  26.995  26.873  1.00  0.00     0.037 A 
ATOM     21  N   UNL A   1      32.205  26.227  24.577  1.00  0.00    -0.169 NA
ATOM     22  C   UNL A   1      31.417  28.204  26.425  1.00  0.00     0.075 A 
ATOM     23  C   UNL A   1      31.465  28.520  24.982  1.00  0.00     0.267 A 
ATOM     24  O   UNL A   1      31.175  29.655  24.614  1.00  0.00    -0.268 OA
BRANCH  19  25
ATOM     25  C   UNL A   1      32.662  24.731  26.387  1.00  0.00     0.044 A 
ATOM     26  C   UNL A   1      31.727  23.767  26.793  1.00  0.00     0.131 A 
ATOM     27  C   UNL A   1      32.177  22.549  27.298  1.00  0.00     0.086 A 
ATOM     28  C   UNL A   1      33.547  22.322  27.413  1.00  0.00     0.126 A 
ATOM     29  C   UNL A   1      34.037  24.500  26.507  1.00  0.00     0.017 A 
ATOM     30  F   UNL A   1      33.979  21.149  27.895  1.00  0.00    -0.207 F 
ATOM     31  C   UNL A   1      34.479  23.282  27.024  1.00  0.00     0.040 A 
BRANCH  26  32
ATOM     32  O   UNL A   1      30.398  24.024  26.584  1.00  0.00    -0.496 OA
ATOM     33  C   UNL A   1      29.526  23.112  27.248  1.00  0.00     0.278 C 
ENDBRANCH  26  32
ENDBRANCH  19  25
ENDBRANCH  17  18
ENDBRANCH  14  17
ENDBRANCH  12  13
ENDBRANCH   7  12
ENDBRANCH   3   6
ENDBRANCH   1   2
BRANCH   1  34
ATOM     34  C   UNL A   1      37.786  20.715  24.938  1.00  0.00     0.021 C 
BRANCH  34  35
ATOM     35  C   UNL A   1      38.927  21.299  25.775  1.00  0.00     0.002 C 
BRANCH  35  36
ATOM     36  C   UNL A   1      40.072  20.358  26.155  1.00  0.00     0.002 C 
BRANCH  36  37
ATOM     37  C   UNL A   1      41.485  20.937  26.110  1.00  0.00     0.021 C 
BRANCH  37  38
ATOM     38  C   UNL A   1      41.602  22.412  25.749  1.00  0.00     0.116 C 
BRANCH  38  39
ATOM     39  N   UNL A   1      42.834  22.753  25.057  1.00  0.00    -0.352 N 
ATOM     40  C   UNL A   1      43.766  23.719  25.363  1.00  0.00     0.251 C 
ATOM     41  H   UNL A   1      43.029  22.219  24.254  1.00  0.00     0.163 HD
ATOM     42  O   UNL A   1      44.716  23.922  24.626  1.00  0.00    -0.269 OA
BRANCH  40  43
ATOM     43  C   UNL A   1      43.580  24.556  26.573  1.00  0.00     0.039 A 
ATOM     44  C   UNL A   1      43.154  23.998  27.780  1.00  0.00     0.014 A 
ATOM     45  C   UNL A   1      43.792  25.934  26.473  1.00  0.00     0.014 A 
ATOM     46  C   UNL A   1      42.768  24.831  28.826  1.00  0.00     0.010 A 
ATOM     47  C   UNL A   1      43.477  26.763  27.552  1.00  0.00     0.010 A 
ATOM     48  C   UNL A   1      42.906  26.225  28.717  1.00  0.00    -0.014 A 
BRANCH  48  49
ATOM     49  C   UNL A   1      42.414  27.108  29.806  1.00  0.00     0.031 A 
ATOM     50  C   UNL A   1      43.153  27.187  31.116  1.00  0.00     0.074 A 
ATOM     51  C   UNL A   1      41.323  27.872  29.605  1.00  0.00     0.049 A 
ATOM     52  N   UNL A   1      42.858  27.873  32.192  1.00  0.00    -0.248 NA
ATOM     53  C   UNL A   1      44.385  26.390  31.236  1.00  0.00     0.031 C 
ATOM     54  C   UNL A   1      40.535  27.903  28.373  1.00  0.00     0.029 A 
ATOM     55  N   UNL A   1      40.699  28.777  30.425  1.00  0.00    -0.354 N 
ATOM     56  C   UNL A   1      43.849  27.573  33.118  1.00  0.00     0.074 A 
ATOM     57  C   UNL A   1      44.745  26.628  32.490  1.00  0.00     0.031 C 
ATOM     58  C   UNL A   1      39.555  28.810  28.503  1.00  0.00     0.029 A 
ATOM     59  C   UNL A   1      39.607  29.377  29.848  1.00  0.00     0.049 A 
ATOM     60  H   UNL A   1      41.003  28.977  31.340  1.00  0.00     0.167 HD
ATOM     61  C   UNL A   1      44.002  28.053  34.376  1.00  0.00     0.037 A 
ATOM     62  C   UNL A   1      38.733  30.271  30.349  1.00  0.00     0.037 A 
ATOM     63  C   UNL A   1      43.129  29.019  34.989  1.00  0.00     0.049 A 
ATOM     64  C   UNL A   1      38.900  30.754  31.763  1.00  0.00     0.074 A 
ATOM     65  C   UNL A   1      43.222  29.585  36.250  1.00  0.00     0.029 A 
ATOM     66  N   UNL A   1      42.007  29.566  34.386  1.00  0.00    -0.354 N 
ATOM     67  N   UNL A   1      39.839  30.460  32.628  1.00  0.00    -0.248 NA
ATOM     68  C   UNL A   1      37.881  31.682  32.274  1.00  0.00     0.031 C 
ATOM     69  C   UNL A   1      42.134  30.444  36.424  1.00  0.00     0.029 A 
ATOM     70  C   UNL A   1      41.388  30.448  35.256  1.00  0.00     0.049 A 
ATOM     71  H   UNL A   1      41.697  29.358  33.475  1.00  0.00     0.167 HD
ATOM     72  C   UNL A   1      39.533  31.173  33.779  1.00  0.00     0.074 A 
ATOM     73  C   UNL A   1      38.329  31.926  33.498  1.00  0.00     0.031 C 
ATOM     74  C   UNL A   1      40.193  31.196  34.962  1.00  0.00     0.037 A 
BRANCH  61  75
ATOM     75  C   UNL A   1      45.155  27.543  35.190  1.00  0.00     0.064 A 
ATOM     76  C   UNL A   1      46.401  28.188  35.139  1.00  0.00     0.173 A 
ATOM     77  C   UNL A   1      45.052  26.372  35.954  1.00  0.00     0.173 A 
ATOM     78  F   UNL A   1      46.551  29.309  34.416  1.00  0.00    -0.203 F 
ATOM     79  C   UNL A   1      47.504  27.671  35.812  1.00  0.00     0.198 A 
ATOM     80  C   UNL A   1      46.153  25.871  36.645  1.00  0.00     0.198 A 
ATOM     81  F   UNL A   1      43.881  25.725  36.044  1.00  0.00    -0.203 F 
ATOM     82  F   UNL A   1      48.690  28.289  35.724  1.00  0.00    -0.200 F 
ATOM     83  C   UNL A   1      47.379  26.515  36.566  1.00  0.00     0.200 A 
ATOM     84  F   UNL A   1      46.026  24.764  37.391  1.00  0.00    -0.200 F 
ATOM     85  F   UNL A   1      48.440  26.022  37.219  1.00  0.00    -0.200 F 
ENDBRANCH  61  75
BRANCH  62  86
ATOM     86  C   UNL A   1      37.621  30.760  29.496  1.00  0.00     0.064 A 
ATOM     87  C   UNL A   1      37.600  32.074  29.008  1.00  0.00     0.173 A 
ATOM     88  C   UNL A   1      36.533  29.931  29.190  1.00  0.00     0.173 A 
ATOM     89  F   UNL A   1      38.618  32.907  29.278  1.00  0.00    -0.203 F 
ATOM     90  C   UNL A   1      36.522  32.550  28.268  1.00  0.00     0.198 A 
ATOM     91  C   UNL A   1      35.467  30.401  28.426  1.00  0.00     0.198 A 
ATOM     92  F   UNL A   1      36.518  28.661  29.618  1.00  0.00    -0.203 F 
ATOM     93  F   UNL A   1      36.509  33.823  27.847  1.00  0.00    -0.200 F 
ATOM     94  C   UNL A   1      35.457  31.712  27.975  1.00  0.00     0.200 A 
ATOM     95  F   UNL A   1      34.449  29.582  28.127  1.00  0.00    -0.200 F 
ATOM     96  F   UNL A   1      34.422  32.168  27.256  1.00  0.00    -0.200 F 
ENDBRANCH  62  86
BRANCH  74  97
ATOM     97  C   UNL A   1      39.648  32.075  36.046  1.00  0.00     0.064 A 
ATOM     98  C   UNL A   1      38.563  31.649  36.826  1.00  0.00     0.173 A 
ATOM     99  C   UNL A   1      40.139  33.372  36.249  1.00  0.00     0.173 A 
ATOM    100  F   UNL A   1      38.053  30.418  36.662  1.00  0.00    -0.203 F 
ATOM    101  C   UNL A   1      37.974  32.500  37.758  1.00  0.00     0.198 A 
ATOM    102  C   UNL A   1      39.563  34.211  37.198  1.00  0.00     0.198 A 
ATOM    103  F   UNL A   1      41.184  33.818  35.535  1.00  0.00    -0.203 F 
ATOM    104  F   UNL A   1      36.916  32.085  38.468  1.00  0.00    -0.200 F 
ATOM    105  C   UNL A   1      38.476  33.779  37.944  1.00  0.00     0.200 A 
ATOM    106  F   UNL A   1      40.059  35.441  37.391  1.00  0.00    -0.200 F 
ATOM    107  F   UNL A   1      37.910  34.597  38.842  1.00  0.00    -0.200 F 
ENDBRANCH  74  97
ENDBRANCH  48  49
ENDBRANCH  40  43
ENDBRANCH  38  39
ENDBRANCH  37  38
ENDBRANCH  36  37
ENDBRANCH  35  36
ENDBRANCH  34  35
ENDBRANCH   1  34
TORSDOF 19
ENDMDL
MODEL 3
REMARK VINA RESULT:     -11.8      3.561      5.463
REMARK SMILES COc1cc(F)ccc1-c1ccc(=O)n(CC(=O)NCc2ccc(C(=O)NCCCCCCNC(=O)c3ccc(-c4c5nc(c(-c6c(F)c(F)c(F)c(F)c6F)c6ccc([nH]6)c(-c6c(F)c(F)c(F)c(F)c6F)c6nc(c(-c7c(F)c(F)c(F)c(F)c7F)c7ccc4[nH]7)C=C6)C=C5)cc3)cc2)n1
REMARK SMILES IDX 28 1 27 2 25 3 26 4 24 6 21 7 22 8 101 9 23 10 100 11 20 12
REMARK SMILES IDX 19 13 17 14 18 15 16 17 15 18 10 19 11 20 102 21 12 22 13 23
REMARK SMILES IDX 14 24 9 25 3 26 4 27 5 28 8 29 6 30 7 31 2 32 1 33 29 34
REMARK SMILES IDX 30 35 31 36 32 37 33 38 34 39 35 40 36 42 37 43 38 44 99 45
REMARK SMILES IDX 39 46 98 47 40 48 41 49 42 50 92 51 43 52 97 53 91 54 93 55
REMARK SMILES IDX 44 56 96 57 90 58 89 59 45 61 77 62 57 63 76 64 58 65 61 66
REMARK SMILES IDX 75 67 94 68 59 69 60 70 74 72 95 73 62 74 46 75 47 76 55 77
REMARK SMILES IDX 48 78 49 79 53 80 56 81 50 82 51 83 54 84 52 85 78 86 79 87
REMARK SMILES IDX 87 88 80 89 81 90 85 91 88 92 82 93 83 94 86 95 84 96 63 97
REMARK SMILES IDX 64 98 72 99 65 100 66 101 70 102 73 103 67 104 68 105 71 106
REMARK SMILES IDX 69 107
REMARK H PARENT 27 5 19 16 34 41 93 60 61 71
REMARK Flexibility Score: inf
ROOT
ATOM      1  C   UNL A   1      34.261  31.978  28.013  1.00  0.00     0.116 C 
ENDROOT
BRANCH   1   2
ATOM      2  N   UNL A   1      35.252  30.925  27.967  1.00  0.00    -0.352 N 
ATOM      3  C   UNL A   1      35.171  29.639  27.492  1.00  0.00     0.251 C 
ATOM      4  O   UNL A   1      36.161  28.916  27.600  1.00  0.00    -0.269 OA
ATOM      5  H   UNL A   1      36.130  31.172  28.337  1.00  0.00     0.163 HD
BRANCH   3   6
ATOM      6  C   UNL A   1      33.917  29.076  26.920  1.00  0.00     0.039 A 
ATOM      7  C   UNL A   1      31.667  27.883  25.691  1.00  0.00    -0.029 A 
ATOM      8  C   UNL A   1      32.719  28.396  24.925  1.00  0.00     0.006 A 
ATOM      9  C   UNL A   1      31.721  28.052  27.082  1.00  0.00     0.006 A 
ATOM     10  C   UNL A   1      33.839  28.970  25.529  1.00  0.00     0.014 A 
ATOM     11  C   UNL A   1      32.817  28.680  27.686  1.00  0.00     0.014 A 
BRANCH   7  12
ATOM     12  C   UNL A   1      30.539  27.097  25.064  1.00  0.00     0.151 C 
BRANCH  12  13
ATOM     13  N   UNL A   1      30.102  25.983  25.872  1.00  0.00    -0.350 N 
ATOM     14  C   UNL A   1      30.538  24.691  25.876  1.00  0.00     0.242 C 
ATOM     15  O   UNL A   1      30.224  24.001  26.853  1.00  0.00    -0.273 OA
ATOM     16  H   UNL A   1      29.385  26.186  26.514  1.00  0.00     0.163 HD
BRANCH  14  17
ATOM     17  C   UNL A   1      31.521  24.161  24.827  1.00  0.00     0.248 C 
BRANCH  17  18
ATOM     18  N   UNL A   1      32.624  23.376  25.370  1.00  0.00    -0.220 N 
ATOM     19  C   UNL A   1      33.665  21.346  25.480  1.00  0.00     0.095 A 
ATOM     20  C   UNL A   1      34.772  21.874  26.297  1.00  0.00     0.037 A 
ATOM     21  N   UNL A   1      32.652  22.032  25.053  1.00  0.00    -0.169 NA
ATOM     22  C   UNL A   1      34.753  23.185  26.537  1.00  0.00     0.075 A 
ATOM     23  C   UNL A   1      33.658  24.036  26.024  1.00  0.00     0.267 A 
ATOM     24  O   UNL A   1      33.694  25.243  26.242  1.00  0.00    -0.268 OA
BRANCH  19  25
ATOM     25  C   UNL A   1      33.763  19.915  25.144  1.00  0.00     0.044 A 
ATOM     26  C   UNL A   1      35.003  19.370  24.778  1.00  0.00     0.131 A 
ATOM     27  C   UNL A   1      35.085  18.016  24.457  1.00  0.00     0.086 A 
ATOM     28  C   UNL A   1      33.930  17.237  24.482  1.00  0.00     0.126 A 
ATOM     29  C   UNL A   1      32.605  19.130  25.165  1.00  0.00     0.017 A 
ATOM     30  F   UNL A   1      34.010  15.935  24.177  1.00  0.00    -0.207 F 
ATOM     31  C   UNL A   1      32.694  17.779  24.831  1.00  0.00     0.040 A 
BRANCH  26  32
ATOM     32  O   UNL A   1      36.111  20.172  24.846  1.00  0.00    -0.496 OA
ATOM     33  C   UNL A   1      37.339  19.450  24.896  1.00  0.00     0.278 C 
ENDBRANCH  26  32
ENDBRANCH  19  25
ENDBRANCH  17  18
ENDBRANCH  14  17
ENDBRANCH  12  13
ENDBRANCH   7  12
ENDBRANCH   3   6
ENDBRANCH   1   2
BRANCH   1  34
ATOM     34  C   UNL A   1      34.532  33.037  29.077  1.00  0.00     0.021 C 
BRANCH  34  35
ATOM     35  C   UNL A   1      34.489  34.501  28.631  1.00  0.00     0.002 C 
BRANCH  35  36
ATOM     36  C   UNL A   1      33.154  35.237  28.767  1.00  0.00     0.002 C 
BRANCH  36  37
ATOM     37  C   UNL A   1      33.219  36.741  29.027  1.00  0.00     0.021 C 
BRANCH  37  38
ATOM     38  C   UNL A   1      33.426  37.170  30.473  1.00  0.00     0.116 C 
BRANCH  38  39
ATOM     39  N   UNL A   1      32.413  36.666  31.387  1.00  0.00    -0.352 N 
ATOM     40  C   UNL A   1      32.476  35.598  32.253  1.00  0.00     0.251 C 
ATOM     41  H   UNL A   1      31.562  37.158  31.386  1.00  0.00     0.163 HD
ATOM     42  O   UNL A   1      31.499  35.266  32.902  1.00  0.00    -0.269 OA
BRANCH  40  43
ATOM     43  C   UNL A   1      33.730  34.812  32.354  1.00  0.00     0.039 A 
ATOM     44  C   UNL A   1      33.707  33.448  32.651  1.00  0.00     0.014 A 
ATOM     45  C   UNL A   1      34.951  35.475  32.194  1.00  0.00     0.014 A 
ATOM     46  C   UNL A   1      34.893  32.791  32.965  1.00  0.00     0.010 A 
ATOM     47  C   UNL A   1      36.146  34.793  32.434  1.00  0.00     0.010 A 
ATOM     48  C   UNL A   1      36.125  33.462  32.880  1.00  0.00    -0.014 A 
BRANCH  48  49
ATOM     49  C   UNL A   1      37.375  32.775  33.297  1.00  0.00     0.031 A 
ATOM     50  C   UNL A   1      38.019  31.751  32.399  1.00  0.00     0.074 A 
ATOM     51  C   UNL A   1      37.956  33.100  34.468  1.00  0.00     0.049 A 
ATOM     52  N   UNL A   1      39.090  31.026  32.606  1.00  0.00    -0.248 NA
ATOM     53  C   UNL A   1      37.377  31.508  31.097  1.00  0.00     0.031 C 
ATOM     54  C   UNL A   1      37.444  34.091  35.414  1.00  0.00     0.029 A 
ATOM     55  N   UNL A   1      39.109  32.643  35.054  1.00  0.00    -0.354 N 
ATOM     56  C   UNL A   1      39.234  30.229  31.478  1.00  0.00     0.074 A 
ATOM     57  C   UNL A   1      38.132  30.541  30.595  1.00  0.00     0.031 C 
ATOM     58  C   UNL A   1      38.297  34.196  36.443  1.00  0.00     0.029 A 
ATOM     59  C   UNL A   1      39.383  33.236  36.261  1.00  0.00     0.049 A 
ATOM     60  H   UNL A   1      39.685  31.954  34.649  1.00  0.00     0.167 HD
ATOM     61  C   UNL A   1      40.205  29.327  31.201  1.00  0.00     0.037 A 
ATOM     62  C   UNL A   1      40.385  33.020  37.136  1.00  0.00     0.037 A 
ATOM     63  C   UNL A   1      41.320  29.040  32.065  1.00  0.00     0.049 A 
ATOM     64  C   UNL A   1      41.425  31.981  36.825  1.00  0.00     0.074 A 
ATOM     65  C   UNL A   1      42.369  28.161  31.854  1.00  0.00     0.029 A 
ATOM     66  N   UNL A   1      41.533  29.630  33.302  1.00  0.00    -0.354 N 
ATOM     67  N   UNL A   1      41.547  31.233  35.756  1.00  0.00    -0.248 NA
ATOM     68  C   UNL A   1      42.458  31.748  37.843  1.00  0.00     0.031 C 
ATOM     69  C   UNL A   1      43.196  28.190  32.981  1.00  0.00     0.029 A 
ATOM     70  C   UNL A   1      42.687  29.119  33.874  1.00  0.00     0.049 A 
ATOM     71  H   UNL A   1      40.952  30.310  33.712  1.00  0.00     0.167 HD
ATOM     72  C   UNL A   1      42.674  30.450  35.966  1.00  0.00     0.074 A 
ATOM     73  C   UNL A   1      43.209  30.824  37.259  1.00  0.00     0.031 C 
ATOM     74  C   UNL A   1      43.212  29.505  35.158  1.00  0.00     0.037 A 
BRANCH  61  75
ATOM     75  C   UNL A   1      40.115  28.568  29.909  1.00  0.00     0.064 A 
ATOM     76  C   UNL A   1      39.485  27.314  29.866  1.00  0.00     0.173 A 
ATOM     77  C   UNL A   1      40.719  29.041  28.737  1.00  0.00     0.173 A 
ATOM     78  F   UNL A   1      38.898  26.815  30.964  1.00  0.00    -0.203 F 
ATOM     79  C   UNL A   1      39.478  26.556  28.699  1.00  0.00     0.198 A 
ATOM     80  C   UNL A   1      40.689  28.290  27.564  1.00  0.00     0.198 A 
ATOM     81  F   UNL A   1      41.323  30.239  28.724  1.00  0.00    -0.203 F 
ATOM     82  F   UNL A   1      38.897  25.348  28.690  1.00  0.00    -0.200 F 
ATOM     83  C   UNL A   1      40.077  27.045  27.549  1.00  0.00     0.200 A 
ATOM     84  F   UNL A   1      41.251  28.773  26.447  1.00  0.00    -0.200 F 
ATOM     85  F   UNL A   1      40.064  26.317  26.423  1.00  0.00    -0.200 F 
ENDBRANCH  61  75
BRANCH  62  86
ATOM     86  C   UNL A   1      40.439  33.811  38.390  1.00  0.00     0.064 A 
ATOM     87  C   UNL A   1      39.692  33.441  39.518  1.00  0.00     0.173 A 
ATOM     88  C   UNL A   1      41.208  34.980  38.470  1.00  0.00     0.173 A 
ATOM     89  F   UNL A   1      38.937  32.332  39.489  1.00  0.00    -0.203 F 
ATOM     90  C   UNL A   1      39.690  34.225  40.669  1.00  0.00     0.198 A 
ATOM     91  C   UNL A   1      41.226  35.748  39.632  1.00  0.00     0.198 A 
ATOM     92  F   UNL A   1      41.954  35.363  37.425  1.00  0.00    -0.203 F 
ATOM     93  F   UNL A   1      38.936  33.869  41.718  1.00  0.00    -0.200 F 
ATOM     94  C   UNL A   1      40.460  35.376  40.726  1.00  0.00     0.200 A 
ATOM     95  F   UNL A   1      41.987  36.850  39.692  1.00  0.00    -0.200 F 
ATOM     96  F   UNL A   1      40.463  36.126  41.837  1.00  0.00    -0.200 F 
ENDBRANCH  62  86
BRANCH  74  97
ATOM     97  C   UNL A   1      44.455  28.813  35.628  1.00  0.00     0.064 A 
ATOM     98  C   UNL A   1      44.368  27.682  36.454  1.00  0.00     0.173 A 
ATOM     99  C   UNL A   1      45.728  29.323  35.339  1.00  0.00     0.173 A 
ATOM    100  F   UNL A   1      43.171  27.161  36.765  1.00  0.00    -0.203 F 
ATOM    101  C   UNL A   1      45.513  27.099  36.990  1.00  0.00     0.198 A 
ATOM    102  C   UNL A   1      46.871  28.723  35.858  1.00  0.00     0.198 A 
ATOM    103  F   UNL A   1      45.859  30.395  34.543  1.00  0.00    -0.203 F 
ATOM    104  F   UNL A   1      45.405  26.039  37.805  1.00  0.00    -0.200 F 
ATOM    105  C   UNL A   1      46.763  27.619  36.690  1.00  0.00     0.200 A 
ATOM    106  F   UNL A   1      48.080  29.214  35.553  1.00  0.00    -0.200 F 
ATOM    107  F   UNL A   1      47.864  27.056  37.205  1.00  0.00    -0.200 F 
ENDBRANCH  74  97
ENDBRANCH  48  49
ENDBRANCH  40  43
ENDBRANCH  38  39
ENDBRANCH  37  38
ENDBRANCH  36  37
ENDBRANCH  35  36
ENDBRANCH  34  35
ENDBRANCH   1  34
TORSDOF 19
ENDMDL
