MODEL 1
REMARK VINA RESULT:     -12.0      0.000      0.000
REMARK SMILES CCc1cc(C(=O)N[C@@H]2C=C[C@H](C(=O)NCCCCCCNC(=O)c3ccc(-c4c5nc(c(-c6c(F)c(F)c(F)c(F)c6F)c6ccc([nH]6)c(-c6c(F)c(F)c(F)c(F)c6F)c6nc(c(-c7c(F)c(F)c(F)c(F)c7F)c7ccc4[nH]7)C=C6)C=C5)cc3)C2)n(C)n1
REMARK SMILES IDX 18 1 17 2 16 3 15 4 13 5 14 6 12 8 9 9 10 10 88 11 11 12
REMARK SMILES IDX 8 13 6 14 7 15 5 17 3 18 4 19 91 20 89 21 90 22 2 23 1 24
REMARK SMILES IDX 19 25 20 26 21 27 22 28 23 29 24 31 25 32 26 33 87 34 27 35
REMARK SMILES IDX 86 36 28 37 29 38 30 39 80 40 31 41 85 42 79 43 81 44 32 45
REMARK SMILES IDX 84 46 78 47 77 48 33 50 65 51 45 52 64 53 46 54 49 55 63 56
REMARK SMILES IDX 82 57 47 58 48 59 62 61 83 62 50 63 34 64 35 65 43 66 36 67
REMARK SMILES IDX 37 68 41 69 44 70 38 71 39 72 42 73 40 74 66 75 67 76 75 77
REMARK SMILES IDX 68 78 69 79 73 80 76 81 70 82 71 83 74 84 72 85 51 86 52 87
REMARK SMILES IDX 60 88 53 89 54 90 58 91 61 92 55 93 56 94 59 95 57 96
REMARK H PARENT 15 7 8 16 22 30 81 49 49 60
REMARK Flexibility Score: inf
ROOT
ATOM      1  C   UNL A   1      32.404  29.884  27.130  1.00  0.00     0.002 C 
ENDROOT
BRANCH   1   2
ATOM      2  C   UNL A   1      33.778  29.372  26.683  1.00  0.00     0.021 C 
BRANCH   2   3
ATOM      3  C   UNL A   1      33.884  27.872  26.413  1.00  0.00     0.116 C 
BRANCH   3   4
ATOM      4  N   UNL A   1      33.760  27.528  25.015  1.00  0.00    -0.356 N 
ATOM      5  C   UNL A   1      32.653  27.292  24.257  1.00  0.00     0.227 C 
ATOM      6  O   UNL A   1      32.844  26.872  23.111  1.00  0.00    -0.274 OA
ATOM      7  H   UNL A   1      34.614  27.451  24.531  1.00  0.00     0.163 HD
BRANCH   5   8
ATOM      8  C   UNL A   1      31.216  27.386  24.810  1.00  0.00     0.103 C 
ATOM      9  C   UNL A   1      29.876  25.720  26.081  1.00  0.00     0.106 C 
ATOM     10  C   UNL A   1      29.351  25.931  24.707  1.00  0.00    -0.006 C 
ATOM     11  C   UNL A   1      31.114  26.617  26.160  1.00  0.00     0.047 C 
ATOM     12  C   UNL A   1      30.062  26.833  24.027  1.00  0.00    -0.016 C 
BRANCH   9  13
ATOM     13  N   UNL A   1      29.968  24.296  26.328  1.00  0.00    -0.344 N 
ATOM     14  C   UNL A   1      30.840  23.311  25.962  1.00  0.00     0.270 C 
ATOM     15  O   UNL A   1      30.467  22.146  26.107  1.00  0.00    -0.268 OA
ATOM     16  H   UNL A   1      29.231  23.961  26.889  1.00  0.00     0.164 HD
BRANCH  14  17
ATOM     17  C   UNL A   1      32.142  23.632  25.471  1.00  0.00     0.126 A 
ATOM     18  C   UNL A   1      34.332  23.958  25.232  1.00  0.00     0.063 A 
ATOM     19  C   UNL A   1      33.310  23.791  26.192  1.00  0.00     0.059 A 
ATOM     20  N   UNL A   1      33.848  23.891  23.984  1.00  0.00    -0.178 NA
ATOM     21  N   UNL A   1      32.534  23.638  24.159  1.00  0.00    -0.263 N 
ATOM     22  C   UNL A   1      31.714  23.354  23.006  1.00  0.00     0.174 C 
BRANCH  18  23
ATOM     23  C   UNL A   1      35.792  24.134  25.488  1.00  0.00     0.055 C 
ATOM     24  C   UNL A   1      36.495  22.835  25.845  1.00  0.00     0.011 C 
ENDBRANCH  18  23
ENDBRANCH  14  17
ENDBRANCH   9  13
ENDBRANCH   5   8
ENDBRANCH   3   4
ENDBRANCH   2   3
ENDBRANCH   1   2
BRANCH   1  25
ATOM     25  C   UNL A   1      31.643  30.780  26.148  1.00  0.00     0.002 C 
BRANCH  25  26
ATOM     26  C   UNL A   1      31.437  32.243  26.549  1.00  0.00     0.021 C 
BRANCH  26  27
ATOM     27  C   UNL A   1      32.539  32.886  27.387  1.00  0.00     0.116 C 
BRANCH  27  28
ATOM     28  N   UNL A   1      32.288  34.269  27.746  1.00  0.00    -0.352 N 
ATOM     29  C   UNL A   1      32.983  35.068  28.626  1.00  0.00     0.251 C 
ATOM     30  H   UNL A   1      31.519  34.693  27.301  1.00  0.00     0.163 HD
ATOM     31  O   UNL A   1      32.597  36.211  28.856  1.00  0.00    -0.269 OA
BRANCH  29  32
ATOM     32  C   UNL A   1      34.174  34.545  29.341  1.00  0.00     0.039 A 
ATOM     33  C   UNL A   1      33.988  33.926  30.583  1.00  0.00     0.014 A 
ATOM     34  C   UNL A   1      35.464  34.667  28.816  1.00  0.00     0.014 A 
ATOM     35  C   UNL A   1      35.076  33.368  31.262  1.00  0.00     0.010 A 
ATOM     36  C   UNL A   1      36.543  34.069  29.468  1.00  0.00     0.010 A 
ATOM     37  C   UNL A   1      36.358  33.408  30.693  1.00  0.00    -0.014 A 
BRANCH  37  38
ATOM     38  C   UNL A   1      37.520  32.765  31.357  1.00  0.00     0.031 A 
ATOM     39  C   UNL A   1      38.222  31.610  30.702  1.00  0.00     0.074 A 
ATOM     40  C   UNL A   1      37.897  33.168  32.585  1.00  0.00     0.049 A 
ATOM     41  N   UNL A   1      39.169  30.839  31.175  1.00  0.00    -0.248 NA
ATOM     42  C   UNL A   1      37.784  31.261  29.342  1.00  0.00     0.031 C 
ATOM     43  C   UNL A   1      37.281  34.256  33.346  1.00  0.00     0.029 A 
ATOM     44  N   UNL A   1      38.881  32.695  33.418  1.00  0.00    -0.354 N 
ATOM     45  C   UNL A   1      39.419  29.898  30.186  1.00  0.00     0.074 A 
ATOM     46  C   UNL A   1      38.514  30.183  29.092  1.00  0.00     0.031 C 
ATOM     47  C   UNL A   1      37.905  34.372  34.529  1.00  0.00     0.029 A 
ATOM     48  C   UNL A   1      38.944  33.350  34.623  1.00  0.00     0.049 A 
ATOM     49  H   UNL A   1      39.485  31.957  33.174  1.00  0.00     0.167 HD
ATOM     50  C   UNL A   1      40.325  28.892  30.188  1.00  0.00     0.037 A 
ATOM     51  C   UNL A   1      39.743  33.145  35.686  1.00  0.00     0.037 A 
ATOM     52  C   UNL A   1      41.256  28.630  31.252  1.00  0.00     0.049 A 
ATOM     53  C   UNL A   1      40.771  32.049  35.644  1.00  0.00     0.074 A 
ATOM     54  C   UNL A   1      42.241  27.659  31.321  1.00  0.00     0.029 A 
ATOM     55  N   UNL A   1      41.324  29.351  32.433  1.00  0.00    -0.354 N 
ATOM     56  N   UNL A   1      41.013  31.182  34.694  1.00  0.00    -0.248 NA
ATOM     57  C   UNL A   1      41.639  31.906  36.823  1.00  0.00     0.031 C 
ATOM     58  C   UNL A   1      42.896  27.785  32.551  1.00  0.00     0.029 A 
ATOM     59  C   UNL A   1      42.333  28.848  33.238  1.00  0.00     0.049 A 
ATOM     60  H   UNL A   1      40.741  30.110  32.667  1.00  0.00     0.167 HD
ATOM     61  C   UNL A   1      42.071  30.406  35.147  1.00  0.00     0.074 A 
ATOM     62  C   UNL A   1      42.429  30.907  36.458  1.00  0.00     0.031 C 
ATOM     63  C   UNL A   1      42.687  29.369  34.531  1.00  0.00     0.037 A 
BRANCH  50  64
ATOM     64  C   UNL A   1      40.350  27.990  28.992  1.00  0.00     0.064 A 
ATOM     65  C   UNL A   1      41.132  28.292  27.868  1.00  0.00     0.173 A 
ATOM     66  C   UNL A   1      39.610  26.799  28.986  1.00  0.00     0.173 A 
ATOM     67  F   UNL A   1      41.843  29.427  27.824  1.00  0.00    -0.203 F 
ATOM     68  C   UNL A   1      41.155  27.439  26.767  1.00  0.00     0.198 A 
ATOM     69  C   UNL A   1      39.652  25.939  27.892  1.00  0.00     0.198 A 
ATOM     70  F   UNL A   1      38.851  26.468  30.041  1.00  0.00    -0.203 F 
ATOM     71  F   UNL A   1      41.879  27.763  25.687  1.00  0.00    -0.200 F 
ATOM     72  C   UNL A   1      40.419  26.263  26.782  1.00  0.00     0.200 A 
ATOM     73  F   UNL A   1      38.944  24.801  27.909  1.00  0.00    -0.200 F 
ATOM     74  F   UNL A   1      40.443  25.443  25.722  1.00  0.00    -0.200 F 
ENDBRANCH  50  64
BRANCH  51  75
ATOM     75  C   UNL A   1      39.618  34.016  36.879  1.00  0.00     0.064 A 
ATOM     76  C   UNL A   1      38.830  33.623  37.970  1.00  0.00     0.173 A 
ATOM     77  C   UNL A   1      40.282  35.247  36.956  1.00  0.00     0.173 A 
ATOM     78  F   UNL A   1      38.159  32.463  37.927  1.00  0.00    -0.203 F 
ATOM     79  C   UNL A   1      38.703  34.437  39.093  1.00  0.00     0.198 A 
ATOM     80  C   UNL A   1      40.169  36.053  38.087  1.00  0.00     0.198 A 
ATOM     81  F   UNL A   1      41.048  35.662  35.936  1.00  0.00    -0.203 F 
ATOM     82  F   UNL A   1      37.921  34.054  40.111  1.00  0.00    -0.200 F 
ATOM     83  C   UNL A   1      39.376  35.650  39.152  1.00  0.00     0.200 A 
ATOM     84  F   UNL A   1      40.826  37.220  38.144  1.00  0.00    -0.200 F 
ATOM     85  F   UNL A   1      39.256  36.432  40.234  1.00  0.00    -0.200 F 
ENDBRANCH  51  75
BRANCH  63  86
ATOM     86  C   UNL A   1      43.834  28.729  35.249  1.00  0.00     0.064 A 
ATOM     87  C   UNL A   1      45.150  29.174  35.064  1.00  0.00     0.173 A 
ATOM     88  C   UNL A   1      43.606  27.690  36.164  1.00  0.00     0.173 A 
ATOM     89  F   UNL A   1      45.414  30.153  34.187  1.00  0.00    -0.203 F 
ATOM     90  C   UNL A   1      46.203  28.591  35.763  1.00  0.00     0.198 A 
ATOM     91  C   UNL A   1      44.660  27.120  36.872  1.00  0.00     0.198 A 
ATOM     92  F   UNL A   1      42.363  27.233  36.373  1.00  0.00    -0.203 F 
ATOM     93  F   UNL A   1      47.458  29.012  35.554  1.00  0.00    -0.200 F 
ATOM     94  C   UNL A   1      45.957  27.570  36.671  1.00  0.00     0.200 A 
ATOM     95  F   UNL A   1      44.421  26.136  37.750  1.00  0.00    -0.200 F 
ATOM     96  F   UNL A   1      46.973  27.014  37.345  1.00  0.00    -0.200 F 
ENDBRANCH  63  86
ENDBRANCH  37  38
ENDBRANCH  29  32
ENDBRANCH  27  28
ENDBRANCH  26  27
ENDBRANCH  25  26
ENDBRANCH   1  25
TORSDOF 16
ENDMDL
MODEL 2
REMARK VINA RESULT:     -12.0      0.982      2.676
REMARK SMILES CCc1cc(C(=O)N[C@@H]2C=C[C@H](C(=O)NCCCCCCNC(=O)c3ccc(-c4c5nc(c(-c6c(F)c(F)c(F)c(F)c6F)c6ccc([nH]6)c(-c6c(F)c(F)c(F)c(F)c6F)c6nc(c(-c7c(F)c(F)c(F)c(F)c7F)c7ccc4[nH]7)C=C6)C=C5)cc3)C2)n(C)n1
REMARK SMILES IDX 18 1 17 2 16 3 15 4 13 5 14 6 12 8 9 9 10 10 88 11 11 12
REMARK SMILES IDX 8 13 6 14 7 15 5 17 3 18 4 19 91 20 89 21 90 22 2 23 1 24
REMARK SMILES IDX 19 25 20 26 21 27 22 28 23 29 24 31 25 32 26 33 87 34 27 35
REMARK SMILES IDX 86 36 28 37 29 38 30 39 80 40 31 41 85 42 79 43 81 44 32 45
REMARK SMILES IDX 84 46 78 47 77 48 33 50 65 51 45 52 64 53 46 54 49 55 63 56
REMARK SMILES IDX 82 57 47 58 48 59 62 61 83 62 50 63 34 64 35 65 43 66 36 67
REMARK SMILES IDX 37 68 41 69 44 70 38 71 39 72 42 73 40 74 66 75 67 76 75 77
REMARK SMILES IDX 68 78 69 79 73 80 76 81 70 82 71 83 74 84 72 85 51 86 52 87
REMARK SMILES IDX 60 88 53 89 54 90 58 91 61 92 55 93 56 94 59 95 57 96
REMARK H PARENT 15 7 8 16 22 30 81 49 49 60
REMARK Flexibility Score: inf
ROOT
ATOM      1  C   UNL A   1      32.439  29.755  27.131  1.00  0.00     0.002 C 
ENDROOT
BRANCH   1   2
ATOM      2  C   UNL A   1      31.803  28.452  27.626  1.00  0.00     0.021 C 
BRANCH   2   3
ATOM      3  C   UNL A   1      32.091  27.202  26.795  1.00  0.00     0.116 C 
BRANCH   3   4
ATOM      4  N   UNL A   1      30.899  26.526  26.337  1.00  0.00    -0.356 N 
ATOM      5  C   UNL A   1      30.269  26.565  25.129  1.00  0.00     0.227 C 
ATOM      6  O   UNL A   1      29.176  25.994  25.056  1.00  0.00    -0.274 OA
ATOM      7  H   UNL A   1      30.472  25.942  27.005  1.00  0.00     0.163 HD
BRANCH   5   8
ATOM      8  C   UNL A   1      30.784  27.395  23.935  1.00  0.00     0.103 C 
ATOM      9  C   UNL A   1      31.847  26.656  21.811  1.00  0.00     0.106 C 
ATOM     10  C   UNL A   1      32.805  27.362  22.702  1.00  0.00    -0.006 C 
ATOM     11  C   UNL A   1      30.538  26.622  22.606  1.00  0.00     0.047 C 
ATOM     12  C   UNL A   1      32.233  27.769  23.838  1.00  0.00    -0.016 C 
BRANCH   9  13
ATOM     13  N   UNL A   1      32.467  25.436  21.340  1.00  0.00    -0.344 N 
ATOM     14  C   UNL A   1      32.912  24.291  21.935  1.00  0.00     0.270 C 
ATOM     15  O   UNL A   1      33.653  23.562  21.273  1.00  0.00    -0.268 OA
ATOM     16  H   UNL A   1      32.598  25.431  20.363  1.00  0.00     0.164 HD
BRANCH  14  17
ATOM     17  C   UNL A   1      32.495  23.943  23.256  1.00  0.00     0.126 A 
ATOM     18  C   UNL A   1      31.539  23.001  25.034  1.00  0.00     0.063 A 
ATOM     19  C   UNL A   1      31.433  23.142  23.632  1.00  0.00     0.059 A 
ATOM     20  N   UNL A   1      32.605  23.655  25.513  1.00  0.00    -0.178 NA
ATOM     21  N   UNL A   1      33.194  24.168  24.412  1.00  0.00    -0.263 N 
ATOM     22  C   UNL A   1      34.473  24.822  24.539  1.00  0.00     0.174 C 
BRANCH  18  23
ATOM     23  C   UNL A   1      30.653  22.201  25.930  1.00  0.00     0.055 C 
ATOM     24  C   UNL A   1      29.923  23.050  26.958  1.00  0.00     0.011 C 
ENDBRANCH  18  23
ENDBRANCH  14  17
ENDBRANCH   9  13
ENDBRANCH   5   8
ENDBRANCH   3   4
ENDBRANCH   2   3
ENDBRANCH   1   2
BRANCH   1  25
ATOM     25  C   UNL A   1      31.617  30.605  26.158  1.00  0.00     0.002 C 
BRANCH  25  26
ATOM     26  C   UNL A   1      31.403  32.077  26.522  1.00  0.00     0.021 C 
BRANCH  26  27
ATOM     27  C   UNL A   1      32.548  32.777  27.250  1.00  0.00     0.116 C 
BRANCH  27  28
ATOM     28  N   UNL A   1      32.268  34.150  27.625  1.00  0.00    -0.352 N 
ATOM     29  C   UNL A   1      32.936  34.947  28.527  1.00  0.00     0.251 C 
ATOM     30  H   UNL A   1      31.498  34.566  27.175  1.00  0.00     0.163 HD
ATOM     31  O   UNL A   1      32.527  36.080  28.768  1.00  0.00    -0.269 OA
BRANCH  29  32
ATOM     32  C   UNL A   1      34.125  34.434  29.252  1.00  0.00     0.039 A 
ATOM     33  C   UNL A   1      33.937  33.828  30.500  1.00  0.00     0.014 A 
ATOM     34  C   UNL A   1      35.417  34.552  28.729  1.00  0.00     0.014 A 
ATOM     35  C   UNL A   1      35.024  33.280  31.188  1.00  0.00     0.010 A 
ATOM     36  C   UNL A   1      36.495  33.964  29.391  1.00  0.00     0.010 A 
ATOM     37  C   UNL A   1      36.307  33.315  30.623  1.00  0.00    -0.014 A 
BRANCH  37  38
ATOM     38  C   UNL A   1      37.468  32.682  31.298  1.00  0.00     0.031 A 
ATOM     39  C   UNL A   1      38.199  31.547  30.640  1.00  0.00     0.074 A 
ATOM     40  C   UNL A   1      37.819  33.075  32.538  1.00  0.00     0.049 A 
ATOM     41  N   UNL A   1      39.150  30.785  31.119  1.00  0.00    -0.248 NA
ATOM     42  C   UNL A   1      37.789  31.209  29.268  1.00  0.00     0.031 C 
ATOM     43  C   UNL A   1      37.172  34.142  33.302  1.00  0.00     0.029 A 
ATOM     44  N   UNL A   1      38.796  32.606  33.380  1.00  0.00    -0.354 N 
ATOM     45  C   UNL A   1      39.431  29.861  30.121  1.00  0.00     0.074 A 
ATOM     46  C   UNL A   1      38.540  30.146  29.016  1.00  0.00     0.031 C 
ATOM     47  C   UNL A   1      37.775  34.252  34.497  1.00  0.00     0.029 A 
ATOM     48  C   UNL A   1      38.829  33.245  34.595  1.00  0.00     0.049 A 
ATOM     49  H   UNL A   1      39.415  31.881  33.136  1.00  0.00     0.167 HD
ATOM     50  C   UNL A   1      40.352  28.869  30.125  1.00  0.00     0.037 A 
ATOM     51  C   UNL A   1      39.614  33.038  35.668  1.00  0.00     0.037 A 
ATOM     52  C   UNL A   1      41.270  28.607  31.201  1.00  0.00     0.049 A 
ATOM     53  C   UNL A   1      40.659  31.959  35.629  1.00  0.00     0.074 A 
ATOM     54  C   UNL A   1      42.269  27.651  31.274  1.00  0.00     0.029 A 
ATOM     55  N   UNL A   1      41.307  29.314  32.393  1.00  0.00    -0.354 N 
ATOM     56  N   UNL A   1      40.931  31.109  34.671  1.00  0.00    -0.248 NA
ATOM     57  C   UNL A   1      41.510  31.814  36.821  1.00  0.00     0.031 C 
ATOM     58  C   UNL A   1      42.902  27.771  32.516  1.00  0.00     0.029 A 
ATOM     59  C   UNL A   1      42.310  28.815  33.207  1.00  0.00     0.049 A 
ATOM     60  H   UNL A   1      40.709  30.060  32.626  1.00  0.00     0.167 HD
ATOM     61  C   UNL A   1      41.992  30.343  35.132  1.00  0.00     0.074 A 
ATOM     62  C   UNL A   1      42.322  30.832  36.455  1.00  0.00     0.031 C 
ATOM     63  C   UNL A   1      42.635  29.325  34.513  1.00  0.00     0.037 A 
BRANCH  50  64
ATOM     64  C   UNL A   1      40.412  27.984  28.918  1.00  0.00     0.064 A 
ATOM     65  C   UNL A   1      39.662  26.802  28.843  1.00  0.00     0.173 A 
ATOM     66  C   UNL A   1      41.203  28.339  27.816  1.00  0.00     0.173 A 
ATOM     67  F   UNL A   1      38.903  26.416  29.879  1.00  0.00    -0.203 F 
ATOM     68  C   UNL A   1      39.718  25.993  27.711  1.00  0.00     0.198 A 
ATOM     69  C   UNL A   1      41.242  27.538  26.678  1.00  0.00     0.198 A 
ATOM     70  F   UNL A   1      41.936  29.462  27.842  1.00  0.00    -0.203 F 
ATOM     71  F   UNL A   1      39.021  24.849  27.673  1.00  0.00    -0.200 F 
ATOM     72  C   UNL A   1      40.504  26.364  26.629  1.00  0.00     0.200 A 
ATOM     73  F   UNL A   1      41.998  27.898  25.632  1.00  0.00    -0.200 F 
ATOM     74  F   UNL A   1      40.556  25.584  25.540  1.00  0.00    -0.200 F 
ENDBRANCH  50  64
BRANCH  51  75
ATOM     75  C   UNL A   1      39.454  33.891  36.870  1.00  0.00     0.064 A 
ATOM     76  C   UNL A   1      40.071  35.149  36.940  1.00  0.00     0.173 A 
ATOM     77  C   UNL A   1      38.684  33.474  37.963  1.00  0.00     0.173 A 
ATOM     78  F   UNL A   1      40.835  35.576  35.924  1.00  0.00    -0.203 F 
ATOM     79  C   UNL A   1      39.929  35.955  38.066  1.00  0.00     0.198 A 
ATOM     80  C   UNL A   1      38.529  34.289  39.083  1.00  0.00     0.198 A 
ATOM     81  F   UNL A   1      38.075  32.280  37.939  1.00  0.00    -0.203 F 
ATOM     82  F   UNL A   1      40.552  37.140  38.122  1.00  0.00    -0.200 F 
ATOM     83  C   UNL A   1      39.155  35.526  39.136  1.00  0.00     0.200 A 
ATOM     84  F   UNL A   1      37.775  33.875  40.111  1.00  0.00    -0.200 F 
ATOM     85  F   UNL A   1      39.017  36.303  40.219  1.00  0.00    -0.200 F 
ENDBRANCH  51  75
BRANCH  63  86
ATOM     86  C   UNL A   1      43.780  28.693  35.241  1.00  0.00     0.064 A 
ATOM     87  C   UNL A   1      43.580  27.627  36.129  1.00  0.00     0.173 A 
ATOM     88  C   UNL A   1      45.093  29.130  35.013  1.00  0.00     0.173 A 
ATOM     89  F   UNL A   1      42.340  27.188  36.388  1.00  0.00    -0.203 F 
ATOM     90  C   UNL A   1      44.657  27.027  36.774  1.00  0.00     0.198 A 
ATOM     91  C   UNL A   1      46.169  28.518  35.649  1.00  0.00     0.198 A 
ATOM     92  F   UNL A   1      45.331  30.147  34.172  1.00  0.00    -0.203 F 
ATOM     93  F   UNL A   1      44.445  26.026  37.640  1.00  0.00    -0.200 F 
ATOM     94  C   UNL A   1      45.951  27.468  36.530  1.00  0.00     0.200 A 
ATOM     95  F   UNL A   1      47.417  28.943  35.410  1.00  0.00    -0.200 F 
ATOM     96  F   UNL A   1      46.986  26.886  37.149  1.00  0.00    -0.200 F 
ENDBRANCH  63  86
ENDBRANCH  37  38
ENDBRANCH  29  32
ENDBRANCH  27  28
ENDBRANCH  26  27
ENDBRANCH  25  26
ENDBRANCH   1  25
TORSDOF 16
ENDMDL
MODEL 3
REMARK VINA RESULT:     -12.0      0.994      2.085
REMARK SMILES CCc1cc(C(=O)N[C@@H]2C=C[C@H](C(=O)NCCCCCCNC(=O)c3ccc(-c4c5nc(c(-c6c(F)c(F)c(F)c(F)c6F)c6ccc([nH]6)c(-c6c(F)c(F)c(F)c(F)c6F)c6nc(c(-c7c(F)c(F)c(F)c(F)c7F)c7ccc4[nH]7)C=C6)C=C5)cc3)C2)n(C)n1
REMARK SMILES IDX 18 1 17 2 16 3 15 4 13 5 14 6 12 8 9 9 10 10 88 11 11 12
REMARK SMILES IDX 8 13 6 14 7 15 5 17 3 18 4 19 91 20 89 21 90 22 2 23 1 24
REMARK SMILES IDX 19 25 20 26 21 27 22 28 23 29 24 31 25 32 26 33 87 34 27 35
REMARK SMILES IDX 86 36 28 37 29 38 30 39 80 40 31 41 85 42 79 43 81 44 32 45
REMARK SMILES IDX 84 46 78 47 77 48 33 50 65 51 45 52 64 53 46 54 49 55 63 56
REMARK SMILES IDX 82 57 47 58 48 59 62 61 83 62 50 63 34 64 35 65 43 66 36 67
REMARK SMILES IDX 37 68 41 69 44 70 38 71 39 72 42 73 40 74 66 75 67 76 75 77
REMARK SMILES IDX 68 78 69 79 73 80 76 81 70 82 71 83 74 84 72 85 51 86 52 87
REMARK SMILES IDX 60 88 53 89 54 90 58 91 61 92 55 93 56 94 59 95 57 96
REMARK H PARENT 15 7 8 16 22 30 81 49 49 60
REMARK Flexibility Score: inf
ROOT
ATOM      1  C   UNL A   1      32.622  29.954  27.184  1.00  0.00     0.002 C 
ENDROOT
BRANCH   1   2
ATOM      2  C   UNL A   1      32.100  28.592  27.657  1.00  0.00     0.021 C 
BRANCH   2   3
ATOM      3  C   UNL A   1      32.560  27.377  26.853  1.00  0.00     0.116 C 
BRANCH   3   4
ATOM      4  N   UNL A   1      31.523  26.391  26.652  1.00  0.00    -0.356 N 
ATOM      5  C   UNL A   1      30.544  26.317  25.708  1.00  0.00     0.227 C 
ATOM      6  O   UNL A   1      29.695  25.432  25.859  1.00  0.00    -0.274 OA
ATOM      7  H   UNL A   1      31.524  25.652  27.303  1.00  0.00     0.163 HD
BRANCH   5   8
ATOM      8  C   UNL A   1      30.379  27.355  24.579  1.00  0.00     0.103 C 
ATOM      9  C   UNL A   1      30.920  27.187  22.157  1.00  0.00     0.106 C 
ATOM     10  C   UNL A   1      31.828  28.122  22.871  1.00  0.00    -0.006 C 
ATOM     11  C   UNL A   1      29.998  26.639  23.250  1.00  0.00     0.047 C 
ATOM     12  C   UNL A   1      31.533  28.221  24.169  1.00  0.00    -0.016 C 
BRANCH   9  13
ATOM     13  N   UNL A   1      31.718  26.299  21.339  1.00  0.00    -0.344 N 
ATOM     14  C   UNL A   1      32.531  25.231  21.590  1.00  0.00     0.270 C 
ATOM     15  O   UNL A   1      33.291  24.876  20.687  1.00  0.00    -0.268 OA
ATOM     16  H   UNL A   1      31.663  26.516  20.380  1.00  0.00     0.164 HD
BRANCH  14  17
ATOM     17  C   UNL A   1      32.463  24.537  22.836  1.00  0.00     0.126 A 
ATOM     18  C   UNL A   1      32.140  23.035  24.449  1.00  0.00     0.063 A 
ATOM     19  C   UNL A   1      31.763  23.382  23.132  1.00  0.00     0.059 A 
ATOM     20  N   UNL A   1      33.032  23.901  24.948  1.00  0.00    -0.178 NA
ATOM     21  N   UNL A   1      33.250  24.764  23.933  1.00  0.00    -0.263 N 
ATOM     22  C   UNL A   1      34.283  25.762  24.069  1.00  0.00     0.174 C 
BRANCH  18  23
ATOM     23  C   UNL A   1      31.693  21.845  25.231  1.00  0.00     0.055 C 
ATOM     24  C   UNL A   1      32.268  20.539  24.710  1.00  0.00     0.011 C 
ENDBRANCH  18  23
ENDBRANCH  14  17
ENDBRANCH   9  13
ENDBRANCH   5   8
ENDBRANCH   3   4
ENDBRANCH   2   3
ENDBRANCH   1   2
BRANCH   1  25
ATOM     25  C   UNL A   1      31.680  30.796  26.318  1.00  0.00     0.002 C 
BRANCH  25  26
ATOM     26  C   UNL A   1      31.431  32.242  26.755  1.00  0.00     0.021 C 
BRANCH  26  27
ATOM     27  C   UNL A   1      32.633  33.010  27.300  1.00  0.00     0.116 C 
BRANCH  27  28
ATOM     28  N   UNL A   1      32.335  34.363  27.728  1.00  0.00    -0.352 N 
ATOM     29  C   UNL A   1      32.988  35.132  28.665  1.00  0.00     0.251 C 
ATOM     30  H   UNL A   1      31.562  34.788  27.291  1.00  0.00     0.163 HD
ATOM     31  O   UNL A   1      32.564  36.249  28.948  1.00  0.00    -0.269 OA
BRANCH  29  32
ATOM     32  C   UNL A   1      34.180  34.605  29.374  1.00  0.00     0.039 A 
ATOM     33  C   UNL A   1      34.005  34.036  30.642  1.00  0.00     0.014 A 
ATOM     34  C   UNL A   1      35.462  34.674  28.820  1.00  0.00     0.014 A 
ATOM     35  C   UNL A   1      35.093  33.475  31.319  1.00  0.00     0.010 A 
ATOM     36  C   UNL A   1      36.539  34.073  29.472  1.00  0.00     0.010 A 
ATOM     37  C   UNL A   1      36.363  33.461  30.723  1.00  0.00    -0.014 A 
BRANCH  37  38
ATOM     38  C   UNL A   1      37.522  32.813  31.387  1.00  0.00     0.031 A 
ATOM     39  C   UNL A   1      38.236  31.672  30.720  1.00  0.00     0.074 A 
ATOM     40  C   UNL A   1      37.887  33.199  32.626  1.00  0.00     0.049 A 
ATOM     41  N   UNL A   1      39.182  30.899  31.190  1.00  0.00    -0.248 NA
ATOM     42  C   UNL A   1      37.812  31.344  29.351  1.00  0.00     0.031 C 
ATOM     43  C   UNL A   1      37.258  34.271  33.398  1.00  0.00     0.029 A 
ATOM     44  N   UNL A   1      38.866  32.717  33.459  1.00  0.00    -0.354 N 
ATOM     45  C   UNL A   1      39.446  29.975  30.187  1.00  0.00     0.074 A 
ATOM     46  C   UNL A   1      38.549  30.273  29.090  1.00  0.00     0.031 C 
ATOM     47  C   UNL A   1      37.871  34.371  34.589  1.00  0.00     0.029 A 
ATOM     48  C   UNL A   1      38.914  33.352  34.675  1.00  0.00     0.049 A 
ATOM     49  H   UNL A   1      39.475  31.986  33.208  1.00  0.00     0.167 HD
ATOM     50  C   UNL A   1      40.357  28.974  30.181  1.00  0.00     0.037 A 
ATOM     51  C   UNL A   1      39.705  33.134  35.742  1.00  0.00     0.037 A 
ATOM     52  C   UNL A   1      41.279  28.699  31.249  1.00  0.00     0.049 A 
ATOM     53  C   UNL A   1      40.739  32.043  35.692  1.00  0.00     0.074 A 
ATOM     54  C   UNL A   1      42.269  27.732  31.311  1.00  0.00     0.029 A 
ATOM     55  N   UNL A   1      41.333  29.401  32.442  1.00  0.00    -0.354 N 
ATOM     56  N   UNL A   1      40.994  31.193  34.729  1.00  0.00    -0.248 NA
ATOM     57  C   UNL A   1      41.597  31.886  36.876  1.00  0.00     0.031 C 
ATOM     58  C   UNL A   1      42.912  27.841  32.549  1.00  0.00     0.029 A 
ATOM     59  C   UNL A   1      42.338  28.889  33.248  1.00  0.00     0.049 A 
ATOM     60  H   UNL A   1      40.745  30.153  32.683  1.00  0.00     0.167 HD
ATOM     61  C   UNL A   1      42.051  30.415  35.179  1.00  0.00     0.074 A 
ATOM     62  C   UNL A   1      42.395  30.896  36.501  1.00  0.00     0.031 C 
ATOM     63  C   UNL A   1      42.678  29.391  34.552  1.00  0.00     0.037 A 
BRANCH  50  64
ATOM     64  C   UNL A   1      40.397  28.091  28.971  1.00  0.00     0.064 A 
ATOM     65  C   UNL A   1      41.178  28.421  27.854  1.00  0.00     0.173 A 
ATOM     66  C   UNL A   1      39.673  26.891  28.943  1.00  0.00     0.173 A 
ATOM     67  F   UNL A   1      41.876  29.566  27.831  1.00  0.00    -0.203 F 
ATOM     68  C   UNL A   1      41.216  27.587  26.740  1.00  0.00     0.198 A 
ATOM     69  C   UNL A   1      39.728  26.050  27.835  1.00  0.00     0.198 A 
ATOM     70  F   UNL A   1      38.914  26.534  29.990  1.00  0.00    -0.203 F 
ATOM     71  F   UNL A   1      41.940  27.937  25.668  1.00  0.00    -0.200 F 
ATOM     72  C   UNL A   1      40.495  26.401  26.734  1.00  0.00     0.200 A 
ATOM     73  F   UNL A   1      39.035  24.903  27.831  1.00  0.00    -0.200 F 
ATOM     74  F   UNL A   1      40.533  25.599  25.661  1.00  0.00    -0.200 F 
ENDBRANCH  50  64
BRANCH  51  75
ATOM     75  C   UNL A   1      39.564  33.985  36.948  1.00  0.00     0.064 A 
ATOM     76  C   UNL A   1      40.216  35.224  37.027  1.00  0.00     0.173 A 
ATOM     77  C   UNL A   1      38.777  33.584  38.035  1.00  0.00     0.173 A 
ATOM     78  F   UNL A   1      40.998  35.633  36.018  1.00  0.00    -0.203 F 
ATOM     79  C   UNL A   1      40.093  36.027  38.157  1.00  0.00     0.198 A 
ATOM     80  C   UNL A   1      38.639  34.397  39.158  1.00  0.00     0.198 A 
ATOM     81  F   UNL A   1      38.133  32.408  38.001  1.00  0.00    -0.203 F 
ATOM     82  F   UNL A   1      40.749  37.194  38.223  1.00  0.00    -0.200 F 
ATOM     83  C   UNL A   1      39.301  35.615  39.221  1.00  0.00     0.200 A 
ATOM     84  F   UNL A   1      37.868  34.000  40.180  1.00  0.00    -0.200 F 
ATOM     85  F   UNL A   1      39.179  36.391  40.307  1.00  0.00    -0.200 F 
ENDBRANCH  51  75
BRANCH  63  86
ATOM     86  C   UNL A   1      43.821  28.745  35.270  1.00  0.00     0.064 A 
ATOM     87  C   UNL A   1      45.141  29.175  35.075  1.00  0.00     0.173 A 
ATOM     88  C   UNL A   1      43.588  27.716  36.194  1.00  0.00     0.173 A 
ATOM     89  F   UNL A   1      45.411  30.145  34.189  1.00  0.00    -0.203 F 
ATOM     90  C   UNL A   1      46.191  28.587  35.774  1.00  0.00     0.198 A 
ATOM     91  C   UNL A   1      44.639  27.141  36.902  1.00  0.00     0.198 A 
ATOM     92  F   UNL A   1      42.341  27.273  36.412  1.00  0.00    -0.203 F 
ATOM     93  F   UNL A   1      47.450  28.994  35.556  1.00  0.00    -0.200 F 
ATOM     94  C   UNL A   1      45.939  27.575  36.691  1.00  0.00     0.200 A 
ATOM     95  F   UNL A   1      44.394  26.166  37.789  1.00  0.00    -0.200 F 
ATOM     96  F   UNL A   1      46.952  27.015  37.365  1.00  0.00    -0.200 F 
ENDBRANCH  63  86
ENDBRANCH  37  38
ENDBRANCH  29  32
ENDBRANCH  27  28
ENDBRANCH  26  27
ENDBRANCH  25  26
ENDBRANCH   1  25
TORSDOF 16
ENDMDL
