MODEL 1
REMARK VINA RESULT:     -12.3      0.000      0.000
REMARK SMILES C[NH+](C)[C@H](CC(=O)Nc1cccc(Cl)c1)C(=O)NCCCCCCNC(=O)c1ccc(-c2c3nc(c(-c4c(F)c(F)c(F)c(F)c4F)c4ccc([nH]4)c(-c4c(F)c(F)c(F)c(F)c4F)c4nc(c(-c5c(F)c(F)c(F)c(F)c5F)c5ccc2[nH]5)C=C4)C=C3)cc1
REMARK SMILES IDX 21 1 20 2 19 3 18 4 16 5 17 6 4 8 2 9 1 10 3 11 5 13 6 14
REMARK SMILES IDX 7 15 8 16 9 18 10 19 15 20 11 21 13 22 12 23 14 24 22 25
REMARK SMILES IDX 23 26 24 27 25 28 26 29 27 31 28 32 29 33 90 34 30 35 89 36
REMARK SMILES IDX 31 37 32 38 33 39 83 40 34 41 88 42 82 43 84 44 35 45 87 46
REMARK SMILES IDX 81 47 80 48 36 50 68 51 48 52 67 53 49 54 52 55 66 56 85 57
REMARK SMILES IDX 50 58 51 59 65 61 86 62 53 63 37 64 38 65 46 66 39 67 40 68
REMARK SMILES IDX 44 69 47 70 41 71 42 72 45 73 43 74 69 75 70 76 78 77 71 78
REMARK SMILES IDX 72 79 76 80 79 81 73 82 74 83 77 84 75 85 54 86 55 87 63 88
REMARK SMILES IDX 56 89 57 90 61 91 64 92 58 93 59 94 62 95 60 96
REMARK H PARENT 18 7 2 12 8 17 25 30 84 49 52 60
REMARK Flexibility Score: inf
ROOT
ATOM      1  C   UNL A   1      32.646  29.999  27.270  1.00  0.00     0.002 C 
ENDROOT
BRANCH   1   2
ATOM      2  C   UNL A   1      32.408  28.491  27.349  1.00  0.00     0.021 C 
BRANCH   2   3
ATOM      3  C   UNL A   1      31.603  27.880  26.211  1.00  0.00     0.116 C 
BRANCH   3   4
ATOM      4  N   UNL A   1      30.772  26.769  26.609  1.00  0.00    -0.351 N 
ATOM      5  C   UNL A   1      30.356  25.680  25.909  1.00  0.00     0.278 C 
ATOM      6  O   UNL A   1      29.913  24.739  26.581  1.00  0.00    -0.268 OA
ATOM      7  H   UNL A   1      30.454  26.805  27.540  1.00  0.00     0.163 HD
BRANCH   5   8
ATOM      8  C   UNL A   1      30.386  25.581  24.365  1.00  0.00     0.283 C 
BRANCH   8   9
ATOM      9  N   UNL A   1      31.484  24.698  23.858  1.00  0.00    -0.329 N 
ATOM     10  C   UNL A   1      31.167  23.316  23.546  1.00  0.00     0.333 C 
ATOM     11  C   UNL A   1      32.732  24.783  24.608  1.00  0.00     0.333 C 
ATOM     12  H   UNL A   1      31.620  25.132  22.945  1.00  0.00     0.348 HD
ENDBRANCH   8   9
BRANCH   8  13
ATOM     13  C   UNL A   1      29.871  26.780  23.535  1.00  0.00     0.175 C 
BRANCH  13  14
ATOM     14  C   UNL A   1      30.737  27.506  22.541  1.00  0.00     0.230 C 
ATOM     15  O   UNL A   1      31.745  26.933  22.104  1.00  0.00    -0.274 OA
ATOM     16  N   UNL A   1      30.502  28.747  22.042  1.00  0.00    -0.326 N 
ATOM     17  H   UNL A   1      31.025  28.930  21.227  1.00  0.00     0.169 HD
BRANCH  16  18
ATOM     18  C   UNL A   1      29.689  29.830  22.411  1.00  0.00     0.042 A 
ATOM     19  C   UNL A   1      29.554  30.342  23.696  1.00  0.00     0.026 A 
ATOM     20  C   UNL A   1      29.050  30.498  21.353  1.00  0.00     0.046 A 
ATOM     21  C   UNL A   1      28.896  31.559  23.909  1.00  0.00     0.004 A 
ATOM     22  C   UNL A   1      28.398  31.713  21.568  1.00  0.00     0.043 A 
ATOM     23  C   UNL A   1      28.335  32.258  22.843  1.00  0.00     0.020 A 
ATOM     24  Cl  UNL A   1      27.726  32.568  20.234  1.00  0.00    -0.084 Cl
ENDBRANCH  16  18
ENDBRANCH  13  14
ENDBRANCH   8  13
ENDBRANCH   5   8
ENDBRANCH   3   4
ENDBRANCH   2   3
ENDBRANCH   1   2
BRANCH   1  25
ATOM     25  C   UNL A   1      31.683  30.761  26.362  1.00  0.00     0.002 C 
BRANCH  25  26
ATOM     26  C   UNL A   1      31.483  32.232  26.724  1.00  0.00     0.021 C 
BRANCH  26  27
ATOM     27  C   UNL A   1      32.686  32.902  27.377  1.00  0.00     0.116 C 
BRANCH  27  28
ATOM     28  N   UNL A   1      32.439  34.297  27.687  1.00  0.00    -0.352 N 
ATOM     29  C   UNL A   1      33.029  35.066  28.659  1.00  0.00     0.251 C 
ATOM     30  H   UNL A   1      31.764  34.749  27.132  1.00  0.00     0.163 HD
ATOM     31  O   UNL A   1      32.598  36.177  28.934  1.00  0.00    -0.269 OA
BRANCH  29  32
ATOM     32  C   UNL A   1      34.189  34.517  29.390  1.00  0.00     0.039 A 
ATOM     33  C   UNL A   1      33.979  33.886  30.616  1.00  0.00     0.014 A 
ATOM     34  C   UNL A   1      35.474  34.599  28.842  1.00  0.00     0.014 A 
ATOM     35  C   UNL A   1      35.056  33.296  31.278  1.00  0.00     0.010 A 
ATOM     36  C   UNL A   1      36.530  33.943  29.465  1.00  0.00     0.010 A 
ATOM     37  C   UNL A   1      36.336  33.299  30.696  1.00  0.00    -0.014 A 
BRANCH  37  38
ATOM     38  C   UNL A   1      37.489  32.659  31.376  1.00  0.00     0.031 A 
ATOM     39  C   UNL A   1      38.214  31.524  30.707  1.00  0.00     0.074 A 
ATOM     40  C   UNL A   1      37.851  33.061  32.611  1.00  0.00     0.049 A 
ATOM     41  N   UNL A   1      39.198  30.786  31.157  1.00  0.00    -0.248 NA
ATOM     42  C   UNL A   1      37.755  31.150  29.359  1.00  0.00     0.031 C 
ATOM     43  C   UNL A   1      37.202  34.125  33.378  1.00  0.00     0.029 A 
ATOM     44  N   UNL A   1      38.849  32.614  33.441  1.00  0.00    -0.354 N 
ATOM     45  C   UNL A   1      39.461  29.858  30.159  1.00  0.00     0.074 A 
ATOM     46  C   UNL A   1      38.500  30.086  29.103  1.00  0.00     0.031 C 
ATOM     47  C   UNL A   1      37.830  34.262  34.557  1.00  0.00     0.029 A 
ATOM     48  C   UNL A   1      38.897  33.270  34.648  1.00  0.00     0.049 A 
ATOM     49  H   UNL A   1      39.471  31.892  33.195  1.00  0.00     0.167 HD
ATOM     50  C   UNL A   1      40.433  28.917  30.117  1.00  0.00     0.037 A 
ATOM     51  C   UNL A   1      39.704  33.080  35.710  1.00  0.00     0.037 A 
ATOM     52  C   UNL A   1      41.403  28.712  31.159  1.00  0.00     0.049 A 
ATOM     53  C   UNL A   1      40.766  32.013  35.642  1.00  0.00     0.074 A 
ATOM     54  C   UNL A   1      42.462  27.823  31.189  1.00  0.00     0.029 A 
ATOM     55  N   UNL A   1      41.430  29.407  32.359  1.00  0.00    -0.354 N 
ATOM     56  N   UNL A   1      41.049  31.187  34.665  1.00  0.00    -0.248 NA
ATOM     57  C   UNL A   1      41.625  31.858  36.824  1.00  0.00     0.031 C 
ATOM     58  C   UNL A   1      43.096  27.939  32.429  1.00  0.00     0.029 A 
ATOM     59  C   UNL A   1      42.473  28.947  33.147  1.00  0.00     0.049 A 
ATOM     60  H   UNL A   1      40.800  30.120  32.615  1.00  0.00     0.167 HD
ATOM     61  C   UNL A   1      42.140  30.444  35.096  1.00  0.00     0.074 A 
ATOM     62  C   UNL A   1      42.475  30.925  36.420  1.00  0.00     0.031 C 
ATOM     63  C   UNL A   1      42.806  29.453  34.454  1.00  0.00     0.037 A 
BRANCH  50  64
ATOM     64  C   UNL A   1      40.501  28.035  28.903  1.00  0.00     0.064 A 
ATOM     65  C   UNL A   1      39.797  26.822  28.832  1.00  0.00     0.173 A 
ATOM     66  C   UNL A   1      41.237  28.431  27.776  1.00  0.00     0.173 A 
ATOM     67  F   UNL A   1      39.086  26.391  29.885  1.00  0.00    -0.203 F 
ATOM     68  C   UNL A   1      39.848  26.030  27.688  1.00  0.00     0.198 A 
ATOM     69  C   UNL A   1      41.260  27.652  26.622  1.00  0.00     0.198 A 
ATOM     70  F   UNL A   1      41.926  29.583  27.789  1.00  0.00    -0.203 F 
ATOM     71  F   UNL A   1      39.205  24.853  27.661  1.00  0.00    -0.200 F 
ATOM     72  C   UNL A   1      40.571  26.449  26.581  1.00  0.00     0.200 A 
ATOM     73  F   UNL A   1      41.946  28.066  25.549  1.00  0.00    -0.200 F 
ATOM     74  F   UNL A   1      40.608  25.692  25.477  1.00  0.00    -0.200 F 
ENDBRANCH  50  64
BRANCH  51  75
ATOM     75  C   UNL A   1      39.553  33.925  36.926  1.00  0.00     0.064 A 
ATOM     76  C   UNL A   1      38.787  33.491  38.017  1.00  0.00     0.173 A 
ATOM     77  C   UNL A   1      40.145  35.194  37.011  1.00  0.00     0.173 A 
ATOM     78  F   UNL A   1      38.184  32.293  37.978  1.00  0.00    -0.203 F 
ATOM     79  C   UNL A   1      38.591  34.306  39.131  1.00  0.00     0.198 A 
ATOM     80  C   UNL A   1      39.975  35.994  38.139  1.00  0.00     0.198 A 
ATOM     81  F   UNL A   1      40.893  35.656  35.999  1.00  0.00    -0.203 F 
ATOM     82  F   UNL A   1      37.802  33.890  40.131  1.00  0.00    -0.200 F 
ATOM     83  C   UNL A   1      39.188  35.555  39.192  1.00  0.00     0.200 A 
ATOM     84  F   UNL A   1      40.569  37.194  38.202  1.00  0.00    -0.200 F 
ATOM     85  F   UNL A   1      38.997  36.340  40.261  1.00  0.00    -0.200 F 
ENDBRANCH  51  75
BRANCH  63  86
ATOM     86  C   UNL A   1      43.999  28.858  35.145  1.00  0.00     0.064 A 
ATOM     87  C   UNL A   1      43.881  27.778  36.031  1.00  0.00     0.173 A 
ATOM     88  C   UNL A   1      45.287  29.348  34.874  1.00  0.00     0.173 A 
ATOM     89  F   UNL A   1      42.672  27.283  36.335  1.00  0.00    -0.203 F 
ATOM     90  C   UNL A   1      45.005  27.227  36.642  1.00  0.00     0.198 A 
ATOM     91  C   UNL A   1      46.411  28.771  35.458  1.00  0.00     0.198 A 
ATOM     92  F   UNL A   1      45.456  30.374  34.026  1.00  0.00    -0.203 F 
ATOM     93  F   UNL A   1      44.864  26.228  37.524  1.00  0.00    -0.200 F 
ATOM     94  C   UNL A   1      46.269  27.717  36.347  1.00  0.00     0.200 A 
ATOM     95  F   UNL A   1      47.632  29.235  35.158  1.00  0.00    -0.200 F 
ATOM     96  F   UNL A   1      47.350  27.177  36.925  1.00  0.00    -0.200 F 
ENDBRANCH  63  86
ENDBRANCH  37  38
ENDBRANCH  29  32
ENDBRANCH  27  28
ENDBRANCH  26  27
ENDBRANCH  25  26
ENDBRANCH   1  25
TORSDOF 17
ENDMDL
MODEL 2
REMARK VINA RESULT:     -12.0      1.014      2.090
REMARK SMILES C[NH+](C)[C@H](CC(=O)Nc1cccc(Cl)c1)C(=O)NCCCCCCNC(=O)c1ccc(-c2c3nc(c(-c4c(F)c(F)c(F)c(F)c4F)c4ccc([nH]4)c(-c4c(F)c(F)c(F)c(F)c4F)c4nc(c(-c5c(F)c(F)c(F)c(F)c5F)c5ccc2[nH]5)C=C4)C=C3)cc1
REMARK SMILES IDX 21 1 20 2 19 3 18 4 16 5 17 6 4 8 2 9 1 10 3 11 5 13 6 14
REMARK SMILES IDX 7 15 8 16 9 18 10 19 15 20 11 21 13 22 12 23 14 24 22 25
REMARK SMILES IDX 23 26 24 27 25 28 26 29 27 31 28 32 29 33 90 34 30 35 89 36
REMARK SMILES IDX 31 37 32 38 33 39 83 40 34 41 88 42 82 43 84 44 35 45 87 46
REMARK SMILES IDX 81 47 80 48 36 50 68 51 48 52 67 53 49 54 52 55 66 56 85 57
REMARK SMILES IDX 50 58 51 59 65 61 86 62 53 63 37 64 38 65 46 66 39 67 40 68
REMARK SMILES IDX 44 69 47 70 41 71 42 72 45 73 43 74 69 75 70 76 78 77 71 78
REMARK SMILES IDX 72 79 76 80 79 81 73 82 74 83 77 84 75 85 54 86 55 87 63 88
REMARK SMILES IDX 56 89 57 90 61 91 64 92 58 93 59 94 62 95 60 96
REMARK H PARENT 18 7 2 12 8 17 25 30 84 49 52 60
REMARK Flexibility Score: inf
ROOT
ATOM      1  C   UNL A   1      31.844  29.621  27.132  1.00  0.00     0.002 C 
ENDROOT
BRANCH   1   2
ATOM      2  C   UNL A   1      33.239  29.001  27.213  1.00  0.00     0.021 C 
BRANCH   2   3
ATOM      3  C   UNL A   1      33.406  27.636  26.558  1.00  0.00     0.116 C 
BRANCH   3   4
ATOM      4  N   UNL A   1      33.989  27.684  25.239  1.00  0.00    -0.351 N 
ATOM      5  C   UNL A   1      33.404  27.692  24.012  1.00  0.00     0.278 C 
ATOM      6  O   UNL A   1      34.124  28.047  23.070  1.00  0.00    -0.268 OA
ATOM      7  H   UNL A   1      34.974  27.716  25.226  1.00  0.00     0.163 HD
BRANCH   5   8
ATOM      8  C   UNL A   1      31.940  27.266  23.750  1.00  0.00     0.283 C 
BRANCH   8   9
ATOM      9  N   UNL A   1      31.826  25.882  23.190  1.00  0.00    -0.329 N 
ATOM     10  C   UNL A   1      32.270  24.769  24.010  1.00  0.00     0.333 C 
ATOM     11  C   UNL A   1      32.307  25.736  21.820  1.00  0.00     0.333 C 
ATOM     12  H   UNL A   1      30.809  25.800  23.191  1.00  0.00     0.348 HD
ENDBRANCH   8   9
BRANCH   8  13
ATOM     13  C   UNL A   1      30.900  28.358  23.410  1.00  0.00     0.175 C 
BRANCH  13  14
ATOM     14  C   UNL A   1      29.427  28.068  23.311  1.00  0.00     0.230 C 
ATOM     15  O   UNL A   1      29.021  26.943  23.636  1.00  0.00    -0.274 OA
ATOM     16  N   UNL A   1      28.470  28.948  22.917  1.00  0.00    -0.326 N 
ATOM     17  H   UNL A   1      27.564  28.656  23.168  1.00  0.00     0.169 HD
BRANCH  16  18
ATOM     18  C   UNL A   1      28.467  30.176  22.236  1.00  0.00     0.042 A 
ATOM     19  C   UNL A   1      27.949  30.399  20.966  1.00  0.00     0.026 A 
ATOM     20  C   UNL A   1      28.943  31.276  22.970  1.00  0.00     0.046 A 
ATOM     21  C   UNL A   1      27.797  31.704  20.482  1.00  0.00     0.004 A 
ATOM     22  C   UNL A   1      28.787  32.576  22.485  1.00  0.00     0.043 A 
ATOM     23  C   UNL A   1      28.196  32.796  21.249  1.00  0.00     0.020 A 
ATOM     24  Cl  UNL A   1      29.271  33.912  23.456  1.00  0.00    -0.084 Cl
ENDBRANCH  16  18
ENDBRANCH  13  14
ENDBRANCH   8  13
ENDBRANCH   5   8
ENDBRANCH   3   4
ENDBRANCH   2   3
ENDBRANCH   1   2
BRANCH   1  25
ATOM     25  C   UNL A   1      31.687  30.727  26.091  1.00  0.00     0.002 C 
BRANCH  25  26
ATOM     26  C   UNL A   1      31.421  32.118  26.665  1.00  0.00     0.021 C 
BRANCH  26  27
ATOM     27  C   UNL A   1      32.641  32.813  27.258  1.00  0.00     0.116 C 
BRANCH  27  28
ATOM     28  N   UNL A   1      32.380  34.201  27.584  1.00  0.00    -0.352 N 
ATOM     29  C   UNL A   1      32.968  34.967  28.560  1.00  0.00     0.251 C 
ATOM     30  H   UNL A   1      31.696  34.652  27.038  1.00  0.00     0.163 HD
ATOM     31  O   UNL A   1      32.527  36.070  28.849  1.00  0.00    -0.269 OA
BRANCH  29  32
ATOM     32  C   UNL A   1      34.140  34.423  29.277  1.00  0.00     0.039 A 
ATOM     33  C   UNL A   1      33.938  33.717  30.462  1.00  0.00     0.014 A 
ATOM     34  C   UNL A   1      35.427  34.587  28.755  1.00  0.00     0.014 A 
ATOM     35  C   UNL A   1      35.029  33.133  31.108  1.00  0.00     0.010 A 
ATOM     36  C   UNL A   1      36.500  33.939  29.357  1.00  0.00     0.010 A 
ATOM     37  C   UNL A   1      36.315  33.219  30.548  1.00  0.00    -0.014 A 
BRANCH  37  38
ATOM     38  C   UNL A   1      37.484  32.587  31.209  1.00  0.00     0.031 A 
ATOM     39  C   UNL A   1      38.212  31.465  30.524  1.00  0.00     0.074 A 
ATOM     40  C   UNL A   1      37.857  32.986  32.441  1.00  0.00     0.049 A 
ATOM     41  N   UNL A   1      39.209  30.735  30.957  1.00  0.00    -0.248 NA
ATOM     42  C   UNL A   1      37.740  31.094  29.179  1.00  0.00     0.031 C 
ATOM     43  C   UNL A   1      37.206  34.038  33.223  1.00  0.00     0.029 A 
ATOM     44  N   UNL A   1      38.870  32.545  33.256  1.00  0.00    -0.354 N 
ATOM     45  C   UNL A   1      39.469  29.815  29.950  1.00  0.00     0.074 A 
ATOM     46  C   UNL A   1      38.493  30.039  28.907  1.00  0.00     0.031 C 
ATOM     47  C   UNL A   1      37.848  34.175  34.395  1.00  0.00     0.029 A 
ATOM     48  C   UNL A   1      38.926  33.194  34.466  1.00  0.00     0.049 A 
ATOM     49  H   UNL A   1      39.496  31.831  32.999  1.00  0.00     0.167 HD
ATOM     50  C   UNL A   1      40.451  28.885  29.890  1.00  0.00     0.037 A 
ATOM     51  C   UNL A   1      39.748  33.007  35.517  1.00  0.00     0.037 A 
ATOM     52  C   UNL A   1      41.436  28.684  30.919  1.00  0.00     0.049 A 
ATOM     53  C   UNL A   1      40.821  31.952  35.429  1.00  0.00     0.074 A 
ATOM     54  C   UNL A   1      42.505  27.807  30.930  1.00  0.00     0.029 A 
ATOM     55  N   UNL A   1      41.471  29.372  32.123  1.00  0.00    -0.354 N 
ATOM     56  N   UNL A   1      41.100  31.134  34.443  1.00  0.00    -0.248 NA
ATOM     57  C   UNL A   1      41.696  31.799  36.599  1.00  0.00     0.031 C 
ATOM     58  C   UNL A   1      43.153  27.922  32.163  1.00  0.00     0.029 A 
ATOM     59  C   UNL A   1      42.528  28.919  32.894  1.00  0.00     0.049 A 
ATOM     60  H   UNL A   1      40.837  30.077  32.391  1.00  0.00     0.167 HD
ATOM     61  C   UNL A   1      42.205  30.401  34.857  1.00  0.00     0.074 A 
ATOM     62  C   UNL A   1      42.550  30.877  36.179  1.00  0.00     0.031 C 
ATOM     63  C   UNL A   1      42.873  29.421  34.201  1.00  0.00     0.037 A 
BRANCH  50  64
ATOM     64  C   UNL A   1      40.514  28.011  28.670  1.00  0.00     0.064 A 
ATOM     65  C   UNL A   1      41.265  28.372  27.541  1.00  0.00     0.173 A 
ATOM     66  C   UNL A   1      39.856  26.772  28.649  1.00  0.00     0.173 A 
ATOM     67  F   UNL A   1      41.905  29.551  27.504  1.00  0.00    -0.203 F 
ATOM     68  C   UNL A   1      41.336  27.538  26.429  1.00  0.00     0.198 A 
ATOM     69  C   UNL A   1      39.955  25.925  27.548  1.00  0.00     0.198 A 
ATOM     70  F   UNL A   1      39.127  26.375  29.703  1.00  0.00    -0.203 F 
ATOM     71  F   UNL A   1      42.022  27.925  25.344  1.00  0.00    -0.200 F 
ATOM     72  C   UNL A   1      40.689  26.311  26.437  1.00  0.00     0.200 A 
ATOM     73  F   UNL A   1      39.343  24.733  27.564  1.00  0.00    -0.200 F 
ATOM     74  F   UNL A   1      40.769  25.502  25.371  1.00  0.00    -0.200 F 
ENDBRANCH  50  64
BRANCH  51  75
ATOM     75  C   UNL A   1      39.604  33.842  36.740  1.00  0.00     0.064 A 
ATOM     76  C   UNL A   1      38.819  33.413  37.821  1.00  0.00     0.173 A 
ATOM     77  C   UNL A   1      40.220  35.099  36.843  1.00  0.00     0.173 A 
ATOM     78  F   UNL A   1      38.193  32.228  37.764  1.00  0.00    -0.203 F 
ATOM     79  C   UNL A   1      38.630  34.221  38.940  1.00  0.00     0.198 A 
ATOM     80  C   UNL A   1      40.056  35.891  37.977  1.00  0.00     0.198 A 
ATOM     81  F   UNL A   1      40.985  35.555  35.841  1.00  0.00    -0.203 F 
ATOM     82  F   UNL A   1      37.825  33.812  39.930  1.00  0.00    -0.200 F 
ATOM     83  C   UNL A   1      39.251  35.457  39.019  1.00  0.00     0.200 A 
ATOM     84  F   UNL A   1      40.673  37.078  38.057  1.00  0.00    -0.200 F 
ATOM     85  F   UNL A   1      39.066  36.236  40.094  1.00  0.00    -0.200 F 
ENDBRANCH  51  75
BRANCH  63  86
ATOM     86  C   UNL A   1      44.081  28.835  34.873  1.00  0.00     0.064 A 
ATOM     87  C   UNL A   1      45.357  29.398  34.726  1.00  0.00     0.173 A 
ATOM     88  C   UNL A   1      43.947  27.721  35.717  1.00  0.00     0.173 A 
ATOM     89  F   UNL A   1      45.541  30.454  33.919  1.00  0.00    -0.203 F 
ATOM     90  C   UNL A   1      46.459  28.851  35.379  1.00  0.00     0.198 A 
ATOM     91  C   UNL A   1      45.045  27.200  36.396  1.00  0.00     0.198 A 
ATOM     92  F   UNL A   1      42.747  27.150  35.899  1.00  0.00    -0.203 F 
ATOM     93  F   UNL A   1      47.678  29.374  35.185  1.00  0.00    -0.200 F 
ATOM     94  C   UNL A   1      46.301  27.759  36.220  1.00  0.00     0.200 A 
ATOM     95  F   UNL A   1      44.886  26.156  37.222  1.00  0.00    -0.200 F 
ATOM     96  F   UNL A   1      47.360  27.243  36.857  1.00  0.00    -0.200 F 
ENDBRANCH  63  86
ENDBRANCH  37  38
ENDBRANCH  29  32
ENDBRANCH  27  28
ENDBRANCH  26  27
ENDBRANCH  25  26
ENDBRANCH   1  25
TORSDOF 17
ENDMDL
MODEL 3
REMARK VINA RESULT:     -12.0      1.105      7.461
REMARK SMILES C[NH+](C)[C@H](CC(=O)Nc1cccc(Cl)c1)C(=O)NCCCCCCNC(=O)c1ccc(-c2c3nc(c(-c4c(F)c(F)c(F)c(F)c4F)c4ccc([nH]4)c(-c4c(F)c(F)c(F)c(F)c4F)c4nc(c(-c5c(F)c(F)c(F)c(F)c5F)c5ccc2[nH]5)C=C4)C=C3)cc1
REMARK SMILES IDX 21 1 20 2 19 3 18 4 16 5 17 6 4 8 2 9 1 10 3 11 5 13 6 14
REMARK SMILES IDX 7 15 8 16 9 18 10 19 15 20 11 21 13 22 12 23 14 24 22 25
REMARK SMILES IDX 23 26 24 27 25 28 26 29 27 31 28 32 29 33 90 34 30 35 89 36
REMARK SMILES IDX 31 37 32 38 33 39 83 40 34 41 88 42 82 43 84 44 35 45 87 46
REMARK SMILES IDX 81 47 80 48 36 50 68 51 48 52 67 53 49 54 52 55 66 56 85 57
REMARK SMILES IDX 50 58 51 59 65 61 86 62 53 63 37 64 38 65 46 66 39 67 40 68
REMARK SMILES IDX 44 69 47 70 41 71 42 72 45 73 43 74 69 75 70 76 78 77 71 78
REMARK SMILES IDX 72 79 76 80 79 81 73 82 74 83 77 84 75 85 54 86 55 87 63 88
REMARK SMILES IDX 56 89 57 90 61 91 64 92 58 93 59 94 62 95 60 96
REMARK H PARENT 18 7 2 12 8 17 25 30 84 49 52 60
REMARK Flexibility Score: inf
ROOT
ATOM      1  C   UNL A   1      32.406  29.780  26.649  1.00  0.00     0.002 C 
ENDROOT
BRANCH   1   2
ATOM      2  C   UNL A   1      31.666  28.626  27.327  1.00  0.00     0.021 C 
BRANCH   2   3
ATOM      3  C   UNL A   1      31.455  27.377  26.483  1.00  0.00     0.116 C 
BRANCH   3   4
ATOM      4  N   UNL A   1      32.653  26.601  26.271  1.00  0.00    -0.351 N 
ATOM      5  C   UNL A   1      33.173  26.069  25.134  1.00  0.00     0.278 C 
ATOM      6  O   UNL A   1      34.359  25.719  25.191  1.00  0.00    -0.268 OA
ATOM      7  H   UNL A   1      33.180  26.427  27.085  1.00  0.00     0.163 HD
BRANCH   5   8
ATOM      8  C   UNL A   1      32.369  25.865  23.828  1.00  0.00     0.283 C 
BRANCH   8   9
ATOM      9  N   UNL A   1      31.978  24.438  23.600  1.00  0.00    -0.329 N 
ATOM     10  C   UNL A   1      32.798  23.633  22.713  1.00  0.00     0.333 C 
ATOM     11  C   UNL A   1      30.561  24.230  23.321  1.00  0.00     0.333 C 
ATOM     12  H   UNL A   1      32.186  24.072  24.529  1.00  0.00     0.348 HD
ENDBRANCH   8   9
BRANCH   8  13
ATOM     13  C   UNL A   1      32.619  26.829  22.645  1.00  0.00     0.175 C 
BRANCH  13  14
ATOM     14  C   UNL A   1      32.774  28.314  22.831  1.00  0.00     0.230 C 
ATOM     15  O   UNL A   1      33.875  28.755  23.191  1.00  0.00    -0.274 OA
ATOM     16  N   UNL A   1      31.810  29.246  22.612  1.00  0.00    -0.326 N 
ATOM     17  H   UNL A   1      32.178  30.156  22.536  1.00  0.00     0.169 HD
BRANCH  16  18
ATOM     18  C   UNL A   1      30.414  29.217  22.467  1.00  0.00     0.042 A 
ATOM     19  C   UNL A   1      29.544  28.383  23.158  1.00  0.00     0.026 A 
ATOM     20  C   UNL A   1      29.872  30.199  21.620  1.00  0.00     0.046 A 
ATOM     21  C   UNL A   1      28.161  28.597  23.101  1.00  0.00     0.004 A 
ATOM     22  C   UNL A   1      28.494  30.412  21.568  1.00  0.00     0.043 A 
ATOM     23  C   UNL A   1      27.634  29.626  22.323  1.00  0.00     0.020 A 
ATOM     24  Cl  UNL A   1      27.865  31.699  20.614  1.00  0.00    -0.084 Cl
ENDBRANCH  16  18
ENDBRANCH  13  14
ENDBRANCH   8  13
ENDBRANCH   5   8
ENDBRANCH   3   4
ENDBRANCH   2   3
ENDBRANCH   1   2
BRANCH   1  25
ATOM     25  C   UNL A   1      31.514  30.779  25.915  1.00  0.00     0.002 C 
BRANCH  25  26
ATOM     26  C   UNL A   1      31.321  32.116  26.629  1.00  0.00     0.021 C 
BRANCH  26  27
ATOM     27  C   UNL A   1      32.597  32.739  27.182  1.00  0.00     0.116 C 
BRANCH  27  28
ATOM     28  N   UNL A   1      32.410  34.123  27.571  1.00  0.00    -0.352 N 
ATOM     29  C   UNL A   1      33.050  34.816  28.569  1.00  0.00     0.251 C 
ATOM     30  H   UNL A   1      31.741  34.630  27.057  1.00  0.00     0.163 HD
ATOM     31  O   UNL A   1      32.669  35.926  28.912  1.00  0.00    -0.269 OA
BRANCH  29  32
ATOM     32  C   UNL A   1      34.204  34.186  29.241  1.00  0.00     0.039 A 
ATOM     33  C   UNL A   1      33.972  33.298  30.291  1.00  0.00     0.014 A 
ATOM     34  C   UNL A   1      35.508  34.451  28.807  1.00  0.00     0.014 A 
ATOM     35  C   UNL A   1      35.050  32.638  30.882  1.00  0.00     0.010 A 
ATOM     36  C   UNL A   1      36.571  33.734  29.345  1.00  0.00     0.010 A 
ATOM     37  C   UNL A   1      36.355  32.832  30.399  1.00  0.00    -0.014 A 
BRANCH  37  38
ATOM     38  C   UNL A   1      37.511  32.124  31.003  1.00  0.00     0.031 A 
ATOM     39  C   UNL A   1      37.991  32.513  32.373  1.00  0.00     0.074 A 
ATOM     40  C   UNL A   1      38.157  31.171  30.302  1.00  0.00     0.049 A 
ATOM     41  N   UNL A   1      39.021  32.070  33.049  1.00  0.00    -0.248 NA
ATOM     42  C   UNL A   1      37.226  33.562  33.069  1.00  0.00     0.031 C 
ATOM     43  C   UNL A   1      37.809  30.732  28.950  1.00  0.00     0.029 A 
ATOM     44  N   UNL A   1      39.249  30.406  30.629  1.00  0.00    -0.354 N 
ATOM     45  C   UNL A   1      39.035  32.792  34.234  1.00  0.00     0.074 A 
ATOM     46  C   UNL A   1      37.947  33.743  34.165  1.00  0.00     0.031 C 
ATOM     47  C   UNL A   1      38.658  29.763  28.571  1.00  0.00     0.029 A 
ATOM     48  C   UNL A   1      39.635  29.541  29.632  1.00  0.00     0.049 A 
ATOM     49  H   UNL A   1      39.713  30.471  31.494  1.00  0.00     0.167 HD
ATOM     50  C   UNL A   1      39.864  32.658  35.295  1.00  0.00     0.037 A 
ATOM     51  C   UNL A   1      40.667  28.678  29.580  1.00  0.00     0.037 A 
ATOM     52  C   UNL A   1      40.929  31.693  35.370  1.00  0.00     0.049 A 
ATOM     53  C   UNL A   1      41.586  28.562  30.770  1.00  0.00     0.074 A 
ATOM     54  C   UNL A   1      41.790  31.439  36.422  1.00  0.00     0.029 A 
ATOM     55  N   UNL A   1      41.278  30.823  34.347  1.00  0.00    -0.354 N 
ATOM     56  N   UNL A   1      41.547  29.203  31.912  1.00  0.00    -0.248 NA
ATOM     57  C   UNL A   1      42.688  27.596  30.663  1.00  0.00     0.031 C 
ATOM     58  C   UNL A   1      42.697  30.456  36.017  1.00  0.00     0.029 A 
ATOM     59  C   UNL A   1      42.359  30.049  34.736  1.00  0.00     0.049 A 
ATOM     60  H   UNL A   1      40.825  30.765  33.474  1.00  0.00     0.167 HD
ATOM     61  C   UNL A   1      42.591  28.692  32.673  1.00  0.00     0.074 A 
ATOM     62  C   UNL A   1      43.238  27.680  31.866  1.00  0.00     0.031 C 
ATOM     63  C   UNL A   1      42.978  29.029  33.927  1.00  0.00     0.037 A 
BRANCH  50  64
ATOM     64  C   UNL A   1      39.656  33.574  36.467  1.00  0.00     0.064 A 
ATOM     65  C   UNL A   1      40.231  34.854  36.514  1.00  0.00     0.173 A 
ATOM     66  C   UNL A   1      38.829  33.189  37.534  1.00  0.00     0.173 A 
ATOM     67  F   UNL A   1      41.038  35.269  35.526  1.00  0.00    -0.203 F 
ATOM     68  C   UNL A   1      40.005  35.702  37.595  1.00  0.00     0.198 A 
ATOM     69  C   UNL A   1      38.579  34.052  38.597  1.00  0.00     0.198 A 
ATOM     70  F   UNL A   1      38.251  31.978  37.538  1.00  0.00    -0.203 F 
ATOM     71  F   UNL A   1      40.603  36.902  37.640  1.00  0.00    -0.200 F 
ATOM     72  C   UNL A   1      39.172  35.305  38.630  1.00  0.00     0.200 A 
ATOM     73  F   UNL A   1      37.762  33.672  39.588  1.00  0.00    -0.200 F 
ATOM     74  F   UNL A   1      38.945  36.128  39.663  1.00  0.00    -0.200 F 
ENDBRANCH  50  64
BRANCH  51  75
ATOM     75  C   UNL A   1      40.886  27.842  28.368  1.00  0.00     0.064 A 
ATOM     76  C   UNL A   1      41.640  28.320  27.287  1.00  0.00     0.173 A 
ATOM     77  C   UNL A   1      40.321  26.563  28.252  1.00  0.00     0.173 A 
ATOM     78  F   UNL A   1      42.185  29.545  27.340  1.00  0.00    -0.203 F 
ATOM     79  C   UNL A   1      41.792  27.566  26.125  1.00  0.00     0.198 A 
ATOM     80  C   UNL A   1      40.502  25.797  27.102  1.00  0.00     0.198 A 
ATOM     81  F   UNL A   1      39.595  26.055  29.258  1.00  0.00    -0.203 F 
ATOM     82  F   UNL A   1      42.466  28.075  25.083  1.00  0.00    -0.200 F 
ATOM     83  C   UNL A   1      41.227  26.305  26.035  1.00  0.00     0.200 A 
ATOM     84  F   UNL A   1      39.969  24.570  27.027  1.00  0.00    -0.200 F 
ATOM     85  F   UNL A   1      41.371  25.581  24.916  1.00  0.00    -0.200 F 
ENDBRANCH  51  75
BRANCH  63  86
ATOM     86  C   UNL A   1      44.118  28.262  34.532  1.00  0.00     0.064 A 
ATOM     87  C   UNL A   1      43.917  27.060  35.227  1.00  0.00     0.173 A 
ATOM     88  C   UNL A   1      45.438  28.712  34.366  1.00  0.00     0.173 A 
ATOM     89  F   UNL A   1      42.675  26.594  35.425  1.00  0.00    -0.203 F 
ATOM     90  C   UNL A   1      44.993  26.353  35.759  1.00  0.00     0.198 A 
ATOM     91  C   UNL A   1      46.512  27.984  34.867  1.00  0.00     0.198 A 
ATOM     92  F   UNL A   1      45.685  29.851  33.701  1.00  0.00    -0.203 F 
ATOM     93  F   UNL A   1      44.774  25.234  36.463  1.00  0.00    -0.200 F 
ATOM     94  C   UNL A   1      46.289  26.810  35.570  1.00  0.00     0.200 A 
ATOM     95  F   UNL A   1      47.765  28.418  34.669  1.00  0.00    -0.200 F 
ATOM     96  F   UNL A   1      47.324  26.121  36.070  1.00  0.00    -0.200 F 
ENDBRANCH  63  86
ENDBRANCH  37  38
ENDBRANCH  29  32
ENDBRANCH  27  28
ENDBRANCH  26  27
ENDBRANCH  25  26
ENDBRANCH   1  25
TORSDOF 17
ENDMDL
