MODEL 1
REMARK VINA RESULT:     -12.4      0.000      0.000
REMARK SMILES O=C(NCCCCCCNC(=O)c1cccc(Oc2ncc([N+](=O)[O-])cc2Br)c1)c1ccc(-c2c3nc(c(-c4c(F)c(F)c(F)c(F)c4F)c4ccc([nH]4)c(-c4c(F)c(F)c(F)c(F)c4F)c4nc(c(-c5c(F)c(F)c(F)c(F)c5F)c5ccc2[nH]5)C=C4)C=C3)cc1
REMARK SMILES IDX 7 1 6 2 5 3 4 4 3 5 1 6 2 7 30 9 31 10 92 11 32 12 91 13
REMARK SMILES IDX 33 14 34 15 35 16 85 17 36 18 90 19 84 20 86 21 37 22 89 23
REMARK SMILES IDX 83 24 82 25 38 27 70 28 50 29 69 30 51 31 54 32 68 33 87 34
REMARK SMILES IDX 52 35 53 36 67 38 88 39 55 40 39 41 40 42 48 43 41 44 42 45
REMARK SMILES IDX 46 46 49 47 43 48 44 49 47 50 45 51 71 52 72 53 80 54 73 55
REMARK SMILES IDX 74 56 78 57 81 58 75 59 76 60 79 61 77 62 56 63 57 64 65 65
REMARK SMILES IDX 58 66 59 67 63 68 66 69 60 70 61 71 64 72 62 73 8 74 9 75
REMARK SMILES IDX 10 76 11 77 12 79 13 80 14 81 29 82 15 83 17 84 16 85 18 86
REMARK SMILES IDX 19 87 20 88 27 89 21 90 26 91 28 92 22 93 23 94 24 95 25 96
REMARK H PARENT 3 8 86 26 54 37 10 78
REMARK Flexibility Score: inf
ROOT
ATOM      1  C   UNL A   1      32.006  29.490  27.079  1.00  0.00     0.002 C 
ENDROOT
BRANCH   1   2
ATOM      2  C   UNL A   1      31.755  30.645  26.106  1.00  0.00     0.002 C 
BRANCH   2   3
ATOM      3  C   UNL A   1      31.461  31.999  26.750  1.00  0.00     0.021 C 
BRANCH   3   4
ATOM      4  C   UNL A   1      32.681  32.764  27.244  1.00  0.00     0.116 C 
BRANCH   4   5
ATOM      5  N   UNL A   1      32.378  34.126  27.653  1.00  0.00    -0.352 N 
ATOM      6  O   UNL A   1      32.512  35.998  28.911  1.00  0.00    -0.269 OA
ATOM      7  C   UNL A   1      32.980  34.900  28.615  1.00  0.00     0.251 C 
ATOM      8  H   UNL A   1      31.634  34.555  27.171  1.00  0.00     0.163 HD
BRANCH   7   9
ATOM      9  C   UNL A   1      34.174  34.395  29.325  1.00  0.00     0.039 A 
ATOM     10  C   UNL A   1      35.451  34.573  28.790  1.00  0.00     0.014 A 
ATOM     11  C   UNL A   1      34.010  33.710  30.532  1.00  0.00     0.014 A 
ATOM     12  C   UNL A   1      36.537  33.921  29.367  1.00  0.00     0.010 A 
ATOM     13  C   UNL A   1      35.117  33.134  31.162  1.00  0.00     0.010 A 
ATOM     14  C   UNL A   1      36.383  33.194  30.559  1.00  0.00    -0.014 A 
BRANCH  14  15
ATOM     15  C   UNL A   1      37.566  32.522  31.158  1.00  0.00     0.031 A 
ATOM     16  C   UNL A   1      38.037  32.866  32.544  1.00  0.00     0.074 A 
ATOM     17  C   UNL A   1      38.192  31.558  30.455  1.00  0.00     0.049 A 
ATOM     18  N   UNL A   1      39.021  32.345  33.236  1.00  0.00    -0.248 NA
ATOM     19  C   UNL A   1      37.321  33.942  33.246  1.00  0.00     0.031 C 
ATOM     20  C   UNL A   1      37.835  31.142  29.096  1.00  0.00     0.029 A 
ATOM     21  N   UNL A   1      39.238  30.736  30.789  1.00  0.00    -0.354 N 
ATOM     22  C   UNL A   1      39.057  33.043  34.437  1.00  0.00     0.074 A 
ATOM     23  C   UNL A   1      38.013  34.043  34.373  1.00  0.00     0.031 C 
ATOM     24  C   UNL A   1      38.609  30.109  28.736  1.00  0.00     0.029 A 
ATOM     25  C   UNL A   1      39.554  29.828  29.810  1.00  0.00     0.049 A 
ATOM     26  H   UNL A   1      39.715  30.792  31.648  1.00  0.00     0.167 HD
ATOM     27  C   UNL A   1      39.882  32.860  35.497  1.00  0.00     0.037 A 
ATOM     28  C   UNL A   1      40.504  28.874  29.777  1.00  0.00     0.037 A 
ATOM     29  C   UNL A   1      40.901  31.845  35.570  1.00  0.00     0.049 A 
ATOM     30  C   UNL A   1      41.402  28.696  30.968  1.00  0.00     0.074 A 
ATOM     31  C   UNL A   1      41.757  31.552  36.618  1.00  0.00     0.029 A 
ATOM     32  N   UNL A   1      41.206  30.956  34.548  1.00  0.00    -0.354 N 
ATOM     33  N   UNL A   1      41.398  29.336  32.111  1.00  0.00    -0.248 NA
ATOM     34  C   UNL A   1      42.439  27.661  30.861  1.00  0.00     0.031 C 
ATOM     35  C   UNL A   1      42.609  30.517  36.215  1.00  0.00     0.029 A 
ATOM     36  C   UNL A   1      42.249  30.129  34.935  1.00  0.00     0.049 A 
ATOM     37  H   UNL A   1      40.749  30.919  33.677  1.00  0.00     0.167 HD
ATOM     38  C   UNL A   1      42.409  28.763  32.871  1.00  0.00     0.074 A 
ATOM     39  C   UNL A   1      42.994  27.713  32.062  1.00  0.00     0.031 C 
ATOM     40  C   UNL A   1      42.815  29.080  34.124  1.00  0.00     0.037 A 
BRANCH  27  41
ATOM     41  C   UNL A   1      39.731  33.792  36.668  1.00  0.00     0.064 A 
ATOM     42  C   UNL A   1      40.359  35.046  36.703  1.00  0.00     0.173 A 
ATOM     43  C   UNL A   1      38.909  33.440  37.750  1.00  0.00     0.173 A 
ATOM     44  F   UNL A   1      41.161  35.427  35.697  1.00  0.00    -0.203 F 
ATOM     45  C   UNL A   1      40.189  35.902  37.790  1.00  0.00     0.198 A 
ATOM     46  C   UNL A   1      38.719  34.310  38.820  1.00  0.00     0.198 A 
ATOM     47  F   UNL A   1      38.277  32.257  37.763  1.00  0.00    -0.203 F 
ATOM     48  F   UNL A   1      40.831  37.078  37.820  1.00  0.00    -0.200 F 
ATOM     49  C   UNL A   1      39.365  35.536  38.843  1.00  0.00     0.200 A 
ATOM     50  F   UNL A   1      37.909  33.962  39.830  1.00  0.00    -0.200 F 
ATOM     51  F   UNL A   1      39.195  36.366  39.883  1.00  0.00    -0.200 F 
ENDBRANCH  27  41
BRANCH  28  52
ATOM     52  C   UNL A   1      40.636  28.005  28.581  1.00  0.00     0.064 A 
ATOM     53  C   UNL A   1      39.979  26.770  28.513  1.00  0.00     0.173 A 
ATOM     54  C   UNL A   1      41.415  28.393  27.480  1.00  0.00     0.173 A 
ATOM     55  F   UNL A   1      39.238  26.347  29.548  1.00  0.00    -0.203 F 
ATOM     56  C   UNL A   1      40.108  25.947  27.396  1.00  0.00     0.198 A 
ATOM     57  C   UNL A   1      41.518  27.583  26.352  1.00  0.00     0.198 A 
ATOM     58  F   UNL A   1      42.058  29.570  27.493  1.00  0.00    -0.203 F 
ATOM     59  F   UNL A   1      39.504  24.751  27.375  1.00  0.00    -0.200 F 
ATOM     60  C   UNL A   1      40.872  26.357  26.314  1.00  0.00     0.200 A 
ATOM     61  F   UNL A   1      42.243  27.993  25.301  1.00  0.00    -0.200 F 
ATOM     62  F   UNL A   1      40.990  25.569  25.237  1.00  0.00    -0.200 F 
ENDBRANCH  28  52
BRANCH  40  63
ATOM     63  C   UNL A   1      43.913  28.246  34.718  1.00  0.00     0.064 A 
ATOM     64  C   UNL A   1      45.261  28.622  34.621  1.00  0.00     0.173 A 
ATOM     65  C   UNL A   1      43.609  27.062  35.405  1.00  0.00     0.173 A 
ATOM     66  F   UNL A   1      45.605  29.737  33.959  1.00  0.00    -0.203 F 
ATOM     67  C   UNL A   1      46.266  27.826  35.162  1.00  0.00     0.198 A 
ATOM     68  C   UNL A   1      44.614  26.284  35.973  1.00  0.00     0.198 A 
ATOM     69  F   UNL A   1      42.335  26.660  35.531  1.00  0.00    -0.203 F 
ATOM     70  F   UNL A   1      47.552  28.174  35.007  1.00  0.00    -0.200 F 
ATOM     71  C   UNL A   1      45.942  26.660  35.841  1.00  0.00     0.200 A 
ATOM     72  F   UNL A   1      44.298  25.164  36.639  1.00  0.00    -0.200 F 
ATOM     73  F   UNL A   1      46.911  25.894  36.362  1.00  0.00    -0.200 F 
ENDBRANCH  40  63
ENDBRANCH  14  15
ENDBRANCH   7   9
ENDBRANCH   4   5
ENDBRANCH   3   4
ENDBRANCH   2   3
ENDBRANCH   1   2
BRANCH   1  74
ATOM     74  C   UNL A   1      33.473  29.094  27.281  1.00  0.00     0.021 C 
BRANCH  74  75
ATOM     75  C   UNL A   1      34.028  28.116  26.252  1.00  0.00     0.116 C 
BRANCH  75  76
ATOM     76  N   UNL A   1      34.245  28.752  24.964  1.00  0.00    -0.352 N 
ATOM     77  C   UNL A   1      33.899  28.306  23.714  1.00  0.00     0.251 C 
ATOM     78  H   UNL A   1      34.702  29.623  24.992  1.00  0.00     0.163 HD
ATOM     79  O   UNL A   1      34.345  28.863  22.713  1.00  0.00    -0.269 OA
BRANCH  77  80
ATOM     80  C   UNL A   1      32.971  27.167  23.566  1.00  0.00     0.043 A 
ATOM     81  C   UNL A   1      31.642  27.305  23.966  1.00  0.00     0.014 A 
ATOM     82  C   UNL A   1      33.446  25.936  23.099  1.00  0.00     0.061 A 
ATOM     83  C   UNL A   1      30.774  26.219  23.851  1.00  0.00     0.005 A 
ATOM     84  C   UNL A   1      32.582  24.845  22.989  1.00  0.00     0.130 A 
ATOM     85  C   UNL A   1      31.242  24.996  23.361  1.00  0.00     0.047 A 
BRANCH  84  86
ATOM     86  O   UNL A   1      32.952  23.580  22.577  1.00  0.00    -0.438 OA
BRANCH  86  87
ATOM     87  C   UNL A   1      34.034  23.003  23.207  1.00  0.00     0.234 A 
ATOM     88  N   UNL A   1      35.249  23.336  22.699  1.00  0.00    -0.214 NA
ATOM     89  C   UNL A   1      33.864  22.137  24.290  1.00  0.00     0.087 A 
ATOM     90  C   UNL A   1      36.339  22.812  23.312  1.00  0.00     0.200 A 
ATOM     91  C   UNL A   1      35.000  21.645  24.931  1.00  0.00     0.108 A 
ATOM     92  Br  UNL A   1      32.159  21.654  24.956  1.00  0.00    -0.045 Br
ATOM     93  C   UNL A   1      36.257  21.994  24.428  1.00  0.00     0.288 A 
BRANCH  93  94
ATOM     94  N   UNL A   1      37.475  21.536  25.080  1.00  0.00     0.064 N 
ATOM     95  O   UNL A   1      37.844  20.376  24.857  1.00  0.00    -0.258 OA
ATOM     96  O   UNL A   1      38.078  22.345  25.796  1.00  0.00    -0.258 OA
ENDBRANCH  93  94
ENDBRANCH  86  87
ENDBRANCH  84  86
ENDBRANCH  77  80
ENDBRANCH  75  76
ENDBRANCH  74  75
ENDBRANCH   1  74
TORSDOF 16
ENDMDL
MODEL 2
REMARK VINA RESULT:     -12.3      2.251      3.345
REMARK SMILES O=C(NCCCCCCNC(=O)c1cccc(Oc2ncc([N+](=O)[O-])cc2Br)c1)c1ccc(-c2c3nc(c(-c4c(F)c(F)c(F)c(F)c4F)c4ccc([nH]4)c(-c4c(F)c(F)c(F)c(F)c4F)c4nc(c(-c5c(F)c(F)c(F)c(F)c5F)c5ccc2[nH]5)C=C4)C=C3)cc1
REMARK SMILES IDX 7 1 6 2 5 3 4 4 3 5 1 6 2 7 30 9 31 10 92 11 32 12 91 13
REMARK SMILES IDX 33 14 34 15 35 16 85 17 36 18 90 19 84 20 86 21 37 22 89 23
REMARK SMILES IDX 83 24 82 25 38 27 70 28 50 29 69 30 51 31 54 32 68 33 87 34
REMARK SMILES IDX 52 35 53 36 67 38 88 39 55 40 39 41 40 42 48 43 41 44 42 45
REMARK SMILES IDX 46 46 49 47 43 48 44 49 47 50 45 51 71 52 72 53 80 54 73 55
REMARK SMILES IDX 74 56 78 57 81 58 75 59 76 60 79 61 77 62 56 63 57 64 65 65
REMARK SMILES IDX 58 66 59 67 63 68 66 69 60 70 61 71 64 72 62 73 8 74 9 75
REMARK SMILES IDX 10 76 11 77 12 79 13 80 14 81 29 82 15 83 17 84 16 85 18 86
REMARK SMILES IDX 19 87 20 88 27 89 21 90 26 91 28 92 22 93 23 94 24 95 25 96
REMARK H PARENT 3 8 86 26 54 37 10 78
REMARK Flexibility Score: inf
ROOT
ATOM      1  C   UNL A   1      31.408  28.556  23.714  1.00  0.00     0.002 C 
ENDROOT
BRANCH   1   2
ATOM      2  C   UNL A   1      31.158  27.939  25.093  1.00  0.00     0.002 C 
BRANCH   2   3
ATOM      3  C   UNL A   1      32.041  28.468  26.223  1.00  0.00     0.021 C 
BRANCH   3   4
ATOM      4  C   UNL A   1      33.045  29.538  25.818  1.00  0.00     0.116 C 
BRANCH   4   5
ATOM      5  N   UNL A   1      32.689  30.867  26.289  1.00  0.00    -0.352 N 
ATOM      6  O   UNL A   1      32.826  32.726  27.566  1.00  0.00    -0.269 OA
ATOM      7  C   UNL A   1      33.339  31.672  27.193  1.00  0.00     0.251 C 
ATOM      8  H   UNL A   1      31.864  31.243  25.906  1.00  0.00     0.163 HD
BRANCH   7   9
ATOM      9  C   UNL A   1      34.643  31.251  27.749  1.00  0.00     0.039 A 
ATOM     10  C   UNL A   1      34.853  29.934  28.158  1.00  0.00     0.014 A 
ATOM     11  C   UNL A   1      35.662  32.198  27.885  1.00  0.00     0.014 A 
ATOM     12  C   UNL A   1      36.010  29.606  28.858  1.00  0.00     0.010 A 
ATOM     13  C   UNL A   1      36.863  31.843  28.506  1.00  0.00     0.010 A 
ATOM     14  C   UNL A   1      37.028  30.556  29.042  1.00  0.00    -0.014 A 
BRANCH  14  15
ATOM     15  C   UNL A   1      38.258  30.169  29.781  1.00  0.00     0.031 A 
ATOM     16  C   UNL A   1      38.498  30.640  31.190  1.00  0.00     0.074 A 
ATOM     17  C   UNL A   1      39.143  29.346  29.187  1.00  0.00     0.049 A 
ATOM     18  N   UNL A   1      39.493  30.359  31.997  1.00  0.00    -0.248 NA
ATOM     19  C   UNL A   1      37.501  31.552  31.770  1.00  0.00     0.031 C 
ATOM     20  C   UNL A   1      39.026  28.832  27.820  1.00  0.00     0.029 A 
ATOM     21  N   UNL A   1      40.299  28.778  29.657  1.00  0.00    -0.354 N 
ATOM     22  C   UNL A   1      39.255  31.076  33.163  1.00  0.00     0.074 A 
ATOM     23  C   UNL A   1      38.035  31.826  32.953  1.00  0.00     0.031 C 
ATOM     24  C   UNL A   1      40.035  27.982  27.583  1.00  0.00     0.029 A 
ATOM     25  C   UNL A   1      40.901  27.936  28.756  1.00  0.00     0.049 A 
ATOM     26  H   UNL A   1      40.661  28.955  30.555  1.00  0.00     0.167 HD
ATOM     27  C   UNL A   1      39.984  31.101  34.305  1.00  0.00     0.037 A 
ATOM     28  C   UNL A   1      42.030  27.209  28.858  1.00  0.00     0.037 A 
ATOM     29  C   UNL A   1      41.183  30.331  34.521  1.00  0.00     0.049 A 
ATOM     30  C   UNL A   1      42.817  27.257  30.136  1.00  0.00     0.074 A 
ATOM     31  C   UNL A   1      41.967  30.254  35.660  1.00  0.00     0.029 A 
ATOM     32  N   UNL A   1      41.774  29.505  33.575  1.00  0.00    -0.354 N 
ATOM     33  N   UNL A   1      42.558  27.908  31.244  1.00  0.00    -0.248 NA
ATOM     34  C   UNL A   1      44.054  26.467  30.177  1.00  0.00     0.031 C 
ATOM     35  C   UNL A   1      43.056  29.418  35.388  1.00  0.00     0.029 A 
ATOM     36  C   UNL A   1      42.923  28.931  34.099  1.00  0.00     0.049 A 
ATOM     37  H   UNL A   1      41.428  29.349  32.667  1.00  0.00     0.167 HD
ATOM     38  C   UNL A   1      43.582  27.584  32.123  1.00  0.00     0.074 A 
ATOM     39  C   UNL A   1      44.458  26.666  31.423  1.00  0.00     0.031 C 
ATOM     40  C   UNL A   1      43.779  28.010  33.394  1.00  0.00     0.037 A 
BRANCH  27  41
ATOM     41  C   UNL A   1      39.519  32.005  35.412  1.00  0.00     0.064 A 
ATOM     42  C   UNL A   1      39.901  33.353  35.478  1.00  0.00     0.173 A 
ATOM     43  C   UNL A   1      38.640  31.524  36.395  1.00  0.00     0.173 A 
ATOM     44  F   UNL A   1      40.745  33.861  34.568  1.00  0.00    -0.203 F 
ATOM     45  C   UNL A   1      39.441  34.179  36.503  1.00  0.00     0.198 A 
ATOM     46  C   UNL A   1      38.159  32.359  37.400  1.00  0.00     0.198 A 
ATOM     47  F   UNL A   1      38.234  30.246  36.373  1.00  0.00    -0.203 F 
ATOM     48  F   UNL A   1      39.852  35.452  36.570  1.00  0.00    -0.200 F 
ATOM     49  C   UNL A   1      38.567  33.683  37.458  1.00  0.00     0.200 A 
ATOM     50  F   UNL A   1      37.301  31.883  38.313  1.00  0.00    -0.200 F 
ATOM     51  F   UNL A   1      38.117  34.482  38.437  1.00  0.00    -0.200 F 
ENDBRANCH  27  41
BRANCH  28  52
ATOM     52  C   UNL A   1      42.467  26.361  27.720  1.00  0.00     0.064 A 
ATOM     53  C   UNL A   1      41.944  25.074  27.540  1.00  0.00     0.173 A 
ATOM     54  C   UNL A   1      43.410  26.821  26.788  1.00  0.00     0.173 A 
ATOM     55  F   UNL A   1      41.053  24.584  28.415  1.00  0.00    -0.203 F 
ATOM     56  C   UNL A   1      42.359  24.271  26.480  1.00  0.00     0.198 A 
ATOM     57  C   UNL A   1      43.801  26.028  25.712  1.00  0.00     0.198 A 
ATOM     58  F   UNL A   1      43.936  28.048  26.914  1.00  0.00    -0.203 F 
ATOM     59  F   UNL A   1      41.874  23.028  26.354  1.00  0.00    -0.200 F 
ATOM     60  C   UNL A   1      43.282  24.751  25.562  1.00  0.00     0.200 A 
ATOM     61  F   UNL A   1      44.680  26.504  24.818  1.00  0.00    -0.200 F 
ATOM     62  F   UNL A   1      43.675  23.982  24.539  1.00  0.00    -0.200 F 
ENDBRANCH  28  52
BRANCH  40  63
ATOM     63  C   UNL A   1      44.961  27.447  34.128  1.00  0.00     0.064 A 
ATOM     64  C   UNL A   1      44.868  26.271  34.888  1.00  0.00     0.173 A 
ATOM     65  C   UNL A   1      46.207  28.086  34.058  1.00  0.00     0.173 A 
ATOM     66  F   UNL A   1      43.693  25.631  35.000  1.00  0.00    -0.203 F 
ATOM     67  C   UNL A   1      45.971  25.775  35.576  1.00  0.00     0.198 A 
ATOM     68  C   UNL A   1      47.317  27.570  34.722  1.00  0.00     0.198 A 
ATOM     69  F   UNL A   1      46.352  29.211  33.341  1.00  0.00    -0.203 F 
ATOM     70  F   UNL A   1      45.845  24.682  36.343  1.00  0.00    -0.200 F 
ATOM     71  C   UNL A   1      47.195  26.422  35.489  1.00  0.00     0.200 A 
ATOM     72  F   UNL A   1      48.501  28.190  34.627  1.00  0.00    -0.200 F 
ATOM     73  F   UNL A   1      48.257  25.943  36.153  1.00  0.00    -0.200 F 
ENDBRANCH  40  63
ENDBRANCH  14  15
ENDBRANCH   7   9
ENDBRANCH   4   5
ENDBRANCH   3   4
ENDBRANCH   2   3
ENDBRANCH   1   2
BRANCH   1  74
ATOM     74  C   UNL A   1      30.835  27.782  22.522  1.00  0.00     0.021 C 
BRANCH  74  75
ATOM     75  C   UNL A   1      30.645  26.286  22.752  1.00  0.00     0.116 C 
BRANCH  75  76
ATOM     76  N   UNL A   1      31.451  25.493  21.840  1.00  0.00    -0.352 N 
ATOM     77  C   UNL A   1      32.625  24.828  22.085  1.00  0.00     0.251 C 
ATOM     78  H   UNL A   1      31.108  25.423  20.920  1.00  0.00     0.163 HD
ATOM     79  O   UNL A   1      33.290  24.382  21.151  1.00  0.00    -0.269 OA
BRANCH  77  80
ATOM     80  C   UNL A   1      33.084  24.624  23.473  1.00  0.00     0.043 A 
ATOM     81  C   UNL A   1      33.877  25.595  24.086  1.00  0.00     0.014 A 
ATOM     82  C   UNL A   1      32.786  23.430  24.139  1.00  0.00     0.061 A 
ATOM     83  C   UNL A   1      34.333  25.388  25.387  1.00  0.00     0.005 A 
ATOM     84  C   UNL A   1      33.247  23.217  25.440  1.00  0.00     0.130 A 
ATOM     85  C   UNL A   1      34.015  24.205  26.062  1.00  0.00     0.047 A 
BRANCH  84  86
ATOM     86  O   UNL A   1      33.044  22.064  26.173  1.00  0.00    -0.438 OA
BRANCH  86  87
ATOM     87  C   UNL A   1      33.256  20.863  25.530  1.00  0.00     0.234 A 
ATOM     88  N   UNL A   1      32.134  20.160  25.225  1.00  0.00    -0.214 NA
ATOM     89  C   UNL A   1      34.547  20.421  25.226  1.00  0.00     0.087 A 
ATOM     90  C   UNL A   1      32.300  18.988  24.565  1.00  0.00     0.200 A 
ATOM     91  C   UNL A   1      34.691  19.235  24.510  1.00  0.00     0.108 A 
ATOM     92  Br  UNL A   1      36.098  21.397  25.697  1.00  0.00    -0.045 Br
ATOM     93  C   UNL A   1      33.542  18.511  24.175  1.00  0.00     0.288 A 
BRANCH  93  94
ATOM     94  N   UNL A   1      33.634  17.283  23.398  1.00  0.00     0.064 N 
ATOM     95  O   UNL A   1      34.120  16.288  23.951  1.00  0.00    -0.258 OA
ATOM     96  O   UNL A   1      33.196  17.306  22.240  1.00  0.00    -0.258 OA
ENDBRANCH  93  94
ENDBRANCH  86  87
ENDBRANCH  84  86
ENDBRANCH  77  80
ENDBRANCH  75  76
ENDBRANCH  74  75
ENDBRANCH   1  74
TORSDOF 16
ENDMDL
MODEL 3
REMARK VINA RESULT:     -12.3      1.365      2.231
REMARK SMILES O=C(NCCCCCCNC(=O)c1cccc(Oc2ncc([N+](=O)[O-])cc2Br)c1)c1ccc(-c2c3nc(c(-c4c(F)c(F)c(F)c(F)c4F)c4ccc([nH]4)c(-c4c(F)c(F)c(F)c(F)c4F)c4nc(c(-c5c(F)c(F)c(F)c(F)c5F)c5ccc2[nH]5)C=C4)C=C3)cc1
REMARK SMILES IDX 7 1 6 2 5 3 4 4 3 5 1 6 2 7 30 9 31 10 92 11 32 12 91 13
REMARK SMILES IDX 33 14 34 15 35 16 85 17 36 18 90 19 84 20 86 21 37 22 89 23
REMARK SMILES IDX 83 24 82 25 38 27 70 28 50 29 69 30 51 31 54 32 68 33 87 34
REMARK SMILES IDX 52 35 53 36 67 38 88 39 55 40 39 41 40 42 48 43 41 44 42 45
REMARK SMILES IDX 46 46 49 47 43 48 44 49 47 50 45 51 71 52 72 53 80 54 73 55
REMARK SMILES IDX 74 56 78 57 81 58 75 59 76 60 79 61 77 62 56 63 57 64 65 65
REMARK SMILES IDX 58 66 59 67 63 68 66 69 60 70 61 71 64 72 62 73 8 74 9 75
REMARK SMILES IDX 10 76 11 77 12 79 13 80 14 81 29 82 15 83 17 84 16 85 18 86
REMARK SMILES IDX 19 87 20 88 27 89 21 90 26 91 28 92 22 93 23 94 24 95 25 96
REMARK H PARENT 3 8 86 26 54 37 10 78
REMARK Flexibility Score: inf
ROOT
ATOM      1  C   UNL A   1      32.752  30.107  25.746  1.00  0.00     0.002 C 
ENDROOT
BRANCH   1   2
ATOM      2  C   UNL A   1      31.465  30.650  26.372  1.00  0.00     0.002 C 
BRANCH   2   3
ATOM      3  C   UNL A   1      31.387  32.171  26.507  1.00  0.00     0.021 C 
BRANCH   3   4
ATOM      4  C   UNL A   1      32.542  32.818  27.259  1.00  0.00     0.116 C 
BRANCH   4   5
ATOM      5  N   UNL A   1      32.289  34.205  27.614  1.00  0.00    -0.352 N 
ATOM      6  O   UNL A   1      32.503  36.122  28.791  1.00  0.00    -0.269 OA
ATOM      7  C   UNL A   1      32.931  34.998  28.534  1.00  0.00     0.251 C 
ATOM      8  H   UNL A   1      31.553  34.638  27.125  1.00  0.00     0.163 HD
BRANCH   7   9
ATOM      9  C   UNL A   1      34.118  34.483  29.249  1.00  0.00     0.039 A 
ATOM     10  C   UNL A   1      35.393  34.603  28.694  1.00  0.00     0.014 A 
ATOM     11  C   UNL A   1      33.948  33.847  30.482  1.00  0.00     0.014 A 
ATOM     12  C   UNL A   1      36.466  33.941  29.282  1.00  0.00     0.010 A 
ATOM     13  C   UNL A   1      35.046  33.262  31.120  1.00  0.00     0.010 A 
ATOM     14  C   UNL A   1      36.306  33.262  30.501  1.00  0.00    -0.014 A 
BRANCH  14  15
ATOM     15  C   UNL A   1      37.476  32.577  31.111  1.00  0.00     0.031 A 
ATOM     16  C   UNL A   1      37.932  32.910  32.505  1.00  0.00     0.074 A 
ATOM     17  C   UNL A   1      38.102  31.611  30.411  1.00  0.00     0.049 A 
ATOM     18  N   UNL A   1      38.903  32.376  33.206  1.00  0.00    -0.248 NA
ATOM     19  C   UNL A   1      37.216  33.988  33.204  1.00  0.00     0.031 C 
ATOM     20  C   UNL A   1      37.758  31.206  29.045  1.00  0.00     0.029 A 
ATOM     21  N   UNL A   1      39.136  30.779  30.753  1.00  0.00    -0.354 N 
ATOM     22  C   UNL A   1      38.930  33.067  34.411  1.00  0.00     0.074 A 
ATOM     23  C   UNL A   1      37.895  34.076  34.340  1.00  0.00     0.031 C 
ATOM     24  C   UNL A   1      38.529  30.169  28.688  1.00  0.00     0.029 A 
ATOM     25  C   UNL A   1      39.457  29.873  29.773  1.00  0.00     0.049 A 
ATOM     26  H   UNL A   1      39.604  30.826  31.618  1.00  0.00     0.167 HD
ATOM     27  C   UNL A   1      39.740  32.872  35.481  1.00  0.00     0.037 A 
ATOM     28  C   UNL A   1      40.400  28.912  29.747  1.00  0.00     0.037 A 
ATOM     29  C   UNL A   1      40.750  31.847  35.560  1.00  0.00     0.049 A 
ATOM     30  C   UNL A   1      41.282  28.720  30.947  1.00  0.00     0.074 A 
ATOM     31  C   UNL A   1      41.590  31.542  36.617  1.00  0.00     0.029 A 
ATOM     32  N   UNL A   1      41.060  30.962  34.537  1.00  0.00    -0.354 N 
ATOM     33  N   UNL A   1      41.269  29.354  32.094  1.00  0.00    -0.248 NA
ATOM     34  C   UNL A   1      42.311  27.677  30.847  1.00  0.00     0.031 C 
ATOM     35  C   UNL A   1      42.438  30.503  36.219  1.00  0.00     0.029 A 
ATOM     36  C   UNL A   1      42.092  30.124  34.933  1.00  0.00     0.049 A 
ATOM     37  H   UNL A   1      40.613  30.933  33.660  1.00  0.00     0.167 HD
ATOM     38  C   UNL A   1      42.265  28.768  32.862  1.00  0.00     0.074 A 
ATOM     39  C   UNL A   1      42.852  27.718  32.055  1.00  0.00     0.031 C 
ATOM     40  C   UNL A   1      42.658  29.075  34.123  1.00  0.00     0.037 A 
BRANCH  27  41
ATOM     41  C   UNL A   1      39.583  33.798  36.654  1.00  0.00     0.064 A 
ATOM     42  C   UNL A   1      38.804  33.456  37.770  1.00  0.00     0.173 A 
ATOM     43  C   UNL A   1      40.259  35.028  36.679  1.00  0.00     0.173 A 
ATOM     44  F   UNL A   1      38.132  32.295  37.793  1.00  0.00    -0.203 F 
ATOM     45  C   UNL A   1      38.689  34.322  38.856  1.00  0.00     0.198 A 
ATOM     46  C   UNL A   1      40.164  35.878  37.779  1.00  0.00     0.198 A 
ATOM     47  F   UNL A   1      41.025  35.401  35.643  1.00  0.00    -0.203 F 
ATOM     48  F   UNL A   1      37.907  33.992  39.893  1.00  0.00    -0.200 F 
ATOM     49  C   UNL A   1      39.373  35.528  38.862  1.00  0.00     0.200 A 
ATOM     50  F   UNL A   1      40.839  37.036  37.790  1.00  0.00    -0.200 F 
ATOM     51  F   UNL A   1      39.268  36.355  39.912  1.00  0.00    -0.200 F 
ENDBRANCH  27  41
BRANCH  28  52
ATOM     52  C   UNL A   1      40.539  28.048  28.547  1.00  0.00     0.064 A 
ATOM     53  C   UNL A   1      39.889  26.810  28.472  1.00  0.00     0.173 A 
ATOM     54  C   UNL A   1      41.319  28.445  27.449  1.00  0.00     0.173 A 
ATOM     55  F   UNL A   1      39.148  26.379  29.504  1.00  0.00    -0.203 F 
ATOM     56  C   UNL A   1      40.026  25.992  27.353  1.00  0.00     0.198 A 
ATOM     57  C   UNL A   1      41.430  27.640  26.318  1.00  0.00     0.198 A 
ATOM     58  F   UNL A   1      41.956  29.625  27.469  1.00  0.00    -0.203 F 
ATOM     59  F   UNL A   1      39.428  24.793  27.325  1.00  0.00    -0.200 F 
ATOM     60  C   UNL A   1      40.790  26.410  26.274  1.00  0.00     0.200 A 
ATOM     61  F   UNL A   1      42.155  28.057  25.271  1.00  0.00    -0.200 F 
ATOM     62  F   UNL A   1      40.915  25.628  25.195  1.00  0.00    -0.200 F 
ENDBRANCH  28  52
BRANCH  40  63
ATOM     63  C   UNL A   1      43.742  28.229  34.725  1.00  0.00     0.064 A 
ATOM     64  C   UNL A   1      43.455  27.041  35.415  1.00  0.00     0.173 A 
ATOM     65  C   UNL A   1      45.087  28.605  34.597  1.00  0.00     0.173 A 
ATOM     66  F   UNL A   1      42.183  26.646  35.580  1.00  0.00    -0.203 F 
ATOM     67  C   UNL A   1      44.473  26.280  35.982  1.00  0.00     0.198 A 
ATOM     68  C   UNL A   1      46.105  27.826  35.138  1.00  0.00     0.198 A 
ATOM     69  F   UNL A   1      45.416  29.729  33.942  1.00  0.00    -0.203 F 
ATOM     70  F   UNL A   1      44.172  25.180  36.687  1.00  0.00    -0.200 F 
ATOM     71  C   UNL A   1      45.797  26.670  35.840  1.00  0.00     0.200 A 
ATOM     72  F   UNL A   1      47.384  28.198  34.989  1.00  0.00    -0.200 F 
ATOM     73  F   UNL A   1      46.776  25.936  36.387  1.00  0.00    -0.200 F 
ENDBRANCH  40  63
ENDBRANCH  14  15
ENDBRANCH   7   9
ENDBRANCH   4   5
ENDBRANCH   3   4
ENDBRANCH   2   3
ENDBRANCH   1   2
BRANCH   1  74
ATOM     74  C   UNL A   1      33.691  29.354  26.695  1.00  0.00     0.021 C 
BRANCH  74  75
ATOM     75  C   UNL A   1      33.725  27.841  26.508  1.00  0.00     0.116 C 
BRANCH  75  76
ATOM     76  N   UNL A   1      32.464  27.222  26.879  1.00  0.00    -0.352 N 
ATOM     77  C   UNL A   1      31.521  26.639  26.073  1.00  0.00     0.251 C 
ATOM     78  H   UNL A   1      32.259  27.222  27.842  1.00  0.00     0.163 HD
ATOM     79  O   UNL A   1      30.412  26.355  26.523  1.00  0.00    -0.269 OA
BRANCH  77  80
ATOM     80  C   UNL A   1      31.841  26.329  24.665  1.00  0.00     0.043 A 
ATOM     81  C   UNL A   1      31.164  26.995  23.642  1.00  0.00     0.014 A 
ATOM     82  C   UNL A   1      32.763  25.321  24.364  1.00  0.00     0.061 A 
ATOM     83  C   UNL A   1      31.447  26.681  22.314  1.00  0.00     0.005 A 
ATOM     84  C   UNL A   1      33.045  24.999  23.035  1.00  0.00     0.130 A 
ATOM     85  C   UNL A   1      32.387  25.690  22.012  1.00  0.00     0.047 A 
BRANCH  84  86
ATOM     86  O   UNL A   1      33.906  23.999  22.627  1.00  0.00    -0.438 OA
BRANCH  86  87
ATOM     87  C   UNL A   1      33.778  22.770  23.237  1.00  0.00     0.234 A 
ATOM     88  N   UNL A   1      32.654  22.077  22.922  1.00  0.00    -0.214 NA
ATOM     89  C   UNL A   1      34.754  22.294  24.117  1.00  0.00     0.087 A 
ATOM     90  C   UNL A   1      32.508  20.850  23.479  1.00  0.00     0.200 A 
ATOM     91  C   UNL A   1      34.604  21.012  24.644  1.00  0.00     0.108 A 
ATOM     92  Br  UNL A   1      36.293  23.294  24.575  1.00  0.00    -0.045 Br
ATOM     93  C   UNL A   1      33.458  20.282  24.314  1.00  0.00     0.288 A 
BRANCH  93  94
ATOM     94  N   UNL A   1      33.268  18.926  24.809  1.00  0.00     0.064 N 
ATOM     95  O   UNL A   1      32.234  18.687  25.445  1.00  0.00    -0.258 OA
ATOM     96  O   UNL A   1      34.142  18.092  24.539  1.00  0.00    -0.258 OA
ENDBRANCH  93  94
ENDBRANCH  86  87
ENDBRANCH  84  86
ENDBRANCH  77  80
ENDBRANCH  75  76
ENDBRANCH  74  75
ENDBRANCH   1  74
TORSDOF 16
ENDMDL
