MODEL 1
REMARK VINA RESULT:     -13.3      0.000      0.000
REMARK SMILES O=C(NCCCCCCNC(=O)[C@@H]1c2ccccc2C(=O)N(C2CCCC2)C12CCCCC2)c1ccc(-c2c3nc(c(-c4c(F)c(F)c(F)c(F)c4F)c4ccc([nH]4)c(-c4c(F)c(F)c(F)c(F)c4F)c4nc(c(-c5c(F)c(F)c(F)c(F)c5F)c5ccc2[nH]5)C=C4)C=C3)cc1
REMARK SMILES IDX 6 1 5 2 4 3 3 4 1 5 2 6 34 8 35 9 96 10 36 11 95 12 37 13
REMARK SMILES IDX 38 14 39 15 89 16 40 17 94 18 88 19 90 20 41 21 93 22 87 23
REMARK SMILES IDX 86 24 42 26 74 27 54 28 73 29 55 30 58 31 72 32 91 33 56 34
REMARK SMILES IDX 57 35 71 37 92 38 59 39 43 40 44 41 52 42 45 43 46 44 50 45
REMARK SMILES IDX 53 46 47 47 48 48 51 49 49 50 75 51 76 52 84 53 77 54 78 55
REMARK SMILES IDX 82 56 85 57 79 58 80 59 83 60 81 61 60 62 61 63 69 64 62 65
REMARK SMILES IDX 63 66 67 67 70 68 64 69 65 70 68 71 66 72 7 73 8 74 9 75
REMARK SMILES IDX 10 76 11 77 12 79 13 80 14 81 28 82 15 83 19 84 22 85 29 86
REMARK SMILES IDX 33 87 16 88 18 89 20 90 30 91 32 92 17 93 21 94 31 95 23 96
REMARK SMILES IDX 24 97 27 98 25 99 26 100
REMARK H PARENT 3 7 90 25 58 36 10 78
REMARK Flexibility Score: inf
ROOT
ATOM      1  C   UNL A   1      36.435  20.545  25.049  1.00  0.00     0.002 C 
ENDROOT
BRANCH   1   2
ATOM      2  C   UNL A   1      37.869  20.150  24.690  1.00  0.00     0.021 C 
BRANCH   2   3
ATOM      3  C   UNL A   1      38.916  20.457  25.751  1.00  0.00     0.116 C 
BRANCH   3   4
ATOM      4  N   UNL A   1      39.884  19.388  25.893  1.00  0.00    -0.352 N 
ATOM      5  O   UNL A   1      41.916  18.439  26.034  1.00  0.00    -0.269 OA
ATOM      6  C   UNL A   1      41.233  19.454  26.118  1.00  0.00     0.251 C 
ATOM      7  H   UNL A   1      39.517  18.478  25.816  1.00  0.00     0.163 HD
BRANCH   6   8
ATOM      8  C   UNL A   1      41.876  20.743  26.459  1.00  0.00     0.039 A 
ATOM      9  C   UNL A   1      42.011  21.080  27.808  1.00  0.00     0.014 A 
ATOM     10  C   UNL A   1      42.275  21.645  25.468  1.00  0.00     0.014 A 
ATOM     11  C   UNL A   1      42.544  22.320  28.164  1.00  0.00     0.010 A 
ATOM     12  C   UNL A   1      42.880  22.848  25.823  1.00  0.00     0.010 A 
ATOM     13  C   UNL A   1      42.979  23.214  27.174  1.00  0.00    -0.014 A 
BRANCH  13  14
ATOM     14  C   UNL A   1      43.435  24.579  27.532  1.00  0.00     0.031 A 
ATOM     15  C   UNL A   1      42.417  25.627  27.889  1.00  0.00     0.074 A 
ATOM     16  C   UNL A   1      44.747  24.880  27.532  1.00  0.00     0.049 A 
ATOM     17  N   UNL A   1      42.595  26.888  28.193  1.00  0.00    -0.248 NA
ATOM     18  C   UNL A   1      41.006  25.207  27.881  1.00  0.00     0.031 C 
ATOM     19  C   UNL A   1      45.825  23.953  27.190  1.00  0.00     0.029 A 
ATOM     20  N   UNL A   1      45.393  26.050  27.836  1.00  0.00    -0.354 N 
ATOM     21  C   UNL A   1      41.323  27.409  28.394  1.00  0.00     0.074 A 
ATOM     22  C   UNL A   1      40.380  26.349  28.120  1.00  0.00     0.031 C 
ATOM     23  C   UNL A   1      47.003  24.581  27.336  1.00  0.00     0.029 A 
ATOM     24  C   UNL A   1      46.760  25.962  27.747  1.00  0.00     0.049 A 
ATOM     25  H   UNL A   1      44.922  26.875  28.093  1.00  0.00     0.167 HD
ATOM     26  C   UNL A   1      40.975  28.651  28.803  1.00  0.00     0.037 A 
ATOM     27  C   UNL A   1      47.709  26.891  27.976  1.00  0.00     0.037 A 
ATOM     28  C   UNL A   1      41.918  29.690  29.116  1.00  0.00     0.049 A 
ATOM     29  C   UNL A   1      47.297  28.271  28.410  1.00  0.00     0.074 A 
ATOM     30  C   UNL A   1      41.669  30.966  29.589  1.00  0.00     0.029 A 
ATOM     31  N   UNL A   1      43.294  29.568  28.992  1.00  0.00    -0.354 N 
ATOM     32  N   UNL A   1      46.094  28.743  28.633  1.00  0.00    -0.248 NA
ATOM     33  C   UNL A   1      48.374  29.248  28.623  1.00  0.00     0.031 C 
ATOM     34  C   UNL A   1      42.892  31.631  29.713  1.00  0.00     0.029 A 
ATOM     35  C   UNL A   1      43.906  30.754  29.358  1.00  0.00     0.049 A 
ATOM     36  H   UNL A   1      43.765  28.758  28.689  1.00  0.00     0.167 HD
ATOM     37  C   UNL A   1      46.268  30.063  29.025  1.00  0.00     0.074 A 
ATOM     38  C   UNL A   1      47.695  30.314  29.027  1.00  0.00     0.031 C 
ATOM     39  C   UNL A   1      45.329  30.985  29.351  1.00  0.00     0.037 A 
BRANCH  26  40
ATOM     40  C   UNL A   1      39.511  28.948  28.948  1.00  0.00     0.064 A 
ATOM     41  C   UNL A   1      38.731  29.347  27.851  1.00  0.00     0.173 A 
ATOM     42  C   UNL A   1      38.873  28.805  30.188  1.00  0.00     0.173 A 
ATOM     43  F   UNL A   1      39.296  29.513  26.646  1.00  0.00    -0.203 F 
ATOM     44  C   UNL A   1      37.373  29.617  27.997  1.00  0.00     0.198 A 
ATOM     45  C   UNL A   1      37.509  29.046  30.326  1.00  0.00     0.198 A 
ATOM     46  F   UNL A   1      39.572  28.423  31.268  1.00  0.00    -0.203 F 
ATOM     47  F   UNL A   1      36.659  30.044  26.947  1.00  0.00    -0.200 F 
ATOM     48  C   UNL A   1      36.762  29.460  29.232  1.00  0.00     0.200 A 
ATOM     49  F   UNL A   1      36.916  28.882  31.516  1.00  0.00    -0.200 F 
ATOM     50  F   UNL A   1      35.454  29.713  29.371  1.00  0.00    -0.200 F 
ENDBRANCH  26  40
BRANCH  27  51
ATOM     51  C   UNL A   1      49.140  26.523  27.836  1.00  0.00     0.064 A 
ATOM     52  C   UNL A   1      49.743  26.461  26.573  1.00  0.00     0.173 A 
ATOM     53  C   UNL A   1      49.942  26.263  28.958  1.00  0.00     0.173 A 
ATOM     54  F   UNL A   1      49.011  26.682  25.472  1.00  0.00    -0.203 F 
ATOM     55  C   UNL A   1      51.095  26.155  26.435  1.00  0.00     0.198 A 
ATOM     56  C   UNL A   1      51.300  25.979  28.820  1.00  0.00     0.198 A 
ATOM     57  F   UNL A   1      49.412  26.312  30.188  1.00  0.00    -0.203 F 
ATOM     58  F   UNL A   1      51.642  26.081  25.214  1.00  0.00    -0.200 F 
ATOM     59  C   UNL A   1      51.874  25.924  27.559  1.00  0.00     0.200 A 
ATOM     60  F   UNL A   1      52.051  25.771  29.909  1.00  0.00    -0.200 F 
ATOM     61  F   UNL A   1      53.179  25.644  27.428  1.00  0.00    -0.200 F 
ENDBRANCH  27  51
BRANCH  39  62
ATOM     62  C   UNL A   1      45.805  32.354  29.739  1.00  0.00     0.064 A 
ATOM     63  C   UNL A   1      45.917  33.382  28.793  1.00  0.00     0.173 A 
ATOM     64  C   UNL A   1      46.069  32.662  31.083  1.00  0.00     0.173 A 
ATOM     65  F   UNL A   1      45.686  33.134  27.495  1.00  0.00    -0.203 F 
ATOM     66  C   UNL A   1      46.286  34.669  29.177  1.00  0.00     0.198 A 
ATOM     67  C   UNL A   1      46.412  33.955  31.466  1.00  0.00     0.198 A 
ATOM     68  F   UNL A   1      45.967  31.714  32.027  1.00  0.00    -0.203 F 
ATOM     69  F   UNL A   1      46.415  35.631  28.252  1.00  0.00    -0.200 F 
ATOM     70  C   UNL A   1      46.522  34.956  30.514  1.00  0.00     0.200 A 
ATOM     71  F   UNL A   1      46.624  34.235  32.759  1.00  0.00    -0.200 F 
ATOM     72  F   UNL A   1      46.859  36.200  30.882  1.00  0.00    -0.200 F 
ENDBRANCH  39  62
ENDBRANCH  13  14
ENDBRANCH   6   8
ENDBRANCH   3   4
ENDBRANCH   2   3
ENDBRANCH   1   2
BRANCH   1  73
ATOM     73  C   UNL A   1      36.007  21.958  24.646  1.00  0.00     0.002 C 
BRANCH  73  74
ATOM     74  C   UNL A   1      35.721  22.916  25.799  1.00  0.00     0.021 C 
BRANCH  74  75
ATOM     75  C   UNL A   1      34.683  23.990  25.506  1.00  0.00     0.116 C 
BRANCH  75  76
ATOM     76  N   UNL A   1      33.700  24.161  26.560  1.00  0.00    -0.355 N 
ATOM     77  C   UNL A   1      32.365  24.440  26.488  1.00  0.00     0.229 C 
ATOM     78  H   UNL A   1      34.052  24.061  27.475  1.00  0.00     0.163 HD
ATOM     79  O   UNL A   1      31.713  24.311  27.529  1.00  0.00    -0.274 OA
BRANCH  77  80
ATOM     80  C   UNL A   1      31.672  24.874  25.185  1.00  0.00     0.135 C 
ATOM     81  C   UNL A   1      31.947  23.888  24.056  1.00  0.00    -0.020 A 
ATOM     82  C   UNL A   1      31.828  26.415  24.815  1.00  0.00     0.059 C 
ATOM     83  C   UNL A   1      31.935  22.499  24.298  1.00  0.00     0.005 A 
ATOM     84  C   UNL A   1      32.277  24.341  22.778  1.00  0.00     0.044 A 
ATOM     85  N   UNL A   1      31.386  26.554  23.349  1.00  0.00    -0.329 N 
ATOM     86  C   UNL A   1      33.287  26.983  24.857  1.00  0.00     0.030 C 
ATOM     87  C   UNL A   1      30.958  27.257  25.811  1.00  0.00     0.030 C 
ATOM     88  C   UNL A   1      32.395  21.603  23.333  1.00  0.00     0.000 A 
ATOM     89  C   UNL A   1      32.753  23.439  21.814  1.00  0.00     0.014 A 
ATOM     90  C   UNL A   1      32.003  25.741  22.384  1.00  0.00     0.254 C 
ATOM     91  C   UNL A   1      33.872  27.350  26.220  1.00  0.00     0.002 C 
ATOM     92  C   UNL A   1      31.575  27.599  27.168  1.00  0.00     0.002 C 
ATOM     93  C   UNL A   1      32.839  22.076  22.102  1.00  0.00     0.001 A 
ATOM     94  O   UNL A   1      32.208  26.086  21.224  1.00  0.00    -0.269 OA
ATOM     95  C   UNL A   1      32.948  28.230  27.036  1.00  0.00     0.000 C 
BRANCH  85  96
ATOM     96  C   UNL A   1      30.491  27.588  22.803  1.00  0.00     0.086 C 
ATOM     97  C   UNL A   1      29.042  27.530  23.284  1.00  0.00     0.025 C 
ATOM     98  C   UNL A   1      30.940  29.047  22.895  1.00  0.00     0.025 C 
ATOM     99  C   UNL A   1      28.490  28.890  22.890  1.00  0.00     0.002 C 
ATOM    100  C   UNL A   1      29.654  29.860  23.068  1.00  0.00     0.002 C 
ENDBRANCH  85  96
ENDBRANCH  77  80
ENDBRANCH  75  76
ENDBRANCH  74  75
ENDBRANCH  73  74
ENDBRANCH   1  73
TORSDOF 14
ENDMDL
MODEL 2
REMARK VINA RESULT:     -13.1      0.860      7.096
REMARK SMILES O=C(NCCCCCCNC(=O)[C@@H]1c2ccccc2C(=O)N(C2CCCC2)C12CCCCC2)c1ccc(-c2c3nc(c(-c4c(F)c(F)c(F)c(F)c4F)c4ccc([nH]4)c(-c4c(F)c(F)c(F)c(F)c4F)c4nc(c(-c5c(F)c(F)c(F)c(F)c5F)c5ccc2[nH]5)C=C4)C=C3)cc1
REMARK SMILES IDX 6 1 5 2 4 3 3 4 1 5 2 6 34 8 35 9 96 10 36 11 95 12 37 13
REMARK SMILES IDX 38 14 39 15 89 16 40 17 94 18 88 19 90 20 41 21 93 22 87 23
REMARK SMILES IDX 86 24 42 26 74 27 54 28 73 29 55 30 58 31 72 32 91 33 56 34
REMARK SMILES IDX 57 35 71 37 92 38 59 39 43 40 44 41 52 42 45 43 46 44 50 45
REMARK SMILES IDX 53 46 47 47 48 48 51 49 49 50 75 51 76 52 84 53 77 54 78 55
REMARK SMILES IDX 82 56 85 57 79 58 80 59 83 60 81 61 60 62 61 63 69 64 62 65
REMARK SMILES IDX 63 66 67 67 70 68 64 69 65 70 68 71 66 72 7 73 8 74 9 75
REMARK SMILES IDX 10 76 11 77 12 79 13 80 14 81 28 82 15 83 19 84 22 85 29 86
REMARK SMILES IDX 33 87 16 88 18 89 20 90 30 91 32 92 17 93 21 94 31 95 23 96
REMARK SMILES IDX 24 97 27 98 25 99 26 100
REMARK H PARENT 3 7 90 25 58 36 10 78
REMARK Flexibility Score: inf
ROOT
ATOM      1  C   UNL A   1      36.568  20.296  25.002  1.00  0.00     0.002 C 
ENDROOT
BRANCH   1   2
ATOM      2  C   UNL A   1      38.055  20.015  24.776  1.00  0.00     0.021 C 
BRANCH   2   3
ATOM      3  C   UNL A   1      38.942  20.170  26.004  1.00  0.00     0.116 C 
BRANCH   3   4
ATOM      4  N   UNL A   1      40.023  19.205  26.025  1.00  0.00    -0.352 N 
ATOM      5  O   UNL A   1      42.144  18.469  25.933  1.00  0.00    -0.269 OA
ATOM      6  C   UNL A   1      41.375  19.408  26.106  1.00  0.00     0.251 C 
ATOM      7  H   UNL A   1      39.744  18.262  25.974  1.00  0.00     0.163 HD
BRANCH   6   8
ATOM      8  C   UNL A   1      41.917  20.754  26.394  1.00  0.00     0.039 A 
ATOM      9  C   UNL A   1      42.130  21.110  27.728  1.00  0.00     0.014 A 
ATOM     10  C   UNL A   1      42.144  21.685  25.376  1.00  0.00     0.014 A 
ATOM     11  C   UNL A   1      42.569  22.398  28.042  1.00  0.00     0.010 A 
ATOM     12  C   UNL A   1      42.657  22.943  25.683  1.00  0.00     0.010 A 
ATOM     13  C   UNL A   1      42.832  23.324  27.021  1.00  0.00    -0.014 A 
BRANCH  13  14
ATOM     14  C   UNL A   1      43.183  24.728  27.343  1.00  0.00     0.031 A 
ATOM     15  C   UNL A   1      44.574  25.226  27.057  1.00  0.00     0.074 A 
ATOM     16  C   UNL A   1      42.269  25.549  27.892  1.00  0.00     0.049 A 
ATOM     17  N   UNL A   1      45.101  26.399  27.296  1.00  0.00    -0.248 NA
ATOM     18  C   UNL A   1      45.504  24.267  26.440  1.00  0.00     0.031 C 
ATOM     19  C   UNL A   1      40.896  25.178  28.229  1.00  0.00     0.029 A 
ATOM     20  N   UNL A   1      42.360  26.868  28.257  1.00  0.00    -0.354 N 
ATOM     21  C   UNL A   1      46.422  26.311  26.875  1.00  0.00     0.074 A 
ATOM     22  C   UNL A   1      46.635  24.955  26.422  1.00  0.00     0.031 C 
ATOM     23  C   UNL A   1      40.260  26.254  28.720  1.00  0.00     0.029 A 
ATOM     24  C   UNL A   1      41.192  27.379  28.766  1.00  0.00     0.049 A 
ATOM     25  H   UNL A   1      43.185  27.398  28.165  1.00  0.00     0.167 HD
ATOM     26  C   UNL A   1      47.364  27.282  26.838  1.00  0.00     0.037 A 
ATOM     27  C   UNL A   1      40.906  28.617  29.214  1.00  0.00     0.037 A 
ATOM     28  C   UNL A   1      47.136  28.641  27.249  1.00  0.00     0.049 A 
ATOM     29  C   UNL A   1      41.974  29.675  29.182  1.00  0.00     0.074 A 
ATOM     30  C   UNL A   1      48.008  29.714  27.202  1.00  0.00     0.029 A 
ATOM     31  N   UNL A   1      45.944  29.114  27.780  1.00  0.00    -0.354 N 
ATOM     32  N   UNL A   1      43.208  29.592  28.748  1.00  0.00    -0.248 NA
ATOM     33  C   UNL A   1      41.610  31.000  29.705  1.00  0.00     0.031 C 
ATOM     34  C   UNL A   1      47.358  30.827  27.741  1.00  0.00     0.029 A 
ATOM     35  C   UNL A   1      46.066  30.459  28.084  1.00  0.00     0.049 A 
ATOM     36  H   UNL A   1      45.133  28.573  27.918  1.00  0.00     0.167 HD
ATOM     37  C   UNL A   1      43.764  30.851  28.929  1.00  0.00     0.074 A 
ATOM     38  C   UNL A   1      42.727  31.687  29.498  1.00  0.00     0.031 C 
ATOM     39  C   UNL A   1      45.022  31.274  28.653  1.00  0.00     0.037 A 
BRANCH  26  40
ATOM     40  C   UNL A   1      48.723  26.911  26.322  1.00  0.00     0.064 A 
ATOM     41  C   UNL A   1      49.056  27.048  24.965  1.00  0.00     0.173 A 
ATOM     42  C   UNL A   1      49.714  26.441  27.196  1.00  0.00     0.173 A 
ATOM     43  F   UNL A   1      48.140  27.479  24.086  1.00  0.00    -0.203 F 
ATOM     44  C   UNL A   1      50.322  26.703  24.499  1.00  0.00     0.198 A 
ATOM     45  C   UNL A   1      50.988  26.125  26.733  1.00  0.00     0.198 A 
ATOM     46  F   UNL A   1      49.449  26.295  28.503  1.00  0.00    -0.203 F 
ATOM     47  F   UNL A   1      50.601  26.795  23.192  1.00  0.00    -0.200 F 
ATOM     48  C   UNL A   1      51.289  26.248  25.384  1.00  0.00     0.200 A 
ATOM     49  F   UNL A   1      51.926  25.698  27.590  1.00  0.00    -0.200 F 
ATOM     50  F   UNL A   1      52.508  25.923  24.935  1.00  0.00    -0.200 F 
ENDBRANCH  26  40
BRANCH  27  51
ATOM     51  C   UNL A   1      39.533  28.922  29.689  1.00  0.00     0.064 A 
ATOM     52  C   UNL A   1      39.174  28.704  31.026  1.00  0.00     0.173 A 
ATOM     53  C   UNL A   1      38.567  29.471  28.833  1.00  0.00     0.173 A 
ATOM     54  F   UNL A   1      40.058  28.163  31.876  1.00  0.00    -0.203 F 
ATOM     55  C   UNL A   1      37.900  29.024  31.490  1.00  0.00     0.198 A 
ATOM     56  C   UNL A   1      37.300  29.812  29.304  1.00  0.00     0.198 A 
ATOM     57  F   UNL A   1      38.863  29.701  27.546  1.00  0.00    -0.203 F 
ATOM     58  F   UNL A   1      37.575  28.786  32.768  1.00  0.00    -0.200 F 
ATOM     59  C   UNL A   1      36.967  29.587  30.631  1.00  0.00     0.200 A 
ATOM     60  F   UNL A   1      36.408  30.369  28.475  1.00  0.00    -0.200 F 
ATOM     61  F   UNL A   1      35.747  29.910  31.082  1.00  0.00    -0.200 F 
ENDBRANCH  27  51
BRANCH  39  62
ATOM     62  C   UNL A   1      45.356  32.704  28.956  1.00  0.00     0.064 A 
ATOM     63  C   UNL A   1      45.994  33.066  30.151  1.00  0.00     0.173 A 
ATOM     64  C   UNL A   1      45.112  33.710  28.008  1.00  0.00     0.173 A 
ATOM     65  F   UNL A   1      46.238  32.142  31.093  1.00  0.00    -0.203 F 
ATOM     66  C   UNL A   1      46.369  34.385  30.390  1.00  0.00     0.198 A 
ATOM     67  C   UNL A   1      45.512  35.023  28.239  1.00  0.00     0.198 A 
ATOM     68  F   UNL A   1      44.512  33.412  26.846  1.00  0.00    -0.203 F 
ATOM     69  F   UNL A   1      46.953  34.714  31.551  1.00  0.00    -0.200 F 
ATOM     70  C   UNL A   1      46.137  35.360  29.430  1.00  0.00     0.200 A 
ATOM     71  F   UNL A   1      45.302  35.960  27.305  1.00  0.00    -0.200 F 
ATOM     72  F   UNL A   1      46.516  36.626  29.655  1.00  0.00    -0.200 F 
ENDBRANCH  39  62
ENDBRANCH  13  14
ENDBRANCH   6   8
ENDBRANCH   3   4
ENDBRANCH   2   3
ENDBRANCH   1   2
BRANCH   1  73
ATOM     73  C   UNL A   1      36.089  21.704  24.641  1.00  0.00     0.002 C 
BRANCH  73  74
ATOM     74  C   UNL A   1      35.644  22.572  25.815  1.00  0.00     0.021 C 
BRANCH  74  75
ATOM     75  C   UNL A   1      34.620  23.646  25.474  1.00  0.00     0.116 C 
BRANCH  75  76
ATOM     76  N   UNL A   1      33.702  23.949  26.557  1.00  0.00    -0.355 N 
ATOM     77  C   UNL A   1      32.388  24.321  26.524  1.00  0.00     0.229 C 
ATOM     78  H   UNL A   1      34.088  23.874  27.460  1.00  0.00     0.163 HD
ATOM     79  O   UNL A   1      31.778  24.300  27.598  1.00  0.00    -0.274 OA
BRANCH  77  80
ATOM     80  C   UNL A   1      31.669  24.732  25.229  1.00  0.00     0.135 C 
ATOM     81  C   UNL A   1      31.851  23.684  24.137  1.00  0.00    -0.020 A 
ATOM     82  C   UNL A   1      31.887  26.244  24.781  1.00  0.00     0.059 C 
ATOM     83  C   UNL A   1      31.778  22.309  24.444  1.00  0.00     0.005 A 
ATOM     84  C   UNL A   1      32.153  24.061  22.829  1.00  0.00     0.044 A 
ATOM     85  N   UNL A   1      31.396  26.341  23.328  1.00  0.00    -0.329 N 
ATOM     86  C   UNL A   1      33.373  26.738  24.744  1.00  0.00     0.030 C 
ATOM     87  C   UNL A   1      31.099  27.174  25.768  1.00  0.00     0.030 C 
ATOM     88  C   UNL A   1      32.156  21.348  23.507  1.00  0.00     0.000 A 
ATOM     89  C   UNL A   1      32.546  23.093  21.892  1.00  0.00     0.014 A 
ATOM     90  C   UNL A   1      31.935  25.455  22.380  1.00  0.00     0.254 C 
ATOM     91  C   UNL A   1      34.028  27.135  26.067  1.00  0.00     0.002 C 
ATOM     92  C   UNL A   1      31.784  27.544  27.085  1.00  0.00     0.002 C 
ATOM     93  C   UNL A   1      32.575  21.743  22.240  1.00  0.00     0.001 A 
ATOM     94  O   UNL A   1      32.112  25.736  21.199  1.00  0.00    -0.269 OA
ATOM     95  C   UNL A   1      33.181  28.097  26.874  1.00  0.00     0.000 C 
BRANCH  85  96
ATOM     96  C   UNL A   1      30.534  27.394  22.767  1.00  0.00     0.086 C 
ATOM     97  C   UNL A   1      29.112  27.450  23.323  1.00  0.00     0.025 C 
ATOM     98  C   UNL A   1      31.069  28.826  22.750  1.00  0.00     0.025 C 
ATOM     99  C   UNL A   1      28.618  28.817  22.876  1.00  0.00     0.002 C 
ATOM    100  C   UNL A   1      29.843  29.723  22.938  1.00  0.00     0.002 C 
ENDBRANCH  85  96
ENDBRANCH  77  80
ENDBRANCH  75  76
ENDBRANCH  74  75
ENDBRANCH  73  74
ENDBRANCH   1  73
TORSDOF 14
ENDMDL
MODEL 3
REMARK VINA RESULT:     -13.1      4.832      9.140
REMARK SMILES O=C(NCCCCCCNC(=O)[C@@H]1c2ccccc2C(=O)N(C2CCCC2)C12CCCCC2)c1ccc(-c2c3nc(c(-c4c(F)c(F)c(F)c(F)c4F)c4ccc([nH]4)c(-c4c(F)c(F)c(F)c(F)c4F)c4nc(c(-c5c(F)c(F)c(F)c(F)c5F)c5ccc2[nH]5)C=C4)C=C3)cc1
REMARK SMILES IDX 6 1 5 2 4 3 3 4 1 5 2 6 34 8 35 9 96 10 36 11 95 12 37 13
REMARK SMILES IDX 38 14 39 15 89 16 40 17 94 18 88 19 90 20 41 21 93 22 87 23
REMARK SMILES IDX 86 24 42 26 74 27 54 28 73 29 55 30 58 31 72 32 91 33 56 34
REMARK SMILES IDX 57 35 71 37 92 38 59 39 43 40 44 41 52 42 45 43 46 44 50 45
REMARK SMILES IDX 53 46 47 47 48 48 51 49 49 50 75 51 76 52 84 53 77 54 78 55
REMARK SMILES IDX 82 56 85 57 79 58 80 59 83 60 81 61 60 62 61 63 69 64 62 65
REMARK SMILES IDX 63 66 67 67 70 68 64 69 65 70 68 71 66 72 7 73 8 74 9 75
REMARK SMILES IDX 10 76 11 77 12 79 13 80 14 81 28 82 15 83 19 84 22 85 29 86
REMARK SMILES IDX 33 87 16 88 18 89 20 90 30 91 32 92 17 93 21 94 31 95 23 96
REMARK SMILES IDX 24 97 27 98 25 99 26 100
REMARK H PARENT 3 7 90 25 58 36 10 78
REMARK Flexibility Score: inf
ROOT
ATOM      1  C   UNL A   1      31.547  30.329  25.646  1.00  0.00     0.002 C 
ENDROOT
BRANCH   1   2
ATOM      2  C   UNL A   1      31.370  31.569  26.524  1.00  0.00     0.021 C 
BRANCH   2   3
ATOM      3  C   UNL A   1      32.660  32.252  26.956  1.00  0.00     0.116 C 
BRANCH   3   4
ATOM      4  N   UNL A   1      32.444  33.626  27.361  1.00  0.00    -0.352 N 
ATOM      5  O   UNL A   1      32.602  35.451  28.664  1.00  0.00    -0.269 OA
ATOM      6  C   UNL A   1      33.044  34.348  28.358  1.00  0.00     0.251 C 
ATOM      7  H   UNL A   1      31.765  34.114  26.842  1.00  0.00     0.163 HD
BRANCH   6   8
ATOM      8  C   UNL A   1      34.220  33.807  29.075  1.00  0.00     0.039 A 
ATOM      9  C   UNL A   1      35.489  34.253  28.698  1.00  0.00     0.014 A 
ATOM     10  C   UNL A   1      34.088  32.819  30.056  1.00  0.00     0.014 A 
ATOM     11  C   UNL A   1      36.625  33.709  29.300  1.00  0.00     0.010 A 
ATOM     12  C   UNL A   1      35.215  32.334  30.713  1.00  0.00     0.010 A 
ATOM     13  C   UNL A   1      36.495  32.743  30.310  1.00  0.00    -0.014 A 
BRANCH  13  14
ATOM     14  C   UNL A   1      37.691  32.070  30.874  1.00  0.00     0.031 A 
ATOM     15  C   UNL A   1      38.159  32.435  32.256  1.00  0.00     0.074 A 
ATOM     16  C   UNL A   1      38.354  31.147  30.155  1.00  0.00     0.049 A 
ATOM     17  N   UNL A   1      39.199  32.001  32.922  1.00  0.00    -0.248 NA
ATOM     18  C   UNL A   1      37.365  33.442  32.979  1.00  0.00     0.031 C 
ATOM     19  C   UNL A   1      38.005  30.720  28.801  1.00  0.00     0.029 A 
ATOM     20  N   UNL A   1      39.459  30.397  30.469  1.00  0.00    -0.354 N 
ATOM     21  C   UNL A   1      39.190  32.692  34.127  1.00  0.00     0.074 A 
ATOM     22  C   UNL A   1      38.079  33.616  34.079  1.00  0.00     0.031 C 
ATOM     23  C   UNL A   1      38.858  29.759  28.411  1.00  0.00     0.029 A 
ATOM     24  C   UNL A   1      39.833  29.528  29.475  1.00  0.00     0.049 A 
ATOM     25  H   UNL A   1      39.938  30.475  31.325  1.00  0.00     0.167 HD
ATOM     26  C   UNL A   1      40.013  32.546  35.191  1.00  0.00     0.037 A 
ATOM     27  C   UNL A   1      40.848  28.643  29.429  1.00  0.00     0.037 A 
ATOM     28  C   UNL A   1      41.090  31.595  35.251  1.00  0.00     0.049 A 
ATOM     29  C   UNL A   1      41.763  28.512  30.616  1.00  0.00     0.074 A 
ATOM     30  C   UNL A   1      41.948  31.331  36.303  1.00  0.00     0.029 A 
ATOM     31  N   UNL A   1      41.451  30.748  34.214  1.00  0.00    -0.354 N 
ATOM     32  N   UNL A   1      41.723  29.143  31.765  1.00  0.00    -0.248 NA
ATOM     33  C   UNL A   1      42.865  27.546  30.500  1.00  0.00     0.031 C 
ATOM     34  C   UNL A   1      42.856  30.353  35.889  1.00  0.00     0.029 A 
ATOM     35  C   UNL A   1      42.536  29.976  34.594  1.00  0.00     0.049 A 
ATOM     36  H   UNL A   1      41.003  30.703  33.339  1.00  0.00     0.167 HD
ATOM     37  C   UNL A   1      42.781  28.643  32.513  1.00  0.00     0.074 A 
ATOM     38  C   UNL A   1      43.435  27.643  31.695  1.00  0.00     0.031 C 
ATOM     39  C   UNL A   1      43.175  28.986  33.764  1.00  0.00     0.037 A 
BRANCH  26  40
ATOM     40  C   UNL A   1      39.770  33.426  36.382  1.00  0.00     0.064 A 
ATOM     41  C   UNL A   1      40.383  34.682  36.504  1.00  0.00     0.173 A 
ATOM     42  C   UNL A   1      38.891  33.024  37.398  1.00  0.00     0.173 A 
ATOM     43  F   UNL A   1      41.244  35.107  35.566  1.00  0.00    -0.203 F 
ATOM     44  C   UNL A   1      40.148  35.491  37.612  1.00  0.00     0.198 A 
ATOM     45  C   UNL A   1      38.634  33.847  38.491  1.00  0.00     0.198 A 
ATOM     46  F   UNL A   1      38.276  31.834  37.329  1.00  0.00    -0.203 F 
ATOM     47  F   UNL A   1      40.783  36.664  37.732  1.00  0.00    -0.200 F 
ATOM     48  C   UNL A   1      39.268  35.076  38.602  1.00  0.00     0.200 A 
ATOM     49  F   UNL A   1      37.774  33.452  39.440  1.00  0.00    -0.200 F 
ATOM     50  F   UNL A   1      39.037  35.858  39.664  1.00  0.00    -0.200 F 
ENDBRANCH  26  40
BRANCH  27  51
ATOM     51  C   UNL A   1      41.017  27.787  28.228  1.00  0.00     0.064 A 
ATOM     52  C   UNL A   1      41.814  28.208  27.155  1.00  0.00     0.173 A 
ATOM     53  C   UNL A   1      40.422  26.519  28.143  1.00  0.00     0.173 A 
ATOM     54  F   UNL A   1      42.387  29.420  27.184  1.00  0.00    -0.203 F 
ATOM     55  C   UNL A   1      42.010  27.395  26.041  1.00  0.00     0.198 A 
ATOM     56  C   UNL A   1      40.637  25.697  27.038  1.00  0.00     0.198 A 
ATOM     57  F   UNL A   1      39.653  26.070  29.144  1.00  0.00    -0.203 F 
ATOM     58  F   UNL A   1      42.758  27.831  25.019  1.00  0.00    -0.200 F 
ATOM     59  C   UNL A   1      41.429  26.136  25.988  1.00  0.00     0.200 A 
ATOM     60  F   UNL A   1      40.086  24.477  26.997  1.00  0.00    -0.200 F 
ATOM     61  F   UNL A   1      41.631  25.347  24.923  1.00  0.00    -0.200 F 
ENDBRANCH  27  51
BRANCH  39  62
ATOM     62  C   UNL A   1      44.368  28.278  34.334  1.00  0.00     0.064 A 
ATOM     63  C   UNL A   1      45.655  28.828  34.241  1.00  0.00     0.173 A 
ATOM     64  C   UNL A   1      44.212  27.083  35.052  1.00  0.00     0.173 A 
ATOM     65  F   UNL A   1      45.856  29.963  33.554  1.00  0.00    -0.203 F 
ATOM     66  C   UNL A   1      46.744  28.201  34.840  1.00  0.00     0.198 A 
ATOM     67  C   UNL A   1      45.299  26.473  35.672  1.00  0.00     0.198 A 
ATOM     68  F   UNL A   1      42.999  26.523  35.177  1.00  0.00    -0.203 F 
ATOM     69  F   UNL A   1      47.970  28.729  34.715  1.00  0.00    -0.200 F 
ATOM     70  C   UNL A   1      46.564  27.031  35.563  1.00  0.00     0.200 A 
ATOM     71  F   UNL A   1      45.120  25.353  36.384  1.00  0.00    -0.200 F 
ATOM     72  F   UNL A   1      47.611  26.441  36.155  1.00  0.00    -0.200 F 
ENDBRANCH  39  62
ENDBRANCH  13  14
ENDBRANCH   6   8
ENDBRANCH   3   4
ENDBRANCH   2   3
ENDBRANCH   1   2
BRANCH   1  73
ATOM     73  C   UNL A   1      32.147  29.099  26.332  1.00  0.00     0.002 C 
BRANCH  73  74
ATOM     74  C   UNL A   1      33.422  28.547  25.700  1.00  0.00     0.021 C 
BRANCH  74  75
ATOM     75  C   UNL A   1      33.381  27.066  25.349  1.00  0.00     0.116 C 
BRANCH  75  76
ATOM     76  N   UNL A   1      33.992  26.747  24.072  1.00  0.00    -0.355 N 
ATOM     77  C   UNL A   1      33.720  25.742  23.188  1.00  0.00     0.229 C 
ATOM     78  H   UNL A   1      34.721  27.351  23.800  1.00  0.00     0.163 HD
ATOM     79  O   UNL A   1      34.239  25.830  22.070  1.00  0.00    -0.274 OA
BRANCH  77  80
ATOM     80  C   UNL A   1      32.800  24.558  23.528  1.00  0.00     0.135 C 
ATOM     81  C   UNL A   1      31.449  25.035  24.047  1.00  0.00    -0.020 A 
ATOM     82  C   UNL A   1      33.485  23.382  24.355  1.00  0.00     0.059 C 
ATOM     83  C   UNL A   1      30.800  26.135  23.450  1.00  0.00     0.005 A 
ATOM     84  C   UNL A   1      30.859  24.434  25.158  1.00  0.00     0.044 A 
ATOM     85  N   UNL A   1      32.342  22.499  24.880  1.00  0.00    -0.329 N 
ATOM     86  C   UNL A   1      34.283  23.819  25.630  1.00  0.00     0.030 C 
ATOM     87  C   UNL A   1      34.476  22.620  23.409  1.00  0.00     0.030 C 
ATOM     88  C   UNL A   1      29.680  26.714  24.048  1.00  0.00     0.000 A 
ATOM     89  C   UNL A   1      29.741  25.025  25.766  1.00  0.00     0.014 A 
ATOM     90  C   UNL A   1      31.317  23.106  25.625  1.00  0.00     0.254 C 
ATOM     91  C   UNL A   1      35.693  24.375  25.436  1.00  0.00     0.002 C 
ATOM     92  C   UNL A   1      35.877  23.210  23.234  1.00  0.00     0.002 C 
ATOM     93  C   UNL A   1      29.171  26.179  25.227  1.00  0.00     0.001 A 
ATOM     94  O   UNL A   1      30.714  22.555  26.541  1.00  0.00    -0.269 OA
ATOM     95  C   UNL A   1      36.556  23.490  24.561  1.00  0.00     0.000 C 
BRANCH  85  96
ATOM     96  C   UNL A   1      32.286  21.029  24.839  1.00  0.00     0.086 C 
ATOM     97  C   UNL A   1      32.211  20.409  23.444  1.00  0.00     0.025 C 
ATOM     98  C   UNL A   1      33.340  20.248  25.624  1.00  0.00     0.025 C 
ATOM     99  C   UNL A   1      32.558  18.950  23.693  1.00  0.00     0.002 C 
ATOM    100  C   UNL A   1      33.590  18.972  24.815  1.00  0.00     0.002 C 
ENDBRANCH  85  96
ENDBRANCH  77  80
ENDBRANCH  75  76
ENDBRANCH  74  75
ENDBRANCH  73  74
ENDBRANCH   1  73
TORSDOF 14
ENDMDL
