MODEL 1
REMARK VINA RESULT:     -11.8      0.000      0.000
REMARK SMILES O=C(Nc1c(F)cc(F)cc1F)N[C@H]1C=C[C@@H](C(=O)NCCCCCCNC(=O)c2ccc(-c3c4nc(c(-c5c(F)c(F)c(F)c(F)c5F)c5ccc([nH]5)c(-c5c(F)c(F)c(F)c(F)c5F)c5nc(c(-c6c(F)c(F)c(F)c(F)c6F)c6ccc3[nH]6)C=C5)C=C4)cc2)C1
REMARK SMILES IDX 23 1 22 2 21 3 20 4 18 5 19 6 17 8 14 9 15 10 93 11 16 12
REMARK SMILES IDX 13 13 1 14 2 15 3 16 4 19 5 20 11 21 6 22 7 23 10 24 12 25
REMARK SMILES IDX 8 26 9 27 24 28 25 29 26 30 27 31 28 32 29 34 30 35 31 36
REMARK SMILES IDX 92 37 32 38 91 39 33 40 34 41 35 42 85 43 36 44 90 45 84 46
REMARK SMILES IDX 86 47 37 48 89 49 83 50 82 51 38 53 70 54 50 55 69 56 51 57
REMARK SMILES IDX 54 58 68 59 87 60 52 61 53 62 67 64 88 65 55 66 39 67 40 68
REMARK SMILES IDX 48 69 41 70 42 71 46 72 49 73 43 74 44 75 47 76 45 77 71 78
REMARK SMILES IDX 72 79 80 80 73 81 74 82 78 83 81 84 75 85 76 86 79 87 77 88
REMARK SMILES IDX 56 89 57 90 65 91 58 92 59 93 63 94 66 95 60 96 61 97 64 98
REMARK SMILES IDX 62 99
REMARK H PARENT 20 7 3 17 13 18 27 33 86 52 54 63
REMARK Flexibility Score: inf
ROOT
ATOM      1  C   UNL A   1      34.898  32.695  29.185  1.00  0.00     0.002 C 
ENDROOT
BRANCH   1   2
ATOM      2  C   UNL A   1      34.996  31.644  28.074  1.00  0.00     0.021 C 
BRANCH   2   3
ATOM      3  C   UNL A   1      33.660  31.291  27.421  1.00  0.00     0.116 C 
BRANCH   3   4
ATOM      4  N   UNL A   1      33.298  29.912  27.668  1.00  0.00    -0.356 N 
ATOM      5  C   UNL A   1      32.956  28.910  26.813  1.00  0.00     0.227 C 
ATOM      6  O   UNL A   1      32.697  27.812  27.318  1.00  0.00    -0.274 OA
ATOM      7  H   UNL A   1      33.299  29.654  28.618  1.00  0.00     0.163 HD
BRANCH   5   8
ATOM      8  C   UNL A   1      32.906  29.086  25.293  1.00  0.00     0.103 C 
ATOM      9  C   UNL A   1      32.974  27.667  23.283  1.00  0.00     0.107 C 
ATOM     10  C   UNL A   1      31.586  28.112  23.616  1.00  0.00    -0.006 C 
ATOM     11  C   UNL A   1      33.814  28.156  24.478  1.00  0.00     0.047 C 
ATOM     12  C   UNL A   1      31.542  28.874  24.713  1.00  0.00    -0.016 C 
BRANCH   9  13
ATOM     13  N   UNL A   1      32.960  26.229  23.192  1.00  0.00    -0.332 N 
ATOM     14  O   UNL A   1      33.238  26.112  20.945  1.00  0.00    -0.248 OA
ATOM     15  C   UNL A   1      33.128  25.553  22.032  1.00  0.00     0.319 C 
ATOM     16  N   UNL A   1      33.304  24.205  22.101  1.00  0.00    -0.303 N 
ATOM     17  H   UNL A   1      33.575  23.805  21.242  1.00  0.00     0.172 HD
ATOM     18  H   UNL A   1      32.821  25.711  24.018  1.00  0.00     0.165 HD
BRANCH  16  19
ATOM     19  C   UNL A   1      33.180  23.260  23.141  1.00  0.00     0.115 A 
ATOM     20  C   UNL A   1      31.986  22.861  23.748  1.00  0.00     0.152 A 
ATOM     21  C   UNL A   1      34.363  22.652  23.583  1.00  0.00     0.152 A 
ATOM     22  F   UNL A   1      30.803  23.344  23.349  1.00  0.00    -0.204 F 
ATOM     23  C   UNL A   1      31.969  21.923  24.775  1.00  0.00     0.081 A 
ATOM     24  C   UNL A   1      34.370  21.726  24.621  1.00  0.00     0.081 A 
ATOM     25  F   UNL A   1      35.533  22.997  23.024  1.00  0.00    -0.204 F 
ATOM     26  C   UNL A   1      33.164  21.368  25.202  1.00  0.00     0.129 A 
ATOM     27  F   UNL A   1      33.141  20.476  26.195  1.00  0.00    -0.207 F 
ENDBRANCH  16  19
ENDBRANCH   9  13
ENDBRANCH   5   8
ENDBRANCH   3   4
ENDBRANCH   2   3
ENDBRANCH   1   2
BRANCH   1  28
ATOM     28  C   UNL A   1      35.334  34.112  28.790  1.00  0.00     0.002 C 
BRANCH  28  29
ATOM     29  C   UNL A   1      34.234  35.176  28.849  1.00  0.00     0.021 C 
BRANCH  29  30
ATOM     30  C   UNL A   1      32.930  34.717  29.493  1.00  0.00     0.116 C 
BRANCH  30  31
ATOM     31  N   UNL A   1      32.444  35.654  30.492  1.00  0.00    -0.352 N 
ATOM     32  C   UNL A   1      32.831  35.798  31.801  1.00  0.00     0.251 C 
ATOM     33  H   UNL A   1      31.738  36.270  30.189  1.00  0.00     0.163 HD
ATOM     34  O   UNL A   1      32.186  36.517  32.564  1.00  0.00    -0.269 OA
BRANCH  32  35
ATOM     35  C   UNL A   1      34.015  35.072  32.307  1.00  0.00     0.039 A 
ATOM     36  C   UNL A   1      33.854  33.789  32.836  1.00  0.00     0.014 A 
ATOM     37  C   UNL A   1      35.282  35.658  32.262  1.00  0.00     0.014 A 
ATOM     38  C   UNL A   1      34.974  33.064  33.254  1.00  0.00     0.010 A 
ATOM     39  C   UNL A   1      36.401  34.910  32.624  1.00  0.00     0.010 A 
ATOM     40  C   UNL A   1      36.264  33.600  33.113  1.00  0.00    -0.014 A 
BRANCH  40  41
ATOM     41  C   UNL A   1      37.480  32.815  33.461  1.00  0.00     0.031 A 
ATOM     42  C   UNL A   1      38.221  33.099  34.740  1.00  0.00     0.074 A 
ATOM     43  C   UNL A   1      37.960  31.892  32.604  1.00  0.00     0.049 A 
ATOM     44  N   UNL A   1      39.349  32.595  35.174  1.00  0.00    -0.248 NA
ATOM     45  C   UNL A   1      37.632  34.103  35.639  1.00  0.00     0.031 C 
ATOM     46  C   UNL A   1      37.362  31.545  31.314  1.00  0.00     0.029 A 
ATOM     47  N   UNL A   1      39.066  31.078  32.683  1.00  0.00    -0.354 N 
ATOM     48  C   UNL A   1      39.607  33.228  36.382  1.00  0.00     0.074 A 
ATOM     49  C   UNL A   1      38.553  34.196  36.587  1.00  0.00     0.031 C 
ATOM     50  C   UNL A   1      38.083  30.569  30.742  1.00  0.00     0.029 A 
ATOM     51  C   UNL A   1      39.226  30.253  31.595  1.00  0.00     0.049 A 
ATOM     52  H   UNL A   1      39.686  31.088  33.447  1.00  0.00     0.167 HD
ATOM     53  C   UNL A   1      40.615  33.001  37.257  1.00  0.00     0.037 A 
ATOM     54  C   UNL A   1      40.186  29.350  31.311  1.00  0.00     0.037 A 
ATOM     55  C   UNL A   1      41.641  32.010  37.073  1.00  0.00     0.049 A 
ATOM     56  C   UNL A   1      41.314  29.139  32.288  1.00  0.00     0.074 A 
ATOM     57  C   UNL A   1      42.671  31.671  37.934  1.00  0.00     0.029 A 
ATOM     58  N   UNL A   1      41.768  31.198  35.958  1.00  0.00    -0.354 N 
ATOM     59  N   UNL A   1      41.515  29.708  33.451  1.00  0.00    -0.248 NA
ATOM     60  C   UNL A   1      42.348  28.163  31.913  1.00  0.00     0.031 C 
ATOM     61  C   UNL A   1      43.449  30.690  37.318  1.00  0.00     0.029 A 
ATOM     62  C   UNL A   1      42.874  30.376  36.097  1.00  0.00     0.049 A 
ATOM     63  H   UNL A   1      41.161  31.204  35.182  1.00  0.00     0.167 HD
ATOM     64  C   UNL A   1      42.679  29.143  33.958  1.00  0.00     0.074 A 
ATOM     65  C   UNL A   1      43.135  28.177  32.981  1.00  0.00     0.031 C 
ATOM     66  C   UNL A   1      43.310  29.405  35.126  1.00  0.00     0.037 A 
BRANCH  53  67
ATOM     67  C   UNL A   1      40.655  33.823  38.514  1.00  0.00     0.064 A 
ATOM     68  C   UNL A   1      39.858  33.479  39.617  1.00  0.00     0.173 A 
ATOM     69  C   UNL A   1      41.417  34.997  38.597  1.00  0.00     0.173 A 
ATOM     70  F   UNL A   1      39.103  32.369  39.586  1.00  0.00    -0.203 F 
ATOM     71  C   UNL A   1      39.812  34.288  40.749  1.00  0.00     0.198 A 
ATOM     72  C   UNL A   1      41.395  35.787  39.742  1.00  0.00     0.198 A 
ATOM     73  F   UNL A   1      42.203  35.365  37.574  1.00  0.00    -0.203 F 
ATOM     74  F   UNL A   1      39.016  33.959  41.774  1.00  0.00    -0.200 F 
ATOM     75  C   UNL A   1      40.584  35.438  40.813  1.00  0.00     0.200 A 
ATOM     76  F   UNL A   1      42.158  36.885  39.813  1.00  0.00    -0.200 F 
ATOM     77  F   UNL A   1      40.546  36.212  41.906  1.00  0.00    -0.200 F 
ENDBRANCH  53  67
BRANCH  54  78
ATOM     78  C   UNL A   1      40.111  28.559  30.053  1.00  0.00     0.064 A 
ATOM     79  C   UNL A   1      39.469  27.313  30.005  1.00  0.00     0.173 A 
ATOM     80  C   UNL A   1      40.695  29.035  28.871  1.00  0.00     0.173 A 
ATOM     81  F   UNL A   1      38.895  26.809  31.107  1.00  0.00    -0.203 F 
ATOM     82  C   UNL A   1      39.432  26.566  28.829  1.00  0.00     0.198 A 
ATOM     83  C   UNL A   1      40.632  28.301  27.688  1.00  0.00     0.198 A 
ATOM     84  F   UNL A   1      41.301  30.231  28.859  1.00  0.00    -0.203 F 
ATOM     85  F   UNL A   1      38.842  25.362  28.821  1.00  0.00    -0.200 F 
ATOM     86  C   UNL A   1      40.007  27.063  27.670  1.00  0.00     0.200 A 
ATOM     87  F   UNL A   1      41.166  28.798  26.563  1.00  0.00    -0.200 F 
ATOM     88  F   UNL A   1      39.957  26.351  26.535  1.00  0.00    -0.200 F 
ENDBRANCH  54  78
BRANCH  66  89
ATOM     89  C   UNL A   1      44.553  28.628  35.449  1.00  0.00     0.064 A 
ATOM     90  C   UNL A   1      44.473  27.435  36.186  1.00  0.00     0.173 A 
ATOM     91  C   UNL A   1      45.827  29.121  35.133  1.00  0.00     0.173 A 
ATOM     92  F   UNL A   1      43.277  26.928  36.521  1.00  0.00    -0.203 F 
ATOM     93  C   UNL A   1      45.622  26.780  36.618  1.00  0.00     0.198 A 
ATOM     94  C   UNL A   1      46.974  28.447  35.543  1.00  0.00     0.198 A 
ATOM     95  F   UNL A   1      45.955  30.250  34.421  1.00  0.00    -0.203 F 
ATOM     96  F   UNL A   1      45.520  25.671  37.363  1.00  0.00    -0.200 F 
ATOM     97  C   UNL A   1      46.872  27.287  36.297  1.00  0.00     0.200 A 
ATOM     98  F   UNL A   1      48.183  28.926  35.214  1.00  0.00    -0.200 F 
ATOM     99  F   UNL A   1      47.979  26.659  36.716  1.00  0.00    -0.200 F 
ENDBRANCH  66  89
ENDBRANCH  40  41
ENDBRANCH  32  35
ENDBRANCH  30  31
ENDBRANCH  29  30
ENDBRANCH  28  29
ENDBRANCH   1  28
TORSDOF 15
ENDMDL
MODEL 2
REMARK VINA RESULT:     -11.8      3.898      8.804
REMARK SMILES O=C(Nc1c(F)cc(F)cc1F)N[C@H]1C=C[C@@H](C(=O)NCCCCCCNC(=O)c2ccc(-c3c4nc(c(-c5c(F)c(F)c(F)c(F)c5F)c5ccc([nH]5)c(-c5c(F)c(F)c(F)c(F)c5F)c5nc(c(-c6c(F)c(F)c(F)c(F)c6F)c6ccc3[nH]6)C=C5)C=C4)cc2)C1
REMARK SMILES IDX 23 1 22 2 21 3 20 4 18 5 19 6 17 8 14 9 15 10 93 11 16 12
REMARK SMILES IDX 13 13 1 14 2 15 3 16 4 19 5 20 11 21 6 22 7 23 10 24 12 25
REMARK SMILES IDX 8 26 9 27 24 28 25 29 26 30 27 31 28 32 29 34 30 35 31 36
REMARK SMILES IDX 92 37 32 38 91 39 33 40 34 41 35 42 85 43 36 44 90 45 84 46
REMARK SMILES IDX 86 47 37 48 89 49 83 50 82 51 38 53 70 54 50 55 69 56 51 57
REMARK SMILES IDX 54 58 68 59 87 60 52 61 53 62 67 64 88 65 55 66 39 67 40 68
REMARK SMILES IDX 48 69 41 70 42 71 46 72 49 73 43 74 44 75 47 76 45 77 71 78
REMARK SMILES IDX 72 79 80 80 73 81 74 82 78 83 81 84 75 85 76 86 79 87 77 88
REMARK SMILES IDX 56 89 57 90 65 91 58 92 59 93 63 94 66 95 60 96 61 97 64 98
REMARK SMILES IDX 62 99
REMARK H PARENT 20 7 3 17 13 18 27 33 86 52 54 63
REMARK Flexibility Score: inf
ROOT
ATOM      1  C   UNL A   1      34.312  23.582  22.901  1.00  0.00     0.002 C 
ENDROOT
BRANCH   1   2
ATOM      2  C   UNL A   1      33.065  24.393  22.526  1.00  0.00     0.021 C 
BRANCH   2   3
ATOM      3  C   UNL A   1      33.179  25.889  22.813  1.00  0.00     0.116 C 
BRANCH   3   4
ATOM      4  N   UNL A   1      32.104  26.631  22.188  1.00  0.00    -0.356 N 
ATOM      5  C   UNL A   1      31.058  27.314  22.726  1.00  0.00     0.227 C 
ATOM      6  O   UNL A   1      30.287  27.865  21.934  1.00  0.00    -0.274 OA
ATOM      7  H   UNL A   1      32.137  26.645  21.204  1.00  0.00     0.163 HD
BRANCH   5   8
ATOM      8  C   UNL A   1      30.824  27.436  24.235  1.00  0.00     0.103 C 
ATOM      9  C   UNL A   1      30.964  26.002  26.230  1.00  0.00     0.107 C 
ATOM     10  C   UNL A   1      32.144  26.911  26.102  1.00  0.00    -0.006 C 
ATOM     11  C   UNL A   1      30.187  26.218  24.917  1.00  0.00     0.047 C 
ATOM     12  C   UNL A   1      32.079  27.684  25.013  1.00  0.00    -0.016 C 
BRANCH   9  13
ATOM     13  N   UNL A   1      31.462  24.655  26.340  1.00  0.00    -0.332 N 
ATOM     14  O   UNL A   1      29.577  23.756  27.224  1.00  0.00    -0.248 OA
ATOM     15  C   UNL A   1      30.721  23.620  26.799  1.00  0.00     0.319 C 
ATOM     16  N   UNL A   1      31.227  22.364  26.662  1.00  0.00    -0.303 N 
ATOM     17  H   UNL A   1      30.573  21.657  26.870  1.00  0.00     0.172 HD
ATOM     18  H   UNL A   1      32.392  24.478  26.069  1.00  0.00     0.165 HD
BRANCH  16  19
ATOM     19  C   UNL A   1      32.490  21.861  26.286  1.00  0.00     0.115 A 
ATOM     20  C   UNL A   1      33.669  21.966  27.030  1.00  0.00     0.152 A 
ATOM     21  C   UNL A   1      32.556  21.172  25.067  1.00  0.00     0.152 A 
ATOM     22  F   UNL A   1      33.687  22.554  28.233  1.00  0.00    -0.204 F 
ATOM     23  C   UNL A   1      34.872  21.440  26.568  1.00  0.00     0.081 A 
ATOM     24  C   UNL A   1      33.751  20.656  24.578  1.00  0.00     0.081 A 
ATOM     25  F   UNL A   1      31.448  21.039  24.322  1.00  0.00    -0.204 F 
ATOM     26  C   UNL A   1      34.899  20.793  25.343  1.00  0.00     0.129 A 
ATOM     27  F   UNL A   1      36.058  20.300  24.902  1.00  0.00    -0.207 F 
ENDBRANCH  16  19
ENDBRANCH   9  13
ENDBRANCH   5   8
ENDBRANCH   3   4
ENDBRANCH   2   3
ENDBRANCH   1   2
BRANCH   1  28
ATOM     28  C   UNL A   1      35.158  24.165  24.039  1.00  0.00     0.002 C 
BRANCH  28  29
ATOM     29  C   UNL A   1      36.578  23.604  24.153  1.00  0.00     0.021 C 
BRANCH  29  30
ATOM     30  C   UNL A   1      37.225  23.767  25.525  1.00  0.00     0.116 C 
BRANCH  30  31
ATOM     31  N   UNL A   1      38.369  22.889  25.709  1.00  0.00    -0.352 N 
ATOM     32  C   UNL A   1      39.598  23.175  26.249  1.00  0.00     0.251 C 
ATOM     33  H   UNL A   1      38.246  21.962  25.402  1.00  0.00     0.163 HD
ATOM     34  O   UNL A   1      40.519  22.364  26.159  1.00  0.00    -0.269 OA
BRANCH  32  35
ATOM     35  C   UNL A   1      39.827  24.469  26.924  1.00  0.00     0.039 A 
ATOM     36  C   UNL A   1      39.393  24.638  28.241  1.00  0.00     0.014 A 
ATOM     37  C   UNL A   1      40.465  25.517  26.256  1.00  0.00     0.014 A 
ATOM     38  C   UNL A   1      39.664  25.833  28.915  1.00  0.00     0.010 A 
ATOM     39  C   UNL A   1      40.785  26.683  26.950  1.00  0.00     0.010 A 
ATOM     40  C   UNL A   1      40.400  26.853  28.289  1.00  0.00    -0.014 A 
BRANCH  40  41
ATOM     41  C   UNL A   1      40.784  28.096  29.012  1.00  0.00     0.031 A 
ATOM     42  C   UNL A   1      42.186  28.265  29.533  1.00  0.00     0.074 A 
ATOM     43  C   UNL A   1      39.862  29.049  29.260  1.00  0.00     0.049 A 
ATOM     44  N   UNL A   1      42.687  29.226  30.267  1.00  0.00    -0.248 NA
ATOM     45  C   UNL A   1      43.146  27.199  29.209  1.00  0.00     0.031 C 
ATOM     46  C   UNL A   1      38.459  28.995  28.846  1.00  0.00     0.029 A 
ATOM     47  N   UNL A   1      39.962  30.248  29.927  1.00  0.00    -0.354 N 
ATOM     48  C   UNL A   1      44.009  28.873  30.502  1.00  0.00     0.074 A 
ATOM     49  C   UNL A   1      44.220  27.583  29.885  1.00  0.00     0.031 C 
ATOM     50  C   UNL A   1      37.841  30.122  29.234  1.00  0.00     0.029 A 
ATOM     51  C   UNL A   1      38.786  30.958  29.970  1.00  0.00     0.049 A 
ATOM     52  H   UNL A   1      40.798  30.566  30.336  1.00  0.00     0.167 HD
ATOM     53  C   UNL A   1      44.970  29.576  31.147  1.00  0.00     0.037 A 
ATOM     54  C   UNL A   1      38.496  32.142  30.544  1.00  0.00     0.037 A 
ATOM     55  C   UNL A   1      44.773  30.878  31.727  1.00  0.00     0.049 A 
ATOM     56  C   UNL A   1      39.576  32.890  31.282  1.00  0.00     0.074 A 
ATOM     57  C   UNL A   1      45.704  31.690  32.350  1.00  0.00     0.029 A 
ATOM     58  N   UNL A   1      43.566  31.559  31.750  1.00  0.00    -0.354 N 
ATOM     59  N   UNL A   1      40.835  32.568  31.450  1.00  0.00    -0.248 NA
ATOM     60  C   UNL A   1      39.196  34.163  31.913  1.00  0.00     0.031 C 
ATOM     61  C   UNL A   1      45.051  32.839  32.797  1.00  0.00     0.029 A 
ATOM     62  C   UNL A   1      43.724  32.771  32.403  1.00  0.00     0.049 A 
ATOM     63  H   UNL A   1      42.724  31.231  31.362  1.00  0.00     0.167 HD
ATOM     64  C   UNL A   1      41.402  33.606  32.179  1.00  0.00     0.074 A 
ATOM     65  C   UNL A   1      40.354  34.575  32.413  1.00  0.00     0.031 C 
ATOM     66  C   UNL A   1      42.677  33.738  32.615  1.00  0.00     0.037 A 
BRANCH  53  67
ATOM     67  C   UNL A   1      46.340  28.967  31.249  1.00  0.00     0.064 A 
ATOM     68  C   UNL A   1      47.276  29.143  30.219  1.00  0.00     0.173 A 
ATOM     69  C   UNL A   1      46.696  28.140  32.324  1.00  0.00     0.173 A 
ATOM     70  F   UNL A   1      46.984  29.918  29.163  1.00  0.00    -0.203 F 
ATOM     71  C   UNL A   1      48.512  28.502  30.256  1.00  0.00     0.198 A 
ATOM     72  C   UNL A   1      47.944  27.526  32.375  1.00  0.00     0.198 A 
ATOM     73  F   UNL A   1      45.839  27.946  33.339  1.00  0.00    -0.203 F 
ATOM     74  F   UNL A   1      49.376  28.657  29.244  1.00  0.00    -0.200 F 
ATOM     75  C   UNL A   1      48.847  27.699  31.335  1.00  0.00     0.200 A 
ATOM     76  F   UNL A   1      48.275  26.770  33.429  1.00  0.00    -0.200 F 
ATOM     77  F   UNL A   1      50.040  27.090  31.375  1.00  0.00    -0.200 F 
ENDBRANCH  53  67
BRANCH  54  78
ATOM     78  C   UNL A   1      37.126  32.710  30.423  1.00  0.00     0.064 A 
ATOM     79  C   UNL A   1      36.147  32.482  31.401  1.00  0.00     0.173 A 
ATOM     80  C   UNL A   1      36.767  33.488  29.312  1.00  0.00     0.173 A 
ATOM     81  F   UNL A   1      36.435  31.744  32.483  1.00  0.00    -0.203 F 
ATOM     82  C   UNL A   1      34.857  32.993  31.262  1.00  0.00     0.198 A 
ATOM     83  C   UNL A   1      35.486  34.022  29.189  1.00  0.00     0.198 A 
ATOM     84  F   UNL A   1      37.674  33.754  28.361  1.00  0.00    -0.203 F 
ATOM     85  F   UNL A   1      33.931  32.729  32.195  1.00  0.00    -0.200 F 
ATOM     86  C   UNL A   1      34.530  33.768  30.160  1.00  0.00     0.200 A 
ATOM     87  F   UNL A   1      35.182  34.794  28.136  1.00  0.00    -0.200 F 
ATOM     88  F   UNL A   1      33.294  34.272  30.036  1.00  0.00    -0.200 F 
ENDBRANCH  54  78
BRANCH  66  89
ATOM     89  C   UNL A   1      43.041  34.983  33.370  1.00  0.00     0.064 A 
ATOM     90  C   UNL A   1      42.904  35.031  34.767  1.00  0.00     0.173 A 
ATOM     91  C   UNL A   1      43.411  36.161  32.705  1.00  0.00     0.173 A 
ATOM     92  F   UNL A   1      42.543  33.933  35.448  1.00  0.00    -0.203 F 
ATOM     93  C   UNL A   1      43.097  36.218  35.466  1.00  0.00     0.198 A 
ATOM     94  C   UNL A   1      43.631  37.340  33.412  1.00  0.00     0.198 A 
ATOM     95  F   UNL A   1      43.567  36.162  31.374  1.00  0.00    -0.203 F 
ATOM     96  F   UNL A   1      42.910  36.251  36.793  1.00  0.00    -0.200 F 
ATOM     97  C   UNL A   1      43.459  37.373  34.788  1.00  0.00     0.200 A 
ATOM     98  F   UNL A   1      44.003  38.450  32.758  1.00  0.00    -0.200 F 
ATOM     99  F   UNL A   1      43.642  38.517  35.461  1.00  0.00    -0.200 F 
ENDBRANCH  66  89
ENDBRANCH  40  41
ENDBRANCH  32  35
ENDBRANCH  30  31
ENDBRANCH  29  30
ENDBRANCH  28  29
ENDBRANCH   1  28
TORSDOF 15
ENDMDL
MODEL 3
REMARK VINA RESULT:     -11.7      1.873      7.835
REMARK SMILES O=C(Nc1c(F)cc(F)cc1F)N[C@H]1C=C[C@@H](C(=O)NCCCCCCNC(=O)c2ccc(-c3c4nc(c(-c5c(F)c(F)c(F)c(F)c5F)c5ccc([nH]5)c(-c5c(F)c(F)c(F)c(F)c5F)c5nc(c(-c6c(F)c(F)c(F)c(F)c6F)c6ccc3[nH]6)C=C5)C=C4)cc2)C1
REMARK SMILES IDX 23 1 22 2 21 3 20 4 18 5 19 6 17 8 14 9 15 10 93 11 16 12
REMARK SMILES IDX 13 13 1 14 2 15 3 16 4 19 5 20 11 21 6 22 7 23 10 24 12 25
REMARK SMILES IDX 8 26 9 27 24 28 25 29 26 30 27 31 28 32 29 34 30 35 31 36
REMARK SMILES IDX 92 37 32 38 91 39 33 40 34 41 35 42 85 43 36 44 90 45 84 46
REMARK SMILES IDX 86 47 37 48 89 49 83 50 82 51 38 53 70 54 50 55 69 56 51 57
REMARK SMILES IDX 54 58 68 59 87 60 52 61 53 62 67 64 88 65 55 66 39 67 40 68
REMARK SMILES IDX 48 69 41 70 42 71 46 72 49 73 43 74 44 75 47 76 45 77 71 78
REMARK SMILES IDX 72 79 80 80 73 81 74 82 78 83 81 84 75 85 76 86 79 87 77 88
REMARK SMILES IDX 56 89 57 90 65 91 58 92 59 93 63 94 66 95 60 96 61 97 64 98
REMARK SMILES IDX 62 99
REMARK H PARENT 20 7 3 17 13 18 27 33 86 52 54 63
REMARK Flexibility Score: inf
ROOT
ATOM      1  C   UNL A   1      31.591  30.004  25.071  1.00  0.00     0.002 C 
ENDROOT
BRANCH   1   2
ATOM      2  C   UNL A   1      30.302  30.164  24.256  1.00  0.00     0.021 C 
BRANCH   2   3
ATOM      3  C   UNL A   1      30.294  29.398  22.934  1.00  0.00     0.116 C 
BRANCH   3   4
ATOM      4  N   UNL A   1      31.523  28.658  22.743  1.00  0.00    -0.356 N 
ATOM      5  C   UNL A   1      31.802  27.334  22.886  1.00  0.00     0.227 C 
ATOM      6  O   UNL A   1      32.961  26.980  22.644  1.00  0.00    -0.274 OA
ATOM      7  H   UNL A   1      32.290  29.208  22.460  1.00  0.00     0.163 HD
BRANCH   5   8
ATOM      8  C   UNL A   1      30.755  26.298  23.301  1.00  0.00     0.103 C 
ATOM      9  C   UNL A   1      30.700  24.065  24.335  1.00  0.00     0.107 C 
ATOM     10  C   UNL A   1      30.355  25.148  25.307  1.00  0.00    -0.006 C 
ATOM     11  C   UNL A   1      31.134  24.829  23.070  1.00  0.00     0.047 C 
ATOM     12  C   UNL A   1      30.395  26.364  24.753  1.00  0.00    -0.016 C 
BRANCH   9  13
ATOM     13  N   UNL A   1      31.785  23.304  24.898  1.00  0.00    -0.332 N 
ATOM     14  O   UNL A   1      30.497  21.805  26.011  1.00  0.00    -0.248 OA
ATOM     15  C   UNL A   1      31.607  22.206  25.670  1.00  0.00     0.319 C 
ATOM     16  N   UNL A   1      32.700  21.454  25.970  1.00  0.00    -0.303 N 
ATOM     17  H   UNL A   1      32.475  20.594  26.395  1.00  0.00     0.172 HD
ATOM     18  H   UNL A   1      32.706  23.598  24.713  1.00  0.00     0.165 HD
BRANCH  16  19
ATOM     19  C   UNL A   1      34.087  21.644  25.800  1.00  0.00     0.115 A 
ATOM     20  C   UNL A   1      34.828  22.734  26.265  1.00  0.00     0.152 A 
ATOM     21  C   UNL A   1      34.783  20.633  25.124  1.00  0.00     0.152 A 
ATOM     22  F   UNL A   1      34.257  23.717  26.972  1.00  0.00    -0.204 F 
ATOM     23  C   UNL A   1      36.198  22.834  26.039  1.00  0.00     0.081 A 
ATOM     24  C   UNL A   1      36.148  20.721  24.872  1.00  0.00     0.081 A 
ATOM     25  F   UNL A   1      34.116  19.562  24.666  1.00  0.00    -0.204 F 
ATOM     26  C   UNL A   1      36.842  21.826  25.341  1.00  0.00     0.129 A 
ATOM     27  F   UNL A   1      38.154  21.933  25.120  1.00  0.00    -0.207 F 
ENDBRANCH  16  19
ENDBRANCH   9  13
ENDBRANCH   5   8
ENDBRANCH   3   4
ENDBRANCH   2   3
ENDBRANCH   1   2
BRANCH   1  28
ATOM     28  C   UNL A   1      31.543  30.570  26.496  1.00  0.00     0.002 C 
BRANCH  28  29
ATOM     29  C   UNL A   1      31.464  32.095  26.593  1.00  0.00     0.021 C 
BRANCH  29  30
ATOM     30  C   UNL A   1      32.645  32.756  27.298  1.00  0.00     0.116 C 
BRANCH  30  31
ATOM     31  N   UNL A   1      32.400  34.158  27.597  1.00  0.00    -0.352 N 
ATOM     32  C   UNL A   1      32.980  34.949  28.557  1.00  0.00     0.251 C 
ATOM     33  H   UNL A   1      31.726  34.601  27.033  1.00  0.00     0.163 HD
ATOM     34  O   UNL A   1      32.524  36.066  28.799  1.00  0.00    -0.269 OA
BRANCH  32  35
ATOM     35  C   UNL A   1      34.143  34.452  29.322  1.00  0.00     0.039 A 
ATOM     36  C   UNL A   1      33.937  33.872  30.576  1.00  0.00     0.014 A 
ATOM     37  C   UNL A   1      35.435  34.563  28.804  1.00  0.00     0.014 A 
ATOM     38  C   UNL A   1      35.020  33.336  31.280  1.00  0.00     0.010 A 
ATOM     39  C   UNL A   1      36.502  33.975  29.482  1.00  0.00     0.010 A 
ATOM     40  C   UNL A   1      36.309  33.344  30.720  1.00  0.00    -0.014 A 
BRANCH  40  41
ATOM     41  C   UNL A   1      37.463  32.698  31.404  1.00  0.00     0.031 A 
ATOM     42  C   UNL A   1      38.195  31.563  30.740  1.00  0.00     0.074 A 
ATOM     43  C   UNL A   1      37.817  33.083  32.647  1.00  0.00     0.049 A 
ATOM     44  N   UNL A   1      39.157  30.810  31.210  1.00  0.00    -0.248 NA
ATOM     45  C   UNL A   1      37.771  31.208  29.377  1.00  0.00     0.031 C 
ATOM     46  C   UNL A   1      37.168  34.143  33.420  1.00  0.00     0.029 A 
ATOM     47  N   UNL A   1      38.806  32.623  33.485  1.00  0.00    -0.354 N 
ATOM     48  C   UNL A   1      39.441  29.890  30.210  1.00  0.00     0.074 A 
ATOM     49  C   UNL A   1      38.512  30.137  29.130  1.00  0.00     0.031 C 
ATOM     50  C   UNL A   1      37.796  34.277  34.599  1.00  0.00     0.029 A 
ATOM     51  C   UNL A   1      38.860  33.280  34.692  1.00  0.00     0.049 A 
ATOM     52  H   UNL A   1      39.417  31.891  33.243  1.00  0.00     0.167 HD
ATOM     53  C   UNL A   1      40.410  28.944  30.181  1.00  0.00     0.037 A 
ATOM     54  C   UNL A   1      39.666  33.096  35.756  1.00  0.00     0.037 A 
ATOM     55  C   UNL A   1      41.361  28.724  31.238  1.00  0.00     0.049 A 
ATOM     56  C   UNL A   1      40.716  32.016  35.710  1.00  0.00     0.074 A 
ATOM     57  C   UNL A   1      42.413  27.826  31.272  1.00  0.00     0.029 A 
ATOM     58  N   UNL A   1      41.378  29.409  32.443  1.00  0.00    -0.354 N 
ATOM     59  N   UNL A   1      41.007  31.189  34.736  1.00  0.00    -0.248 NA
ATOM     60  C   UNL A   1      41.548  31.842  36.910  1.00  0.00     0.031 C 
ATOM     61  C   UNL A   1      43.036  27.931  32.517  1.00  0.00     0.029 A 
ATOM     62  C   UNL A   1      42.408  28.934  33.238  1.00  0.00     0.049 A 
ATOM     63  H   UNL A   1      40.752  30.125  32.695  1.00  0.00     0.167 HD
ATOM     64  C   UNL A   1      42.068  30.417  35.193  1.00  0.00     0.074 A 
ATOM     65  C   UNL A   1      42.379  30.881  36.528  1.00  0.00     0.031 C 
ATOM     66  C   UNL A   1      42.721  29.415  34.560  1.00  0.00     0.037 A 
BRANCH  53  67
ATOM     67  C   UNL A   1      40.514  28.079  28.957  1.00  0.00     0.064 A 
ATOM     68  C   UNL A   1      41.284  28.489  27.859  1.00  0.00     0.173 A 
ATOM     69  C   UNL A   1      39.785  26.887  28.839  1.00  0.00     0.173 A 
ATOM     70  F   UNL A   1      41.994  29.627  27.916  1.00  0.00    -0.203 F 
ATOM     71  C   UNL A   1      41.308  27.744  26.682  1.00  0.00     0.198 A 
ATOM     72  C   UNL A   1      39.836  26.128  27.674  1.00  0.00     0.198 A 
ATOM     73  F   UNL A   1      39.040  26.447  29.865  1.00  0.00    -0.203 F 
ATOM     74  F   UNL A   1      42.021  28.175  25.633  1.00  0.00    -0.200 F 
ATOM     75  C   UNL A   1      40.589  26.563  26.592  1.00  0.00     0.200 A 
ATOM     76  F   UNL A   1      39.160  24.974  27.597  1.00  0.00    -0.200 F 
ATOM     77  F   UNL A   1      40.619  25.842  25.463  1.00  0.00    -0.200 F 
ENDBRANCH  53  67
BRANCH  54  78
ATOM     78  C   UNL A   1      39.528  33.972  36.951  1.00  0.00     0.064 A 
ATOM     79  C   UNL A   1      40.148  35.229  37.017  1.00  0.00     0.173 A 
ATOM     80  C   UNL A   1      38.776  33.559  38.060  1.00  0.00     0.173 A 
ATOM     81  F   UNL A   1      40.880  35.673  35.985  1.00  0.00    -0.203 F 
ATOM     82  C   UNL A   1      40.037  36.028  38.154  1.00  0.00     0.198 A 
ATOM     83  C   UNL A   1      38.642  34.371  39.184  1.00  0.00     0.198 A 
ATOM     84  F   UNL A   1      38.145  32.376  38.037  1.00  0.00    -0.203 F 
ATOM     85  F   UNL A   1      40.669  37.209  38.203  1.00  0.00    -0.200 F 
ATOM     86  C   UNL A   1      39.279  35.602  39.234  1.00  0.00     0.200 A 
ATOM     87  F   UNL A   1      37.886  33.967  40.214  1.00  0.00    -0.200 F 
ATOM     88  F   UNL A   1      39.160  36.378  40.320  1.00  0.00    -0.200 F 
ENDBRANCH  54  78
BRANCH  66  89
ATOM     89  C   UNL A   1      43.862  28.751  35.275  1.00  0.00     0.064 A 
ATOM     90  C   UNL A   1      45.185  29.152  35.025  1.00  0.00     0.173 A 
ATOM     91  C   UNL A   1      43.657  27.647  36.114  1.00  0.00     0.173 A 
ATOM     92  F   UNL A   1      45.433  30.197  34.222  1.00  0.00    -0.203 F 
ATOM     93  C   UNL A   1      46.260  28.454  35.567  1.00  0.00     0.198 A 
ATOM     94  C   UNL A   1      44.735  26.969  36.676  1.00  0.00     0.198 A 
ATOM     95  F   UNL A   1      42.412  27.234  36.392  1.00  0.00    -0.203 F 
ATOM     96  F   UNL A   1      47.514  28.824  35.273  1.00  0.00    -0.200 F 
ATOM     97  C   UNL A   1      46.034  27.362  36.392  1.00  0.00     0.200 A 
ATOM     98  F   UNL A   1      44.515  25.927  37.491  1.00  0.00    -0.200 F 
ATOM     99  F   UNL A   1      47.069  26.688  36.910  1.00  0.00    -0.200 F 
ENDBRANCH  66  89
ENDBRANCH  40  41
ENDBRANCH  32  35
ENDBRANCH  30  31
ENDBRANCH  29  30
ENDBRANCH  28  29
ENDBRANCH   1  28
TORSDOF 15
ENDMDL
