MODEL 1
REMARK VINA RESULT:     -12.1      0.000      0.000
REMARK SMILES CCc1ccc2c(CC(=O)NCCCCCCNC(=O)c3ccc(-c4c5nc(c(-c6c(F)c(F)c(F)c(F)c6F)c6ccc([nH]6)c(-c6c(F)c(F)c(F)c(F)c6F)c6nc(c(-c7c(F)c(F)c(F)c(F)c7F)c7ccc4[nH]7)C=C6)C=C5)cc3)c(C(=O)c3cc(C)ccn3)[nH]c2c1
REMARK SMILES IDX 14 1 13 2 12 3 11 4 9 5 10 6 8 8 7 9 3 10 4 11 96 12 5 13
REMARK SMILES IDX 95 14 6 15 94 16 84 17 2 19 1 20 85 21 86 22 87 23 88 24
REMARK SMILES IDX 93 25 89 26 92 27 90 28 91 29 15 30 16 31 17 32 18 33 19 34
REMARK SMILES IDX 20 36 21 37 22 38 83 39 23 40 82 41 24 42 25 43 26 44 76 45
REMARK SMILES IDX 27 46 81 47 75 48 77 49 28 50 80 51 74 52 73 53 29 55 61 56
REMARK SMILES IDX 41 57 60 58 42 59 45 60 59 61 78 62 43 63 44 64 58 66 79 67
REMARK SMILES IDX 46 68 30 69 31 70 39 71 32 72 33 73 37 74 40 75 34 76 35 77
REMARK SMILES IDX 38 78 36 79 62 80 63 81 71 82 64 83 65 84 69 85 72 86 66 87
REMARK SMILES IDX 67 88 70 89 68 90 47 91 48 92 56 93 49 94 50 95 54 96 57 97
REMARK SMILES IDX 51 98 52 99 55 100 53 101
REMARK H PARENT 11 7 94 18 18 35 77 54 45 65
REMARK Flexibility Score: inf
ROOT
ATOM      1  C   UNL A   1      34.023  25.233  24.226  1.00  0.00     0.002 C 
ENDROOT
BRANCH   1   2
ATOM      2  C   UNL A   1      33.754  24.176  23.145  1.00  0.00     0.021 C 
BRANCH   2   3
ATOM      3  C   UNL A   1      32.285  24.039  22.749  1.00  0.00     0.116 C 
BRANCH   3   4
ATOM      4  N   UNL A   1      31.763  25.252  22.160  1.00  0.00    -0.356 N 
ATOM      5  C   UNL A   1      30.803  26.108  22.616  1.00  0.00     0.224 C 
ATOM      6  O   UNL A   1      30.672  27.170  22.001  1.00  0.00    -0.275 OA
ATOM      7  H   UNL A   1      32.163  25.499  21.295  1.00  0.00     0.163 HD
BRANCH   5   8
ATOM      8  C   UNL A   1      30.039  25.841  23.908  1.00  0.00     0.138 C 
BRANCH   8   9
ATOM      9  C   UNL A   1      30.747  26.220  25.184  1.00  0.00    -0.002 A 
ATOM     10  C   UNL A   1      32.429  29.809  26.684  1.00  0.00    -0.046 A 
ATOM     11  C   UNL A   1      31.775  29.903  25.450  1.00  0.00     0.004 A 
ATOM     12  C   UNL A   1      32.496  28.565  27.335  1.00  0.00     0.030 A 
ATOM     13  C   UNL A   1      31.166  28.789  24.860  1.00  0.00     0.011 A 
ATOM     14  C   UNL A   1      31.873  27.462  26.731  1.00  0.00     0.046 A 
ATOM     15  C   UNL A   1      31.216  27.539  25.510  1.00  0.00     0.004 A 
ATOM     16  N   UNL A   1      31.777  26.158  27.155  1.00  0.00    -0.352 N 
ATOM     17  C   UNL A   1      31.019  25.403  26.282  1.00  0.00     0.093 A 
ATOM     18  H   UNL A   1      32.195  25.808  27.974  1.00  0.00     0.167 HD
BRANCH  10  19
ATOM     19  C   UNL A   1      33.100  31.041  27.249  1.00  0.00     0.032 C 
ATOM     20  C   UNL A   1      34.565  30.858  27.626  1.00  0.00     0.009 C 
ENDBRANCH  10  19
BRANCH  17  21
ATOM     21  C   UNL A   1      30.623  24.016  26.502  1.00  0.00     0.227 C 
ATOM     22  O   UNL A   1      29.461  23.673  26.722  1.00  0.00    -0.285 OA
BRANCH  21  23
ATOM     23  C   UNL A   1      31.667  22.959  26.528  1.00  0.00     0.113 A 
ATOM     24  C   UNL A   1      31.777  22.069  25.462  1.00  0.00     0.036 A 
ATOM     25  N   UNL A   1      32.472  22.937  27.618  1.00  0.00    -0.253 NA
ATOM     26  C   UNL A   1      32.775  21.094  25.514  1.00  0.00    -0.047 A 
ATOM     27  C   UNL A   1      33.451  22.010  27.625  1.00  0.00     0.112 A 
ATOM     28  C   UNL A   1      32.951  20.099  24.407  1.00  0.00     0.044 C 
ATOM     29  C   UNL A   1      33.636  21.078  26.616  1.00  0.00     0.023 A 
ENDBRANCH  21  23
ENDBRANCH  17  21
ENDBRANCH   8   9
ENDBRANCH   5   8
ENDBRANCH   3   4
ENDBRANCH   2   3
ENDBRANCH   1   2
BRANCH   1  30
ATOM     30  C   UNL A   1      34.860  24.760  25.421  1.00  0.00     0.002 C 
BRANCH  30  31
ATOM     31  C   UNL A   1      35.700  23.503  25.180  1.00  0.00     0.021 C 
BRANCH  31  32
ATOM     32  C   UNL A   1      37.190  23.755  24.971  1.00  0.00     0.116 C 
BRANCH  32  33
ATOM     33  N   UNL A   1      38.015  22.710  25.559  1.00  0.00    -0.352 N 
ATOM     34  C   UNL A   1      39.124  22.820  26.358  1.00  0.00     0.251 C 
ATOM     35  H   UNL A   1      37.734  21.790  25.354  1.00  0.00     0.163 HD
ATOM     36  O   UNL A   1      39.792  21.823  26.625  1.00  0.00    -0.269 OA
BRANCH  34  37
ATOM     37  C   UNL A   1      39.535  24.136  26.893  1.00  0.00     0.039 A 
ATOM     38  C   UNL A   1      39.222  24.452  28.219  1.00  0.00     0.014 A 
ATOM     39  C   UNL A   1      40.191  25.071  26.087  1.00  0.00     0.014 A 
ATOM     40  C   UNL A   1      39.609  25.684  28.751  1.00  0.00     0.010 A 
ATOM     41  C   UNL A   1      40.629  26.274  26.636  1.00  0.00     0.010 A 
ATOM     42  C   UNL A   1      40.335  26.596  27.969  1.00  0.00    -0.014 A 
BRANCH  42  43
ATOM     43  C   UNL A   1      40.777  27.902  28.521  1.00  0.00     0.031 A 
ATOM     44  C   UNL A   1      42.227  28.127  28.848  1.00  0.00     0.074 A 
ATOM     45  C   UNL A   1      39.868  28.859  28.784  1.00  0.00     0.049 A 
ATOM     46  N   UNL A   1      42.799  29.159  29.416  1.00  0.00    -0.248 NA
ATOM     47  C   UNL A   1      43.154  27.035  28.514  1.00  0.00     0.031 C 
ATOM     48  C   UNL A   1      38.430  28.749  28.546  1.00  0.00     0.029 A 
ATOM     49  N   UNL A   1      40.022  30.113  29.323  1.00  0.00    -0.354 N 
ATOM     50  C   UNL A   1      44.143  28.833  29.526  1.00  0.00     0.074 A 
ATOM     51  C   UNL A   1      44.298  27.491  29.004  1.00  0.00     0.031 C 
ATOM     52  C   UNL A   1      37.833  29.892  28.922  1.00  0.00     0.029 A 
ATOM     53  C   UNL A   1      38.841  30.802  29.457  1.00  0.00     0.049 A 
ATOM     54  H   UNL A   1      40.895  30.482  29.589  1.00  0.00     0.167 HD
ATOM     55  C   UNL A   1      45.161  29.590  29.999  1.00  0.00     0.037 A 
ATOM     56  C   UNL A   1      38.602  32.028  29.959  1.00  0.00     0.037 A 
ATOM     57  C   UNL A   1      45.013  30.936  30.486  1.00  0.00     0.049 A 
ATOM     58  C   UNL A   1      39.753  32.855  30.466  1.00  0.00     0.074 A 
ATOM     59  C   UNL A   1      45.990  31.804  30.942  1.00  0.00     0.029 A 
ATOM     60  N   UNL A   1      43.805  31.614  30.573  1.00  0.00    -0.354 N 
ATOM     61  N   UNL A   1      41.027  32.554  30.521  1.00  0.00    -0.248 NA
ATOM     62  C   UNL A   1      39.430  34.195  30.975  1.00  0.00     0.031 C 
ATOM     63  C   UNL A   1      45.370  32.995  31.335  1.00  0.00     0.029 A 
ATOM     64  C   UNL A   1      44.012  32.884  31.084  1.00  0.00     0.049 A 
ATOM     65  H   UNL A   1      42.931  31.245  30.309  1.00  0.00     0.167 HD
ATOM     66  C   UNL A   1      41.662  33.675  31.038  1.00  0.00     0.074 A 
ATOM     67  C   UNL A   1      40.633  34.667  31.274  1.00  0.00     0.031 C 
ATOM     68  C   UNL A   1      42.978  33.864  31.295  1.00  0.00     0.037 A 
BRANCH  55  69
ATOM     69  C   UNL A   1      46.532  28.980  30.009  1.00  0.00     0.064 A 
ATOM     70  C   UNL A   1      47.015  28.278  31.124  1.00  0.00     0.173 A 
ATOM     71  C   UNL A   1      47.361  29.072  28.881  1.00  0.00     0.173 A 
ATOM     72  F   UNL A   1      46.266  28.174  32.232  1.00  0.00    -0.203 F 
ATOM     73  C   UNL A   1      48.288  27.715  31.120  1.00  0.00     0.198 A 
ATOM     74  C   UNL A   1      48.623  28.483  28.869  1.00  0.00     0.198 A 
ATOM     75  F   UNL A   1      46.946  29.728  27.787  1.00  0.00    -0.203 F 
ATOM     76  F   UNL A   1      48.746  27.090  32.213  1.00  0.00    -0.200 F 
ATOM     77  C   UNL A   1      49.088  27.812  29.992  1.00  0.00     0.200 A 
ATOM     78  F   UNL A   1      49.391  28.569  27.776  1.00  0.00    -0.200 F 
ATOM     79  F   UNL A   1      50.312  27.265  29.987  1.00  0.00    -0.200 F 
ENDBRANCH  55  69
BRANCH  56  80
ATOM     80  C   UNL A   1      37.218  32.564  29.977  1.00  0.00     0.064 A 
ATOM     81  C   UNL A   1      36.776  33.442  28.977  1.00  0.00     0.173 A 
ATOM     82  C   UNL A   1      36.313  32.216  30.990  1.00  0.00     0.173 A 
ATOM     83  F   UNL A   1      37.613  33.819  28.001  1.00  0.00    -0.203 F 
ATOM     84  C   UNL A   1      35.486  33.968  29.000  1.00  0.00     0.198 A 
ATOM     85  C   UNL A   1      35.015  32.723  30.998  1.00  0.00     0.198 A 
ATOM     86  F   UNL A   1      36.686  31.378  31.967  1.00  0.00    -0.203 F 
ATOM     87  F   UNL A   1      35.103  34.838  28.057  1.00  0.00    -0.200 F 
ATOM     88  C   UNL A   1      34.604  33.604  30.008  1.00  0.00     0.200 A 
ATOM     89  F   UNL A   1      34.162  32.362  31.967  1.00  0.00    -0.200 F 
ATOM     90  F   UNL A   1      33.363  34.109  30.030  1.00  0.00    -0.200 F 
ENDBRANCH  56  80
BRANCH  68  91
ATOM     91  C   UNL A   1      43.389  35.209  31.817  1.00  0.00     0.064 A 
ATOM     92  C   UNL A   1      43.783  36.243  30.956  1.00  0.00     0.173 A 
ATOM     93  C   UNL A   1      43.349  35.477  33.194  1.00  0.00     0.173 A 
ATOM     94  F   UNL A   1      43.852  36.030  29.633  1.00  0.00    -0.203 F 
ATOM     95  C   UNL A   1      44.144  37.490  31.457  1.00  0.00     0.198 A 
ATOM     96  C   UNL A   1      43.685  36.733  33.689  1.00  0.00     0.198 A 
ATOM     97  F   UNL A   1      42.972  34.522  34.057  1.00  0.00    -0.203 F 
ATOM     98  F   UNL A   1      44.558  38.452  30.619  1.00  0.00    -0.200 F 
ATOM     99  C   UNL A   1      44.088  37.736  32.820  1.00  0.00     0.200 A 
ATOM    100  F   UNL A   1      43.621  36.972  35.005  1.00  0.00    -0.200 F 
ATOM    101  F   UNL A   1      44.431  38.940  33.300  1.00  0.00    -0.200 F 
ENDBRANCH  68  91
ENDBRANCH  42  43
ENDBRANCH  34  37
ENDBRANCH  32  33
ENDBRANCH  31  32
ENDBRANCH  30  31
ENDBRANCH   1  30
TORSDOF 17
ENDMDL
MODEL 2
REMARK VINA RESULT:     -12.1      3.973      8.253
REMARK SMILES CCc1ccc2c(CC(=O)NCCCCCCNC(=O)c3ccc(-c4c5nc(c(-c6c(F)c(F)c(F)c(F)c6F)c6ccc([nH]6)c(-c6c(F)c(F)c(F)c(F)c6F)c6nc(c(-c7c(F)c(F)c(F)c(F)c7F)c7ccc4[nH]7)C=C6)C=C5)cc3)c(C(=O)c3cc(C)ccn3)[nH]c2c1
REMARK SMILES IDX 14 1 13 2 12 3 11 4 9 5 10 6 8 8 7 9 3 10 4 11 96 12 5 13
REMARK SMILES IDX 95 14 6 15 94 16 84 17 2 19 1 20 85 21 86 22 87 23 88 24
REMARK SMILES IDX 93 25 89 26 92 27 90 28 91 29 15 30 16 31 17 32 18 33 19 34
REMARK SMILES IDX 20 36 21 37 22 38 83 39 23 40 82 41 24 42 25 43 26 44 76 45
REMARK SMILES IDX 27 46 81 47 75 48 77 49 28 50 80 51 74 52 73 53 29 55 61 56
REMARK SMILES IDX 41 57 60 58 42 59 45 60 59 61 78 62 43 63 44 64 58 66 79 67
REMARK SMILES IDX 46 68 30 69 31 70 39 71 32 72 33 73 37 74 40 75 34 76 35 77
REMARK SMILES IDX 38 78 36 79 62 80 63 81 71 82 64 83 65 84 69 85 72 86 66 87
REMARK SMILES IDX 67 88 70 89 68 90 47 91 48 92 56 93 49 94 50 95 54 96 57 97
REMARK SMILES IDX 51 98 52 99 55 100 53 101
REMARK H PARENT 11 7 94 18 18 35 77 54 45 65
REMARK Flexibility Score: inf
ROOT
ATOM      1  C   UNL A   1      32.012  29.788  26.879  1.00  0.00     0.002 C 
ENDROOT
BRANCH   1   2
ATOM      2  C   UNL A   1      33.472  29.397  26.607  1.00  0.00     0.021 C 
BRANCH   2   3
ATOM      3  C   UNL A   1      33.642  28.092  25.832  1.00  0.00     0.116 C 
BRANCH   3   4
ATOM      4  N   UNL A   1      32.694  27.083  26.248  1.00  0.00    -0.356 N 
ATOM      5  C   UNL A   1      32.700  25.734  26.043  1.00  0.00     0.224 C 
ATOM      6  O   UNL A   1      31.858  25.077  26.662  1.00  0.00    -0.275 OA
ATOM      7  H   UNL A   1      31.924  27.422  26.759  1.00  0.00     0.163 HD
BRANCH   5   8
ATOM      8  C   UNL A   1      33.787  25.053  25.219  1.00  0.00     0.138 C 
BRANCH   8   9
ATOM      9  C   UNL A   1      33.310  24.076  24.175  1.00  0.00    -0.002 A 
ATOM     10  C   UNL A   1      32.559  19.905  24.144  1.00  0.00    -0.046 A 
ATOM     11  C   UNL A   1      32.928  20.456  25.377  1.00  0.00     0.004 A 
ATOM     12  C   UNL A   1      32.467  20.740  23.016  1.00  0.00     0.030 A 
ATOM     13  C   UNL A   1      33.186  21.826  25.516  1.00  0.00     0.011 A 
ATOM     14  C   UNL A   1      32.723  22.110  23.178  1.00  0.00     0.046 A 
ATOM     15  C   UNL A   1      33.085  22.673  24.395  1.00  0.00     0.004 A 
ATOM     16  N   UNL A   1      32.688  23.131  22.260  1.00  0.00    -0.352 N 
ATOM     17  C   UNL A   1      32.949  24.349  22.855  1.00  0.00     0.093 A 
ATOM     18  H   UNL A   1      32.503  23.010  21.300  1.00  0.00     0.167 HD
BRANCH  10  19
ATOM     19  C   UNL A   1      32.331  18.412  24.052  1.00  0.00     0.032 C 
ATOM     20  C   UNL A   1      32.533  17.650  25.356  1.00  0.00     0.009 C 
ENDBRANCH  10  19
BRANCH  17  21
ATOM     21  C   UNL A   1      32.868  25.643  22.186  1.00  0.00     0.227 C 
ATOM     22  O   UNL A   1      33.651  25.998  21.305  1.00  0.00    -0.285 OA
BRANCH  21  23
ATOM     23  C   UNL A   1      31.836  26.621  22.620  1.00  0.00     0.113 A 
ATOM     24  C   UNL A   1      30.581  26.170  23.023  1.00  0.00     0.036 A 
ATOM     25  N   UNL A   1      32.200  27.927  22.600  1.00  0.00    -0.253 NA
ATOM     26  C   UNL A   1      29.639  27.114  23.434  1.00  0.00    -0.047 A 
ATOM     27  C   UNL A   1      31.285  28.814  23.037  1.00  0.00     0.112 A 
ATOM     28  C   UNL A   1      28.267  26.705  23.876  1.00  0.00     0.044 C 
ATOM     29  C   UNL A   1      30.009  28.462  23.452  1.00  0.00     0.023 A 
ENDBRANCH  21  23
ENDBRANCH  17  21
ENDBRANCH   8   9
ENDBRANCH   5   8
ENDBRANCH   3   4
ENDBRANCH   2   3
ENDBRANCH   1   2
BRANCH   1  30
ATOM     30  C   UNL A   1      31.430  30.862  25.953  1.00  0.00     0.002 C 
BRANCH  30  31
ATOM     31  C   UNL A   1      31.256  32.247  26.581  1.00  0.00     0.021 C 
BRANCH  31  32
ATOM     32  C   UNL A   1      32.531  32.858  27.157  1.00  0.00     0.116 C 
BRANCH  32  33
ATOM     33  N   UNL A   1      32.327  34.219  27.627  1.00  0.00    -0.352 N 
ATOM     34  C   UNL A   1      32.950  34.894  28.645  1.00  0.00     0.251 C 
ATOM     35  H   UNL A   1      31.641  34.732  27.143  1.00  0.00     0.163 HD
ATOM     36  O   UNL A   1      32.528  35.989  29.009  1.00  0.00    -0.269 OA
BRANCH  34  37
ATOM     37  C   UNL A   1      34.125  34.305  29.325  1.00  0.00     0.039 A 
ATOM     38  C   UNL A   1      33.920  33.533  30.474  1.00  0.00     0.014 A 
ATOM     39  C   UNL A   1      35.422  34.538  28.861  1.00  0.00     0.014 A 
ATOM     40  C   UNL A   1      35.011  32.956  31.128  1.00  0.00     0.010 A 
ATOM     41  C   UNL A   1      36.504  33.914  29.479  1.00  0.00     0.010 A 
ATOM     42  C   UNL A   1      36.310  33.125  30.622  1.00  0.00    -0.014 A 
BRANCH  42  43
ATOM     43  C   UNL A   1      37.482  32.502  31.288  1.00  0.00     0.031 A 
ATOM     44  C   UNL A   1      38.237  31.399  30.602  1.00  0.00     0.074 A 
ATOM     45  C   UNL A   1      37.828  32.886  32.531  1.00  0.00     0.049 A 
ATOM     46  N   UNL A   1      39.228  30.669  31.048  1.00  0.00    -0.248 NA
ATOM     47  C   UNL A   1      37.802  31.052  29.240  1.00  0.00     0.031 C 
ATOM     48  C   UNL A   1      37.154  33.919  33.316  1.00  0.00     0.029 A 
ATOM     49  N   UNL A   1      38.830  32.441  33.358  1.00  0.00    -0.354 N 
ATOM     50  C   UNL A   1      39.520  29.767  30.035  1.00  0.00     0.074 A 
ATOM     51  C   UNL A   1      38.576  30.012  28.965  1.00  0.00     0.031 C 
ATOM     52  C   UNL A   1      37.768  34.041  34.504  1.00  0.00     0.029 A 
ATOM     53  C   UNL A   1      38.859  33.072  34.577  1.00  0.00     0.049 A 
ATOM     54  H   UNL A   1      39.467  31.735  33.101  1.00  0.00     0.167 HD
ATOM     55  C   UNL A   1      40.500  28.834  29.989  1.00  0.00     0.037 A 
ATOM     56  C   UNL A   1      39.671  32.886  35.634  1.00  0.00     0.037 A 
ATOM     57  C   UNL A   1      41.461  28.614  31.039  1.00  0.00     0.049 A 
ATOM     58  C   UNL A   1      40.761  31.852  35.553  1.00  0.00     0.074 A 
ATOM     59  C   UNL A   1      42.521  27.725  31.069  1.00  0.00     0.029 A 
ATOM     60  N   UNL A   1      41.479  29.298  32.245  1.00  0.00    -0.354 N 
ATOM     61  N   UNL A   1      41.058  31.037  34.570  1.00  0.00    -0.248 NA
ATOM     62  C   UNL A   1      41.633  31.716  36.728  1.00  0.00     0.031 C 
ATOM     63  C   UNL A   1      43.162  27.849  32.306  1.00  0.00     0.029 A 
ATOM     64  C   UNL A   1      42.526  28.845  33.030  1.00  0.00     0.049 A 
ATOM     65  H   UNL A   1      40.842  30.003  32.505  1.00  0.00     0.167 HD
ATOM     66  C   UNL A   1      42.166  30.317  34.993  1.00  0.00     0.074 A 
ATOM     67  C   UNL A   1      42.496  30.796  36.320  1.00  0.00     0.031 C 
ATOM     68  C   UNL A   1      42.850  29.346  34.341  1.00  0.00     0.037 A 
BRANCH  55  69
ATOM     69  C   UNL A   1      40.587  27.980  28.759  1.00  0.00     0.064 A 
ATOM     70  C   UNL A   1      41.365  28.361  27.655  1.00  0.00     0.173 A 
ATOM     71  C   UNL A   1      39.910  26.753  28.694  1.00  0.00     0.173 A 
ATOM     72  F   UNL A   1      42.020  29.530  27.663  1.00  0.00    -0.203 F 
ATOM     73  C   UNL A   1      41.439  27.558  26.519  1.00  0.00     0.198 A 
ATOM     74  C   UNL A   1      40.008  25.939  27.568  1.00  0.00     0.198 A 
ATOM     75  F   UNL A   1      39.156  26.340  29.724  1.00  0.00    -0.203 F 
ATOM     76  F   UNL A   1      42.149  27.964  25.459  1.00  0.00    -0.200 F 
ATOM     77  C   UNL A   1      40.766  26.346  26.479  1.00  0.00     0.200 A 
ATOM     78  F   UNL A   1      39.367  24.764  27.534  1.00  0.00    -0.200 F 
ATOM     79  F   UNL A   1      40.842  25.572  25.388  1.00  0.00    -0.200 F 
ENDBRANCH  55  69
BRANCH  56  80
ATOM     80  C   UNL A   1      39.508  33.722  36.850  1.00  0.00     0.064 A 
ATOM     81  C   UNL A   1      38.740  33.270  37.932  1.00  0.00     0.173 A 
ATOM     82  C   UNL A   1      40.109  34.984  36.956  1.00  0.00     0.173 A 
ATOM     83  F   UNL A   1      38.129  32.078  37.867  1.00  0.00    -0.203 F 
ATOM     84  C   UNL A   1      38.562  34.058  39.068  1.00  0.00     0.198 A 
ATOM     85  C   UNL A   1      39.951  35.761  38.102  1.00  0.00     0.198 A 
ATOM     86  F   UNL A   1      40.856  35.460  35.949  1.00  0.00    -0.203 F 
ATOM     87  F   UNL A   1      37.788  33.620  40.069  1.00  0.00    -0.200 F 
ATOM     88  C   UNL A   1      39.172  35.300  39.154  1.00  0.00     0.200 A 
ATOM     89  F   UNL A   1      40.550  36.956  38.187  1.00  0.00    -0.200 F 
ATOM     90  F   UNL A   1      39.003  36.058  40.246  1.00  0.00    -0.200 F 
ENDBRANCH  56  80
BRANCH  68  91
ATOM     91  C   UNL A   1      44.049  28.768  35.031  1.00  0.00     0.064 A 
ATOM     92  C   UNL A   1      45.320  29.346  34.905  1.00  0.00     0.173 A 
ATOM     93  C   UNL A   1      43.916  27.645  35.862  1.00  0.00     0.173 A 
ATOM     94  F   UNL A   1      45.501  30.412  34.110  1.00  0.00    -0.203 F 
ATOM     95  C   UNL A   1      46.419  28.807  35.567  1.00  0.00     0.198 A 
ATOM     96  C   UNL A   1      45.011  27.125  36.544  1.00  0.00     0.198 A 
ATOM     97  F   UNL A   1      42.718  27.061  36.020  1.00  0.00    -0.203 F 
ATOM     98  F   UNL A   1      47.633  29.350  35.399  1.00  0.00    -0.200 F 
ATOM     99  C   UNL A   1      46.262  27.702  36.391  1.00  0.00     0.200 A 
ATOM    100  F   UNL A   1      44.857  26.063  37.346  1.00  0.00    -0.200 F 
ATOM    101  F   UNL A   1      47.321  27.188  37.033  1.00  0.00    -0.200 F 
ENDBRANCH  68  91
ENDBRANCH  42  43
ENDBRANCH  34  37
ENDBRANCH  32  33
ENDBRANCH  31  32
ENDBRANCH  30  31
ENDBRANCH   1  30
TORSDOF 17
ENDMDL
MODEL 3
REMARK VINA RESULT:     -12.0      4.580      9.088
REMARK SMILES CCc1ccc2c(CC(=O)NCCCCCCNC(=O)c3ccc(-c4c5nc(c(-c6c(F)c(F)c(F)c(F)c6F)c6ccc([nH]6)c(-c6c(F)c(F)c(F)c(F)c6F)c6nc(c(-c7c(F)c(F)c(F)c(F)c7F)c7ccc4[nH]7)C=C6)C=C5)cc3)c(C(=O)c3cc(C)ccn3)[nH]c2c1
REMARK SMILES IDX 14 1 13 2 12 3 11 4 9 5 10 6 8 8 7 9 3 10 4 11 96 12 5 13
REMARK SMILES IDX 95 14 6 15 94 16 84 17 2 19 1 20 85 21 86 22 87 23 88 24
REMARK SMILES IDX 93 25 89 26 92 27 90 28 91 29 15 30 16 31 17 32 18 33 19 34
REMARK SMILES IDX 20 36 21 37 22 38 83 39 23 40 82 41 24 42 25 43 26 44 76 45
REMARK SMILES IDX 27 46 81 47 75 48 77 49 28 50 80 51 74 52 73 53 29 55 61 56
REMARK SMILES IDX 41 57 60 58 42 59 45 60 59 61 78 62 43 63 44 64 58 66 79 67
REMARK SMILES IDX 46 68 30 69 31 70 39 71 32 72 33 73 37 74 40 75 34 76 35 77
REMARK SMILES IDX 38 78 36 79 62 80 63 81 71 82 64 83 65 84 69 85 72 86 66 87
REMARK SMILES IDX 67 88 70 89 68 90 47 91 48 92 56 93 49 94 50 95 54 96 57 97
REMARK SMILES IDX 51 98 52 99 55 100 53 101
REMARK H PARENT 11 7 94 18 18 35 77 54 45 65
REMARK Flexibility Score: inf
ROOT
ATOM      1  C   UNL A   1      34.523  32.467  28.949  1.00  0.00     0.002 C 
ENDROOT
BRANCH   1   2
ATOM      2  C   UNL A   1      35.020  31.411  27.951  1.00  0.00     0.021 C 
BRANCH   2   3
ATOM      3  C   UNL A   1      33.936  30.458  27.450  1.00  0.00     0.116 C 
BRANCH   3   4
ATOM      4  N   UNL A   1      34.382  29.670  26.323  1.00  0.00    -0.356 N 
ATOM      5  C   UNL A   1      33.931  28.469  25.857  1.00  0.00     0.224 C 
ATOM      6  O   UNL A   1      34.370  28.099  24.765  1.00  0.00    -0.275 OA
ATOM      7  H   UNL A   1      35.125  30.061  25.810  1.00  0.00     0.163 HD
BRANCH   5   8
ATOM      8  C   UNL A   1      32.825  27.697  26.569  1.00  0.00     0.138 C 
BRANCH   8   9
ATOM      9  C   UNL A   1      31.696  27.207  25.699  1.00  0.00    -0.002 A 
ATOM     10  C   UNL A   1      29.042  29.063  22.965  1.00  0.00    -0.046 A 
ATOM     11  C   UNL A   1      30.027  29.886  23.524  1.00  0.00     0.004 A 
ATOM     12  C   UNL A   1      28.985  27.708  23.336  1.00  0.00     0.030 A 
ATOM     13  C   UNL A   1      30.972  29.384  24.427  1.00  0.00     0.011 A 
ATOM     14  C   UNL A   1      29.944  27.222  24.237  1.00  0.00     0.046 A 
ATOM     15  C   UNL A   1      30.931  28.024  24.797  1.00  0.00     0.004 A 
ATOM     16  N   UNL A   1      30.122  25.958  24.745  1.00  0.00    -0.352 N 
ATOM     17  C   UNL A   1      31.233  25.898  25.562  1.00  0.00     0.093 A 
ATOM     18  H   UNL A   1      29.531  25.194  24.553  1.00  0.00     0.167 HD
BRANCH  10  19
ATOM     19  C   UNL A   1      28.028  29.676  22.025  1.00  0.00     0.032 C 
ATOM     20  C   UNL A   1      28.522  30.892  21.251  1.00  0.00     0.009 C 
ENDBRANCH  10  19
BRANCH  17  21
ATOM     21  C   UNL A   1      31.769  24.679  26.158  1.00  0.00     0.227 C 
ATOM     22  O   UNL A   1      31.403  24.244  27.250  1.00  0.00    -0.285 OA
BRANCH  21  23
ATOM     23  C   UNL A   1      32.857  23.946  25.458  1.00  0.00     0.113 A 
ATOM     24  C   UNL A   1      34.186  24.198  25.791  1.00  0.00     0.036 A 
ATOM     25  N   UNL A   1      32.468  23.048  24.520  1.00  0.00    -0.253 NA
ATOM     26  C   UNL A   1      35.182  23.486  25.121  1.00  0.00    -0.047 A 
ATOM     27  C   UNL A   1      33.448  22.347  23.916  1.00  0.00     0.112 A 
ATOM     28  C   UNL A   1      36.633  23.706  25.421  1.00  0.00     0.044 C 
ATOM     29  C   UNL A   1      34.798  22.531  24.174  1.00  0.00     0.023 A 
ENDBRANCH  21  23
ENDBRANCH  17  21
ENDBRANCH   8   9
ENDBRANCH   5   8
ENDBRANCH   3   4
ENDBRANCH   2   3
ENDBRANCH   1   2
BRANCH   1  30
ATOM     30  C   UNL A   1      34.456  33.902  28.416  1.00  0.00     0.002 C 
BRANCH  30  31
ATOM     31  C   UNL A   1      33.162  34.660  28.728  1.00  0.00     0.021 C 
BRANCH  31  32
ATOM     32  C   UNL A   1      33.359  36.068  29.284  1.00  0.00     0.116 C 
BRANCH  32  33
ATOM     33  N   UNL A   1      32.509  36.331  30.435  1.00  0.00    -0.352 N 
ATOM     34  C   UNL A   1      32.612  35.867  31.720  1.00  0.00     0.251 C 
ATOM     35  H   UNL A   1      31.747  36.931  30.265  1.00  0.00     0.163 HD
ATOM     36  O   UNL A   1      31.700  36.064  32.522  1.00  0.00    -0.269 OA
BRANCH  34  37
ATOM     37  C   UNL A   1      33.809  35.113  32.151  1.00  0.00     0.039 A 
ATOM     38  C   UNL A   1      33.651  33.798  32.601  1.00  0.00     0.014 A 
ATOM     39  C   UNL A   1      35.076  35.704  32.149  1.00  0.00     0.014 A 
ATOM     40  C   UNL A   1      34.768  33.061  33.003  1.00  0.00     0.010 A 
ATOM     41  C   UNL A   1      36.195  34.949  32.493  1.00  0.00     0.010 A 
ATOM     42  C   UNL A   1      36.051  33.625  32.931  1.00  0.00    -0.014 A 
BRANCH  42  43
ATOM     43  C   UNL A   1      37.254  32.852  33.331  1.00  0.00     0.031 A 
ATOM     44  C   UNL A   1      37.939  33.152  34.636  1.00  0.00     0.074 A 
ATOM     45  C   UNL A   1      37.764  31.927  32.498  1.00  0.00     0.049 A 
ATOM     46  N   UNL A   1      39.047  32.654  35.125  1.00  0.00    -0.248 NA
ATOM     47  C   UNL A   1      37.307  34.166  35.493  1.00  0.00     0.031 C 
ATOM     48  C   UNL A   1      37.213  31.570  31.191  1.00  0.00     0.029 A 
ATOM     49  N   UNL A   1      38.871  31.124  32.623  1.00  0.00    -0.354 N 
ATOM     50  C   UNL A   1      39.254  33.307  36.332  1.00  0.00     0.074 A 
ATOM     51  C   UNL A   1      38.182  34.267  36.484  1.00  0.00     0.031 C 
ATOM     52  C   UNL A   1      37.974  30.610  30.640  1.00  0.00     0.029 A 
ATOM     53  C   UNL A   1      39.083  30.307  31.540  1.00  0.00     0.049 A 
ATOM     54  H   UNL A   1      39.458  31.134  33.414  1.00  0.00     0.167 HD
ATOM     55  C   UNL A   1      40.238  33.110  37.242  1.00  0.00     0.037 A 
ATOM     56  C   UNL A   1      40.065  29.417  31.300  1.00  0.00     0.037 A 
ATOM     57  C   UNL A   1      41.285  32.132  37.106  1.00  0.00     0.049 A 
ATOM     58  C   UNL A   1      41.139  29.207  32.333  1.00  0.00     0.074 A 
ATOM     59  C   UNL A   1      42.300  31.823  37.994  1.00  0.00     0.029 A 
ATOM     60  N   UNL A   1      41.446  31.297  36.010  1.00  0.00    -0.354 N 
ATOM     61  N   UNL A   1      41.298  29.798  33.493  1.00  0.00    -0.248 NA
ATOM     62  C   UNL A   1      42.166  28.203  32.026  1.00  0.00     0.031 C 
ATOM     63  C   UNL A   1      43.094  30.823  37.422  1.00  0.00     0.029 A 
ATOM     64  C   UNL A   1      42.549  30.481  36.195  1.00  0.00     0.049 A 
ATOM     65  H   UNL A   1      40.861  31.287  35.217  1.00  0.00     0.167 HD
ATOM     66  C   UNL A   1      42.419  29.215  34.066  1.00  0.00     0.074 A 
ATOM     67  C   UNL A   1      42.899  28.219  33.131  1.00  0.00     0.031 C 
ATOM     68  C   UNL A   1      43.001  29.483  35.261  1.00  0.00     0.037 A 
BRANCH  55  69
ATOM     69  C   UNL A   1      40.225  33.969  38.471  1.00  0.00     0.064 A 
ATOM     70  C   UNL A   1      40.927  35.184  38.525  1.00  0.00     0.173 A 
ATOM     71  C   UNL A   1      39.481  33.589  39.599  1.00  0.00     0.173 A 
ATOM     72  F   UNL A   1      41.663  35.584  37.479  1.00  0.00    -0.203 F 
ATOM     73  C   UNL A   1      40.905  35.973  39.672  1.00  0.00     0.198 A 
ATOM     74  C   UNL A   1      39.439  34.394  40.734  1.00  0.00     0.198 A 
ATOM     75  F   UNL A   1      38.790  32.439  39.598  1.00  0.00    -0.203 F 
ATOM     76  F   UNL A   1      41.620  37.105  39.718  1.00  0.00    -0.200 F 
ATOM     77  C   UNL A   1      40.157  35.582  40.773  1.00  0.00     0.200 A 
ATOM     78  F   UNL A   1      38.709  34.021  41.793  1.00  0.00    -0.200 F 
ATOM     79  F   UNL A   1      40.133  36.344  41.874  1.00  0.00    -0.200 F 
ENDBRANCH  55  69
BRANCH  56  80
ATOM     80  C   UNL A   1      40.062  28.631  30.040  1.00  0.00     0.064 A 
ATOM     81  C   UNL A   1      40.658  29.138  28.878  1.00  0.00     0.173 A 
ATOM     82  C   UNL A   1      39.462  27.366  29.971  1.00  0.00     0.173 A 
ATOM     83  F   UNL A   1      41.224  30.353  28.892  1.00  0.00    -0.203 F 
ATOM     84  C   UNL A   1      40.638  28.417  27.685  1.00  0.00     0.198 A 
ATOM     85  C   UNL A   1      39.465  26.634  28.785  1.00  0.00     0.198 A 
ATOM     86  F   UNL A   1      38.881  26.836  31.056  1.00  0.00    -0.203 F 
ATOM     87  F   UNL A   1      41.177  28.943  26.578  1.00  0.00    -0.200 F 
ATOM     88  C   UNL A   1      40.046  27.163  27.641  1.00  0.00     0.200 A 
ATOM     89  F   UNL A   1      38.902  25.419  28.748  1.00  0.00    -0.200 F 
ATOM     90  F   UNL A   1      40.028  26.469  26.495  1.00  0.00    -0.200 F 
ENDBRANCH  56  80
BRANCH  68  91
ATOM     91  C   UNL A   1      44.191  28.656  35.645  1.00  0.00     0.064 A 
ATOM     92  C   UNL A   1      45.495  29.037  35.298  1.00  0.00     0.173 A 
ATOM     93  C   UNL A   1      44.026  27.487  36.405  1.00  0.00     0.173 A 
ATOM     94  F   UNL A   1      45.702  30.138  34.559  1.00  0.00    -0.203 F 
ATOM     95  C   UNL A   1      46.589  28.267  35.679  1.00  0.00     0.198 A 
ATOM     96  C   UNL A   1      45.125  26.734  36.806  1.00  0.00     0.198 A 
ATOM     97  F   UNL A   1      42.799  27.085  36.767  1.00  0.00    -0.203 F 
ATOM     98  F   UNL A   1      47.824  28.627  35.300  1.00  0.00    -0.200 F 
ATOM     99  C   UNL A   1      46.405  27.121  36.438  1.00  0.00     0.200 A 
ATOM    100  F   UNL A   1      44.946  25.633  37.547  1.00  0.00    -0.200 F 
ATOM    101  F   UNL A   1      47.461  26.383  36.808  1.00  0.00    -0.200 F 
ENDBRANCH  68  91
ENDBRANCH  42  43
ENDBRANCH  34  37
ENDBRANCH  32  33
ENDBRANCH  31  32
ENDBRANCH  30  31
ENDBRANCH   1  30
TORSDOF 17
ENDMDL
