MODEL 1
REMARK VINA RESULT:     -12.2      0.000      0.000
REMARK SMILES COc1cccc(C(=O)Nc2ccc(NC(=O)[C@@H]3[C@@H](C(=O)NCCCCCCNC(=O)c4ccc(-c5c6nc(c(-c7c(F)c(F)c(F)c(F)c7F)c7ccc([nH]7)c(-c7c(F)c(F)c(F)c(F)c7F)c7nc(c(-c8c(F)c(F)c(F)c(F)c8F)c8ccc5[nH]8)C=C7)C=C6)cc4)[C@@H]4C=C[C@H]3C4)cc2)c1
REMARK SMILES IDX 24 1 23 2 22 3 20 4 21 5 19 7 18 8 98 9 95 10 97 11 99 12
REMARK SMILES IDX 96 13 16 14 15 15 17 17 14 18 11 19 12 20 101 21 13 22
REMARK SMILES IDX 100 23 10 24 8 25 9 26 7 28 3 29 4 30 102 31 5 32 6 33 2 34
REMARK SMILES IDX 1 35 25 36 26 37 27 38 28 39 29 40 30 41 31 43 32 44 33 45
REMARK SMILES IDX 94 46 34 47 93 48 35 49 36 50 37 51 87 52 38 53 92 54 86 55
REMARK SMILES IDX 88 56 39 57 91 58 85 59 84 60 40 62 72 63 52 64 71 65 53 66
REMARK SMILES IDX 56 67 70 68 89 69 54 70 55 71 69 73 90 74 57 75 41 76 42 77
REMARK SMILES IDX 50 78 43 79 44 80 48 81 51 82 45 83 46 84 49 85 47 86 73 87
REMARK SMILES IDX 74 88 82 89 75 90 76 91 80 92 83 93 77 94 78 95 81 96 79 97
REMARK SMILES IDX 58 98 59 99 67 100 60 101 61 102 65 103 68 104 62 105 63 106
REMARK SMILES IDX 66 107 64 108
REMARK H PARENT 22 6 15 16 10 27 29 42 88 61 56 72
REMARK Flexibility Score: inf
ROOT
ATOM      1  C   UNL A   1      34.017  32.072  28.640  1.00  0.00     0.021 C 
ENDROOT
BRANCH   1   2
ATOM      2  C   UNL A   1      33.719  31.341  27.326  1.00  0.00     0.116 C 
BRANCH   2   3
ATOM      3  N   UNL A   1      34.563  30.172  27.181  1.00  0.00    -0.356 N 
ATOM      4  C   UNL A   1      34.383  28.921  26.695  1.00  0.00     0.224 C 
ATOM      5  O   UNL A   1      35.358  28.172  26.845  1.00  0.00    -0.275 OA
ATOM      6  H   UNL A   1      35.478  30.322  27.511  1.00  0.00     0.163 HD
BRANCH   4   7
ATOM      7  C   UNL A   1      33.165  28.416  25.912  1.00  0.00     0.098 C 
ATOM      8  C   UNL A   1      32.788  26.902  25.903  1.00  0.00     0.099 C 
ATOM      9  C   UNL A   1      32.766  26.544  24.392  1.00  0.00     0.025 C 
ATOM     10  C   UNL A   1      33.428  28.676  24.390  1.00  0.00     0.025 C 
ATOM     11  C   UNL A   1      31.713  27.335  23.656  1.00  0.00    -0.027 C 
ATOM     12  C   UNL A   1      34.001  27.326  23.935  1.00  0.00     0.017 C 
ATOM     13  C   UNL A   1      32.109  28.614  23.658  1.00  0.00    -0.027 C 
BRANCH   8  14
ATOM     14  C   UNL A   1      31.463  26.628  26.610  1.00  0.00     0.228 C 
ATOM     15  N   UNL A   1      31.056  25.358  26.908  1.00  0.00    -0.326 N 
ATOM     16  H   UNL A   1      30.281  25.329  27.514  1.00  0.00     0.169 HD
ATOM     17  O   UNL A   1      30.738  27.542  27.013  1.00  0.00    -0.274 OA
BRANCH  15  18
ATOM     18  C   UNL A   1      31.512  24.088  26.530  1.00  0.00     0.041 A 
ATOM     19  C   UNL A   1      32.418  21.614  25.598  1.00  0.00     0.041 A 
ATOM     20  C   UNL A   1      32.874  22.106  26.815  1.00  0.00     0.028 A 
ATOM     21  C   UNL A   1      31.481  22.324  24.852  1.00  0.00     0.028 A 
ATOM     22  C   UNL A   1      32.465  23.364  27.243  1.00  0.00     0.028 A 
ATOM     23  C   UNL A   1      31.019  23.556  25.328  1.00  0.00     0.028 A 
BRANCH  19  24
ATOM     24  N   UNL A   1      33.028  20.458  25.125  1.00  0.00    -0.322 N 
ATOM     25  C   UNL A   1      34.358  20.275  24.805  1.00  0.00     0.255 C 
ATOM     26  O   UNL A   1      34.730  19.124  24.569  1.00  0.00    -0.269 OA
ATOM     27  H   UNL A   1      32.441  19.676  25.002  1.00  0.00     0.170 HD
BRANCH  25  28
ATOM     28  C   UNL A   1      35.368  21.375  24.786  1.00  0.00     0.043 A 
ATOM     29  C   UNL A   1      37.399  22.497  25.519  1.00  0.00     0.119 A 
ATOM     30  C   UNL A   1      37.155  23.516  24.599  1.00  0.00     0.046 A 
ATOM     31  C   UNL A   1      36.537  21.401  25.565  1.00  0.00     0.060 A 
ATOM     32  C   UNL A   1      36.047  23.460  23.755  1.00  0.00     0.005 A 
ATOM     33  C   UNL A   1      35.149  22.400  23.858  1.00  0.00     0.014 A 
BRANCH  29  34
ATOM     34  O   UNL A   1      38.511  22.686  26.293  1.00  0.00    -0.497 OA
ATOM     35  C   UNL A   1      39.570  21.741  26.193  1.00  0.00     0.278 C 
ENDBRANCH  29  34
ENDBRANCH  25  28
ENDBRANCH  19  24
ENDBRANCH  15  18
ENDBRANCH   8  14
ENDBRANCH   4   7
ENDBRANCH   2   3
ENDBRANCH   1   2
BRANCH   1  36
ATOM     36  C   UNL A   1      35.171  33.079  28.569  1.00  0.00     0.002 C 
BRANCH  36  37
ATOM     37  C   UNL A   1      34.752  34.536  28.322  1.00  0.00     0.002 C 
BRANCH  37  38
ATOM     38  C   UNL A   1      33.373  34.942  28.857  1.00  0.00     0.021 C 
BRANCH  38  39
ATOM     39  C   UNL A   1      33.299  36.324  29.508  1.00  0.00     0.116 C 
BRANCH  39  40
ATOM     40  N   UNL A   1      32.454  36.329  30.690  1.00  0.00    -0.352 N 
ATOM     41  C   UNL A   1      32.586  35.653  31.878  1.00  0.00     0.251 C 
ATOM     42  H   UNL A   1      31.660  36.908  30.629  1.00  0.00     0.163 HD
ATOM     43  O   UNL A   1      31.646  35.630  32.668  1.00  0.00    -0.269 OA
BRANCH  41  44
ATOM     44  C   UNL A   1      33.841  34.946  32.223  1.00  0.00     0.039 A 
ATOM     45  C   UNL A   1      33.773  33.601  32.599  1.00  0.00     0.014 A 
ATOM     46  C   UNL A   1      35.069  35.612  32.257  1.00  0.00     0.014 A 
ATOM     47  C   UNL A   1      34.935  32.912  32.965  1.00  0.00     0.010 A 
ATOM     48  C   UNL A   1      36.234  34.909  32.570  1.00  0.00     0.010 A 
ATOM     49  C   UNL A   1      36.184  33.554  32.930  1.00  0.00    -0.014 A 
BRANCH  49  50
ATOM     50  C   UNL A   1      37.434  32.820  33.278  1.00  0.00     0.031 A 
ATOM     51  C   UNL A   1      38.164  33.110  34.563  1.00  0.00     0.074 A 
ATOM     52  C   UNL A   1      37.941  31.916  32.418  1.00  0.00     0.049 A 
ATOM     53  N   UNL A   1      39.273  32.584  35.025  1.00  0.00    -0.248 NA
ATOM     54  C   UNL A   1      37.580  34.137  35.438  1.00  0.00     0.031 C 
ATOM     55  C   UNL A   1      37.366  31.572  31.118  1.00  0.00     0.029 A 
ATOM     56  N   UNL A   1      39.060  31.122  32.506  1.00  0.00    -0.354 N 
ATOM     57  C   UNL A   1      39.526  33.230  36.229  1.00  0.00     0.074 A 
ATOM     58  C   UNL A   1      38.480  34.213  36.409  1.00  0.00     0.031 C 
ATOM     59  C   UNL A   1      38.121  30.623  30.540  1.00  0.00     0.029 A 
ATOM     60  C   UNL A   1      39.250  30.315  31.413  1.00  0.00     0.049 A 
ATOM     61  H   UNL A   1      39.667  31.132  33.281  1.00  0.00     0.167 HD
ATOM     62  C   UNL A   1      40.529  33.012  37.114  1.00  0.00     0.037 A 
ATOM     63  C   UNL A   1      40.226  29.427  31.139  1.00  0.00     0.037 A 
ATOM     64  C   UNL A   1      41.561  32.021  36.953  1.00  0.00     0.049 A 
ATOM     65  C   UNL A   1      41.323  29.195  32.144  1.00  0.00     0.074 A 
ATOM     66  C   UNL A   1      42.580  31.684  37.827  1.00  0.00     0.029 A 
ATOM     67  N   UNL A   1      41.708  31.208  35.839  1.00  0.00    -0.354 N 
ATOM     68  N   UNL A   1      41.508  29.758  33.312  1.00  0.00    -0.248 NA
ATOM     69  C   UNL A   1      42.342  28.194  31.793  1.00  0.00     0.031 C 
ATOM     70  C   UNL A   1      43.370  30.700  37.224  1.00  0.00     0.029 A 
ATOM     71  C   UNL A   1      42.813  30.386  35.995  1.00  0.00     0.049 A 
ATOM     72  H   UNL A   1      41.114  31.215  35.052  1.00  0.00     0.167 HD
ATOM     73  C   UNL A   1      42.644  29.164  33.847  1.00  0.00     0.074 A 
ATOM     74  C   UNL A   1      43.098  28.186  32.882  1.00  0.00     0.031 C 
ATOM     75  C   UNL A   1      43.255  29.410  35.032  1.00  0.00     0.037 A 
BRANCH  62  76
ATOM     76  C   UNL A   1      40.562  33.865  38.351  1.00  0.00     0.064 A 
ATOM     77  C   UNL A   1      41.349  35.025  38.423  1.00  0.00     0.173 A 
ATOM     78  C   UNL A   1      39.760  33.546  39.458  1.00  0.00     0.173 A 
ATOM     79  F   UNL A   1      42.138  35.370  37.396  1.00  0.00    -0.203 F 
ATOM     80  C   UNL A   1      41.356  35.816  39.569  1.00  0.00     0.198 A 
ATOM     81  C   UNL A   1      39.746  34.356  40.591  1.00  0.00     0.198 A 
ATOM     82  F   UNL A   1      38.980  32.455  39.437  1.00  0.00    -0.203 F 
ATOM     83  F   UNL A   1      42.150  36.893  39.633  1.00  0.00    -0.200 F 
ATOM     84  C   UNL A   1      40.549  35.486  40.648  1.00  0.00     0.200 A 
ATOM     85  F   UNL A   1      38.956  34.044  41.627  1.00  0.00    -0.200 F 
ATOM     86  F   UNL A   1      40.551  36.253  41.747  1.00  0.00    -0.200 F 
ENDBRANCH  62  76
BRANCH  63  87
ATOM     87  C   UNL A   1      40.197  28.666  29.863  1.00  0.00     0.064 A 
ATOM     88  C   UNL A   1      39.584  27.407  29.790  1.00  0.00     0.173 A 
ATOM     89  C   UNL A   1      40.785  29.176  28.697  1.00  0.00     0.173 A 
ATOM     90  F   UNL A   1      39.029  26.868  30.886  1.00  0.00    -0.203 F 
ATOM     91  C   UNL A   1      39.578  26.678  28.604  1.00  0.00     0.198 A 
ATOM     92  C   UNL A   1      40.752  28.458  27.504  1.00  0.00     0.198 A 
ATOM     93  F   UNL A   1      41.382  30.376  28.715  1.00  0.00    -0.203 F 
ATOM     94  F   UNL A   1      39.025  25.457  28.573  1.00  0.00    -0.200 F 
ATOM     95  C   UNL A   1      40.156  27.207  27.459  1.00  0.00     0.200 A 
ATOM     96  F   UNL A   1      41.301  28.978  26.397  1.00  0.00    -0.200 F 
ATOM     97  F   UNL A   1      40.147  26.507  26.316  1.00  0.00    -0.200 F 
ENDBRANCH  63  87
BRANCH  75  98
ATOM     98  C   UNL A   1      44.462  28.583  35.370  1.00  0.00     0.064 A 
ATOM     99  C   UNL A   1      45.758  29.001  35.038  1.00  0.00     0.173 A 
ATOM    100  C   UNL A   1      44.320  27.373  36.068  1.00  0.00     0.173 A 
ATOM    101  F   UNL A   1      45.947  30.142  34.358  1.00  0.00    -0.203 F 
ATOM    102  C   UNL A   1      46.867  28.225  35.368  1.00  0.00     0.198 A 
ATOM    103  C   UNL A   1      45.432  26.615  36.423  1.00  0.00     0.198 A 
ATOM    104  F   UNL A   1      43.101  26.932  36.416  1.00  0.00    -0.203 F 
ATOM    105  F   UNL A   1      48.093  28.619  34.998  1.00  0.00    -0.200 F 
ATOM    106  C   UNL A   1      46.704  27.037  36.066  1.00  0.00     0.200 A 
ATOM    107  F   UNL A   1      45.274  25.475  37.108  1.00  0.00    -0.200 F 
ATOM    108  F   UNL A   1      47.772  26.295  36.388  1.00  0.00    -0.200 F 
ENDBRANCH  75  98
ENDBRANCH  49  50
ENDBRANCH  41  44
ENDBRANCH  39  40
ENDBRANCH  38  39
ENDBRANCH  37  38
ENDBRANCH  36  37
ENDBRANCH   1  36
TORSDOF 18
ENDMDL
MODEL 2
REMARK VINA RESULT:     -12.1      0.823      2.069
REMARK SMILES COc1cccc(C(=O)Nc2ccc(NC(=O)[C@@H]3[C@@H](C(=O)NCCCCCCNC(=O)c4ccc(-c5c6nc(c(-c7c(F)c(F)c(F)c(F)c7F)c7ccc([nH]7)c(-c7c(F)c(F)c(F)c(F)c7F)c7nc(c(-c8c(F)c(F)c(F)c(F)c8F)c8ccc5[nH]8)C=C7)C=C6)cc4)[C@@H]4C=C[C@H]3C4)cc2)c1
REMARK SMILES IDX 24 1 23 2 22 3 20 4 21 5 19 7 18 8 98 9 95 10 97 11 99 12
REMARK SMILES IDX 96 13 16 14 15 15 17 17 14 18 11 19 12 20 101 21 13 22
REMARK SMILES IDX 100 23 10 24 8 25 9 26 7 28 3 29 4 30 102 31 5 32 6 33 2 34
REMARK SMILES IDX 1 35 25 36 26 37 27 38 28 39 29 40 30 41 31 43 32 44 33 45
REMARK SMILES IDX 94 46 34 47 93 48 35 49 36 50 37 51 87 52 38 53 92 54 86 55
REMARK SMILES IDX 88 56 39 57 91 58 85 59 84 60 40 62 72 63 52 64 71 65 53 66
REMARK SMILES IDX 56 67 70 68 89 69 54 70 55 71 69 73 90 74 57 75 41 76 42 77
REMARK SMILES IDX 50 78 43 79 44 80 48 81 51 82 45 83 46 84 49 85 47 86 73 87
REMARK SMILES IDX 74 88 82 89 75 90 76 91 80 92 83 93 77 94 78 95 81 96 79 97
REMARK SMILES IDX 58 98 59 99 67 100 60 101 61 102 65 103 68 104 62 105 63 106
REMARK SMILES IDX 66 107 64 108
REMARK H PARENT 22 6 15 16 10 27 29 42 88 61 56 72
REMARK Flexibility Score: inf
ROOT
ATOM      1  C   UNL A   1      34.277  31.336  28.155  1.00  0.00     0.021 C 
ENDROOT
BRANCH   1   2
ATOM      2  C   UNL A   1      33.450  30.611  27.086  1.00  0.00     0.116 C 
BRANCH   2   3
ATOM      3  N   UNL A   1      32.627  29.577  27.680  1.00  0.00    -0.356 N 
ATOM      4  C   UNL A   1      31.974  28.490  27.207  1.00  0.00     0.224 C 
ATOM      5  O   UNL A   1      31.285  27.902  28.051  1.00  0.00    -0.275 OA
ATOM      6  H   UNL A   1      32.518  29.691  28.651  1.00  0.00     0.163 HD
BRANCH   4   7
ATOM      7  C   UNL A   1      32.102  27.892  25.800  1.00  0.00     0.098 C 
ATOM      8  C   UNL A   1      31.859  26.372  25.548  1.00  0.00     0.099 C 
ATOM      9  C   UNL A   1      33.179  25.901  24.879  1.00  0.00     0.025 C 
ATOM     10  C   UNL A   1      33.593  28.045  25.345  1.00  0.00     0.025 C 
ATOM     11  C   UNL A   1      33.410  26.604  23.565  1.00  0.00    -0.027 C 
ATOM     12  C   UNL A   1      34.181  26.681  25.735  1.00  0.00     0.017 C 
ATOM     13  C   UNL A   1      33.655  27.891  23.844  1.00  0.00    -0.027 C 
BRANCH   8  14
ATOM     14  C   UNL A   1      30.621  26.115  24.692  1.00  0.00     0.228 C 
ATOM     15  N   UNL A   1      30.264  24.854  24.305  1.00  0.00    -0.326 N 
ATOM     16  H   UNL A   1      29.362  24.807  23.914  1.00  0.00     0.169 HD
ATOM     17  O   UNL A   1      29.846  27.022  24.377  1.00  0.00    -0.274 OA
BRANCH  15  18
ATOM     18  C   UNL A   1      30.914  23.613  24.349  1.00  0.00     0.041 A 
ATOM     19  C   UNL A   1      32.327  21.202  24.303  1.00  0.00     0.041 A 
ATOM     20  C   UNL A   1      31.816  21.684  25.502  1.00  0.00     0.028 A 
ATOM     21  C   UNL A   1      32.109  21.890  23.111  1.00  0.00     0.028 A 
ATOM     22  C   UNL A   1      31.167  22.914  25.527  1.00  0.00     0.028 A 
ATOM     23  C   UNL A   1      31.389  23.090  23.137  1.00  0.00     0.028 A 
BRANCH  19  24
ATOM     24  N   UNL A   1      33.149  20.084  24.379  1.00  0.00    -0.322 N 
ATOM     25  C   UNL A   1      34.507  20.050  24.624  1.00  0.00     0.255 C 
ATOM     26  O   UNL A   1      35.017  18.947  24.824  1.00  0.00    -0.269 OA
ATOM     27  H   UNL A   1      32.711  19.213  24.242  1.00  0.00     0.170 HD
BRANCH  25  28
ATOM     28  C   UNL A   1      35.367  21.267  24.712  1.00  0.00     0.043 A 
ATOM     29  C   UNL A   1      37.270  22.551  25.521  1.00  0.00     0.119 A 
ATOM     30  C   UNL A   1      36.858  23.631  24.741  1.00  0.00     0.046 A 
ATOM     31  C   UNL A   1      36.556  21.354  25.455  1.00  0.00     0.060 A 
ATOM     32  C   UNL A   1      35.730  23.531  23.929  1.00  0.00     0.005 A 
ATOM     33  C   UNL A   1      34.979  22.358  23.924  1.00  0.00     0.014 A 
BRANCH  29  34
ATOM     34  O   UNL A   1      38.382  22.791  26.280  1.00  0.00    -0.497 OA
ATOM     35  C   UNL A   1      39.412  21.809  26.296  1.00  0.00     0.278 C 
ENDBRANCH  29  34
ENDBRANCH  25  28
ENDBRANCH  19  24
ENDBRANCH  15  18
ENDBRANCH   8  14
ENDBRANCH   4   7
ENDBRANCH   2   3
ENDBRANCH   1   2
BRANCH   1  36
ATOM     36  C   UNL A   1      34.662  32.777  27.803  1.00  0.00     0.002 C 
BRANCH  36  37
ATOM     37  C   UNL A   1      33.572  33.826  28.067  1.00  0.00     0.002 C 
BRANCH  37  38
ATOM     38  C   UNL A   1      33.532  34.419  29.481  1.00  0.00     0.021 C 
BRANCH  38  39
ATOM     39  C   UNL A   1      33.113  35.887  29.569  1.00  0.00     0.116 C 
BRANCH  39  40
ATOM     40  N   UNL A   1      32.420  36.186  30.811  1.00  0.00    -0.352 N 
ATOM     41  C   UNL A   1      32.662  35.747  32.090  1.00  0.00     0.251 C 
ATOM     42  H   UNL A   1      31.655  36.799  30.721  1.00  0.00     0.163 HD
ATOM     43  O   UNL A   1      31.826  35.949  32.966  1.00  0.00    -0.269 OA
BRANCH  41  44
ATOM     44  C   UNL A   1      33.913  35.030  32.430  1.00  0.00     0.039 A 
ATOM     45  C   UNL A   1      33.823  33.734  32.949  1.00  0.00     0.014 A 
ATOM     46  C   UNL A   1      35.161  35.647  32.321  1.00  0.00     0.014 A 
ATOM     47  C   UNL A   1      34.983  33.041  33.314  1.00  0.00     0.010 A 
ATOM     48  C   UNL A   1      36.320  34.934  32.636  1.00  0.00     0.010 A 
ATOM     49  C   UNL A   1      36.248  33.625  33.138  1.00  0.00    -0.014 A 
BRANCH  49  50
ATOM     50  C   UNL A   1      37.492  32.882  33.484  1.00  0.00     0.031 A 
ATOM     51  C   UNL A   1      38.228  33.170  34.766  1.00  0.00     0.074 A 
ATOM     52  C   UNL A   1      37.989  31.970  32.627  1.00  0.00     0.049 A 
ATOM     53  N   UNL A   1      39.334  32.636  35.228  1.00  0.00    -0.248 NA
ATOM     54  C   UNL A   1      37.655  34.205  35.640  1.00  0.00     0.031 C 
ATOM     55  C   UNL A   1      37.408  31.627  31.329  1.00  0.00     0.029 A 
ATOM     56  N   UNL A   1      39.101  31.167  32.715  1.00  0.00    -0.354 N 
ATOM     57  C   UNL A   1      39.596  33.284  36.429  1.00  0.00     0.074 A 
ATOM     58  C   UNL A   1      38.559  34.276  36.608  1.00  0.00     0.031 C 
ATOM     59  C   UNL A   1      38.152  30.669  30.753  1.00  0.00     0.029 A 
ATOM     60  C   UNL A   1      39.281  30.354  31.623  1.00  0.00     0.049 A 
ATOM     61  H   UNL A   1      39.710  31.174  33.487  1.00  0.00     0.167 HD
ATOM     62  C   UNL A   1      40.600  33.060  37.312  1.00  0.00     0.037 A 
ATOM     63  C   UNL A   1      40.249  29.457  31.350  1.00  0.00     0.037 A 
ATOM     64  C   UNL A   1      41.622  32.059  37.151  1.00  0.00     0.049 A 
ATOM     65  C   UNL A   1      41.347  29.219  32.353  1.00  0.00     0.074 A 
ATOM     66  C   UNL A   1      42.641  31.716  38.024  1.00  0.00     0.029 A 
ATOM     67  N   UNL A   1      41.759  31.241  36.040  1.00  0.00    -0.354 N 
ATOM     68  N   UNL A   1      41.540  29.784  33.519  1.00  0.00    -0.248 NA
ATOM     69  C   UNL A   1      42.356  28.208  32.003  1.00  0.00     0.031 C 
ATOM     70  C   UNL A   1      43.420  30.723  37.422  1.00  0.00     0.029 A 
ATOM     71  C   UNL A   1      42.857  30.410  36.195  1.00  0.00     0.049 A 
ATOM     72  H   UNL A   1      41.163  31.251  35.254  1.00  0.00     0.167 HD
ATOM     73  C   UNL A   1      42.672  29.182  34.052  1.00  0.00     0.074 A 
ATOM     74  C   UNL A   1      43.114  28.196  33.090  1.00  0.00     0.031 C 
ATOM     75  C   UNL A   1      43.288  29.427  35.235  1.00  0.00     0.037 A 
BRANCH  62  76
ATOM     76  C   UNL A   1      40.643  33.917  38.545  1.00  0.00     0.064 A 
ATOM     77  C   UNL A   1      39.925  33.577  39.702  1.00  0.00     0.173 A 
ATOM     78  C   UNL A   1      41.448  35.066  38.586  1.00  0.00     0.173 A 
ATOM     79  F   UNL A   1      39.136  32.493  39.713  1.00  0.00    -0.203 F 
ATOM     80  C   UNL A   1      39.988  34.372  40.844  1.00  0.00     0.198 A 
ATOM     81  C   UNL A   1      41.531  35.842  39.740  1.00  0.00     0.198 A 
ATOM     82  F   UNL A   1      42.163  35.431  37.512  1.00  0.00    -0.203 F 
ATOM     83  F   UNL A   1      39.259  34.052  41.922  1.00  0.00    -0.200 F 
ATOM     84  C   UNL A   1      40.796  35.498  40.865  1.00  0.00     0.200 A 
ATOM     85  F   UNL A   1      42.324  36.922  39.764  1.00  0.00    -0.200 F 
ATOM     86  F   UNL A   1      40.862  36.258  41.967  1.00  0.00    -0.200 F 
ENDBRANCH  62  76
BRANCH  63  87
ATOM     87  C   UNL A   1      40.210  28.692  30.077  1.00  0.00     0.064 A 
ATOM     88  C   UNL A   1      40.834  29.185  28.922  1.00  0.00     0.173 A 
ATOM     89  C   UNL A   1      39.546  27.461  29.986  1.00  0.00     0.173 A 
ATOM     90  F   UNL A   1      41.462  30.371  28.954  1.00  0.00    -0.203 F 
ATOM     91  C   UNL A   1      40.777  28.486  27.719  1.00  0.00     0.198 A 
ATOM     92  C   UNL A   1      39.515  26.749  28.790  1.00  0.00     0.198 A 
ATOM     93  F   UNL A   1      38.935  26.946  31.063  1.00  0.00    -0.203 F 
ATOM     94  F   UNL A   1      41.342  29.002  26.619  1.00  0.00    -0.200 F 
ATOM     95  C   UNL A   1      40.123  27.264  27.656  1.00  0.00     0.200 A 
ATOM     96  F   UNL A   1      38.892  25.562  28.735  1.00  0.00    -0.200 F 
ATOM     97  F   UNL A   1      40.072  26.588  26.499  1.00  0.00    -0.200 F 
ENDBRANCH  63  87
BRANCH  75  98
ATOM     98  C   UNL A   1      44.488  28.591  35.573  1.00  0.00     0.064 A 
ATOM     99  C   UNL A   1      44.370  27.378  36.267  1.00  0.00     0.173 A 
ATOM    100  C   UNL A   1      45.770  28.991  35.165  1.00  0.00     0.173 A 
ATOM    101  F   UNL A   1      43.169  26.958  36.692  1.00  0.00    -0.203 F 
ATOM    102  C   UNL A   1      45.493  26.610  36.564  1.00  0.00     0.198 A 
ATOM    103  C   UNL A   1      46.887  28.207  35.437  1.00  0.00     0.198 A 
ATOM    104  F   UNL A   1      45.937  30.140  34.492  1.00  0.00    -0.203 F 
ATOM    105  F   UNL A   1      45.362  25.479  37.271  1.00  0.00    -0.200 F 
ATOM    106  C   UNL A   1      46.749  27.021  36.143  1.00  0.00     0.200 A 
ATOM    107  F   UNL A   1      48.098  28.599  35.018  1.00  0.00    -0.200 F 
ATOM    108  F   UNL A   1      47.828  26.279  36.424  1.00  0.00    -0.200 F 
ENDBRANCH  75  98
ENDBRANCH  49  50
ENDBRANCH  41  44
ENDBRANCH  39  40
ENDBRANCH  38  39
ENDBRANCH  37  38
ENDBRANCH  36  37
ENDBRANCH   1  36
TORSDOF 18
ENDMDL
MODEL 3
REMARK VINA RESULT:     -12.0      1.973      7.519
REMARK SMILES COc1cccc(C(=O)Nc2ccc(NC(=O)[C@@H]3[C@@H](C(=O)NCCCCCCNC(=O)c4ccc(-c5c6nc(c(-c7c(F)c(F)c(F)c(F)c7F)c7ccc([nH]7)c(-c7c(F)c(F)c(F)c(F)c7F)c7nc(c(-c8c(F)c(F)c(F)c(F)c8F)c8ccc5[nH]8)C=C7)C=C6)cc4)[C@@H]4C=C[C@H]3C4)cc2)c1
REMARK SMILES IDX 24 1 23 2 22 3 20 4 21 5 19 7 18 8 98 9 95 10 97 11 99 12
REMARK SMILES IDX 96 13 16 14 15 15 17 17 14 18 11 19 12 20 101 21 13 22
REMARK SMILES IDX 100 23 10 24 8 25 9 26 7 28 3 29 4 30 102 31 5 32 6 33 2 34
REMARK SMILES IDX 1 35 25 36 26 37 27 38 28 39 29 40 30 41 31 43 32 44 33 45
REMARK SMILES IDX 94 46 34 47 93 48 35 49 36 50 37 51 87 52 38 53 92 54 86 55
REMARK SMILES IDX 88 56 39 57 91 58 85 59 84 60 40 62 72 63 52 64 71 65 53 66
REMARK SMILES IDX 56 67 70 68 89 69 54 70 55 71 69 73 90 74 57 75 41 76 42 77
REMARK SMILES IDX 50 78 43 79 44 80 48 81 51 82 45 83 46 84 49 85 47 86 73 87
REMARK SMILES IDX 74 88 82 89 75 90 76 91 80 92 83 93 77 94 78 95 81 96 79 97
REMARK SMILES IDX 58 98 59 99 67 100 60 101 61 102 65 103 68 104 62 105 63 106
REMARK SMILES IDX 66 107 64 108
REMARK H PARENT 22 6 15 16 10 27 29 42 88 61 56 72
REMARK Flexibility Score: inf
ROOT
ATOM      1  C   UNL A   1      33.493  29.342  26.689  1.00  0.00     0.021 C 
ENDROOT
BRANCH   1   2
ATOM      2  C   UNL A   1      32.380  30.015  25.877  1.00  0.00     0.116 C 
BRANCH   2   3
ATOM      3  N   UNL A   1      32.467  29.650  24.478  1.00  0.00    -0.356 N 
ATOM      4  C   UNL A   1      31.574  29.262  23.537  1.00  0.00     0.224 C 
ATOM      5  O   UNL A   1      32.083  28.941  22.455  1.00  0.00    -0.275 OA
ATOM      6  H   UNL A   1      33.387  29.696  24.131  1.00  0.00     0.163 HD
BRANCH   4   7
ATOM      7  C   UNL A   1      30.046  29.292  23.665  1.00  0.00     0.098 C 
ATOM      8  C   UNL A   1      29.148  28.368  22.785  1.00  0.00     0.099 C 
ATOM      9  C   UNL A   1      28.198  29.365  22.068  1.00  0.00     0.025 C 
ATOM     10  C   UNL A   1      29.553  30.711  23.223  1.00  0.00     0.025 C 
ATOM     11  C   UNL A   1      27.341  30.115  23.057  1.00  0.00    -0.027 C 
ATOM     12  C   UNL A   1      29.201  30.476  21.747  1.00  0.00     0.017 C 
ATOM     13  C   UNL A   1      28.154  30.920  23.752  1.00  0.00    -0.027 C 
BRANCH   8  14
ATOM     14  C   UNL A   1      28.412  27.316  23.611  1.00  0.00     0.228 C 
ATOM     15  N   UNL A   1      29.072  26.278  24.206  1.00  0.00    -0.326 N 
ATOM     16  H   UNL A   1      28.516  25.779  24.848  1.00  0.00     0.169 HD
ATOM     17  O   UNL A   1      27.203  27.399  23.844  1.00  0.00    -0.274 OA
BRANCH  15  18
ATOM     18  C   UNL A   1      30.375  25.774  24.092  1.00  0.00     0.041 A 
ATOM     19  C   UNL A   1      32.955  24.783  23.679  1.00  0.00     0.041 A 
ATOM     20  C   UNL A   1      32.690  25.592  24.778  1.00  0.00     0.028 A 
ATOM     21  C   UNL A   1      31.937  24.427  22.798  1.00  0.00     0.028 A 
ATOM     22  C   UNL A   1      31.419  26.130  24.943  1.00  0.00     0.028 A 
ATOM     23  C   UNL A   1      30.643  24.914  23.016  1.00  0.00     0.028 A 
BRANCH  19  24
ATOM     24  N   UNL A   1      34.287  24.458  23.451  1.00  0.00    -0.322 N 
ATOM     25  C   UNL A   1      34.969  23.340  23.887  1.00  0.00     0.255 C 
ATOM     26  O   UNL A   1      36.098  23.154  23.430  1.00  0.00    -0.269 OA
ATOM     27  H   UNL A   1      34.806  25.101  22.915  1.00  0.00     0.170 HD
BRANCH  25  28
ATOM     28  C   UNL A   1      34.398  22.331  24.827  1.00  0.00     0.043 A 
ATOM     29  C   UNL A   1      33.072  20.370  25.395  1.00  0.00     0.119 A 
ATOM     30  C   UNL A   1      33.431  20.530  26.733  1.00  0.00     0.046 A 
ATOM     31  C   UNL A   1      33.606  21.236  24.440  1.00  0.00     0.060 A 
ATOM     32  C   UNL A   1      34.288  21.559  27.121  1.00  0.00     0.005 A 
ATOM     33  C   UNL A   1      34.759  22.464  26.173  1.00  0.00     0.014 A 
BRANCH  29  34
ATOM     34  O   UNL A   1      32.214  19.332  25.158  1.00  0.00    -0.497 OA
ATOM     35  C   UNL A   1      32.572  18.377  24.165  1.00  0.00     0.278 C 
ENDBRANCH  29  34
ENDBRANCH  25  28
ENDBRANCH  19  24
ENDBRANCH  15  18
ENDBRANCH   8  14
ENDBRANCH   4   7
ENDBRANCH   2   3
ENDBRANCH   1   2
BRANCH   1  36
ATOM     36  C   UNL A   1      34.554  30.300  27.243  1.00  0.00     0.002 C 
BRANCH  36  37
ATOM     37  C   UNL A   1      34.012  31.433  28.128  1.00  0.00     0.002 C 
BRANCH  37  38
ATOM     38  C   UNL A   1      33.776  32.780  27.431  1.00  0.00     0.021 C 
BRANCH  38  39
ATOM     39  C   UNL A   1      32.394  33.400  27.646  1.00  0.00     0.116 C 
BRANCH  39  40
ATOM     40  N   UNL A   1      32.474  34.806  28.001  1.00  0.00    -0.352 N 
ATOM     41  C   UNL A   1      33.230  35.438  28.958  1.00  0.00     0.251 C 
ATOM     42  H   UNL A   1      31.894  35.400  27.473  1.00  0.00     0.163 HD
ATOM     43  O   UNL A   1      32.990  36.608  29.243  1.00  0.00    -0.269 OA
BRANCH  41  44
ATOM     44  C   UNL A   1      34.328  34.731  29.658  1.00  0.00     0.039 A 
ATOM     45  C   UNL A   1      35.606  34.748  29.090  1.00  0.00     0.014 A 
ATOM     46  C   UNL A   1      34.096  33.989  30.818  1.00  0.00     0.014 A 
ATOM     47  C   UNL A   1      36.659  34.062  29.706  1.00  0.00     0.010 A 
ATOM     48  C   UNL A   1      35.159  33.349  31.460  1.00  0.00     0.010 A 
ATOM     49  C   UNL A   1      36.451  33.374  30.913  1.00  0.00    -0.014 A 
BRANCH  49  50
ATOM     50  C   UNL A   1      37.573  32.674  31.600  1.00  0.00     0.031 A 
ATOM     51  C   UNL A   1      38.253  31.494  30.956  1.00  0.00     0.074 A 
ATOM     52  C   UNL A   1      37.960  33.071  32.828  1.00  0.00     0.049 A 
ATOM     53  N   UNL A   1      39.235  30.751  31.410  1.00  0.00    -0.248 NA
ATOM     54  C   UNL A   1      37.757  31.086  29.633  1.00  0.00     0.031 C 
ATOM     55  C   UNL A   1      37.357  34.165  33.590  1.00  0.00     0.029 A 
ATOM     56  N   UNL A   1      38.950  32.597  33.655  1.00  0.00    -0.354 N 
ATOM     57  C   UNL A   1      39.455  29.781  30.440  1.00  0.00     0.074 A 
ATOM     58  C   UNL A   1      38.483  30.003  29.392  1.00  0.00     0.031 C 
ATOM     59  C   UNL A   1      38.003  34.294  34.760  1.00  0.00     0.029 A 
ATOM     60  C   UNL A   1      39.042  33.272  34.847  1.00  0.00     0.049 A 
ATOM     61  H   UNL A   1      39.537  31.845  33.415  1.00  0.00     0.167 HD
ATOM     62  C   UNL A   1      40.395  28.804  30.416  1.00  0.00     0.037 A 
ATOM     63  C   UNL A   1      39.869  33.088  35.895  1.00  0.00     0.037 A 
ATOM     64  C   UNL A   1      41.379  28.591  31.444  1.00  0.00     0.049 A 
ATOM     65  C   UNL A   1      40.911  32.003  35.839  1.00  0.00     0.074 A 
ATOM     66  C   UNL A   1      42.411  27.669  31.475  1.00  0.00     0.029 A 
ATOM     67  N   UNL A   1      41.453  29.310  32.628  1.00  0.00    -0.354 N 
ATOM     68  N   UNL A   1      41.158  31.141  34.883  1.00  0.00    -0.248 NA
ATOM     69  C   UNL A   1      41.796  31.873  37.005  1.00  0.00     0.031 C 
ATOM     70  C   UNL A   1      43.080  27.798  32.696  1.00  0.00     0.029 A 
ATOM     71  C   UNL A   1      42.499  28.836  33.405  1.00  0.00     0.049 A 
ATOM     72  H   UNL A   1      40.849  30.047  32.880  1.00  0.00     0.167 HD
ATOM     73  C   UNL A   1      42.240  30.387  35.319  1.00  0.00     0.074 A 
ATOM     74  C   UNL A   1      42.613  30.902  36.619  1.00  0.00     0.031 C 
ATOM     75  C   UNL A   1      42.867  29.359  34.695  1.00  0.00     0.037 A 
BRANCH  62  76
ATOM     76  C   UNL A   1      40.407  27.882  29.229  1.00  0.00     0.064 A 
ATOM     77  C   UNL A   1      39.625  26.718  29.195  1.00  0.00     0.173 A 
ATOM     78  C   UNL A   1      41.172  28.192  28.094  1.00  0.00     0.173 A 
ATOM     79  F   UNL A   1      38.882  26.372  30.256  1.00  0.00    -0.203 F 
ATOM     80  C   UNL A   1      39.633  25.881  28.081  1.00  0.00     0.198 A 
ATOM     81  C   UNL A   1      41.154  27.369  26.970  1.00  0.00     0.198 A 
ATOM     82  F   UNL A   1      41.928  29.300  28.069  1.00  0.00    -0.203 F 
ATOM     83  F   UNL A   1      38.914  24.751  28.089  1.00  0.00    -0.200 F 
ATOM     84  C   UNL A   1      40.391  26.212  26.968  1.00  0.00     0.200 A 
ATOM     85  F   UNL A   1      41.875  27.697  25.890  1.00  0.00    -0.200 F 
ATOM     86  F   UNL A   1      40.391  25.410  25.894  1.00  0.00    -0.200 F 
ENDBRANCH  62  76
BRANCH  63  87
ATOM     87  C   UNL A   1      39.763  33.972  37.084  1.00  0.00     0.064 A 
ATOM     88  C   UNL A   1      40.462  35.187  37.142  1.00  0.00     0.173 A 
ATOM     89  C   UNL A   1      38.970  33.621  38.185  1.00  0.00     0.173 A 
ATOM     90  F   UNL A   1      41.252  35.554  36.121  1.00  0.00    -0.203 F 
ATOM     91  C   UNL A   1      40.387  36.007  38.264  1.00  0.00     0.198 A 
ATOM     92  C   UNL A   1      38.874  34.457  39.296  1.00  0.00     0.198 A 
ATOM     93  F   UNL A   1      38.281  32.471  38.178  1.00  0.00    -0.203 F 
ATOM     94  F   UNL A   1      41.102  37.140  38.313  1.00  0.00    -0.200 F 
ATOM     95  C   UNL A   1      39.588  35.644  39.339  1.00  0.00     0.200 A 
ATOM     96  F   UNL A   1      38.091  34.109  40.327  1.00  0.00    -0.200 F 
ATOM     97  F   UNL A   1      39.514  36.435  40.418  1.00  0.00    -0.200 F 
ENDBRANCH  63  87
BRANCH  75  98
ATOM     98  C   UNL A   1      44.045  28.744  35.395  1.00  0.00     0.064 A 
ATOM     99  C   UNL A   1      43.895  27.680  36.296  1.00  0.00     0.173 A 
ATOM    100  C   UNL A   1      45.345  29.203  35.131  1.00  0.00     0.173 A 
ATOM    101  F   UNL A   1      42.672  27.215  36.594  1.00  0.00    -0.203 F 
ATOM    102  C   UNL A   1      45.000  27.117  36.928  1.00  0.00     0.198 A 
ATOM    103  C   UNL A   1      46.450  28.618  35.742  1.00  0.00     0.198 A 
ATOM    104  F   UNL A   1      45.544  30.214  34.271  1.00  0.00    -0.203 F 
ATOM    105  F   UNL A   1      44.829  26.134  37.823  1.00  0.00    -0.200 F 
ATOM    106  C   UNL A   1      46.277  27.580  36.646  1.00  0.00     0.200 A 
ATOM    107  F   UNL A   1      47.684  29.058  35.458  1.00  0.00    -0.200 F 
ATOM    108  F   UNL A   1      47.339  27.033  37.250  1.00  0.00    -0.200 F 
ENDBRANCH  75  98
ENDBRANCH  49  50
ENDBRANCH  41  44
ENDBRANCH  39  40
ENDBRANCH  38  39
ENDBRANCH  37  38
ENDBRANCH  36  37
ENDBRANCH   1  36
TORSDOF 18
ENDMDL
