MODEL 1
REMARK VINA RESULT:     -13.7      0.000      0.000
REMARK SMILES Cc1ccc(S(=O)(=O)N2c3ccc(C(=O)NCCCCCCNC(=O)c4ccc(-c5c6nc(c(-c7c(F)c(F)c(F)c(F)c7F)c7ccc([nH]7)c(-c7c(F)c(F)c(F)c(F)c7F)c7nc(c(-c8c(F)c(F)c(F)c(F)c8F)c8ccc5[nH]8)C=C7)C=C6)cc4)cc3C[C@H]2C)cc1
REMARK SMILES IDX 19 1 18 2 17 3 16 4 14 5 15 6 13 8 9 9 10 10 92 11 11 12
REMARK SMILES IDX 90 13 91 14 93 15 12 16 89 17 6 18 7 19 8 20 5 21 1 22 2 23
REMARK SMILES IDX 3 24 95 25 4 26 94 27 20 28 21 29 22 30 23 31 24 32 25 34
REMARK SMILES IDX 26 35 27 36 88 37 28 38 87 39 29 40 30 41 31 42 81 43 32 44
REMARK SMILES IDX 86 45 80 46 82 47 33 48 85 49 79 50 78 51 34 53 66 54 46 55
REMARK SMILES IDX 65 56 47 57 50 58 64 59 83 60 48 61 49 62 63 64 84 65 51 66
REMARK SMILES IDX 35 67 36 68 44 69 37 70 38 71 42 72 45 73 39 74 40 75 43 76
REMARK SMILES IDX 41 77 67 78 68 79 76 80 69 81 70 82 74 83 77 84 71 85 72 86
REMARK SMILES IDX 75 87 73 88 52 89 53 90 61 91 54 92 55 93 59 94 62 95 56 96
REMARK SMILES IDX 57 97 60 98 58 99
REMARK H PARENT 16 7 23 33 82 52 50 63
REMARK Flexibility Score: inf
ROOT
ATOM      1  C   UNL A   1      34.902  20.943  25.397  1.00  0.00     0.002 C 
ENDROOT
BRANCH   1   2
ATOM      2  C   UNL A   1      34.498  19.658  24.669  1.00  0.00     0.021 C 
BRANCH   2   3
ATOM      3  C   UNL A   1      33.010  19.396  24.463  1.00  0.00     0.116 C 
BRANCH   3   4
ATOM      4  N   UNL A   1      32.540  19.504  23.099  1.00  0.00    -0.352 N 
ATOM      5  C   UNL A   1      32.148  20.629  22.406  1.00  0.00     0.251 C 
ATOM      6  O   UNL A   1      31.778  20.512  21.240  1.00  0.00    -0.269 OA
ATOM      7  H   UNL A   1      32.492  18.658  22.597  1.00  0.00     0.163 HD
BRANCH   5   8
ATOM      8  C   UNL A   1      32.093  21.969  23.061  1.00  0.00     0.040 A 
ATOM      9  N   UNL A   1      31.951  25.972  24.410  1.00  0.00    -0.263 N 
ATOM     10  C   UNL A   1      31.920  24.562  24.076  1.00  0.00     0.055 A 
ATOM     11  C   UNL A   1      33.014  26.552  23.489  1.00  0.00     0.101 C 
ATOM     12  C   UNL A   1      31.046  23.600  24.549  1.00  0.00     0.028 A 
ATOM     13  C   UNL A   1      32.914  24.222  23.162  1.00  0.00    -0.021 A 
ATOM     14  C   UNL A   1      33.841  25.367  22.946  1.00  0.00     0.063 C 
ATOM     15  C   UNL A   1      32.304  27.272  22.335  1.00  0.00     0.032 C 
ATOM     16  C   UNL A   1      31.175  22.289  24.078  1.00  0.00     0.016 A 
ATOM     17  C   UNL A   1      33.010  22.940  22.636  1.00  0.00     0.019 A 
BRANCH   9  18
ATOM     18  S   UNL A   1      32.152  26.228  26.104  1.00  0.00     0.264 S 
ATOM     19  O   UNL A   1      33.186  25.325  26.562  1.00  0.00    -0.201 OA
ATOM     20  O   UNL A   1      30.829  26.207  26.706  1.00  0.00    -0.201 OA
BRANCH  18  21
ATOM     21  C   UNL A   1      32.762  27.876  26.415  1.00  0.00     0.088 A 
ATOM     22  C   UNL A   1      33.901  31.804  27.774  1.00  0.00     0.044 C 
ATOM     23  C   UNL A   1      33.510  30.456  27.247  1.00  0.00    -0.051 A 
ATOM     24  C   UNL A   1      32.160  30.136  27.080  1.00  0.00     0.005 A 
ATOM     25  C   UNL A   1      34.479  29.501  26.919  1.00  0.00     0.005 A 
ATOM     26  C   UNL A   1      31.788  28.854  26.670  1.00  0.00     0.022 A 
ATOM     27  C   UNL A   1      34.108  28.220  26.496  1.00  0.00     0.022 A 
ENDBRANCH  18  21
ENDBRANCH   9  18
ENDBRANCH   5   8
ENDBRANCH   3   4
ENDBRANCH   2   3
ENDBRANCH   1   2
BRANCH   1  28
ATOM     28  C   UNL A   1      36.029  21.794  24.798  1.00  0.00     0.002 C 
BRANCH  28  29
ATOM     29  C   UNL A   1      37.430  21.639  25.388  1.00  0.00     0.021 C 
BRANCH  29  30
ATOM     30  C   UNL A   1      38.149  22.934  25.730  1.00  0.00     0.116 C 
BRANCH  30  31
ATOM     31  N   UNL A   1      39.537  22.768  26.129  1.00  0.00    -0.352 N 
ATOM     32  C   UNL A   1      40.445  23.705  26.599  1.00  0.00     0.251 C 
ATOM     33  H   UNL A   1      39.884  21.850  26.055  1.00  0.00     0.163 HD
ATOM     34  O   UNL A   1      41.604  23.387  26.779  1.00  0.00    -0.269 OA
BRANCH  32  35
ATOM     35  C   UNL A   1      39.974  25.054  27.017  1.00  0.00     0.039 A 
ATOM     36  C   UNL A   1      40.445  26.160  26.294  1.00  0.00     0.014 A 
ATOM     37  C   UNL A   1      39.245  25.255  28.184  1.00  0.00     0.014 A 
ATOM     38  C   UNL A   1      40.403  27.429  26.869  1.00  0.00     0.010 A 
ATOM     39  C   UNL A   1      39.296  26.484  28.804  1.00  0.00     0.010 A 
ATOM     40  C   UNL A   1      39.937  27.554  28.174  1.00  0.00    -0.014 A 
BRANCH  40  41
ATOM     41  C   UNL A   1      40.144  28.728  29.006  1.00  0.00     0.031 A 
ATOM     42  C   UNL A   1      39.087  29.749  29.127  1.00  0.00     0.074 A 
ATOM     43  C   UNL A   1      41.250  28.780  29.781  1.00  0.00     0.049 A 
ATOM     44  N   UNL A   1      39.273  30.938  29.587  1.00  0.00    -0.248 NA
ATOM     45  C   UNL A   1      37.718  29.513  28.690  1.00  0.00     0.031 C 
ATOM     46  C   UNL A   1      41.498  29.659  30.920  1.00  0.00     0.029 A 
ATOM     47  N   UNL A   1      42.482  28.144  29.556  1.00  0.00    -0.354 N 
ATOM     48  C   UNL A   1      38.040  31.528  29.759  1.00  0.00     0.074 A 
ATOM     49  C   UNL A   1      37.112  30.622  29.122  1.00  0.00     0.031 C 
ATOM     50  C   UNL A   1      42.823  29.752  31.113  1.00  0.00     0.029 A 
ATOM     51  C   UNL A   1      43.460  29.061  30.006  1.00  0.00     0.049 A 
ATOM     52  H   UNL A   1      42.632  27.252  29.168  1.00  0.00     0.167 HD
ATOM     53  C   UNL A   1      37.955  32.650  30.532  1.00  0.00     0.037 A 
ATOM     54  C   UNL A   1      44.342  29.637  29.139  1.00  0.00     0.037 A 
ATOM     55  C   UNL A   1      39.288  33.105  30.927  1.00  0.00     0.049 A 
ATOM     56  C   UNL A   1      44.275  31.145  29.114  1.00  0.00     0.074 A 
ATOM     57  C   UNL A   1      40.034  32.941  32.083  1.00  0.00     0.029 A 
ATOM     58  N   UNL A   1      40.167  33.569  29.954  1.00  0.00    -0.354 N 
ATOM     59  N   UNL A   1      43.232  31.834  29.489  1.00  0.00    -0.248 NA
ATOM     60  C   UNL A   1      45.371  31.993  28.655  1.00  0.00     0.031 C 
ATOM     61  C   UNL A   1      41.382  33.264  31.787  1.00  0.00     0.029 A 
ATOM     62  C   UNL A   1      41.451  33.647  30.457  1.00  0.00     0.049 A 
ATOM     63  H   UNL A   1      39.910  33.807  29.034  1.00  0.00     0.167 HD
ATOM     64  C   UNL A   1      43.488  33.172  29.332  1.00  0.00     0.074 A 
ATOM     65  C   UNL A   1      44.845  33.219  28.821  1.00  0.00     0.031 C 
ATOM     66  C   UNL A   1      42.552  34.121  29.633  1.00  0.00     0.037 A 
BRANCH  53  67
ATOM     67  C   UNL A   1      36.680  33.182  31.165  1.00  0.00     0.064 A 
ATOM     68  C   UNL A   1      35.740  33.903  30.391  1.00  0.00     0.173 A 
ATOM     69  C   UNL A   1      36.345  33.080  32.528  1.00  0.00     0.173 A 
ATOM     70  F   UNL A   1      35.851  33.998  29.060  1.00  0.00    -0.203 F 
ATOM     71  C   UNL A   1      34.641  34.562  30.954  1.00  0.00     0.198 A 
ATOM     72  C   UNL A   1      35.274  33.777  33.100  1.00  0.00     0.198 A 
ATOM     73  F   UNL A   1      36.996  32.251  33.348  1.00  0.00    -0.203 F 
ATOM     74  F   UNL A   1      33.796  35.240  30.164  1.00  0.00    -0.200 F 
ATOM     75  C   UNL A   1      34.429  34.529  32.314  1.00  0.00     0.200 A 
ATOM     76  F   UNL A   1      35.069  33.705  34.423  1.00  0.00    -0.200 F 
ATOM     77  F   UNL A   1      33.401  35.191  32.861  1.00  0.00    -0.200 F 
ENDBRANCH  53  67
BRANCH  54  78
ATOM     78  C   UNL A   1      44.657  28.773  27.970  1.00  0.00     0.064 A 
ATOM     79  C   UNL A   1      45.452  27.630  28.186  1.00  0.00     0.173 A 
ATOM     80  C   UNL A   1      43.889  28.815  26.800  1.00  0.00     0.173 A 
ATOM     81  F   UNL A   1      46.205  27.539  29.294  1.00  0.00    -0.203 F 
ATOM     82  C   UNL A   1      45.381  26.527  27.338  1.00  0.00     0.198 A 
ATOM     83  C   UNL A   1      43.836  27.713  25.943  1.00  0.00     0.198 A 
ATOM     84  F   UNL A   1      43.100  29.868  26.544  1.00  0.00    -0.203 F 
ATOM     85  F   UNL A   1      46.055  25.408  27.640  1.00  0.00    -0.200 F 
ATOM     86  C   UNL A   1      44.549  26.558  26.233  1.00  0.00     0.200 A 
ATOM     87  F   UNL A   1      43.011  27.732  24.885  1.00  0.00    -0.200 F 
ATOM     88  F   UNL A   1      44.402  25.465  25.472  1.00  0.00    -0.200 F 
ENDBRANCH  54  78
BRANCH  66  89
ATOM     89  C   UNL A   1      42.607  35.593  29.278  1.00  0.00     0.064 A 
ATOM     90  C   UNL A   1      43.385  36.543  29.958  1.00  0.00     0.173 A 
ATOM     91  C   UNL A   1      41.965  36.069  28.104  1.00  0.00     0.173 A 
ATOM     92  F   UNL A   1      44.142  36.205  31.008  1.00  0.00    -0.203 F 
ATOM     93  C   UNL A   1      43.466  37.875  29.537  1.00  0.00     0.198 A 
ATOM     94  C   UNL A   1      42.100  37.380  27.653  1.00  0.00     0.198 A 
ATOM     95  F   UNL A   1      41.211  35.267  27.338  1.00  0.00    -0.203 F 
ATOM     96  F   UNL A   1      44.190  38.750  30.249  1.00  0.00    -0.200 F 
ATOM     97  C   UNL A   1      42.837  38.290  28.379  1.00  0.00     0.200 A 
ATOM     98  F   UNL A   1      41.528  37.749  26.497  1.00  0.00    -0.200 F 
ATOM     99  F   UNL A   1      42.961  39.553  27.953  1.00  0.00    -0.200 F 
ENDBRANCH  66  89
ENDBRANCH  40  41
ENDBRANCH  32  35
ENDBRANCH  30  31
ENDBRANCH  29  30
ENDBRANCH  28  29
ENDBRANCH   1  28
TORSDOF 15
ENDMDL
MODEL 2
REMARK VINA RESULT:     -13.6      3.697      9.864
REMARK SMILES Cc1ccc(S(=O)(=O)N2c3ccc(C(=O)NCCCCCCNC(=O)c4ccc(-c5c6nc(c(-c7c(F)c(F)c(F)c(F)c7F)c7ccc([nH]7)c(-c7c(F)c(F)c(F)c(F)c7F)c7nc(c(-c8c(F)c(F)c(F)c(F)c8F)c8ccc5[nH]8)C=C7)C=C6)cc4)cc3C[C@H]2C)cc1
REMARK SMILES IDX 19 1 18 2 17 3 16 4 14 5 15 6 13 8 9 9 10 10 92 11 11 12
REMARK SMILES IDX 90 13 91 14 93 15 12 16 89 17 6 18 7 19 8 20 5 21 1 22 2 23
REMARK SMILES IDX 3 24 95 25 4 26 94 27 20 28 21 29 22 30 23 31 24 32 25 34
REMARK SMILES IDX 26 35 27 36 88 37 28 38 87 39 29 40 30 41 31 42 81 43 32 44
REMARK SMILES IDX 86 45 80 46 82 47 33 48 85 49 79 50 78 51 34 53 66 54 46 55
REMARK SMILES IDX 65 56 47 57 50 58 64 59 83 60 48 61 49 62 63 64 84 65 51 66
REMARK SMILES IDX 35 67 36 68 44 69 37 70 38 71 42 72 45 73 39 74 40 75 43 76
REMARK SMILES IDX 41 77 67 78 68 79 76 80 69 81 70 82 74 83 77 84 71 85 72 86
REMARK SMILES IDX 75 87 73 88 52 89 53 90 61 91 54 92 55 93 59 94 62 95 56 96
REMARK SMILES IDX 57 97 60 98 58 99
REMARK H PARENT 16 7 23 33 82 52 50 63
REMARK Flexibility Score: inf
ROOT
ATOM      1  C   UNL A   1      34.187  27.830  24.423  1.00  0.00     0.002 C 
ENDROOT
BRANCH   1   2
ATOM      2  C   UNL A   1      33.725  28.845  23.374  1.00  0.00     0.021 C 
BRANCH   2   3
ATOM      3  C   UNL A   1      32.655  28.404  22.382  1.00  0.00     0.116 C 
BRANCH   3   4
ATOM      4  N   UNL A   1      31.297  28.766  22.726  1.00  0.00    -0.352 N 
ATOM      5  C   UNL A   1      30.333  28.008  23.356  1.00  0.00     0.251 C 
ATOM      6  O   UNL A   1      29.227  28.503  23.563  1.00  0.00    -0.269 OA
ATOM      7  H   UNL A   1      31.023  29.677  22.475  1.00  0.00     0.163 HD
BRANCH   5   8
ATOM      8  C   UNL A   1      30.579  26.583  23.725  1.00  0.00     0.040 A 
ATOM      9  N   UNL A   1      30.903  22.622  25.164  1.00  0.00    -0.263 N 
ATOM     10  C   UNL A   1      30.831  23.924  24.530  1.00  0.00     0.055 A 
ATOM     11  C   UNL A   1      30.925  22.931  26.653  1.00  0.00     0.101 C 
ATOM     12  C   UNL A   1      30.676  24.202  23.184  1.00  0.00     0.028 A 
ATOM     13  C   UNL A   1      30.931  24.958  25.457  1.00  0.00    -0.021 A 
ATOM     14  C   UNL A   1      31.279  24.425  26.803  1.00  0.00     0.063 C 
ATOM     15  C   UNL A   1      29.524  22.661  27.218  1.00  0.00     0.032 C 
ATOM     16  C   UNL A   1      30.608  25.540  22.781  1.00  0.00     0.016 A 
ATOM     17  C   UNL A   1      30.797  26.288  25.078  1.00  0.00     0.019 A 
BRANCH   9  18
ATOM     18  S   UNL A   1      32.198  21.672  24.536  1.00  0.00     0.264 S 
ATOM     19  O   UNL A   1      32.139  21.752  23.092  1.00  0.00    -0.201 OA
ATOM     20  O   UNL A   1      32.158  20.384  25.210  1.00  0.00    -0.201 OA
BRANCH  18  21
ATOM     21  C   UNL A   1      33.769  22.376  25.007  1.00  0.00     0.088 A 
ATOM     22  C   UNL A   1      37.841  23.567  25.762  1.00  0.00     0.044 C 
ATOM     23  C   UNL A   1      36.409  23.177  25.549  1.00  0.00    -0.051 A 
ATOM     24  C   UNL A   1      35.961  21.916  25.952  1.00  0.00     0.005 A 
ATOM     25  C   UNL A   1      35.505  24.057  24.945  1.00  0.00     0.005 A 
ATOM     26  C   UNL A   1      34.651  21.518  25.681  1.00  0.00     0.022 A 
ATOM     27  C   UNL A   1      34.188  23.663  24.683  1.00  0.00     0.022 A 
ENDBRANCH  18  21
ENDBRANCH   9  18
ENDBRANCH   5   8
ENDBRANCH   3   4
ENDBRANCH   2   3
ENDBRANCH   1   2
BRANCH   1  28
ATOM     28  C   UNL A   1      33.909  28.134  25.901  1.00  0.00     0.002 C 
BRANCH  28  29
ATOM     29  C   UNL A   1      33.671  29.591  26.297  1.00  0.00     0.021 C 
BRANCH  29  30
ATOM     30  C   UNL A   1      33.509  29.852  27.785  1.00  0.00     0.116 C 
BRANCH  30  31
ATOM     31  N   UNL A   1      34.175  31.052  28.265  1.00  0.00    -0.352 N 
ATOM     32  C   UNL A   1      35.439  31.208  28.815  1.00  0.00     0.251 C 
ATOM     33  H   UNL A   1      33.648  31.879  28.188  1.00  0.00     0.163 HD
ATOM     34  O   UNL A   1      35.776  32.287  29.259  1.00  0.00    -0.269 OA
BRANCH  32  35
ATOM     35  C   UNL A   1      36.430  30.100  28.729  1.00  0.00     0.039 A 
ATOM     36  C   UNL A   1      36.651  29.336  29.886  1.00  0.00     0.014 A 
ATOM     37  C   UNL A   1      37.250  29.922  27.621  1.00  0.00     0.014 A 
ATOM     38  C   UNL A   1      37.827  28.598  30.011  1.00  0.00     0.010 A 
ATOM     39  C   UNL A   1      38.461  29.285  27.777  1.00  0.00     0.010 A 
ATOM     40  C   UNL A   1      38.776  28.682  28.998  1.00  0.00    -0.014 A 
BRANCH  40  41
ATOM     41  C   UNL A   1      40.158  28.251  29.136  1.00  0.00     0.031 A 
ATOM     42  C   UNL A   1      40.582  26.938  28.617  1.00  0.00     0.074 A 
ATOM     43  C   UNL A   1      41.064  29.139  29.601  1.00  0.00     0.049 A 
ATOM     44  N   UNL A   1      41.682  26.348  28.940  1.00  0.00    -0.248 NA
ATOM     45  C   UNL A   1      39.761  26.155  27.705  1.00  0.00     0.031 C 
ATOM     46  C   UNL A   1      42.519  29.058  29.506  1.00  0.00     0.029 A 
ATOM     47  N   UNL A   1      40.830  30.235  30.447  1.00  0.00    -0.354 N 
ATOM     48  C   UNL A   1      41.848  25.265  28.106  1.00  0.00     0.074 A 
ATOM     49  C   UNL A   1      40.591  25.152  27.402  1.00  0.00     0.031 C 
ATOM     50  C   UNL A   1      43.058  29.832  30.462  1.00  0.00     0.029 A 
ATOM     51  C   UNL A   1      41.963  30.301  31.292  1.00  0.00     0.049 A 
ATOM     52  H   UNL A   1      40.045  30.830  30.452  1.00  0.00     0.167 HD
ATOM     53  C   UNL A   1      43.080  24.681  28.030  1.00  0.00     0.037 A 
ATOM     54  C   UNL A   1      41.859  30.079  32.634  1.00  0.00     0.037 A 
ATOM     55  C   UNL A   1      43.989  25.269  29.015  1.00  0.00     0.049 A 
ATOM     56  C   UNL A   1      42.708  28.934  33.130  1.00  0.00     0.074 A 
ATOM     57  C   UNL A   1      44.970  26.243  28.926  1.00  0.00     0.029 A 
ATOM     58  N   UNL A   1      43.736  25.088  30.371  1.00  0.00    -0.354 N 
ATOM     59  N   UNL A   1      43.136  27.963  32.371  1.00  0.00    -0.248 NA
ATOM     60  C   UNL A   1      43.131  28.786  34.519  1.00  0.00     0.031 C 
ATOM     61  C   UNL A   1      45.274  26.684  30.239  1.00  0.00     0.029 A 
ATOM     62  C   UNL A   1      44.494  25.961  31.126  1.00  0.00     0.049 A 
ATOM     63  H   UNL A   1      43.104  24.430  30.740  1.00  0.00     0.167 HD
ATOM     64  C   UNL A   1      43.866  27.081  33.125  1.00  0.00     0.074 A 
ATOM     65  C   UNL A   1      43.846  27.649  34.460  1.00  0.00     0.031 C 
ATOM     66  C   UNL A   1      44.419  25.956  32.579  1.00  0.00     0.037 A 
BRANCH  53  67
ATOM     67  C   UNL A   1      43.555  23.783  26.901  1.00  0.00     0.064 A 
ATOM     68  C   UNL A   1      43.110  22.444  26.811  1.00  0.00     0.173 A 
ATOM     69  C   UNL A   1      44.491  24.145  25.914  1.00  0.00     0.173 A 
ATOM     70  F   UNL A   1      42.138  21.972  27.603  1.00  0.00    -0.203 F 
ATOM     71  C   UNL A   1      43.644  21.527  25.899  1.00  0.00     0.198 A 
ATOM     72  C   UNL A   1      45.062  23.219  25.034  1.00  0.00     0.198 A 
ATOM     73  F   UNL A   1      44.840  25.419  25.714  1.00  0.00    -0.203 F 
ATOM     74  F   UNL A   1      43.185  20.267  25.877  1.00  0.00    -0.200 F 
ATOM     75  C   UNL A   1      44.648  21.905  25.035  1.00  0.00     0.200 A 
ATOM     76  F   UNL A   1      46.016  23.617  24.180  1.00  0.00    -0.200 F 
ATOM     77  F   UNL A   1      45.191  21.020  24.189  1.00  0.00    -0.200 F 
ENDBRANCH  53  67
BRANCH  54  78
ATOM     78  C   UNL A   1      40.532  30.465  33.186  1.00  0.00     0.064 A 
ATOM     79  C   UNL A   1      40.222  31.837  33.269  1.00  0.00     0.173 A 
ATOM     80  C   UNL A   1      39.468  29.557  33.236  1.00  0.00     0.173 A 
ATOM     81  F   UNL A   1      41.207  32.748  33.224  1.00  0.00    -0.203 F 
ATOM     82  C   UNL A   1      38.903  32.283  33.268  1.00  0.00     0.198 A 
ATOM     83  C   UNL A   1      38.145  30.010  33.254  1.00  0.00     0.198 A 
ATOM     84  F   UNL A   1      39.694  28.239  33.146  1.00  0.00    -0.203 F 
ATOM     85  F   UNL A   1      38.643  33.597  33.222  1.00  0.00    -0.200 F 
ATOM     86  C   UNL A   1      37.865  31.368  33.230  1.00  0.00     0.200 A 
ATOM     87  F   UNL A   1      37.138  29.126  33.191  1.00  0.00    -0.200 F 
ATOM     88  F   UNL A   1      36.598  31.795  33.128  1.00  0.00    -0.200 F 
ENDBRANCH  54  78
BRANCH  66  89
ATOM     89  C   UNL A   1      45.024  24.787  33.330  1.00  0.00     0.064 A 
ATOM     90  C   UNL A   1      44.334  23.605  33.641  1.00  0.00     0.173 A 
ATOM     91  C   UNL A   1      46.411  24.774  33.633  1.00  0.00     0.173 A 
ATOM     92  F   UNL A   1      43.052  23.431  33.298  1.00  0.00    -0.203 F 
ATOM     93  C   UNL A   1      44.964  22.520  34.261  1.00  0.00     0.198 A 
ATOM     94  C   UNL A   1      47.047  23.668  34.193  1.00  0.00     0.198 A 
ATOM     95  F   UNL A   1      47.201  25.824  33.366  1.00  0.00    -0.203 F 
ATOM     96  F   UNL A   1      44.248  21.431  34.574  1.00  0.00    -0.200 F 
ATOM     97  C   UNL A   1      46.320  22.545  34.524  1.00  0.00     0.200 A 
ATOM     98  F   UNL A   1      48.374  23.690  34.388  1.00  0.00    -0.200 F 
ATOM     99  F   UNL A   1      46.927  21.483  35.070  1.00  0.00    -0.200 F 
ENDBRANCH  66  89
ENDBRANCH  40  41
ENDBRANCH  32  35
ENDBRANCH  30  31
ENDBRANCH  29  30
ENDBRANCH  28  29
ENDBRANCH   1  28
TORSDOF 15
ENDMDL
MODEL 3
REMARK VINA RESULT:     -12.9      3.442      9.703
REMARK SMILES Cc1ccc(S(=O)(=O)N2c3ccc(C(=O)NCCCCCCNC(=O)c4ccc(-c5c6nc(c(-c7c(F)c(F)c(F)c(F)c7F)c7ccc([nH]7)c(-c7c(F)c(F)c(F)c(F)c7F)c7nc(c(-c8c(F)c(F)c(F)c(F)c8F)c8ccc5[nH]8)C=C7)C=C6)cc4)cc3C[C@H]2C)cc1
REMARK SMILES IDX 19 1 18 2 17 3 16 4 14 5 15 6 13 8 9 9 10 10 92 11 11 12
REMARK SMILES IDX 90 13 91 14 93 15 12 16 89 17 6 18 7 19 8 20 5 21 1 22 2 23
REMARK SMILES IDX 3 24 95 25 4 26 94 27 20 28 21 29 22 30 23 31 24 32 25 34
REMARK SMILES IDX 26 35 27 36 88 37 28 38 87 39 29 40 30 41 31 42 81 43 32 44
REMARK SMILES IDX 86 45 80 46 82 47 33 48 85 49 79 50 78 51 34 53 66 54 46 55
REMARK SMILES IDX 65 56 47 57 50 58 64 59 83 60 48 61 49 62 63 64 84 65 51 66
REMARK SMILES IDX 35 67 36 68 44 69 37 70 38 71 42 72 45 73 39 74 40 75 43 76
REMARK SMILES IDX 41 77 67 78 68 79 76 80 69 81 70 82 74 83 77 84 71 85 72 86
REMARK SMILES IDX 75 87 73 88 52 89 53 90 61 91 54 92 55 93 59 94 62 95 56 96
REMARK SMILES IDX 57 97 60 98 58 99
REMARK H PARENT 16 7 23 33 82 52 50 63
REMARK Flexibility Score: inf
ROOT
ATOM      1  C   UNL A   1      31.617  29.066  26.655  1.00  0.00     0.002 C 
ENDROOT
BRANCH   1   2
ATOM      2  C   UNL A   1      31.543  29.903  25.375  1.00  0.00     0.021 C 
BRANCH   2   3
ATOM      3  C   UNL A   1      31.437  29.162  24.047  1.00  0.00     0.116 C 
BRANCH   3   4
ATOM      4  N   UNL A   1      30.112  28.703  23.691  1.00  0.00    -0.352 N 
ATOM      5  C   UNL A   1      29.599  27.424  23.735  1.00  0.00     0.251 C 
ATOM      6  O   UNL A   1      28.434  27.237  23.389  1.00  0.00    -0.269 OA
ATOM      7  H   UNL A   1      29.492  29.399  23.374  1.00  0.00     0.163 HD
BRANCH   5   8
ATOM      8  C   UNL A   1      30.445  26.257  24.121  1.00  0.00     0.040 A 
ATOM      9  N   UNL A   1      33.231  23.177  24.907  1.00  0.00    -0.263 N 
ATOM     10  C   UNL A   1      32.215  24.203  24.778  1.00  0.00     0.055 A 
ATOM     11  C   UNL A   1      33.761  22.995  23.493  1.00  0.00     0.101 C 
ATOM     12  C   UNL A   1      31.501  24.819  25.790  1.00  0.00     0.028 A 
ATOM     13  C   UNL A   1      31.999  24.556  23.448  1.00  0.00    -0.021 A 
ATOM     14  C   UNL A   1      32.734  23.638  22.536  1.00  0.00     0.063 C 
ATOM     15  C   UNL A   1      35.107  23.723  23.389  1.00  0.00     0.032 C 
ATOM     16  C   UNL A   1      30.573  25.809  25.448  1.00  0.00     0.016 A 
ATOM     17  C   UNL A   1      31.131  25.583  23.101  1.00  0.00     0.019 A 
BRANCH   9  18
ATOM     18  S   UNL A   1      32.632  21.775  25.712  1.00  0.00     0.264 S 
ATOM     19  O   UNL A   1      31.186  21.850  25.700  1.00  0.00    -0.201 OA
ATOM     20  O   UNL A   1      33.358  21.650  26.965  1.00  0.00    -0.201 OA
BRANCH  18  21
ATOM     21  C   UNL A   1      33.058  20.304  24.797  1.00  0.00     0.088 A 
ATOM     22  C   UNL A   1      34.154  16.450  23.208  1.00  0.00     0.044 C 
ATOM     23  C   UNL A   1      33.794  17.816  23.713  1.00  0.00    -0.051 A 
ATOM     24  C   UNL A   1      34.679  18.510  24.541  1.00  0.00     0.005 A 
ATOM     25  C   UNL A   1      32.575  18.411  23.372  1.00  0.00     0.005 A 
ATOM     26  C   UNL A   1      34.314  19.744  25.081  1.00  0.00     0.022 A 
ATOM     27  C   UNL A   1      32.212  19.655  23.903  1.00  0.00     0.022 A 
ENDBRANCH  18  21
ENDBRANCH   9  18
ENDBRANCH   5   8
ENDBRANCH   3   4
ENDBRANCH   2   3
ENDBRANCH   1   2
BRANCH   1  28
ATOM     28  C   UNL A   1      32.981  28.504  27.079  1.00  0.00     0.002 C 
BRANCH  28  29
ATOM     29  C   UNL A   1      34.233  29.255  26.626  1.00  0.00     0.021 C 
BRANCH  29  30
ATOM     30  C   UNL A   1      34.922  30.089  27.693  1.00  0.00     0.116 C 
BRANCH  30  31
ATOM     31  N   UNL A   1      34.290  31.371  27.961  1.00  0.00    -0.352 N 
ATOM     32  C   UNL A   1      34.657  32.376  28.843  1.00  0.00     0.251 C 
ATOM     33  H   UNL A   1      33.477  31.551  27.437  1.00  0.00     0.163 HD
ATOM     34  O   UNL A   1      33.930  33.336  29.002  1.00  0.00    -0.269 OA
BRANCH  32  35
ATOM     35  C   UNL A   1      36.001  32.351  29.483  1.00  0.00     0.039 A 
ATOM     36  C   UNL A   1      37.040  33.040  28.838  1.00  0.00     0.014 A 
ATOM     37  C   UNL A   1      36.288  31.537  30.573  1.00  0.00     0.014 A 
ATOM     38  C   UNL A   1      38.365  32.714  29.125  1.00  0.00     0.010 A 
ATOM     39  C   UNL A   1      37.588  31.133  30.785  1.00  0.00     0.010 A 
ATOM     40  C   UNL A   1      38.618  31.674  30.012  1.00  0.00    -0.014 A 
BRANCH  40  41
ATOM     41  C   UNL A   1      39.906  31.012  30.148  1.00  0.00     0.031 A 
ATOM     42  C   UNL A   1      40.176  29.756  29.424  1.00  0.00     0.074 A 
ATOM     43  C   UNL A   1      40.891  31.653  30.816  1.00  0.00     0.049 A 
ATOM     44  N   UNL A   1      41.147  28.954  29.696  1.00  0.00    -0.248 NA
ATOM     45  C   UNL A   1      39.328  29.280  28.341  1.00  0.00     0.031 C 
ATOM     46  C   UNL A   1      42.321  31.361  30.789  1.00  0.00     0.029 A 
ATOM     47  N   UNL A   1      40.750  32.613  31.831  1.00  0.00    -0.354 N 
ATOM     48  C   UNL A   1      41.222  28.016  28.691  1.00  0.00     0.074 A 
ATOM     49  C   UNL A   1      40.025  28.225  27.908  1.00  0.00     0.031 C 
ATOM     50  C   UNL A   1      42.886  31.865  31.898  1.00  0.00     0.029 A 
ATOM     51  C   UNL A   1      41.805  32.354  32.736  1.00  0.00     0.049 A 
ATOM     52  H   UNL A   1      40.062  33.315  31.899  1.00  0.00     0.167 HD
ATOM     53  C   UNL A   1      42.358  27.265  28.580  1.00  0.00     0.037 A 
ATOM     54  C   UNL A   1      41.559  31.926  34.008  1.00  0.00     0.037 A 
ATOM     55  C   UNL A   1      43.258  27.526  29.704  1.00  0.00     0.049 A 
ATOM     56  C   UNL A   1      42.188  30.593  34.335  1.00  0.00     0.074 A 
ATOM     57  C   UNL A   1      44.375  28.333  29.848  1.00  0.00     0.029 A 
ATOM     58  N   UNL A   1      42.869  27.159  30.988  1.00  0.00    -0.354 N 
ATOM     59  N   UNL A   1      42.531  29.710  33.439  1.00  0.00    -0.248 NA
ATOM     60  C   UNL A   1      42.467  30.147  35.697  1.00  0.00     0.031 C 
ATOM     61  C   UNL A   1      44.629  28.490  31.234  1.00  0.00     0.029 A 
ATOM     62  C   UNL A   1      43.681  27.760  31.930  1.00  0.00     0.049 A 
ATOM     63  H   UNL A   1      42.119  26.557  31.197  1.00  0.00     0.167 HD
ATOM     64  C   UNL A   1      43.059  28.608  34.061  1.00  0.00     0.074 A 
ATOM     65  C   UNL A   1      43.010  28.937  35.473  1.00  0.00     0.031 C 
ATOM     66  C   UNL A   1      43.485  27.519  33.352  1.00  0.00     0.037 A 
BRANCH  53  67
ATOM     67  C   UNL A   1      42.789  26.509  27.335  1.00  0.00     0.064 A 
ATOM     68  C   UNL A   1      42.219  25.253  27.023  1.00  0.00     0.173 A 
ATOM     69  C   UNL A   1      43.796  26.921  26.443  1.00  0.00     0.173 A 
ATOM     70  F   UNL A   1      41.174  24.767  27.705  1.00  0.00    -0.203 F 
ATOM     71  C   UNL A   1      42.698  24.438  25.992  1.00  0.00     0.198 A 
ATOM     72  C   UNL A   1      44.310  26.088  25.442  1.00  0.00     0.198 A 
ATOM     73  F   UNL A   1      44.277  28.167  26.456  1.00  0.00    -0.203 F 
ATOM     74  F   UNL A   1      42.119  23.251  25.758  1.00  0.00    -0.200 F 
ATOM     75  C   UNL A   1      43.769  24.839  25.224  1.00  0.00     0.200 A 
ATOM     76  F   UNL A   1      45.333  26.513  24.687  1.00  0.00    -0.200 F 
ATOM     77  F   UNL A   1      44.257  24.045  24.263  1.00  0.00    -0.200 F 
ENDBRANCH  53  67
BRANCH  54  78
ATOM     78  C   UNL A   1      40.261  32.417  34.546  1.00  0.00     0.064 A 
ATOM     79  C   UNL A   1      40.203  33.738  35.033  1.00  0.00     0.173 A 
ATOM     80  C   UNL A   1      39.051  31.794  34.220  1.00  0.00     0.173 A 
ATOM     81  F   UNL A   1      41.336  34.381  35.357  1.00  0.00    -0.203 F 
ATOM     82  C   UNL A   1      39.004  34.446  35.067  1.00  0.00     0.198 A 
ATOM     83  C   UNL A   1      37.847  32.503  34.274  1.00  0.00     0.198 A 
ATOM     84  F   UNL A   1      39.039  30.544  33.737  1.00  0.00    -0.203 F 
ATOM     85  F   UNL A   1      39.002  35.740  35.417  1.00  0.00    -0.200 F 
ATOM     86  C   UNL A   1      37.830  33.836  34.659  1.00  0.00     0.200 A 
ATOM     87  F   UNL A   1      36.713  31.922  33.855  1.00  0.00    -0.200 F 
ATOM     88  F   UNL A   1      36.694  34.543  34.596  1.00  0.00    -0.200 F 
ENDBRANCH  54  78
BRANCH  66  89
ATOM     89  C   UNL A   1      43.848  26.159  33.912  1.00  0.00     0.064 A 
ATOM     90  C   UNL A   1      45.139  25.608  33.876  1.00  0.00     0.173 A 
ATOM     91  C   UNL A   1      42.897  25.417  34.659  1.00  0.00     0.173 A 
ATOM     92  F   UNL A   1      46.163  26.261  33.313  1.00  0.00    -0.203 F 
ATOM     93  C   UNL A   1      45.441  24.384  34.483  1.00  0.00     0.198 A 
ATOM     94  C   UNL A   1      43.217  24.230  35.315  1.00  0.00     0.198 A 
ATOM     95  F   UNL A   1      41.631  25.836  34.803  1.00  0.00    -0.203 F 
ATOM     96  F   UNL A   1      46.680  23.884  34.381  1.00  0.00    -0.200 F 
ATOM     97  C   UNL A   1      44.485  23.703  35.213  1.00  0.00     0.200 A 
ATOM     98  F   UNL A   1      42.292  23.613  36.066  1.00  0.00    -0.200 F 
ATOM     99  F   UNL A   1      44.795  22.558  35.835  1.00  0.00    -0.200 F 
ENDBRANCH  66  89
ENDBRANCH  40  41
ENDBRANCH  32  35
ENDBRANCH  30  31
ENDBRANCH  29  30
ENDBRANCH  28  29
ENDBRANCH   1  28
TORSDOF 15
ENDMDL
