MODEL 1
REMARK VINA RESULT:     -13.4      0.000      0.000
REMARK SMILES [NH3+][C@H]1CN(C(=O)OCC2c3ccccc3-c3ccccc32)C[C@@H]1C(=O)NCCCCCCNC(=O)c1ccc(-c2c3nc(c(-c4c(F)c(F)c(F)c(F)c4F)c4ccc([nH]4)c(-c4c(F)c(F)c(F)c(F)c4F)c4nc(c(-c5c(F)c(F)c(F)c(F)c5F)c5ccc2[nH]5)C=C4)C=C3)cc1
REMARK SMILES IDX 28 1 27 2 26 3 24 4 25 5 23 7 2 8 3 9 4 10 22 11 1 12 5 16
REMARK SMILES IDX 6 17 7 18 8 19 9 20 10 21 21 22 11 23 15 24 16 25 20 26
REMARK SMILES IDX 12 27 14 28 17 29 19 30 13 31 18 32 29 33 30 34 31 35 32 36
REMARK SMILES IDX 33 37 34 38 35 40 36 41 37 42 98 43 38 44 97 45 39 46 40 47
REMARK SMILES IDX 41 48 91 49 42 50 96 51 90 52 92 53 43 54 95 55 89 56 88 57
REMARK SMILES IDX 44 59 76 60 56 61 75 62 57 63 60 64 74 65 93 66 58 67 59 68
REMARK SMILES IDX 73 70 94 71 61 72 45 73 46 74 54 75 47 76 48 77 52 78 55 79
REMARK SMILES IDX 49 80 50 81 53 82 51 83 77 84 78 85 86 86 79 87 80 88 84 89
REMARK SMILES IDX 87 90 81 91 82 92 85 93 83 94 62 95 63 96 71 97 64 98 65 99
REMARK SMILES IDX 69 100 72 101 66 102 67 103 70 104 68 105
REMARK H PARENT 26 6 1 13 1 14 1 15 33 39 92 58 60 69
REMARK Flexibility Score: inf
ROOT
ATOM      1  C   UNL A   1      32.996  28.716  27.286  1.00  0.00     0.021 C 
ENDROOT
BRANCH   1   2
ATOM      2  C   UNL A   1      31.576  28.221  27.560  1.00  0.00     0.116 C 
BRANCH   2   3
ATOM      3  N   UNL A   1      31.402  26.868  27.058  1.00  0.00    -0.356 N 
ATOM      4  C   UNL A   1      30.991  26.448  25.824  1.00  0.00     0.231 C 
ATOM      5  O   UNL A   1      30.705  25.262  25.666  1.00  0.00    -0.274 OA
ATOM      6  H   UNL A   1      31.610  26.150  27.699  1.00  0.00     0.163 HD
BRANCH   4   7
ATOM      7  C   UNL A   1      30.944  27.463  24.698  1.00  0.00     0.158 C 
ATOM      8  C   UNL A   1      29.865  27.153  23.646  1.00  0.00     0.215 C 
ATOM      9  C   UNL A   1      30.565  26.182  22.667  1.00  0.00     0.188 C 
ATOM     10  N   UNL A   1      31.986  26.329  22.924  1.00  0.00    -0.301 N 
ATOM     11  C   UNL A   1      32.247  27.348  23.919  1.00  0.00     0.143 C 
BRANCH   8  12
ATOM     12  N   UNL A   1      29.453  28.399  22.966  1.00  0.00    -0.353 N 
ATOM     13  H   UNL A   1      30.225  28.749  22.398  1.00  0.00     0.344 HD
ATOM     14  H   UNL A   1      29.199  29.098  23.664  1.00  0.00     0.344 HD
ATOM     15  H   UNL A   1      28.649  28.210  22.366  1.00  0.00     0.344 HD
ENDBRANCH   8  12
BRANCH  10  16
ATOM     16  C   UNL A   1      32.943  25.461  22.485  1.00  0.00     0.410 C 
ATOM     17  O   UNL A   1      33.994  25.827  21.963  1.00  0.00    -0.224 OA
BRANCH  16  18
ATOM     18  O   UNL A   1      32.559  24.167  22.618  1.00  0.00    -0.448 OA
BRANCH  18  19
ATOM     19  C   UNL A   1      33.620  23.190  22.705  1.00  0.00     0.248 C 
BRANCH  19  20
ATOM     20  C   UNL A   1      33.767  22.639  24.141  1.00  0.00     0.088 C 
ATOM     21  C   UNL A   1      33.551  21.128  24.259  1.00  0.00    -0.029 A 
ATOM     22  C   UNL A   1      35.209  22.765  24.641  1.00  0.00    -0.029 A 
ATOM     23  C   UNL A   1      32.391  20.391  24.067  1.00  0.00     0.005 A 
ATOM     24  C   UNL A   1      34.745  20.487  24.648  1.00  0.00    -0.014 A 
ATOM     25  C   UNL A   1      35.751  21.491  24.911  1.00  0.00    -0.014 A 
ATOM     26  C   UNL A   1      35.947  23.918  24.869  1.00  0.00     0.005 A 
ATOM     27  C   UNL A   1      32.455  19.000  24.164  1.00  0.00     0.000 A 
ATOM     28  C   UNL A   1      34.808  19.105  24.760  1.00  0.00     0.009 A 
ATOM     29  C   UNL A   1      37.038  21.358  25.406  1.00  0.00     0.009 A 
ATOM     30  C   UNL A   1      37.245  23.784  25.367  1.00  0.00     0.000 A 
ATOM     31  C   UNL A   1      33.657  18.360  24.496  1.00  0.00     0.001 A 
ATOM     32  C   UNL A   1      37.787  22.516  25.633  1.00  0.00     0.001 A 
ENDBRANCH  19  20
ENDBRANCH  18  19
ENDBRANCH  16  18
ENDBRANCH  10  16
ENDBRANCH   4   7
ENDBRANCH   2   3
ENDBRANCH   1   2
BRANCH   1  33
ATOM     33  C   UNL A   1      33.059  30.147  26.734  1.00  0.00     0.002 C 
BRANCH  33  34
ATOM     34  C   UNL A   1      31.713  30.736  26.301  1.00  0.00     0.002 C 
BRANCH  34  35
ATOM     35  C   UNL A   1      31.482  32.193  26.706  1.00  0.00     0.021 C 
BRANCH  35  36
ATOM     36  C   UNL A   1      32.710  32.898  27.271  1.00  0.00     0.116 C 
BRANCH  36  37
ATOM     37  N   UNL A   1      32.432  34.270  27.663  1.00  0.00    -0.352 N 
ATOM     38  C   UNL A   1      33.000  35.018  28.665  1.00  0.00     0.251 C 
ATOM     39  H   UNL A   1      31.737  34.727  27.136  1.00  0.00     0.163 HD
ATOM     40  O   UNL A   1      32.532  36.111  28.968  1.00  0.00    -0.269 OA
BRANCH  38  41
ATOM     41  C   UNL A   1      34.169  34.490  29.398  1.00  0.00     0.039 A 
ATOM     42  C   UNL A   1      33.972  33.885  30.642  1.00  0.00     0.014 A 
ATOM     43  C   UNL A   1      35.456  34.594  28.862  1.00  0.00     0.014 A 
ATOM     44  C   UNL A   1      35.058  33.329  31.322  1.00  0.00     0.010 A 
ATOM     45  C   UNL A   1      36.526  33.981  29.508  1.00  0.00     0.010 A 
ATOM     46  C   UNL A   1      36.338  33.345  30.745  1.00  0.00    -0.014 A 
BRANCH  46  47
ATOM     47  C   UNL A   1      37.501  32.715  31.419  1.00  0.00     0.031 A 
ATOM     48  C   UNL A   1      38.192  31.543  30.780  1.00  0.00     0.074 A 
ATOM     49  C   UNL A   1      37.880  33.141  32.639  1.00  0.00     0.049 A 
ATOM     50  N   UNL A   1      39.142  30.780  31.257  1.00  0.00    -0.248 NA
ATOM     51  C   UNL A   1      37.733  31.162  29.435  1.00  0.00     0.031 C 
ATOM     52  C   UNL A   1      37.265  34.243  33.380  1.00  0.00     0.029 A 
ATOM     53  N   UNL A   1      38.865  32.685  33.479  1.00  0.00    -0.354 N 
ATOM     54  C   UNL A   1      39.376  29.817  30.285  1.00  0.00     0.074 A 
ATOM     55  C   UNL A   1      38.440  30.065  29.209  1.00  0.00     0.031 C 
ATOM     56  C   UNL A   1      37.893  34.384  34.558  1.00  0.00     0.029 A 
ATOM     57  C   UNL A   1      38.928  33.361  34.673  1.00  0.00     0.049 A 
ATOM     58  H   UNL A   1      39.470  31.942  33.247  1.00  0.00     0.167 HD
ATOM     59  C   UNL A   1      40.302  28.829  30.280  1.00  0.00     0.037 A 
ATOM     60  C   UNL A   1      39.721  33.167  35.744  1.00  0.00     0.037 A 
ATOM     61  C   UNL A   1      41.255  28.607  31.335  1.00  0.00     0.049 A 
ATOM     62  C   UNL A   1      40.745  32.064  35.711  1.00  0.00     0.074 A 
ATOM     63  C   UNL A   1      42.272  27.670  31.397  1.00  0.00     0.029 A 
ATOM     64  N   UNL A   1      41.309  29.335  32.515  1.00  0.00    -0.354 N 
ATOM     65  N   UNL A   1      40.995  31.195  34.763  1.00  0.00    -0.248 NA
ATOM     66  C   UNL A   1      41.600  31.919  36.898  1.00  0.00     0.031 C 
ATOM     67  C   UNL A   1      42.916  27.805  32.632  1.00  0.00     0.029 A 
ATOM     68  C   UNL A   1      42.331  28.857  33.318  1.00  0.00     0.049 A 
ATOM     69  H   UNL A   1      40.709  30.081  32.746  1.00  0.00     0.167 HD
ATOM     70  C   UNL A   1      42.053  30.422  35.222  1.00  0.00     0.074 A 
ATOM     71  C   UNL A   1      42.404  30.931  36.531  1.00  0.00     0.031 C 
ATOM     72  C   UNL A   1      42.678  29.387  34.612  1.00  0.00     0.037 A 
BRANCH  59  73
ATOM     73  C   UNL A   1      40.331  27.911  29.094  1.00  0.00     0.064 A 
ATOM     74  C   UNL A   1      39.587  26.721  29.064  1.00  0.00     0.173 A 
ATOM     75  C   UNL A   1      41.085  28.241  27.957  1.00  0.00     0.173 A 
ATOM     76  F   UNL A   1      38.860  26.354  30.130  1.00  0.00    -0.203 F 
ATOM     77  C   UNL A   1      39.621  25.882  27.954  1.00  0.00     0.198 A 
ATOM     78  C   UNL A   1      41.093  27.415  26.836  1.00  0.00     0.198 A 
ATOM     79  F   UNL A   1      41.810  29.370  27.930  1.00  0.00    -0.203 F 
ATOM     80  F   UNL A   1      38.942  24.727  27.968  1.00  0.00    -0.200 F 
ATOM     81  C   UNL A   1      40.367  26.232  26.838  1.00  0.00     0.200 A 
ATOM     82  F   UNL A   1      41.805  27.761  25.755  1.00  0.00    -0.200 F 
ATOM     83  F   UNL A   1      40.393  25.427  25.768  1.00  0.00    -0.200 F 
ENDBRANCH  59  73
BRANCH  60  84
ATOM     84  C   UNL A   1      39.595  34.053  36.929  1.00  0.00     0.064 A 
ATOM     85  C   UNL A   1      40.255  35.289  36.975  1.00  0.00     0.173 A 
ATOM     86  C   UNL A   1      38.820  33.685  38.038  1.00  0.00     0.173 A 
ATOM     87  F   UNL A   1      41.025  35.675  35.947  1.00  0.00    -0.203 F 
ATOM     88  C   UNL A   1      40.160  36.115  38.094  1.00  0.00     0.198 A 
ATOM     89  C   UNL A   1      38.704  34.523  39.145  1.00  0.00     0.198 A 
ATOM     90  F   UNL A   1      38.166  32.514  38.041  1.00  0.00    -0.203 F 
ATOM     91  F   UNL A   1      40.836  37.272  38.129  1.00  0.00    -0.200 F 
ATOM     92  C   UNL A   1      39.381  35.735  39.175  1.00  0.00     0.200 A 
ATOM     93  F   UNL A   1      37.939  34.158  40.183  1.00  0.00    -0.200 F 
ATOM     94  F   UNL A   1      39.286  36.530  40.248  1.00  0.00    -0.200 F 
ENDBRANCH  60  84
BRANCH  72  95
ATOM     95  C   UNL A   1      43.837  28.760  35.330  1.00  0.00     0.064 A 
ATOM     96  C   UNL A   1      45.156  29.186  35.114  1.00  0.00     0.173 A 
ATOM     97  C   UNL A   1      43.617  27.754  36.283  1.00  0.00     0.173 A 
ATOM     98  F   UNL A   1      45.418  30.134  34.202  1.00  0.00    -0.203 F 
ATOM     99  C   UNL A   1      46.214  28.614  35.814  1.00  0.00     0.198 A 
ATOM    100  C   UNL A   1      44.675  27.204  37.001  1.00  0.00     0.198 A 
ATOM    101  F   UNL A   1      42.373  27.317  36.530  1.00  0.00    -0.203 F 
ATOM    102  F   UNL A   1      47.471  29.007  35.565  1.00  0.00    -0.200 F 
ATOM    103  C   UNL A   1      45.973  27.630  36.763  1.00  0.00     0.200 A 
ATOM    104  F   UNL A   1      44.438  26.263  37.926  1.00  0.00    -0.200 F 
ATOM    105  F   UNL A   1      46.993  27.089  37.443  1.00  0.00    -0.200 F 
ENDBRANCH  72  95
ENDBRANCH  46  47
ENDBRANCH  38  41
ENDBRANCH  36  37
ENDBRANCH  35  36
ENDBRANCH  34  35
ENDBRANCH  33  34
ENDBRANCH   1  33
TORSDOF 18
ENDMDL
MODEL 2
REMARK VINA RESULT:     -13.1      1.504      7.290
REMARK SMILES [NH3+][C@H]1CN(C(=O)OCC2c3ccccc3-c3ccccc32)C[C@@H]1C(=O)NCCCCCCNC(=O)c1ccc(-c2c3nc(c(-c4c(F)c(F)c(F)c(F)c4F)c4ccc([nH]4)c(-c4c(F)c(F)c(F)c(F)c4F)c4nc(c(-c5c(F)c(F)c(F)c(F)c5F)c5ccc2[nH]5)C=C4)C=C3)cc1
REMARK SMILES IDX 28 1 27 2 26 3 24 4 25 5 23 7 2 8 3 9 4 10 22 11 1 12 5 16
REMARK SMILES IDX 6 17 7 18 8 19 9 20 10 21 21 22 11 23 15 24 16 25 20 26
REMARK SMILES IDX 12 27 14 28 17 29 19 30 13 31 18 32 29 33 30 34 31 35 32 36
REMARK SMILES IDX 33 37 34 38 35 40 36 41 37 42 98 43 38 44 97 45 39 46 40 47
REMARK SMILES IDX 41 48 91 49 42 50 96 51 90 52 92 53 43 54 95 55 89 56 88 57
REMARK SMILES IDX 44 59 76 60 56 61 75 62 57 63 60 64 74 65 93 66 58 67 59 68
REMARK SMILES IDX 73 70 94 71 61 72 45 73 46 74 54 75 47 76 48 77 52 78 55 79
REMARK SMILES IDX 49 80 50 81 53 82 51 83 77 84 78 85 86 86 79 87 80 88 84 89
REMARK SMILES IDX 87 90 81 91 82 92 85 93 83 94 62 95 63 96 71 97 64 98 65 99
REMARK SMILES IDX 69 100 72 101 66 102 67 103 70 104 68 105
REMARK H PARENT 26 6 1 13 1 14 1 15 33 39 92 58 60 69
REMARK Flexibility Score: inf
ROOT
ATOM      1  C   UNL A   1      34.926  31.485  27.979  1.00  0.00     0.021 C 
ENDROOT
BRANCH   1   2
ATOM      2  C   UNL A   1      33.831  30.762  27.194  1.00  0.00     0.116 C 
BRANCH   2   3
ATOM      3  N   UNL A   1      34.161  29.356  27.036  1.00  0.00    -0.356 N 
ATOM      4  C   UNL A   1      33.804  28.489  26.043  1.00  0.00     0.231 C 
ATOM      5  O   UNL A   1      34.008  27.286  26.204  1.00  0.00    -0.274 OA
ATOM      6  H   UNL A   1      34.722  28.973  27.749  1.00  0.00     0.163 HD
BRANCH   4   7
ATOM      7  C   UNL A   1      33.207  29.058  24.771  1.00  0.00     0.158 C 
ATOM      8  C   UNL A   1      31.691  28.818  24.651  1.00  0.00     0.215 C 
ATOM      9  C   UNL A   1      31.585  27.416  24.007  1.00  0.00     0.188 C 
ATOM     10  N   UNL A   1      32.893  27.151  23.436  1.00  0.00    -0.301 N 
ATOM     11  C   UNL A   1      33.786  28.279  23.600  1.00  0.00     0.143 C 
BRANCH   8  12
ATOM     12  N   UNL A   1      31.084  29.854  23.789  1.00  0.00    -0.353 N 
ATOM     13  H   UNL A   1      30.983  30.720  24.318  1.00  0.00     0.344 HD
ATOM     14  H   UNL A   1      30.168  29.539  23.473  1.00  0.00     0.344 HD
ATOM     15  H   UNL A   1      31.685  30.019  22.981  1.00  0.00     0.344 HD
ENDBRANCH   8  12
BRANCH  10  16
ATOM     16  C   UNL A   1      33.320  25.922  23.024  1.00  0.00     0.410 C 
ATOM     17  O   UNL A   1      33.926  25.740  21.970  1.00  0.00    -0.224 OA
BRANCH  16  18
ATOM     18  O   UNL A   1      32.925  24.935  23.866  1.00  0.00    -0.448 OA
BRANCH  18  19
ATOM     19  C   UNL A   1      33.388  23.603  23.553  1.00  0.00     0.248 C 
BRANCH  19  20
ATOM     20  C   UNL A   1      33.730  22.804  24.832  1.00  0.00     0.088 C 
ATOM     21  C   UNL A   1      33.557  21.290  24.691  1.00  0.00    -0.029 A 
ATOM     22  C   UNL A   1      35.221  22.897  25.164  1.00  0.00    -0.029 A 
ATOM     23  C   UNL A   1      32.396  20.553  24.511  1.00  0.00     0.005 A 
ATOM     24  C   UNL A   1      34.803  20.638  24.804  1.00  0.00    -0.014 A 
ATOM     25  C   UNL A   1      35.816  21.618  25.123  1.00  0.00    -0.014 A 
ATOM     26  C   UNL A   1      35.962  24.019  25.510  1.00  0.00     0.005 A 
ATOM     27  C   UNL A   1      32.496  19.171  24.338  1.00  0.00     0.000 A 
ATOM     28  C   UNL A   1      34.904  19.263  24.648  1.00  0.00     0.009 A 
ATOM     29  C   UNL A   1      37.159  21.451  25.421  1.00  0.00     0.009 A 
ATOM     30  C   UNL A   1      37.316  23.850  25.810  1.00  0.00     0.000 A 
ATOM     31  C   UNL A   1      33.741  18.532  24.393  1.00  0.00     0.001 A 
ATOM     32  C   UNL A   1      37.910  22.578  25.766  1.00  0.00     0.001 A 
ENDBRANCH  19  20
ENDBRANCH  18  19
ENDBRANCH  16  18
ENDBRANCH  10  16
ENDBRANCH   4   7
ENDBRANCH   2   3
ENDBRANCH   1   2
BRANCH   1  33
ATOM     33  C   UNL A   1      34.402  32.302  29.168  1.00  0.00     0.002 C 
BRANCH  33  34
ATOM     34  C   UNL A   1      34.611  33.816  29.059  1.00  0.00     0.002 C 
BRANCH  34  35
ATOM     35  C   UNL A   1      33.327  34.644  28.981  1.00  0.00     0.021 C 
BRANCH  35  36
ATOM     36  C   UNL A   1      33.447  36.058  29.537  1.00  0.00     0.116 C 
BRANCH  36  37
ATOM     37  N   UNL A   1      32.518  36.307  30.627  1.00  0.00    -0.352 N 
ATOM     38  C   UNL A   1      32.551  35.840  31.918  1.00  0.00     0.251 C 
ATOM     39  H   UNL A   1      31.757  36.892  30.409  1.00  0.00     0.163 HD
ATOM     40  O   UNL A   1      31.597  36.014  32.669  1.00  0.00    -0.269 OA
BRANCH  38  41
ATOM     41  C   UNL A   1      33.737  35.101  32.398  1.00  0.00     0.039 A 
ATOM     42  C   UNL A   1      33.575  33.799  32.880  1.00  0.00     0.014 A 
ATOM     43  C   UNL A   1      35.004  35.690  32.376  1.00  0.00     0.014 A 
ATOM     44  C   UNL A   1      34.693  33.065  33.284  1.00  0.00     0.010 A 
ATOM     45  C   UNL A   1      36.124  34.935  32.714  1.00  0.00     0.010 A 
ATOM     46  C   UNL A   1      35.979  33.617  33.174  1.00  0.00    -0.014 A 
BRANCH  46  47
ATOM     47  C   UNL A   1      37.189  32.841  33.544  1.00  0.00     0.031 A 
ATOM     48  C   UNL A   1      37.909  33.145  34.829  1.00  0.00     0.074 A 
ATOM     49  C   UNL A   1      37.687  31.927  32.691  1.00  0.00     0.049 A 
ATOM     50  N   UNL A   1      39.044  32.670  35.276  1.00  0.00    -0.248 NA
ATOM     51  C   UNL A   1      37.281  34.137  35.716  1.00  0.00     0.031 C 
ATOM     52  C   UNL A   1      37.102  31.569  31.398  1.00  0.00     0.029 A 
ATOM     53  N   UNL A   1      38.810  31.142  32.776  1.00  0.00    -0.354 N 
ATOM     54  C   UNL A   1      39.276  33.322  36.480  1.00  0.00     0.074 A 
ATOM     55  C   UNL A   1      38.189  34.257  36.673  1.00  0.00     0.031 C 
ATOM     56  C   UNL A   1      37.864  30.629  30.817  1.00  0.00     0.029 A 
ATOM     57  C   UNL A   1      39.010  30.345  31.675  1.00  0.00     0.049 A 
ATOM     58  H   UNL A   1      39.415  31.150  33.553  1.00  0.00     0.167 HD
ATOM     59  C   UNL A   1      40.295  33.142  37.355  1.00  0.00     0.037 A 
ATOM     60  C   UNL A   1      40.012  29.493  31.386  1.00  0.00     0.037 A 
ATOM     61  C   UNL A   1      41.355  32.186  37.177  1.00  0.00     0.049 A 
ATOM     62  C   UNL A   1      41.130  29.308  32.378  1.00  0.00     0.074 A 
ATOM     63  C   UNL A   1      42.400  31.885  38.034  1.00  0.00     0.029 A 
ATOM     64  N   UNL A   1      41.505  31.372  36.063  1.00  0.00    -0.354 N 
ATOM     65  N   UNL A   1      41.310  29.888  33.538  1.00  0.00    -0.248 NA
ATOM     66  C   UNL A   1      42.180  28.345  32.020  1.00  0.00     0.031 C 
ATOM     67  C   UNL A   1      43.204  30.918  37.421  1.00  0.00     0.029 A 
ATOM     68  C   UNL A   1      42.634  30.582  36.204  1.00  0.00     0.049 A 
ATOM     69  H   UNL A   1      40.898  31.359  35.287  1.00  0.00     0.167 HD
ATOM     70  C   UNL A   1      42.473  29.340  34.063  1.00  0.00     0.074 A 
ATOM     71  C   UNL A   1      42.952  28.374  33.097  1.00  0.00     0.031 C 
ATOM     72  C   UNL A   1      43.086  29.612  35.240  1.00  0.00     0.037 A 
BRANCH  59  73
ATOM     73  C   UNL A   1      40.309  33.996  38.588  1.00  0.00     0.064 A 
ATOM     74  C   UNL A   1      40.998  35.218  38.630  1.00  0.00     0.173 A 
ATOM     75  C   UNL A   1      39.597  33.605  39.732  1.00  0.00     0.173 A 
ATOM     76  F   UNL A   1      41.704  35.631  37.566  1.00  0.00    -0.203 F 
ATOM     77  C   UNL A   1      40.998  36.002  39.780  1.00  0.00     0.198 A 
ATOM     78  C   UNL A   1      39.575  34.406  40.871  1.00  0.00     0.198 A 
ATOM     79  F   UNL A   1      38.917  32.449  39.745  1.00  0.00    -0.203 F 
ATOM     80  F   UNL A   1      41.705  37.140  39.813  1.00  0.00    -0.200 F 
ATOM     81  C   UNL A   1      40.281  35.599  40.897  1.00  0.00     0.200 A 
ATOM     82  F   UNL A   1      38.871  34.022  41.945  1.00  0.00    -0.200 F 
ATOM     83  F   UNL A   1      40.277  36.359  42.001  1.00  0.00    -0.200 F 
ENDBRANCH  59  73
BRANCH  60  84
ATOM     84  C   UNL A   1      39.993  28.732  30.111  1.00  0.00     0.064 A 
ATOM     85  C   UNL A   1      39.394  27.467  30.040  1.00  0.00     0.173 A 
ATOM     86  C   UNL A   1      40.573  29.247  28.944  1.00  0.00     0.173 A 
ATOM     87  F   UNL A   1      38.844  26.923  31.136  1.00  0.00    -0.203 F 
ATOM     88  C   UNL A   1      39.392  26.737  28.852  1.00  0.00     0.198 A 
ATOM     89  C   UNL A   1      40.548  28.528  27.750  1.00  0.00     0.198 A 
ATOM     90  F   UNL A   1      41.155  30.455  28.959  1.00  0.00    -0.203 F 
ATOM     91  F   UNL A   1      38.851  25.511  28.823  1.00  0.00    -0.200 F 
ATOM     92  C   UNL A   1      39.964  27.269  27.707  1.00  0.00     0.200 A 
ATOM     93  F   UNL A   1      41.090  29.051  26.642  1.00  0.00    -0.200 F 
ATOM     94  F   UNL A   1      39.959  26.570  26.565  1.00  0.00    -0.200 F 
ENDBRANCH  60  84
BRANCH  72  95
ATOM     95  C   UNL A   1      44.319  28.824  35.575  1.00  0.00     0.064 A 
ATOM     96  C   UNL A   1      45.599  29.271  35.215  1.00  0.00     0.173 A 
ATOM     97  C   UNL A   1      44.219  27.633  36.309  1.00  0.00     0.173 A 
ATOM     98  F   UNL A   1      45.745  30.397  34.499  1.00  0.00    -0.203 F 
ATOM     99  C   UNL A   1      46.733  28.543  35.563  1.00  0.00     0.198 A 
ATOM    100  C   UNL A   1      45.357  26.922  36.679  1.00  0.00     0.198 A 
ATOM    101  F   UNL A   1      43.018  27.168  36.682  1.00  0.00    -0.203 F 
ATOM    102  F   UNL A   1      47.945  28.966  35.175  1.00  0.00    -0.200 F 
ATOM    103  C   UNL A   1      46.612  27.374  36.301  1.00  0.00     0.200 A 
ATOM    104  F   UNL A   1      45.239  25.801  37.403  1.00  0.00    -0.200 F 
ATOM    105  F   UNL A   1      47.707  26.681  36.644  1.00  0.00    -0.200 F 
ENDBRANCH  72  95
ENDBRANCH  46  47
ENDBRANCH  38  41
ENDBRANCH  36  37
ENDBRANCH  35  36
ENDBRANCH  34  35
ENDBRANCH  33  34
ENDBRANCH   1  33
TORSDOF 18
ENDMDL
MODEL 3
REMARK VINA RESULT:     -13.0      1.745      7.332
REMARK SMILES [NH3+][C@H]1CN(C(=O)OCC2c3ccccc3-c3ccccc32)C[C@@H]1C(=O)NCCCCCCNC(=O)c1ccc(-c2c3nc(c(-c4c(F)c(F)c(F)c(F)c4F)c4ccc([nH]4)c(-c4c(F)c(F)c(F)c(F)c4F)c4nc(c(-c5c(F)c(F)c(F)c(F)c5F)c5ccc2[nH]5)C=C4)C=C3)cc1
REMARK SMILES IDX 28 1 27 2 26 3 24 4 25 5 23 7 2 8 3 9 4 10 22 11 1 12 5 16
REMARK SMILES IDX 6 17 7 18 8 19 9 20 10 21 21 22 11 23 15 24 16 25 20 26
REMARK SMILES IDX 12 27 14 28 17 29 19 30 13 31 18 32 29 33 30 34 31 35 32 36
REMARK SMILES IDX 33 37 34 38 35 40 36 41 37 42 98 43 38 44 97 45 39 46 40 47
REMARK SMILES IDX 41 48 91 49 42 50 96 51 90 52 92 53 43 54 95 55 89 56 88 57
REMARK SMILES IDX 44 59 76 60 56 61 75 62 57 63 60 64 74 65 93 66 58 67 59 68
REMARK SMILES IDX 73 70 94 71 61 72 45 73 46 74 54 75 47 76 48 77 52 78 55 79
REMARK SMILES IDX 49 80 50 81 53 82 51 83 77 84 78 85 86 86 79 87 80 88 84 89
REMARK SMILES IDX 87 90 81 91 82 92 85 93 83 94 62 95 63 96 71 97 64 98 65 99
REMARK SMILES IDX 69 100 72 101 66 102 67 103 70 104 68 105
REMARK H PARENT 26 6 1 13 1 14 1 15 33 39 92 58 60 69
REMARK Flexibility Score: inf
ROOT
ATOM      1  C   UNL A   1      34.803  31.499  27.887  1.00  0.00     0.021 C 
ENDROOT
BRANCH   1   2
ATOM      2  C   UNL A   1      33.647  30.726  27.251  1.00  0.00     0.116 C 
BRANCH   2   3
ATOM      3  N   UNL A   1      34.079  29.394  26.861  1.00  0.00    -0.356 N 
ATOM      4  C   UNL A   1      33.707  28.644  25.782  1.00  0.00     0.231 C 
ATOM      5  O   UNL A   1      34.026  27.456  25.746  1.00  0.00    -0.274 OA
ATOM      6  H   UNL A   1      34.734  28.971  27.462  1.00  0.00     0.163 HD
BRANCH   4   7
ATOM      7  C   UNL A   1      32.948  29.326  24.659  1.00  0.00     0.158 C 
ATOM      8  C   UNL A   1      31.454  28.959  24.625  1.00  0.00     0.215 C 
ATOM      9  C   UNL A   1      31.408  27.659  23.791  1.00  0.00     0.188 C 
ATOM     10  N   UNL A   1      32.674  27.604  23.085  1.00  0.00    -0.301 N 
ATOM     11  C   UNL A   1      33.481  28.778  23.343  1.00  0.00     0.143 C 
BRANCH   8  12
ATOM     12  N   UNL A   1      30.685  30.043  23.978  1.00  0.00    -0.353 N 
ATOM     13  H   UNL A   1      30.502  29.796  23.005  1.00  0.00     0.344 HD
ATOM     14  H   UNL A   1      31.222  30.909  24.014  1.00  0.00     0.344 HD
ATOM     15  H   UNL A   1      29.799  30.171  24.468  1.00  0.00     0.344 HD
ENDBRANCH   8  12
BRANCH  10  16
ATOM     16  C   UNL A   1      33.164  26.492  22.464  1.00  0.00     0.410 C 
ATOM     17  O   UNL A   1      33.754  26.530  21.386  1.00  0.00    -0.224 OA
BRANCH  16  18
ATOM     18  O   UNL A   1      32.848  25.353  23.129  1.00  0.00    -0.448 OA
BRANCH  18  19
ATOM     19  C   UNL A   1      33.044  24.116  22.409  1.00  0.00     0.248 C 
BRANCH  19  20
ATOM     20  C   UNL A   1      33.417  22.957  23.361  1.00  0.00     0.088 C 
ATOM     21  C   UNL A   1      34.818  23.070  23.967  1.00  0.00    -0.029 A 
ATOM     22  C   UNL A   1      32.552  22.975  24.625  1.00  0.00    -0.029 A 
ATOM     23  C   UNL A   1      36.053  22.987  23.341  1.00  0.00     0.005 A 
ATOM     24  C   UNL A   1      34.739  23.253  25.364  1.00  0.00    -0.014 A 
ATOM     25  C   UNL A   1      33.355  23.164  25.769  1.00  0.00    -0.014 A 
ATOM     26  C   UNL A   1      31.180  22.797  24.735  1.00  0.00     0.005 A 
ATOM     27  C   UNL A   1      37.207  23.192  24.100  1.00  0.00     0.000 A 
ATOM     28  C   UNL A   1      35.885  23.442  26.123  1.00  0.00     0.009 A 
ATOM     29  C   UNL A   1      32.791  23.184  27.035  1.00  0.00     0.009 A 
ATOM     30  C   UNL A   1      30.613  22.817  26.012  1.00  0.00     0.000 A 
ATOM     31  C   UNL A   1      37.124  23.431  25.478  1.00  0.00     0.001 A 
ATOM     32  C   UNL A   1      31.410  23.009  27.151  1.00  0.00     0.001 A 
ENDBRANCH  19  20
ENDBRANCH  18  19
ENDBRANCH  16  18
ENDBRANCH  10  16
ENDBRANCH   4   7
ENDBRANCH   2   3
ENDBRANCH   1   2
BRANCH   1  33
ATOM     33  C   UNL A   1      34.398  32.320  29.119  1.00  0.00     0.002 C 
BRANCH  33  34
ATOM     34  C   UNL A   1      34.639  33.829  29.001  1.00  0.00     0.002 C 
BRANCH  34  35
ATOM     35  C   UNL A   1      33.373  34.681  28.893  1.00  0.00     0.021 C 
BRANCH  35  36
ATOM     36  C   UNL A   1      33.498  36.082  29.481  1.00  0.00     0.116 C 
BRANCH  36  37
ATOM     37  N   UNL A   1      32.552  36.318  30.560  1.00  0.00    -0.352 N 
ATOM     38  C   UNL A   1      32.570  35.843  31.848  1.00  0.00     0.251 C 
ATOM     39  H   UNL A   1      31.791  36.900  30.335  1.00  0.00     0.163 HD
ATOM     40  O   UNL A   1      31.605  36.007  32.586  1.00  0.00    -0.269 OA
BRANCH  38  41
ATOM     41  C   UNL A   1      33.755  35.108  32.340  1.00  0.00     0.039 A 
ATOM     42  C   UNL A   1      33.590  33.810  32.831  1.00  0.00     0.014 A 
ATOM     43  C   UNL A   1      35.021  35.697  32.318  1.00  0.00     0.014 A 
ATOM     44  C   UNL A   1      34.706  33.079  33.246  1.00  0.00     0.010 A 
ATOM     45  C   UNL A   1      36.140  34.946  32.668  1.00  0.00     0.010 A 
ATOM     46  C   UNL A   1      35.993  33.631  33.138  1.00  0.00    -0.014 A 
BRANCH  46  47
ATOM     47  C   UNL A   1      37.201  32.859  33.520  1.00  0.00     0.031 A 
ATOM     48  C   UNL A   1      37.907  33.164  34.812  1.00  0.00     0.074 A 
ATOM     49  C   UNL A   1      37.710  31.946  32.672  1.00  0.00     0.049 A 
ATOM     50  N   UNL A   1      39.039  32.692  35.271  1.00  0.00    -0.248 NA
ATOM     51  C   UNL A   1      37.268  34.154  35.693  1.00  0.00     0.031 C 
ATOM     52  C   UNL A   1      37.139  31.587  31.372  1.00  0.00     0.029 A 
ATOM     53  N   UNL A   1      38.834  31.164  32.767  1.00  0.00    -0.354 N 
ATOM     54  C   UNL A   1      39.257  33.344  36.477  1.00  0.00     0.074 A 
ATOM     55  C   UNL A   1      38.165  34.276  36.659  1.00  0.00     0.031 C 
ATOM     56  C   UNL A   1      37.910  30.650  30.798  1.00  0.00     0.029 A 
ATOM     57  C   UNL A   1      39.047  30.369  31.668  1.00  0.00     0.049 A 
ATOM     58  H   UNL A   1      39.432  31.173  33.551  1.00  0.00     0.167 HD
ATOM     59  C   UNL A   1      40.267  33.166  37.362  1.00  0.00     0.037 A 
ATOM     60  C   UNL A   1      40.055  29.519  31.389  1.00  0.00     0.037 A 
ATOM     61  C   UNL A   1      41.332  32.213  37.194  1.00  0.00     0.049 A 
ATOM     62  C   UNL A   1      41.163  29.337  32.392  1.00  0.00     0.074 A 
ATOM     63  C   UNL A   1      42.369  31.915  38.062  1.00  0.00     0.029 A 
ATOM     64  N   UNL A   1      41.496  31.400  36.081  1.00  0.00    -0.354 N 
ATOM     65  N   UNL A   1      41.330  29.917  33.554  1.00  0.00    -0.248 NA
ATOM     66  C   UNL A   1      42.220  28.376  32.044  1.00  0.00     0.031 C 
ATOM     67  C   UNL A   1      43.182  30.951  37.457  1.00  0.00     0.029 A 
ATOM     68  C   UNL A   1      42.625  30.613  36.234  1.00  0.00     0.049 A 
ATOM     69  H   UNL A   1      40.897  31.386  35.300  1.00  0.00     0.167 HD
ATOM     70  C   UNL A   1      42.489  29.372  34.091  1.00  0.00     0.074 A 
ATOM     71  C   UNL A   1      42.980  28.407  33.129  1.00  0.00     0.031 C 
ATOM     72  C   UNL A   1      43.090  29.645  35.274  1.00  0.00     0.037 A 
BRANCH  59  73
ATOM     73  C   UNL A   1      40.267  34.020  38.595  1.00  0.00     0.064 A 
ATOM     74  C   UNL A   1      39.602  33.623  39.766  1.00  0.00     0.173 A 
ATOM     75  C   UNL A   1      40.968  35.235  38.619  1.00  0.00     0.173 A 
ATOM     76  F   UNL A   1      38.907  32.475  39.790  1.00  0.00    -0.203 F 
ATOM     77  C   UNL A   1      39.615  34.424  40.904  1.00  0.00     0.198 A 
ATOM     78  C   UNL A   1      41.004  36.020  39.769  1.00  0.00     0.198 A 
ATOM     79  F   UNL A   1      41.625  35.660  37.530  1.00  0.00    -0.203 F 
ATOM     80  F   UNL A   1      38.932  34.048  41.994  1.00  0.00    -0.200 F 
ATOM     81  C   UNL A   1      40.321  35.618  40.908  1.00  0.00     0.200 A 
ATOM     82  F   UNL A   1      41.697  37.167  39.775  1.00  0.00    -0.200 F 
ATOM     83  F   UNL A   1      40.338  36.384  42.007  1.00  0.00    -0.200 F 
ENDBRANCH  59  73
BRANCH  60  84
ATOM     84  C   UNL A   1      40.051  28.758  30.113  1.00  0.00     0.064 A 
ATOM     85  C   UNL A   1      40.648  29.287  28.961  1.00  0.00     0.173 A 
ATOM     86  C   UNL A   1      39.449  27.496  30.018  1.00  0.00     0.173 A 
ATOM     87  F   UNL A   1      41.217  30.500  28.998  1.00  0.00    -0.203 F 
ATOM     88  C   UNL A   1      40.626  28.589  27.754  1.00  0.00     0.198 A 
ATOM     89  C   UNL A   1      39.452  26.787  28.818  1.00  0.00     0.198 A 
ATOM     90  F   UNL A   1      38.868  26.945  31.093  1.00  0.00    -0.203 F 
ATOM     91  F   UNL A   1      41.167  29.137  26.657  1.00  0.00    -0.200 F 
ATOM     92  C   UNL A   1      40.034  27.338  27.685  1.00  0.00     0.200 A 
ATOM     93  F   UNL A   1      38.890  25.572  28.757  1.00  0.00    -0.200 F 
ATOM     94  F   UNL A   1      40.017  26.665  26.527  1.00  0.00    -0.200 F 
ENDBRANCH  60  84
BRANCH  72  95
ATOM     95  C   UNL A   1      44.322  28.860  35.620  1.00  0.00     0.064 A 
ATOM     96  C   UNL A   1      45.602  29.300  35.255  1.00  0.00     0.173 A 
ATOM     97  C   UNL A   1      44.219  27.680  36.372  1.00  0.00     0.173 A 
ATOM     98  F   UNL A   1      45.750  30.415  34.523  1.00  0.00    -0.203 F 
ATOM     99  C   UNL A   1      46.735  28.575  35.614  1.00  0.00     0.198 A 
ATOM    100  C   UNL A   1      45.356  26.973  36.753  1.00  0.00     0.198 A 
ATOM    101  F   UNL A   1      43.017  27.222  36.751  1.00  0.00    -0.203 F 
ATOM    102  F   UNL A   1      47.947  28.992  35.221  1.00  0.00    -0.200 F 
ATOM    103  C   UNL A   1      46.612  27.418  36.370  1.00  0.00     0.200 A 
ATOM    104  F   UNL A   1      45.236  25.862  37.493  1.00  0.00    -0.200 F 
ATOM    105  F   UNL A   1      47.705  26.728  36.723  1.00  0.00    -0.200 F 
ENDBRANCH  72  95
ENDBRANCH  46  47
ENDBRANCH  38  41
ENDBRANCH  36  37
ENDBRANCH  35  36
ENDBRANCH  34  35
ENDBRANCH  33  34
ENDBRANCH   1  33
TORSDOF 18
ENDMDL
