MODEL 1
REMARK VINA RESULT:     -13.8      0.000      0.000
REMARK SMILES O=C(NCCCCCCNC(=O)[C@H]1Cc2[nH]cnc2CN1C(=O)c1ccncc1Cl)c1ccc(-c2c3nc(c(-c4c(F)c(F)c(F)c(F)c4F)c4ccc([nH]4)c(-c4c(F)c(F)c(F)c(F)c4F)c4nc(c(-c5c(F)c(F)c(F)c(F)c5F)c5ccc2[nH]5)C=C4)C=C3)cc1
REMARK SMILES IDX 6 1 5 2 4 3 3 4 1 5 2 6 31 8 32 9 93 10 33 11 92 12 34 13
REMARK SMILES IDX 35 14 36 15 86 16 37 17 91 18 85 19 87 20 38 21 90 22 84 23
REMARK SMILES IDX 83 24 39 26 71 27 51 28 70 29 52 30 55 31 69 32 88 33 53 34
REMARK SMILES IDX 54 35 68 37 89 38 56 39 40 40 41 41 49 42 42 43 43 44 47 45
REMARK SMILES IDX 50 46 44 47 45 48 48 49 46 50 72 51 73 52 81 53 74 54 75 55
REMARK SMILES IDX 79 56 82 57 76 58 77 59 80 60 78 61 57 62 58 63 66 64 59 65
REMARK SMILES IDX 60 66 64 67 67 68 61 69 62 70 65 71 63 72 7 73 8 74 9 75
REMARK SMILES IDX 10 76 11 77 12 79 13 80 14 81 21 82 15 83 20 84 16 85 19 86
REMARK SMILES IDX 17 87 18 89 22 90 23 91 24 92 25 93 29 94 26 95 28 96 30 97
REMARK SMILES IDX 27 98
REMARK H PARENT 3 7 87 25 55 36 10 78 16 88
REMARK Flexibility Score: inf
ROOT
ATOM      1  C   UNL A   1      31.743  28.658  25.370  1.00  0.00     0.002 C 
ENDROOT
BRANCH   1   2
ATOM      2  C   UNL A   1      32.891  29.657  25.553  1.00  0.00     0.021 C 
BRANCH   2   3
ATOM      3  C   UNL A   1      33.365  29.764  27.000  1.00  0.00     0.116 C 
BRANCH   3   4
ATOM      4  N   UNL A   1      33.679  31.121  27.394  1.00  0.00    -0.352 N 
ATOM      5  O   UNL A   1      34.717  32.935  28.134  1.00  0.00    -0.269 OA
ATOM      6  C   UNL A   1      34.798  31.725  27.891  1.00  0.00     0.251 C 
ATOM      7  H   UNL A   1      32.924  31.743  27.277  1.00  0.00     0.163 HD
BRANCH   6   8
ATOM      8  C   UNL A   1      36.063  31.017  28.212  1.00  0.00     0.039 A 
ATOM      9  C   UNL A   1      36.306  29.661  27.995  1.00  0.00     0.014 A 
ATOM     10  C   UNL A   1      37.093  31.811  28.747  1.00  0.00     0.014 A 
ATOM     11  C   UNL A   1      37.515  29.089  28.377  1.00  0.00     0.010 A 
ATOM     12  C   UNL A   1      38.316  31.253  29.099  1.00  0.00     0.010 A 
ATOM     13  C   UNL A   1      38.516  29.886  28.936  1.00  0.00    -0.014 A 
BRANCH  13  14
ATOM     14  C   UNL A   1      39.830  29.283  29.139  1.00  0.00     0.031 A 
ATOM     15  C   UNL A   1      40.203  29.083  30.575  1.00  0.00     0.074 A 
ATOM     16  C   UNL A   1      40.581  28.787  28.135  1.00  0.00     0.049 A 
ATOM     17  N   UNL A   1      41.257  29.497  31.202  1.00  0.00    -0.248 NA
ATOM     18  C   UNL A   1      39.221  28.408  31.443  1.00  0.00     0.031 C 
ATOM     19  C   UNL A   1      40.217  28.646  26.725  1.00  0.00     0.029 A 
ATOM     20  N   UNL A   1      41.809  28.197  28.193  1.00  0.00    -0.354 N 
ATOM     21  C   UNL A   1      41.152  29.001  32.502  1.00  0.00     0.074 A 
ATOM     22  C   UNL A   1      39.830  28.447  32.628  1.00  0.00     0.031 C 
ATOM     23  C   UNL A   1      41.097  27.818  26.117  1.00  0.00     0.029 A 
ATOM     24  C   UNL A   1      42.150  27.475  27.057  1.00  0.00     0.049 A 
ATOM     25  H   UNL A   1      42.403  28.276  28.975  1.00  0.00     0.167 HD
ATOM     26  C   UNL A   1      42.233  28.898  33.323  1.00  0.00     0.037 A 
ATOM     27  C   UNL A   1      43.183  26.605  26.927  1.00  0.00     0.037 A 
ATOM     28  C   UNL A   1      43.298  29.771  32.911  1.00  0.00     0.049 A 
ATOM     29  C   UNL A   1      44.150  26.884  28.017  1.00  0.00     0.074 A 
ATOM     30  C   UNL A   1      43.432  31.138  32.778  1.00  0.00     0.029 A 
ATOM     31  N   UNL A   1      44.356  29.232  32.227  1.00  0.00    -0.354 N 
ATOM     32  N   UNL A   1      44.871  27.966  28.094  1.00  0.00    -0.248 NA
ATOM     33  C   UNL A   1      43.992  26.144  29.259  1.00  0.00     0.031 C 
ATOM     34  C   UNL A   1      44.240  31.317  31.617  1.00  0.00     0.029 A 
ATOM     35  C   UNL A   1      44.596  30.051  31.154  1.00  0.00     0.049 A 
ATOM     36  H   UNL A   1      44.850  28.413  32.460  1.00  0.00     0.167 HD
ATOM     37  C   UNL A   1      44.888  28.278  29.444  1.00  0.00     0.074 A 
ATOM     38  C   UNL A   1      44.409  27.076  30.121  1.00  0.00     0.031 C 
ATOM     39  C   UNL A   1      45.021  29.569  29.864  1.00  0.00     0.037 A 
BRANCH  26  40
ATOM     40  C   UNL A   1      42.448  27.759  34.290  1.00  0.00     0.064 A 
ATOM     41  C   UNL A   1      43.008  26.550  33.830  1.00  0.00     0.173 A 
ATOM     42  C   UNL A   1      41.847  27.705  35.566  1.00  0.00     0.173 A 
ATOM     43  F   UNL A   1      43.579  26.478  32.619  1.00  0.00    -0.203 F 
ATOM     44  C   UNL A   1      42.910  25.365  34.567  1.00  0.00     0.198 A 
ATOM     45  C   UNL A   1      41.798  26.534  36.320  1.00  0.00     0.198 A 
ATOM     46  F   UNL A   1      41.185  28.747  36.084  1.00  0.00    -0.203 F 
ATOM     47  F   UNL A   1      43.347  24.215  34.037  1.00  0.00    -0.200 F 
ATOM     48  C   UNL A   1      42.301  25.357  35.808  1.00  0.00     0.200 A 
ATOM     49  F   UNL A   1      41.183  26.543  37.511  1.00  0.00    -0.200 F 
ATOM     50  F   UNL A   1      42.152  24.212  36.488  1.00  0.00    -0.200 F 
ENDBRANCH  26  40
BRANCH  27  51
ATOM     51  C   UNL A   1      43.241  25.352  26.135  1.00  0.00     0.064 A 
ATOM     52  C   UNL A   1      44.311  25.092  25.261  1.00  0.00     0.173 A 
ATOM     53  C   UNL A   1      42.401  24.263  26.436  1.00  0.00     0.173 A 
ATOM     54  F   UNL A   1      45.189  26.060  24.962  1.00  0.00    -0.203 F 
ATOM     55  C   UNL A   1      44.538  23.813  24.739  1.00  0.00     0.198 A 
ATOM     56  C   UNL A   1      42.624  22.990  25.908  1.00  0.00     0.198 A 
ATOM     57  F   UNL A   1      41.407  24.387  27.325  1.00  0.00    -0.203 F 
ATOM     58  F   UNL A   1      45.606  23.588  23.960  1.00  0.00    -0.200 F 
ATOM     59  C   UNL A   1      43.700  22.762  25.072  1.00  0.00     0.200 A 
ATOM     60  F   UNL A   1      41.830  21.972  26.270  1.00  0.00    -0.200 F 
ATOM     61  F   UNL A   1      43.953  21.524  24.624  1.00  0.00    -0.200 F 
ENDBRANCH  27  51
BRANCH  39  62
ATOM     62  C   UNL A   1      45.405  30.601  28.842  1.00  0.00     0.064 A 
ATOM     63  C   UNL A   1      44.487  31.267  28.011  1.00  0.00     0.173 A 
ATOM     64  C   UNL A   1      46.738  31.030  28.799  1.00  0.00     0.173 A 
ATOM     65  F   UNL A   1      43.177  30.992  28.067  1.00  0.00    -0.203 F 
ATOM     66  C   UNL A   1      44.896  32.280  27.144  1.00  0.00     0.198 A 
ATOM     67  C   UNL A   1      47.137  32.067  27.962  1.00  0.00     0.198 A 
ATOM     68  F   UNL A   1      47.649  30.471  29.612  1.00  0.00    -0.203 F 
ATOM     69  F   UNL A   1      44.001  32.890  26.354  1.00  0.00    -0.200 F 
ATOM     70  C   UNL A   1      46.220  32.683  27.126  1.00  0.00     0.200 A 
ATOM     71  F   UNL A   1      48.409  32.490  27.987  1.00  0.00    -0.200 F 
ATOM     72  F   UNL A   1      46.607  33.686  26.326  1.00  0.00    -0.200 F 
ENDBRANCH  39  62
ENDBRANCH  13  14
ENDBRANCH   6   8
ENDBRANCH   3   4
ENDBRANCH   2   3
ENDBRANCH   1   2
BRANCH   1  73
ATOM     73  C   UNL A   1      32.032  27.254  25.921  1.00  0.00     0.002 C 
BRANCH  73  74
ATOM     74  C   UNL A   1      30.792  26.355  26.060  1.00  0.00     0.021 C 
BRANCH  74  75
ATOM     75  C   UNL A   1      31.091  24.899  25.721  1.00  0.00     0.116 C 
BRANCH  75  76
ATOM     76  N   UNL A   1      31.512  24.223  26.930  1.00  0.00    -0.354 N 
ATOM     77  C   UNL A   1      32.458  23.272  27.120  1.00  0.00     0.243 C 
ATOM     78  H   UNL A   1      31.032  24.498  27.744  1.00  0.00     0.163 HD
ATOM     79  O   UNL A   1      32.390  22.619  28.165  1.00  0.00    -0.273 OA
BRANCH  77  80
ATOM     80  C   UNL A   1      33.559  22.981  26.086  1.00  0.00     0.181 C 
ATOM     81  C   UNL A   1      34.937  23.320  26.773  1.00  0.00     0.091 C 
ATOM     82  N   UNL A   1      33.555  21.679  25.300  1.00  0.00    -0.320 N 
ATOM     83  C   UNL A   1      36.058  22.717  26.027  1.00  0.00     0.042 A 
ATOM     84  C   UNL A   1      34.643  21.559  24.294  1.00  0.00     0.178 C 
ATOM     85  N   UNL A   1      37.392  22.747  26.316  1.00  0.00    -0.348 N 
ATOM     86  C   UNL A   1      35.937  21.922  24.916  1.00  0.00     0.081 A 
ATOM     87  C   UNL A   1      38.022  22.011  25.346  1.00  0.00     0.197 A 
ATOM     88  H   UNL A   1      37.818  23.207  27.075  1.00  0.00     0.167 HD
ATOM     89  N   UNL A   1      37.167  21.504  24.484  1.00  0.00    -0.240 NA
BRANCH  82  90
ATOM     90  C   UNL A   1      32.477  20.821  25.025  1.00  0.00     0.256 C 
ATOM     91  O   UNL A   1      31.310  21.089  25.308  1.00  0.00    -0.269 OA
BRANCH  90  92
ATOM     92  C   UNL A   1      32.634  19.592  24.245  1.00  0.00     0.061 A 
ATOM     93  C   UNL A   1      33.206  18.496  24.903  1.00  0.00     0.035 A 
ATOM     94  C   UNL A   1      32.328  19.512  22.893  1.00  0.00     0.072 A 
ATOM     95  C   UNL A   1      33.315  17.305  24.211  1.00  0.00     0.112 A 
ATOM     96  C   UNL A   1      32.453  18.266  22.297  1.00  0.00     0.132 A 
ATOM     97  Cl  UNL A   1      31.819  20.865  21.962  1.00  0.00    -0.082 Cl
ATOM     98  N   UNL A   1      32.911  17.155  22.932  1.00  0.00    -0.263 NA
ENDBRANCH  90  92
ENDBRANCH  82  90
ENDBRANCH  77  80
ENDBRANCH  75  76
ENDBRANCH  74  75
ENDBRANCH  73  74
ENDBRANCH   1  73
TORSDOF 15
ENDMDL
MODEL 2
REMARK VINA RESULT:     -13.8      3.486      9.116
REMARK SMILES O=C(NCCCCCCNC(=O)[C@H]1Cc2[nH]cnc2CN1C(=O)c1ccncc1Cl)c1ccc(-c2c3nc(c(-c4c(F)c(F)c(F)c(F)c4F)c4ccc([nH]4)c(-c4c(F)c(F)c(F)c(F)c4F)c4nc(c(-c5c(F)c(F)c(F)c(F)c5F)c5ccc2[nH]5)C=C4)C=C3)cc1
REMARK SMILES IDX 6 1 5 2 4 3 3 4 1 5 2 6 31 8 32 9 93 10 33 11 92 12 34 13
REMARK SMILES IDX 35 14 36 15 86 16 37 17 91 18 85 19 87 20 38 21 90 22 84 23
REMARK SMILES IDX 83 24 39 26 71 27 51 28 70 29 52 30 55 31 69 32 88 33 53 34
REMARK SMILES IDX 54 35 68 37 89 38 56 39 40 40 41 41 49 42 42 43 43 44 47 45
REMARK SMILES IDX 50 46 44 47 45 48 48 49 46 50 72 51 73 52 81 53 74 54 75 55
REMARK SMILES IDX 79 56 82 57 76 58 77 59 80 60 78 61 57 62 58 63 66 64 59 65
REMARK SMILES IDX 60 66 64 67 67 68 61 69 62 70 65 71 63 72 7 73 8 74 9 75
REMARK SMILES IDX 10 76 11 77 12 79 13 80 14 81 21 82 15 83 20 84 16 85 19 86
REMARK SMILES IDX 17 87 18 89 22 90 23 91 24 92 25 93 29 94 26 95 28 96 30 97
REMARK SMILES IDX 27 98
REMARK H PARENT 3 7 87 25 55 36 10 78 16 88
REMARK Flexibility Score: inf
ROOT
ATOM      1  C   UNL A   1      36.632  22.592  23.579  1.00  0.00     0.002 C 
ENDROOT
BRANCH   1   2
ATOM      2  C   UNL A   1      37.206  21.658  24.651  1.00  0.00     0.021 C 
BRANCH   2   3
ATOM      3  C   UNL A   1      37.984  22.399  25.735  1.00  0.00     0.116 C 
BRANCH   3   4
ATOM      4  N   UNL A   1      39.348  21.934  25.872  1.00  0.00    -0.352 N 
ATOM      5  O   UNL A   1      41.516  21.801  26.318  1.00  0.00    -0.269 OA
ATOM      6  C   UNL A   1      40.492  22.495  26.362  1.00  0.00     0.251 C 
ATOM      7  H   UNL A   1      39.479  21.016  25.541  1.00  0.00     0.163 HD
BRANCH   6   8
ATOM      8  C   UNL A   1      40.595  23.884  26.877  1.00  0.00     0.039 A 
ATOM      9  C   UNL A   1      39.818  24.962  26.451  1.00  0.00     0.014 A 
ATOM     10  C   UNL A   1      41.536  24.093  27.900  1.00  0.00     0.014 A 
ATOM     11  C   UNL A   1      40.030  26.234  26.969  1.00  0.00     0.010 A 
ATOM     12  C   UNL A   1      41.729  25.355  28.448  1.00  0.00     0.010 A 
ATOM     13  C   UNL A   1      40.991  26.430  27.962  1.00  0.00    -0.014 A 
BRANCH  13  14
ATOM     14  C   UNL A   1      41.041  27.737  28.612  1.00  0.00     0.031 A 
ATOM     15  C   UNL A   1      42.157  28.617  28.141  1.00  0.00     0.074 A 
ATOM     16  C   UNL A   1      40.076  28.193  29.436  1.00  0.00     0.049 A 
ATOM     17  N   UNL A   1      43.076  29.201  28.842  1.00  0.00    -0.248 NA
ATOM     18  C   UNL A   1      42.317  28.793  26.686  1.00  0.00     0.031 C 
ATOM     19  C   UNL A   1      38.792  27.566  29.750  1.00  0.00     0.029 A 
ATOM     20  N   UNL A   1      40.002  29.386  30.092  1.00  0.00    -0.354 N 
ATOM     21  C   UNL A   1      43.836  29.946  27.939  1.00  0.00     0.074 A 
ATOM     22  C   UNL A   1      43.403  29.562  26.621  1.00  0.00     0.031 C 
ATOM     23  C   UNL A   1      37.985  28.474  30.343  1.00  0.00     0.029 A 
ATOM     24  C   UNL A   1      38.734  29.700  30.563  1.00  0.00     0.049 A 
ATOM     25  H   UNL A   1      40.781  29.975  30.219  1.00  0.00     0.167 HD
ATOM     26  C   UNL A   1      44.627  30.978  28.341  1.00  0.00     0.037 A 
ATOM     27  C   UNL A   1      38.317  30.902  31.034  1.00  0.00     0.037 A 
ATOM     28  C   UNL A   1      44.962  30.877  29.735  1.00  0.00     0.049 A 
ATOM     29  C   UNL A   1      39.521  31.691  31.392  1.00  0.00     0.074 A 
ATOM     30  C   UNL A   1      45.642  29.953  30.503  1.00  0.00     0.029 A 
ATOM     31  N   UNL A   1      44.285  31.666  30.628  1.00  0.00    -0.354 N 
ATOM     32  N   UNL A   1      40.311  31.405  32.387  1.00  0.00    -0.248 NA
ATOM     33  C   UNL A   1      40.088  32.553  30.368  1.00  0.00     0.031 C 
ATOM     34  C   UNL A   1      44.939  29.915  31.742  1.00  0.00     0.029 A 
ATOM     35  C   UNL A   1      43.914  30.859  31.672  1.00  0.00     0.049 A 
ATOM     36  H   UNL A   1      44.100  32.628  30.538  1.00  0.00     0.167 HD
ATOM     37  C   UNL A   1      41.584  31.676  31.910  1.00  0.00     0.074 A 
ATOM     38  C   UNL A   1      41.379  32.463  30.697  1.00  0.00     0.031 C 
ATOM     39  C   UNL A   1      42.670  31.001  32.386  1.00  0.00     0.037 A 
BRANCH  26  40
ATOM     40  C   UNL A   1      44.810  32.252  27.555  1.00  0.00     0.064 A 
ATOM     41  C   UNL A   1      45.999  32.457  26.825  1.00  0.00     0.173 A 
ATOM     42  C   UNL A   1      44.004  33.397  27.740  1.00  0.00     0.173 A 
ATOM     43  F   UNL A   1      46.854  31.447  26.614  1.00  0.00    -0.203 F 
ATOM     44  C   UNL A   1      46.378  33.726  26.376  1.00  0.00     0.198 A 
ATOM     45  C   UNL A   1      44.361  34.650  27.245  1.00  0.00     0.198 A 
ATOM     46  F   UNL A   1      42.903  33.374  28.500  1.00  0.00    -0.203 F 
ATOM     47  F   UNL A   1      47.574  33.896  25.795  1.00  0.00    -0.200 F 
ATOM     48  C   UNL A   1      45.562  34.822  26.590  1.00  0.00     0.200 A 
ATOM     49  F   UNL A   1      43.566  35.702  27.484  1.00  0.00    -0.200 F 
ATOM     50  F   UNL A   1      45.952  36.047  26.216  1.00  0.00    -0.200 F 
ENDBRANCH  26  40
BRANCH  27  51
ATOM     51  C   UNL A   1      36.983  31.536  30.894  1.00  0.00     0.064 A 
ATOM     52  C   UNL A   1      36.256  31.959  32.021  1.00  0.00     0.173 A 
ATOM     53  C   UNL A   1      36.525  31.999  29.645  1.00  0.00     0.173 A 
ATOM     54  F   UNL A   1      36.653  31.606  33.252  1.00  0.00    -0.203 F 
ATOM     55  C   UNL A   1      35.153  32.813  31.904  1.00  0.00     0.198 A 
ATOM     56  C   UNL A   1      35.421  32.844  29.530  1.00  0.00     0.198 A 
ATOM     57  F   UNL A   1      37.200  31.723  28.521  1.00  0.00    -0.203 F 
ATOM     58  F   UNL A   1      34.524  33.247  33.005  1.00  0.00    -0.200 F 
ATOM     59  C   UNL A   1      34.743  33.262  30.660  1.00  0.00     0.200 A 
ATOM     60  F   UNL A   1      35.058  33.303  28.324  1.00  0.00    -0.200 F 
ATOM     61  F   UNL A   1      33.727  34.129  30.552  1.00  0.00    -0.200 F 
ENDBRANCH  27  51
BRANCH  39  62
ATOM     62  C   UNL A   1      42.484  30.151  33.611  1.00  0.00     0.064 A 
ATOM     63  C   UNL A   1      42.575  30.635  34.928  1.00  0.00     0.173 A 
ATOM     64  C   UNL A   1      42.064  28.826  33.441  1.00  0.00     0.173 A 
ATOM     65  F   UNL A   1      42.866  31.919  35.174  1.00  0.00    -0.203 F 
ATOM     66  C   UNL A   1      42.304  29.814  36.021  1.00  0.00     0.198 A 
ATOM     67  C   UNL A   1      41.756  28.019  34.532  1.00  0.00     0.198 A 
ATOM     68  F   UNL A   1      41.903  28.325  32.205  1.00  0.00    -0.203 F 
ATOM     69  F   UNL A   1      42.409  30.298  37.268  1.00  0.00    -0.200 F 
ATOM     70  C   UNL A   1      41.888  28.508  35.822  1.00  0.00     0.200 A 
ATOM     71  F   UNL A   1      41.303  26.774  34.333  1.00  0.00    -0.200 F 
ATOM     72  F   UNL A   1      41.585  27.731  36.871  1.00  0.00    -0.200 F 
ENDBRANCH  39  62
ENDBRANCH  13  14
ENDBRANCH   6   8
ENDBRANCH   3   4
ENDBRANCH   2   3
ENDBRANCH   1   2
BRANCH   1  73
ATOM     73  C   UNL A   1      35.451  23.449  24.054  1.00  0.00     0.002 C 
BRANCH  73  74
ATOM     74  C   UNL A   1      34.066  22.870  23.716  1.00  0.00     0.021 C 
BRANCH  74  75
ATOM     75  C   UNL A   1      33.043  23.958  23.407  1.00  0.00     0.116 C 
BRANCH  75  76
ATOM     76  N   UNL A   1      33.688  24.984  22.616  1.00  0.00    -0.354 N 
ATOM     77  C   UNL A   1      33.560  26.333  22.656  1.00  0.00     0.243 C 
ATOM     78  H   UNL A   1      34.321  24.648  21.941  1.00  0.00     0.163 HD
ATOM     79  O   UNL A   1      33.949  26.959  21.665  1.00  0.00    -0.273 OA
BRANCH  77  80
ATOM     80  C   UNL A   1      32.939  27.071  23.853  1.00  0.00     0.181 C 
ATOM     81  C   UNL A   1      34.119  27.786  24.615  1.00  0.00     0.091 C 
ATOM     82  N   UNL A   1      31.699  27.932  23.670  1.00  0.00    -0.320 N 
ATOM     83  C   UNL A   1      33.600  28.823  25.529  1.00  0.00     0.042 A 
ATOM     84  C   UNL A   1      31.173  28.537  24.921  1.00  0.00     0.178 C 
ATOM     85  N   UNL A   1      34.296  29.682  26.330  1.00  0.00    -0.348 N 
ATOM     86  C   UNL A   1      32.281  29.170  25.671  1.00  0.00     0.081 A 
ATOM     87  C   UNL A   1      33.370  30.476  26.955  1.00  0.00     0.197 A 
ATOM     88  H   UNL A   1      35.274  29.722  26.438  1.00  0.00     0.167 HD
ATOM     89  N   UNL A   1      32.144  30.186  26.578  1.00  0.00    -0.240 NA
BRANCH  82  90
ATOM     90  C   UNL A   1      30.726  27.868  22.658  1.00  0.00     0.256 C 
ATOM     91  O   UNL A   1      30.762  27.055  21.734  1.00  0.00    -0.269 OA
BRANCH  90  92
ATOM     92  C   UNL A   1      29.503  28.672  22.696  1.00  0.00     0.061 A 
ATOM     93  C   UNL A   1      29.614  30.008  22.292  1.00  0.00     0.035 A 
ATOM     94  C   UNL A   1      28.298  28.191  23.191  1.00  0.00     0.072 A 
ATOM     95  C   UNL A   1      28.466  30.778  22.262  1.00  0.00     0.112 A 
ATOM     96  C   UNL A   1      27.202  29.036  23.097  1.00  0.00     0.132 A 
ATOM     97  Cl  UNL A   1      28.127  26.633  23.898  1.00  0.00    -0.082 Cl
ATOM     98  N   UNL A   1      27.253  30.307  22.617  1.00  0.00    -0.263 NA
ENDBRANCH  90  92
ENDBRANCH  82  90
ENDBRANCH  77  80
ENDBRANCH  75  76
ENDBRANCH  74  75
ENDBRANCH  73  74
ENDBRANCH   1  73
TORSDOF 15
ENDMDL
MODEL 3
REMARK VINA RESULT:     -13.7      3.246      8.686
REMARK SMILES O=C(NCCCCCCNC(=O)[C@H]1Cc2[nH]cnc2CN1C(=O)c1ccncc1Cl)c1ccc(-c2c3nc(c(-c4c(F)c(F)c(F)c(F)c4F)c4ccc([nH]4)c(-c4c(F)c(F)c(F)c(F)c4F)c4nc(c(-c5c(F)c(F)c(F)c(F)c5F)c5ccc2[nH]5)C=C4)C=C3)cc1
REMARK SMILES IDX 6 1 5 2 4 3 3 4 1 5 2 6 31 8 32 9 93 10 33 11 92 12 34 13
REMARK SMILES IDX 35 14 36 15 86 16 37 17 91 18 85 19 87 20 38 21 90 22 84 23
REMARK SMILES IDX 83 24 39 26 71 27 51 28 70 29 52 30 55 31 69 32 88 33 53 34
REMARK SMILES IDX 54 35 68 37 89 38 56 39 40 40 41 41 49 42 42 43 43 44 47 45
REMARK SMILES IDX 50 46 44 47 45 48 48 49 46 50 72 51 73 52 81 53 74 54 75 55
REMARK SMILES IDX 79 56 82 57 76 58 77 59 80 60 78 61 57 62 58 63 66 64 59 65
REMARK SMILES IDX 60 66 64 67 67 68 61 69 62 70 65 71 63 72 7 73 8 74 9 75
REMARK SMILES IDX 10 76 11 77 12 79 13 80 14 81 21 82 15 83 20 84 16 85 19 86
REMARK SMILES IDX 17 87 18 89 22 90 23 91 24 92 25 93 29 94 26 95 28 96 30 97
REMARK SMILES IDX 27 98
REMARK H PARENT 3 7 87 25 55 36 10 78 16 88
REMARK Flexibility Score: inf
ROOT
ATOM      1  C   UNL A   1      36.041  21.679  24.945  1.00  0.00     0.002 C 
ENDROOT
BRANCH   1   2
ATOM      2  C   UNL A   1      37.538  21.375  24.818  1.00  0.00     0.021 C 
BRANCH   2   3
ATOM      3  C   UNL A   1      38.377  22.037  25.909  1.00  0.00     0.116 C 
BRANCH   3   4
ATOM      4  N   UNL A   1      39.774  21.664  25.854  1.00  0.00    -0.352 N 
ATOM      5  O   UNL A   1      41.985  21.666  26.025  1.00  0.00    -0.269 OA
ATOM      6  C   UNL A   1      40.932  22.283  26.229  1.00  0.00     0.251 C 
ATOM      7  H   UNL A   1      39.922  20.773  25.464  1.00  0.00     0.163 HD
BRANCH   6   8
ATOM      8  C   UNL A   1      41.008  23.653  26.798  1.00  0.00     0.039 A 
ATOM      9  C   UNL A   1      40.231  24.739  26.392  1.00  0.00     0.014 A 
ATOM     10  C   UNL A   1      41.922  23.832  27.851  1.00  0.00     0.014 A 
ATOM     11  C   UNL A   1      40.417  25.993  26.963  1.00  0.00     0.010 A 
ATOM     12  C   UNL A   1      42.088  25.074  28.450  1.00  0.00     0.010 A 
ATOM     13  C   UNL A   1      41.352  26.160  27.986  1.00  0.00    -0.014 A 
BRANCH  13  14
ATOM     14  C   UNL A   1      41.373  27.442  28.685  1.00  0.00     0.031 A 
ATOM     15  C   UNL A   1      42.537  28.316  28.336  1.00  0.00     0.074 A 
ATOM     16  C   UNL A   1      40.353  27.888  29.447  1.00  0.00     0.049 A 
ATOM     17  N   UNL A   1      43.408  28.856  29.128  1.00  0.00    -0.248 NA
ATOM     18  C   UNL A   1      42.815  28.539  26.906  1.00  0.00     0.031 C 
ATOM     19  C   UNL A   1      39.038  27.277  29.636  1.00  0.00     0.029 A 
ATOM     20  N   UNL A   1      40.248  29.059  30.138  1.00  0.00    -0.354 N 
ATOM     21  C   UNL A   1      44.250  29.617  28.315  1.00  0.00     0.074 A 
ATOM     22  C   UNL A   1      43.916  29.288  26.954  1.00  0.00     0.031 C 
ATOM     23  C   UNL A   1      38.202  28.180  30.196  1.00  0.00     0.029 A 
ATOM     24  C   UNL A   1      38.952  29.382  30.519  1.00  0.00     0.049 A 
ATOM     25  H   UNL A   1      41.025  29.627  30.348  1.00  0.00     0.167 HD
ATOM     26  C   UNL A   1      45.024  30.618  28.815  1.00  0.00     0.037 A 
ATOM     27  C   UNL A   1      38.520  30.575  30.999  1.00  0.00     0.037 A 
ATOM     28  C   UNL A   1      45.246  30.461  30.227  1.00  0.00     0.049 A 
ATOM     29  C   UNL A   1      39.705  31.326  31.479  1.00  0.00     0.074 A 
ATOM     30  C   UNL A   1      45.847  29.498  31.012  1.00  0.00     0.029 A 
ATOM     31  N   UNL A   1      44.513  31.232  31.092  1.00  0.00    -0.354 N 
ATOM     32  N   UNL A   1      40.409  30.990  32.522  1.00  0.00    -0.248 NA
ATOM     33  C   UNL A   1      40.366  32.213  30.535  1.00  0.00     0.031 C 
ATOM     34  C   UNL A   1      45.047  29.430  32.190  1.00  0.00     0.029 A 
ATOM     35  C   UNL A   1      44.047  30.397  32.074  1.00  0.00     0.049 A 
ATOM     36  H   UNL A   1      44.353  32.201  31.022  1.00  0.00     0.167 HD
ATOM     37  C   UNL A   1      41.720  31.251  32.157  1.00  0.00     0.074 A 
ATOM     38  C   UNL A   1      41.625  32.085  30.961  1.00  0.00     0.031 C 
ATOM     39  C   UNL A   1      42.753  30.539  32.692  1.00  0.00     0.037 A 
BRANCH  26  40
ATOM     40  C   UNL A   1      45.291  31.915  28.093  1.00  0.00     0.064 A 
ATOM     41  C   UNL A   1      44.214  32.762  27.759  1.00  0.00     0.173 A 
ATOM     42  C   UNL A   1      46.514  32.205  27.451  1.00  0.00     0.173 A 
ATOM     43  F   UNL A   1      42.998  32.561  28.287  1.00  0.00    -0.203 F 
ATOM     44  C   UNL A   1      44.343  33.777  26.806  1.00  0.00     0.198 A 
ATOM     45  C   UNL A   1      46.651  33.251  26.541  1.00  0.00     0.198 A 
ATOM     46  F   UNL A   1      47.592  31.423  27.592  1.00  0.00    -0.203 F 
ATOM     47  F   UNL A   1      43.264  34.476  26.429  1.00  0.00    -0.200 F 
ATOM     48  C   UNL A   1      45.560  34.017  26.194  1.00  0.00     0.200 A 
ATOM     49  F   UNL A   1      47.834  33.452  25.943  1.00  0.00    -0.200 F 
ATOM     50  F   UNL A   1      45.670  34.947  25.236  1.00  0.00    -0.200 F 
ENDBRANCH  26  40
BRANCH  27  51
ATOM     51  C   UNL A   1      37.213  31.240  30.778  1.00  0.00     0.064 A 
ATOM     52  C   UNL A   1      36.342  31.509  31.849  1.00  0.00     0.173 A 
ATOM     53  C   UNL A   1      36.920  31.881  29.559  1.00  0.00     0.173 A 
ATOM     54  F   UNL A   1      36.576  30.980  33.058  1.00  0.00    -0.203 F 
ATOM     55  C   UNL A   1      35.259  32.385  31.711  1.00  0.00     0.198 A 
ATOM     56  C   UNL A   1      35.835  32.748  29.422  1.00  0.00     0.198 A 
ATOM     57  F   UNL A   1      37.737  31.758  28.504  1.00  0.00    -0.203 F 
ATOM     58  F   UNL A   1      34.489  32.668  32.772  1.00  0.00    -0.200 F 
ATOM     59  C   UNL A   1      35.013  33.011  30.501  1.00  0.00     0.200 A 
ATOM     60  F   UNL A   1      35.632  33.379  28.256  1.00  0.00    -0.200 F 
ATOM     61  F   UNL A   1      34.015  33.899  30.386  1.00  0.00    -0.200 F 
ENDBRANCH  27  51
BRANCH  39  62
ATOM     62  C   UNL A   1      42.456  29.650  33.867  1.00  0.00     0.064 A 
ATOM     63  C   UNL A   1      41.929  28.351  33.759  1.00  0.00     0.173 A 
ATOM     64  C   UNL A   1      42.848  30.081  35.141  1.00  0.00     0.173 A 
ATOM     65  F   UNL A   1      41.628  27.824  32.566  1.00  0.00    -0.203 F 
ATOM     66  C   UNL A   1      41.759  27.544  34.883  1.00  0.00     0.198 A 
ATOM     67  C   UNL A   1      42.714  29.259  36.255  1.00  0.00     0.198 A 
ATOM     68  F   UNL A   1      43.412  31.290  35.297  1.00  0.00    -0.203 F 
ATOM     69  F   UNL A   1      41.243  26.313  34.753  1.00  0.00    -0.200 F 
ATOM     70  C   UNL A   1      42.159  27.996  36.129  1.00  0.00     0.200 A 
ATOM     71  F   UNL A   1      43.151  29.680  37.450  1.00  0.00    -0.200 F 
ATOM     72  F   UNL A   1      42.036  27.204  37.203  1.00  0.00    -0.200 F 
ENDBRANCH  39  62
ENDBRANCH  13  14
ENDBRANCH   6   8
ENDBRANCH   3   4
ENDBRANCH   2   3
ENDBRANCH   1   2
BRANCH   1  73
ATOM     73  C   UNL A   1      35.645  23.098  24.512  1.00  0.00     0.002 C 
BRANCH  73  74
ATOM     74  C   UNL A   1      35.267  24.036  25.671  1.00  0.00     0.021 C 
BRANCH  74  75
ATOM     75  C   UNL A   1      34.429  25.222  25.206  1.00  0.00     0.116 C 
BRANCH  75  76
ATOM     76  N   UNL A   1      34.460  25.269  23.761  1.00  0.00    -0.354 N 
ATOM     77  C   UNL A   1      33.528  25.700  22.876  1.00  0.00     0.243 C 
ATOM     78  H   UNL A   1      35.291  24.933  23.355  1.00  0.00     0.163 HD
ATOM     79  O   UNL A   1      33.653  25.321  21.707  1.00  0.00    -0.273 OA
BRANCH  77  80
ATOM     80  C   UNL A   1      32.347  26.594  23.287  1.00  0.00     0.181 C 
ATOM     81  C   UNL A   1      32.442  27.908  22.420  1.00  0.00     0.091 C 
ATOM     82  N   UNL A   1      30.944  26.018  23.399  1.00  0.00    -0.320 N 
ATOM     83  C   UNL A   1      31.165  28.647  22.448  1.00  0.00     0.042 A 
ATOM     84  C   UNL A   1      29.913  26.981  23.863  1.00  0.00     0.178 C 
ATOM     85  N   UNL A   1      30.831  29.802  21.801  1.00  0.00    -0.348 N 
ATOM     86  C   UNL A   1      30.023  28.239  23.089  1.00  0.00     0.081 A 
ATOM     87  C   UNL A   1      29.523  30.066  22.114  1.00  0.00     0.197 A 
ATOM     88  H   UNL A   1      31.417  30.340  21.221  1.00  0.00     0.167 HD
ATOM     89  N   UNL A   1      29.011  29.139  22.895  1.00  0.00    -0.240 NA
BRANCH  82  90
ATOM     90  C   UNL A   1      30.556  24.682  23.601  1.00  0.00     0.256 C 
ATOM     91  O   UNL A   1      29.799  24.076  22.843  1.00  0.00    -0.269 OA
BRANCH  90  92
ATOM     92  C   UNL A   1      31.137  23.849  24.655  1.00  0.00     0.061 A 
ATOM     93  C   UNL A   1      30.959  24.285  25.974  1.00  0.00     0.035 A 
ATOM     94  C   UNL A   1      31.911  22.727  24.390  1.00  0.00     0.072 A 
ATOM     95  C   UNL A   1      31.446  23.491  26.995  1.00  0.00     0.112 A 
ATOM     96  C   UNL A   1      32.334  21.987  25.484  1.00  0.00     0.132 A 
ATOM     97  Cl  UNL A   1      32.351  22.242  22.801  1.00  0.00    -0.082 Cl
ATOM     98  N   UNL A   1      32.094  22.327  26.779  1.00  0.00    -0.263 NA
ENDBRANCH  90  92
ENDBRANCH  82  90
ENDBRANCH  77  80
ENDBRANCH  75  76
ENDBRANCH  74  75
ENDBRANCH  73  74
ENDBRANCH   1  73
TORSDOF 15
ENDMDL
