MODEL 1
REMARK VINA RESULT:     -12.1      0.000      0.000
REMARK SMILES O=Cc1cccc(-c2cc(F)ccc2C(=O)NCCCCCCNC(=O)c2ccc(-c3c4nc(c(-c5c(F)c(F)c(F)c(F)c5F)c5ccc([nH]5)c(-c5c(F)c(F)c(F)c(F)c5F)c5nc(c(-c6c(F)c(F)c(F)c(F)c6F)c6ccc3[nH]6)C=C5)C=C4)cc2)c1
REMARK SMILES IDX 20 1 19 2 18 3 17 4 15 5 16 6 14 8 8 9 9 10 10 11 13 12
REMARK SMILES IDX 11 13 12 14 7 15 3 16 4 17 90 18 5 19 6 20 2 21 1 22 21 23
REMARK SMILES IDX 22 24 23 25 24 26 25 27 26 29 27 30 28 31 89 32 29 33 88 34
REMARK SMILES IDX 30 35 31 36 32 37 82 38 33 39 87 40 81 41 83 42 34 43 86 44
REMARK SMILES IDX 80 45 79 46 35 48 67 49 47 50 66 51 48 52 51 53 65 54 84 55
REMARK SMILES IDX 49 56 50 57 64 59 85 60 52 61 36 62 37 63 45 64 38 65 39 66
REMARK SMILES IDX 43 67 46 68 40 69 41 70 44 71 42 72 68 73 69 74 77 75 70 76
REMARK SMILES IDX 71 77 75 78 78 79 72 80 73 81 76 82 74 83 53 84 54 85 62 86
REMARK SMILES IDX 55 87 56 88 60 89 63 90 57 91 58 92 61 93 59 94
REMARK H PARENT 17 7 24 28 83 47 51 58
REMARK Flexibility Score: inf
ROOT
ATOM      1  C   UNL A   1      32.240  29.874  25.826  1.00  0.00     0.002 C 
ENDROOT
BRANCH   1   2
ATOM      2  C   UNL A   1      32.304  28.932  27.036  1.00  0.00     0.021 C 
BRANCH   2   3
ATOM      3  C   UNL A   1      32.323  27.430  26.767  1.00  0.00     0.116 C 
BRANCH   3   4
ATOM      4  N   UNL A   1      31.052  26.758  26.865  1.00  0.00    -0.352 N 
ATOM      5  C   UNL A   1      30.504  25.736  26.126  1.00  0.00     0.251 C 
ATOM      6  O   UNL A   1      29.409  25.307  26.501  1.00  0.00    -0.269 OA
ATOM      7  H   UNL A   1      30.474  27.088  27.590  1.00  0.00     0.163 HD
BRANCH   5   8
ATOM      8  C   UNL A   1      31.076  25.161  24.864  1.00  0.00     0.047 A 
ATOM      9  C   UNL A   1      31.159  25.768  23.586  1.00  0.00    -0.003 A 
ATOM     10  C   UNL A   1      31.830  25.064  22.555  1.00  0.00     0.048 A 
ATOM     11  C   UNL A   1      32.418  23.825  22.777  1.00  0.00     0.123 A 
ATOM     12  C   UNL A   1      31.696  23.900  25.057  1.00  0.00     0.017 A 
ATOM     13  F   UNL A   1      33.056  23.207  21.775  1.00  0.00    -0.207 F 
ATOM     14  C   UNL A   1      32.360  23.236  24.024  1.00  0.00     0.040 A 
BRANCH   9  15
ATOM     15  C   UNL A   1      30.630  27.093  23.233  1.00  0.00    -0.017 A 
ATOM     16  C   UNL A   1      28.795  28.656  22.951  1.00  0.00     0.015 A 
ATOM     17  C   UNL A   1      29.667  29.619  22.431  1.00  0.00     0.011 A 
ATOM     18  C   UNL A   1      29.272  27.407  23.370  1.00  0.00     0.020 A 
ATOM     19  C   UNL A   1      31.026  29.332  22.326  1.00  0.00     0.001 A 
ATOM     20  C   UNL A   1      31.501  28.084  22.729  1.00  0.00     0.009 A 
BRANCH  16  21
ATOM     21  C   UNL A   1      27.350  28.946  22.989  1.00  0.00     0.260 C 
ATOM     22  O   UNL A   1      26.903  29.963  23.501  1.00  0.00    -0.298 OA
ENDBRANCH  16  21
ENDBRANCH   9  15
ENDBRANCH   5   8
ENDBRANCH   3   4
ENDBRANCH   2   3
ENDBRANCH   1   2
BRANCH   1  23
ATOM     23  C   UNL A   1      31.029  30.801  25.662  1.00  0.00     0.002 C 
BRANCH  23  24
ATOM     24  C   UNL A   1      31.045  32.157  26.372  1.00  0.00     0.021 C 
BRANCH  24  25
ATOM     25  C   UNL A   1      32.384  32.685  26.876  1.00  0.00     0.116 C 
BRANCH  25  26
ATOM     26  N   UNL A   1      32.311  34.023  27.433  1.00  0.00    -0.352 N 
ATOM     27  C   UNL A   1      33.074  34.647  28.390  1.00  0.00     0.251 C 
ATOM     28  H   UNL A   1      31.589  34.580  27.060  1.00  0.00     0.163 HD
ATOM     29  O   UNL A   1      32.758  35.776  28.756  1.00  0.00    -0.269 OA
BRANCH  27  30
ATOM     30  C   UNL A   1      34.257  33.998  29.017  1.00  0.00     0.039 A 
ATOM     31  C   UNL A   1      34.029  32.934  29.903  1.00  0.00     0.014 A 
ATOM     32  C   UNL A   1      35.564  34.456  28.832  1.00  0.00     0.014 A 
ATOM     33  C   UNL A   1      35.097  32.314  30.562  1.00  0.00     0.010 A 
ATOM     34  C   UNL A   1      36.638  33.796  29.444  1.00  0.00     0.010 A 
ATOM     35  C   UNL A   1      36.416  32.725  30.325  1.00  0.00    -0.014 A 
BRANCH  35  36
ATOM     36  C   UNL A   1      37.560  32.069  31.018  1.00  0.00     0.031 A 
ATOM     37  C   UNL A   1      38.374  31.012  30.319  1.00  0.00     0.074 A 
ATOM     38  C   UNL A   1      37.856  32.394  32.292  1.00  0.00     0.049 A 
ATOM     39  N   UNL A   1      39.372  30.295  30.774  1.00  0.00    -0.248 NA
ATOM     40  C   UNL A   1      38.004  30.708  28.929  1.00  0.00     0.031 C 
ATOM     41  C   UNL A   1      37.138  33.377  33.103  1.00  0.00     0.029 A 
ATOM     42  N   UNL A   1      38.837  31.924  33.133  1.00  0.00    -0.354 N 
ATOM     43  C   UNL A   1      39.734  29.445  29.737  1.00  0.00     0.074 A 
ATOM     44  C   UNL A   1      38.824  29.707  28.641  1.00  0.00     0.031 C 
ATOM     45  C   UNL A   1      37.710  33.449  34.316  1.00  0.00     0.029 A 
ATOM     46  C   UNL A   1      38.818  32.499  34.380  1.00  0.00     0.049 A 
ATOM     47  H   UNL A   1      39.492  31.239  32.865  1.00  0.00     0.167 HD
ATOM     48  C   UNL A   1      40.744  28.542  29.691  1.00  0.00     0.037 A 
ATOM     49  C   UNL A   1      39.600  32.285  35.456  1.00  0.00     0.037 A 
ATOM     50  C   UNL A   1      41.678  28.302  30.760  1.00  0.00     0.049 A 
ATOM     51  C   UNL A   1      40.720  31.282  35.376  1.00  0.00     0.074 A 
ATOM     52  C   UNL A   1      42.771  27.452  30.777  1.00  0.00     0.029 A 
ATOM     53  N   UNL A   1      41.633  28.918  32.001  1.00  0.00    -0.354 N 
ATOM     54  N   UNL A   1      41.082  30.525  34.372  1.00  0.00    -0.248 NA
ATOM     55  C   UNL A   1      41.544  31.112  36.583  1.00  0.00     0.031 C 
ATOM     56  C   UNL A   1      43.367  27.527  32.041  1.00  0.00     0.029 A 
ATOM     57  C   UNL A   1      42.667  28.451  32.798  1.00  0.00     0.049 A 
ATOM     58  H   UNL A   1      40.965  29.586  32.276  1.00  0.00     0.167 HD
ATOM     59  C   UNL A   1      42.186  29.808  34.812  1.00  0.00     0.074 A 
ATOM     60  C   UNL A   1      42.445  30.230  36.173  1.00  0.00     0.031 C 
ATOM     61  C   UNL A   1      42.919  28.882  34.149  1.00  0.00     0.037 A 
BRANCH  48  62
ATOM     62  C   UNL A   1      40.898  27.739  28.433  1.00  0.00     0.064 A 
ATOM     63  C   UNL A   1      41.730  28.165  27.386  1.00  0.00     0.173 A 
ATOM     64  C   UNL A   1      40.240  26.508  28.288  1.00  0.00     0.173 A 
ATOM     65  F   UNL A   1      42.373  29.340  27.472  1.00  0.00    -0.203 F 
ATOM     66  C   UNL A   1      41.874  27.403  26.230  1.00  0.00     0.198 A 
ATOM     67  C   UNL A   1      40.408  25.736  27.143  1.00  0.00     0.198 A 
ATOM     68  F   UNL A   1      39.438  26.052  29.263  1.00  0.00    -0.203 F 
ATOM     69  F   UNL A   1      42.640  27.850  25.226  1.00  0.00    -0.200 F 
ATOM     70  C   UNL A   1      41.219  26.186  26.112  1.00  0.00     0.200 A 
ATOM     71  F   UNL A   1      39.782  24.555  27.034  1.00  0.00    -0.200 F 
ATOM     72  F   UNL A   1      41.363  25.451  25.001  1.00  0.00    -0.200 F 
ENDBRANCH  48  62
BRANCH  49  73
ATOM     73  C   UNL A   1      39.367  33.055  36.704  1.00  0.00     0.064 A 
ATOM     74  C   UNL A   1      40.052  34.253  36.948  1.00  0.00     0.173 A 
ATOM     75  C   UNL A   1      38.462  32.608  37.677  1.00  0.00     0.173 A 
ATOM     76  F   UNL A   1      40.946  34.705  36.056  1.00  0.00    -0.203 F 
ATOM     77  C   UNL A   1      39.854  34.968  38.126  1.00  0.00     0.198 A 
ATOM     78  C   UNL A   1      38.247  33.337  38.845  1.00  0.00     0.198 A 
ATOM     79  F   UNL A   1      37.780  31.469  37.490  1.00  0.00    -0.203 F 
ATOM     80  F   UNL A   1      40.552  36.089  38.353  1.00  0.00    -0.200 F 
ATOM     81  C   UNL A   1      38.947  34.512  39.073  1.00  0.00     0.200 A 
ATOM     82  F   UNL A   1      37.361  32.899  39.752  1.00  0.00    -0.200 F 
ATOM     83  F   UNL A   1      38.754  35.202  40.205  1.00  0.00    -0.200 F 
ENDBRANCH  49  73
BRANCH  61  84
ATOM     84  C   UNL A   1      44.086  28.277  34.873  1.00  0.00     0.064 A 
ATOM     85  C   UNL A   1      43.958  27.086  35.603  1.00  0.00     0.173 A 
ATOM     86  C   UNL A   1      45.353  28.877  34.807  1.00  0.00     0.173 A 
ATOM     87  F   UNL A   1      42.764  26.485  35.707  1.00  0.00    -0.203 F 
ATOM     88  C   UNL A   1      45.054  26.528  36.257  1.00  0.00     0.198 A 
ATOM     89  C   UNL A   1      46.450  28.304  35.443  1.00  0.00     0.198 A 
ATOM     90  F   UNL A   1      45.527  30.014  34.118  1.00  0.00    -0.203 F 
ATOM     91  F   UNL A   1      44.901  25.412  36.983  1.00  0.00    -0.200 F 
ATOM     92  C   UNL A   1      46.299  27.133  36.172  1.00  0.00     0.200 A 
ATOM     93  F   UNL A   1      47.655  28.884  35.352  1.00  0.00    -0.200 F 
ATOM     94  F   UNL A   1      47.352  26.593  36.800  1.00  0.00    -0.200 F 
ENDBRANCH  61  84
ENDBRANCH  35  36
ENDBRANCH  27  30
ENDBRANCH  25  26
ENDBRANCH  24  25
ENDBRANCH  23  24
ENDBRANCH   1  23
TORSDOF 15
ENDMDL
MODEL 2
REMARK VINA RESULT:     -12.0      0.430      7.450
REMARK SMILES O=Cc1cccc(-c2cc(F)ccc2C(=O)NCCCCCCNC(=O)c2ccc(-c3c4nc(c(-c5c(F)c(F)c(F)c(F)c5F)c5ccc([nH]5)c(-c5c(F)c(F)c(F)c(F)c5F)c5nc(c(-c6c(F)c(F)c(F)c(F)c6F)c6ccc3[nH]6)C=C5)C=C4)cc2)c1
REMARK SMILES IDX 20 1 19 2 18 3 17 4 15 5 16 6 14 8 8 9 9 10 10 11 13 12
REMARK SMILES IDX 11 13 12 14 7 15 3 16 4 17 90 18 5 19 6 20 2 21 1 22 21 23
REMARK SMILES IDX 22 24 23 25 24 26 25 27 26 29 27 30 28 31 89 32 29 33 88 34
REMARK SMILES IDX 30 35 31 36 32 37 82 38 33 39 87 40 81 41 83 42 34 43 86 44
REMARK SMILES IDX 80 45 79 46 35 48 67 49 47 50 66 51 48 52 51 53 65 54 84 55
REMARK SMILES IDX 49 56 50 57 64 59 85 60 52 61 36 62 37 63 45 64 38 65 39 66
REMARK SMILES IDX 43 67 46 68 40 69 41 70 44 71 42 72 68 73 69 74 77 75 70 76
REMARK SMILES IDX 71 77 75 78 78 79 72 80 73 81 76 82 74 83 53 84 54 85 62 86
REMARK SMILES IDX 55 87 56 88 60 89 63 90 57 91 58 92 61 93 59 94
REMARK H PARENT 17 7 24 28 83 47 51 58
REMARK Flexibility Score: inf
ROOT
ATOM      1  C   UNL A   1      32.262  29.943  26.051  1.00  0.00     0.002 C 
ENDROOT
BRANCH   1   2
ATOM      2  C   UNL A   1      32.104  28.907  27.173  1.00  0.00     0.021 C 
BRANCH   2   3
ATOM      3  C   UNL A   1      32.127  27.431  26.786  1.00  0.00     0.116 C 
BRANCH   3   4
ATOM      4  N   UNL A   1      30.874  26.729  26.913  1.00  0.00    -0.352 N 
ATOM      5  C   UNL A   1      30.353  25.666  26.214  1.00  0.00     0.251 C 
ATOM      6  O   UNL A   1      29.270  25.222  26.609  1.00  0.00    -0.269 OA
ATOM      7  H   UNL A   1      30.289  27.072  27.626  1.00  0.00     0.163 HD
BRANCH   5   8
ATOM      8  C   UNL A   1      30.938  25.059  24.974  1.00  0.00     0.047 A 
ATOM      9  C   UNL A   1      31.103  25.658  23.701  1.00  0.00    -0.003 A 
ATOM     10  C   UNL A   1      31.772  24.917  22.695  1.00  0.00     0.048 A 
ATOM     11  C   UNL A   1      32.279  23.646  22.938  1.00  0.00     0.123 A 
ATOM     12  C   UNL A   1      31.477  23.764  25.189  1.00  0.00     0.017 A 
ATOM     13  F   UNL A   1      32.918  22.992  21.960  1.00  0.00    -0.207 F 
ATOM     14  C   UNL A   1      32.141  23.062  24.181  1.00  0.00     0.040 A 
BRANCH   9  15
ATOM     15  C   UNL A   1      30.665  27.012  23.331  1.00  0.00    -0.017 A 
ATOM     16  C   UNL A   1      28.931  28.665  22.942  1.00  0.00     0.015 A 
ATOM     17  C   UNL A   1      29.883  29.590  22.498  1.00  0.00     0.011 A 
ATOM     18  C   UNL A   1      29.317  27.390  23.376  1.00  0.00     0.020 A 
ATOM     19  C   UNL A   1      31.230  29.238  22.484  1.00  0.00     0.001 A 
ATOM     20  C   UNL A   1      31.616  27.965  22.902  1.00  0.00     0.009 A 
BRANCH  16  21
ATOM     21  C   UNL A   1      27.502  29.025  22.882  1.00  0.00     0.260 C 
ATOM     22  O   UNL A   1      27.031  29.933  23.552  1.00  0.00    -0.298 OA
ENDBRANCH  16  21
ENDBRANCH   9  15
ENDBRANCH   5   8
ENDBRANCH   3   4
ENDBRANCH   2   3
ENDBRANCH   1   2
BRANCH   1  23
ATOM     23  C   UNL A   1      31.139  30.957  25.805  1.00  0.00     0.002 C 
BRANCH  23  24
ATOM     24  C   UNL A   1      31.217  32.319  26.500  1.00  0.00     0.021 C 
BRANCH  24  25
ATOM     25  C   UNL A   1      32.561  32.750  27.078  1.00  0.00     0.116 C 
BRANCH  25  26
ATOM     26  N   UNL A   1      32.558  34.098  27.615  1.00  0.00    -0.352 N 
ATOM     27  C   UNL A   1      33.330  34.684  28.590  1.00  0.00     0.251 C 
ATOM     28  H   UNL A   1      31.889  34.696  27.211  1.00  0.00     0.163 HD
ATOM     29  O   UNL A   1      33.077  35.837  28.931  1.00  0.00    -0.269 OA
BRANCH  27  30
ATOM     30  C   UNL A   1      34.444  33.967  29.266  1.00  0.00     0.039 A 
ATOM     31  C   UNL A   1      35.756  34.276  28.876  1.00  0.00     0.014 A 
ATOM     32  C   UNL A   1      34.238  32.946  30.198  1.00  0.00     0.014 A 
ATOM     33  C   UNL A   1      36.845  33.603  29.441  1.00  0.00     0.010 A 
ATOM     34  C   UNL A   1      35.330  32.314  30.808  1.00  0.00     0.010 A 
ATOM     35  C   UNL A   1      36.646  32.627  30.428  1.00  0.00    -0.014 A 
BRANCH  35  36
ATOM     36  C   UNL A   1      37.798  31.907  31.037  1.00  0.00     0.031 A 
ATOM     37  C   UNL A   1      38.245  32.226  32.439  1.00  0.00     0.074 A 
ATOM     38  C   UNL A   1      38.473  30.982  30.324  1.00  0.00     0.049 A 
ATOM     39  N   UNL A   1      39.255  31.743  33.120  1.00  0.00    -0.248 NA
ATOM     40  C   UNL A   1      37.464  33.239  33.165  1.00  0.00     0.031 C 
ATOM     41  C   UNL A   1      38.171  30.591  28.948  1.00  0.00     0.029 A 
ATOM     42  N   UNL A   1      39.559  30.209  30.659  1.00  0.00    -0.354 N 
ATOM     43  C   UNL A   1      39.241  32.403  34.342  1.00  0.00     0.074 A 
ATOM     44  C   UNL A   1      38.147  33.351  34.296  1.00  0.00     0.031 C 
ATOM     45  C   UNL A   1      39.039  29.642  28.560  1.00  0.00     0.029 A 
ATOM     46  C   UNL A   1      39.976  29.376  29.649  1.00  0.00     0.049 A 
ATOM     47  H   UNL A   1      39.997  30.249  31.540  1.00  0.00     0.167 HD
ATOM     48  C   UNL A   1      40.052  32.226  35.414  1.00  0.00     0.037 A 
ATOM     49  C   UNL A   1      40.998  28.500  29.603  1.00  0.00     0.037 A 
ATOM     50  C   UNL A   1      41.117  31.259  35.485  1.00  0.00     0.049 A 
ATOM     51  C   UNL A   1      41.879  28.315  30.809  1.00  0.00     0.074 A 
ATOM     52  C   UNL A   1      41.948  30.966  36.554  1.00  0.00     0.029 A 
ATOM     53  N   UNL A   1      41.496  30.424  34.445  1.00  0.00    -0.354 N 
ATOM     54  N   UNL A   1      41.820  28.910  31.974  1.00  0.00    -0.248 NA
ATOM     55  C   UNL A   1      42.964  27.330  30.693  1.00  0.00     0.031 C 
ATOM     56  C   UNL A   1      42.852  29.978  36.150  1.00  0.00     0.029 A 
ATOM     57  C   UNL A   1      42.560  29.629  34.842  1.00  0.00     0.049 A 
ATOM     58  H   UNL A   1      41.072  30.400  33.558  1.00  0.00     0.167 HD
ATOM     59  C   UNL A   1      42.840  28.357  32.737  1.00  0.00     0.074 A 
ATOM     60  C   UNL A   1      43.497  27.368  31.907  1.00  0.00     0.031 C 
ATOM     61  C   UNL A   1      43.202  28.645  34.010  1.00  0.00     0.037 A 
BRANCH  48  62
ATOM     62  C   UNL A   1      39.817  33.099  36.612  1.00  0.00     0.064 A 
ATOM     63  C   UNL A   1      38.887  32.752  37.603  1.00  0.00     0.173 A 
ATOM     64  C   UNL A   1      40.562  34.274  36.793  1.00  0.00     0.173 A 
ATOM     65  F   UNL A   1      38.143  31.642  37.470  1.00  0.00    -0.203 F 
ATOM     66  C   UNL A   1      38.689  33.564  38.716  1.00  0.00     0.198 A 
ATOM     67  C   UNL A   1      40.382  35.069  37.921  1.00  0.00     0.198 A 
ATOM     68  F   UNL A   1      41.470  34.647  35.879  1.00  0.00    -0.203 F 
ATOM     69  F   UNL A   1      37.764  33.235  39.628  1.00  0.00    -0.200 F 
ATOM     70  C   UNL A   1      39.441  34.718  38.877  1.00  0.00     0.200 A 
ATOM     71  F   UNL A   1      41.116  36.179  38.081  1.00  0.00    -0.200 F 
ATOM     72  F   UNL A   1      39.254  35.496  39.953  1.00  0.00    -0.200 F 
ENDBRANCH  48  62
BRANCH  49  73
ATOM     73  C   UNL A   1      41.235  27.706  28.369  1.00  0.00     0.064 A 
ATOM     74  C   UNL A   1      40.581  26.483  28.166  1.00  0.00     0.173 A 
ATOM     75  C   UNL A   1      42.120  28.149  27.377  1.00  0.00     0.173 A 
ATOM     76  F   UNL A   1      39.745  26.009  29.101  1.00  0.00    -0.203 F 
ATOM     77  C   UNL A   1      40.816  25.724  27.022  1.00  0.00     0.198 A 
ATOM     78  C   UNL A   1      42.336  27.400  26.222  1.00  0.00     0.198 A 
ATOM     79  F   UNL A   1      42.768  29.314  27.524  1.00  0.00    -0.203 F 
ATOM     80  F   UNL A   1      40.209  24.539  26.872  1.00  0.00    -0.200 F 
ATOM     81  C   UNL A   1      41.689  26.186  26.048  1.00  0.00     0.200 A 
ATOM     82  F   UNL A   1      43.171  27.854  25.277  1.00  0.00    -0.200 F 
ATOM     83  F   UNL A   1      41.912  25.457  24.946  1.00  0.00    -0.200 F 
ENDBRANCH  49  73
BRANCH  61  84
ATOM     84  C   UNL A   1      44.343  27.865  34.596  1.00  0.00     0.064 A 
ATOM     85  C   UNL A   1      45.665  28.326  34.511  1.00  0.00     0.173 A 
ATOM     86  C   UNL A   1      44.107  26.664  35.280  1.00  0.00     0.173 A 
ATOM     87  F   UNL A   1      45.942  29.461  33.853  1.00  0.00    -0.203 F 
ATOM     88  C   UNL A   1      46.712  27.600  35.072  1.00  0.00     0.198 A 
ATOM     89  C   UNL A   1      45.153  25.953  35.861  1.00  0.00     0.198 A 
ATOM     90  F   UNL A   1      42.859  26.184  35.393  1.00  0.00    -0.203 F 
ATOM     91  F   UNL A   1      47.972  28.037  34.944  1.00  0.00    -0.200 F 
ATOM     92  C   UNL A   1      46.455  26.418  35.752  1.00  0.00     0.200 A 
ATOM     93  F   UNL A   1      44.902  24.816  36.526  1.00  0.00    -0.200 F 
ATOM     94  F   UNL A   1      47.464  25.722  36.295  1.00  0.00    -0.200 F 
ENDBRANCH  61  84
ENDBRANCH  35  36
ENDBRANCH  27  30
ENDBRANCH  25  26
ENDBRANCH  24  25
ENDBRANCH  23  24
ENDBRANCH   1  23
TORSDOF 15
ENDMDL
MODEL 3
REMARK VINA RESULT:     -11.9      1.940      8.037
REMARK SMILES O=Cc1cccc(-c2cc(F)ccc2C(=O)NCCCCCCNC(=O)c2ccc(-c3c4nc(c(-c5c(F)c(F)c(F)c(F)c5F)c5ccc([nH]5)c(-c5c(F)c(F)c(F)c(F)c5F)c5nc(c(-c6c(F)c(F)c(F)c(F)c6F)c6ccc3[nH]6)C=C5)C=C4)cc2)c1
REMARK SMILES IDX 20 1 19 2 18 3 17 4 15 5 16 6 14 8 8 9 9 10 10 11 13 12
REMARK SMILES IDX 11 13 12 14 7 15 3 16 4 17 90 18 5 19 6 20 2 21 1 22 21 23
REMARK SMILES IDX 22 24 23 25 24 26 25 27 26 29 27 30 28 31 89 32 29 33 88 34
REMARK SMILES IDX 30 35 31 36 32 37 82 38 33 39 87 40 81 41 83 42 34 43 86 44
REMARK SMILES IDX 80 45 79 46 35 48 67 49 47 50 66 51 48 52 51 53 65 54 84 55
REMARK SMILES IDX 49 56 50 57 64 59 85 60 52 61 36 62 37 63 45 64 38 65 39 66
REMARK SMILES IDX 43 67 46 68 40 69 41 70 44 71 42 72 68 73 69 74 77 75 70 76
REMARK SMILES IDX 71 77 75 78 78 79 72 80 73 81 76 82 74 83 53 84 54 85 62 86
REMARK SMILES IDX 55 87 56 88 60 89 63 90 57 91 58 92 61 93 59 94
REMARK H PARENT 17 7 24 28 83 47 51 58
REMARK Flexibility Score: inf
ROOT
ATOM      1  C   UNL A   1      34.705  32.374  28.683  1.00  0.00     0.002 C 
ENDROOT
BRANCH   1   2
ATOM      2  C   UNL A   1      33.759  31.771  27.636  1.00  0.00     0.021 C 
BRANCH   2   3
ATOM      3  C   UNL A   1      33.956  30.305  27.262  1.00  0.00     0.116 C 
BRANCH   3   4
ATOM      4  N   UNL A   1      33.016  29.377  27.840  1.00  0.00    -0.352 N 
ATOM      5  C   UNL A   1      32.155  28.475  27.262  1.00  0.00     0.251 C 
ATOM      6  O   UNL A   1      31.518  27.747  28.030  1.00  0.00    -0.269 OA
ATOM      7  H   UNL A   1      32.986  29.392  28.824  1.00  0.00     0.163 HD
BRANCH   5   8
ATOM      8  C   UNL A   1      31.862  28.356  25.796  1.00  0.00     0.047 A 
ATOM      9  C   UNL A   1      32.131  27.264  24.936  1.00  0.00    -0.003 A 
ATOM     10  C   UNL A   1      31.676  27.340  23.595  1.00  0.00     0.048 A 
ATOM     11  C   UNL A   1      30.965  28.437  23.126  1.00  0.00     0.123 A 
ATOM     12  C   UNL A   1      31.124  29.455  25.285  1.00  0.00     0.017 A 
ATOM     13  F   UNL A   1      30.541  28.456  21.856  1.00  0.00    -0.207 F 
ATOM     14  C   UNL A   1      30.679  29.498  23.962  1.00  0.00     0.040 A 
BRANCH   9  15
ATOM     15  C   UNL A   1      32.823  26.025  25.319  1.00  0.00    -0.017 A 
ATOM     16  C   UNL A   1      32.884  23.865  26.424  1.00  0.00     0.015 A 
ATOM     17  C   UNL A   1      34.242  23.724  26.121  1.00  0.00     0.011 A 
ATOM     18  C   UNL A   1      32.169  24.996  26.011  1.00  0.00     0.020 A 
ATOM     19  C   UNL A   1      34.894  24.722  25.400  1.00  0.00     0.001 A 
ATOM     20  C   UNL A   1      34.189  25.856  24.999  1.00  0.00     0.009 A 
BRANCH  16  21
ATOM     21  C   UNL A   1      32.225  22.836  27.250  1.00  0.00     0.260 C 
ATOM     22  O   UNL A   1      32.684  22.470  28.324  1.00  0.00    -0.298 OA
ENDBRANCH  16  21
ENDBRANCH   9  15
ENDBRANCH   5   8
ENDBRANCH   3   4
ENDBRANCH   2   3
ENDBRANCH   1   2
BRANCH   1  23
ATOM     23  C   UNL A   1      34.632  33.877  28.979  1.00  0.00     0.002 C 
BRANCH  23  24
ATOM     24  C   UNL A   1      33.260  34.556  28.989  1.00  0.00     0.021 C 
BRANCH  24  25
ATOM     25  C   UNL A   1      33.191  36.022  29.401  1.00  0.00     0.116 C 
BRANCH  25  26
ATOM     26  N   UNL A   1      32.415  36.254  30.605  1.00  0.00    -0.352 N 
ATOM     27  C   UNL A   1      32.607  35.833  31.899  1.00  0.00     0.251 C 
ATOM     28  H   UNL A   1      31.613  36.809  30.471  1.00  0.00     0.163 HD
ATOM     29  O   UNL A   1      31.751  36.097  32.740  1.00  0.00    -0.269 OA
BRANCH  27  30
ATOM     30  C   UNL A   1      33.800  35.049  32.316  1.00  0.00     0.039 A 
ATOM     31  C   UNL A   1      35.061  35.647  32.176  1.00  0.00     0.014 A 
ATOM     32  C   UNL A   1      33.724  33.723  32.752  1.00  0.00     0.014 A 
ATOM     33  C   UNL A   1      36.224  34.942  32.507  1.00  0.00     0.010 A 
ATOM     34  C   UNL A   1      34.884  33.039  33.140  1.00  0.00     0.010 A 
ATOM     35  C   UNL A   1      36.148  33.636  33.012  1.00  0.00    -0.014 A 
BRANCH  35  36
ATOM     36  C   UNL A   1      37.380  32.880  33.369  1.00  0.00     0.031 A 
ATOM     37  C   UNL A   1      38.104  33.163  34.659  1.00  0.00     0.074 A 
ATOM     38  C   UNL A   1      37.877  31.955  32.523  1.00  0.00     0.049 A 
ATOM     39  N   UNL A   1      39.216  32.644  35.119  1.00  0.00    -0.248 NA
ATOM     40  C   UNL A   1      37.508  34.178  35.540  1.00  0.00     0.031 C 
ATOM     41  C   UNL A   1      37.298  31.597  31.229  1.00  0.00     0.029 A 
ATOM     42  N   UNL A   1      38.988  31.152  32.625  1.00  0.00    -0.354 N 
ATOM     43  C   UNL A   1      39.461  33.282  36.329  1.00  0.00     0.074 A 
ATOM     44  C   UNL A   1      38.404  34.254  36.514  1.00  0.00     0.031 C 
ATOM     45  C   UNL A   1      38.048  30.637  30.663  1.00  0.00     0.029 A 
ATOM     46  C   UNL A   1      39.176  30.330  31.540  1.00  0.00     0.049 A 
ATOM     47  H   UNL A   1      39.593  31.166  33.401  1.00  0.00     0.167 HD
ATOM     48  C   UNL A   1      40.464  33.066  37.215  1.00  0.00     0.037 A 
ATOM     49  C   UNL A   1      40.146  29.433  31.279  1.00  0.00     0.037 A 
ATOM     50  C   UNL A   1      41.498  32.075  37.060  1.00  0.00     0.049 A 
ATOM     51  C   UNL A   1      41.243  29.206  32.284  1.00  0.00     0.074 A 
ATOM     52  C   UNL A   1      42.516  31.744  37.938  1.00  0.00     0.029 A 
ATOM     53  N   UNL A   1      41.641  31.253  35.954  1.00  0.00    -0.354 N 
ATOM     54  N   UNL A   1      41.432  29.779  33.445  1.00  0.00    -0.248 NA
ATOM     55  C   UNL A   1      42.259  28.199  31.940  1.00  0.00     0.031 C 
ATOM     56  C   UNL A   1      43.297  30.745  37.348  1.00  0.00     0.029 A 
ATOM     57  C   UNL A   1      42.743  30.427  36.120  1.00  0.00     0.049 A 
ATOM     58  H   UNL A   1      41.050  31.254  35.167  1.00  0.00     0.167 HD
ATOM     59  C   UNL A   1      42.569  29.189  33.982  1.00  0.00     0.074 A 
ATOM     60  C   UNL A   1      43.022  28.203  33.024  1.00  0.00     0.031 C 
ATOM     61  C   UNL A   1      43.182  29.445  35.162  1.00  0.00     0.037 A 
BRANCH  48  62
ATOM     62  C   UNL A   1      40.493  33.921  38.449  1.00  0.00     0.064 A 
ATOM     63  C   UNL A   1      41.247  35.103  38.507  1.00  0.00     0.173 A 
ATOM     64  C   UNL A   1      39.724  33.578  39.570  1.00  0.00     0.173 A 
ATOM     65  F   UNL A   1      42.008  35.469  37.463  1.00  0.00    -0.203 F 
ATOM     66  C   UNL A   1      41.254  35.893  39.652  1.00  0.00     0.198 A 
ATOM     67  C   UNL A   1      39.711  34.385  40.704  1.00  0.00     0.198 A 
ATOM     68  F   UNL A   1      38.979  32.462  39.564  1.00  0.00    -0.203 F 
ATOM     69  F   UNL A   1      42.016  36.994  39.701  1.00  0.00    -0.200 F 
ATOM     70  C   UNL A   1      40.481  35.538  40.747  1.00  0.00     0.200 A 
ATOM     71  F   UNL A   1      38.955  34.046  41.758  1.00  0.00    -0.200 F 
ATOM     72  F   UNL A   1      40.483  36.303  41.848  1.00  0.00    -0.200 F 
ENDBRANCH  48  62
BRANCH  49  73
ATOM     73  C   UNL A   1      40.113  28.657  30.012  1.00  0.00     0.064 A 
ATOM     74  C   UNL A   1      39.481  27.408  29.950  1.00  0.00     0.173 A 
ATOM     75  C   UNL A   1      40.717  29.145  28.844  1.00  0.00     0.173 A 
ATOM     76  F   UNL A   1      38.912  26.892  31.050  1.00  0.00    -0.203 F 
ATOM     77  C   UNL A   1      39.466  26.668  28.771  1.00  0.00     0.198 A 
ATOM     78  C   UNL A   1      40.681  28.413  27.659  1.00  0.00     0.198 A 
ATOM     79  F   UNL A   1      41.333  30.336  28.852  1.00  0.00    -0.203 F 
ATOM     80  F   UNL A   1      38.890  25.458  28.750  1.00  0.00    -0.200 F 
ATOM     81  C   UNL A   1      40.062  27.173  27.624  1.00  0.00     0.200 A 
ATOM     82  F   UNL A   1      41.247  28.910  26.550  1.00  0.00    -0.200 F 
ATOM     83  F   UNL A   1      40.045  26.462  26.489  1.00  0.00    -0.200 F 
ENDBRANCH  49  73
BRANCH  61  84
ATOM     84  C   UNL A   1      44.397  28.630  35.499  1.00  0.00     0.064 A 
ATOM     85  C   UNL A   1      45.686  29.058  35.149  1.00  0.00     0.173 A 
ATOM     86  C   UNL A   1      44.272  27.426  36.209  1.00  0.00     0.173 A 
ATOM     87  F   UNL A   1      45.855  30.194  34.457  1.00  0.00    -0.203 F 
ATOM     88  C   UNL A   1      46.805  28.299  35.481  1.00  0.00     0.198 A 
ATOM     89  C   UNL A   1      45.394  26.682  36.559  1.00  0.00     0.198 A 
ATOM     90  F   UNL A   1      43.061  26.977  36.570  1.00  0.00    -0.203 F 
ATOM     91  F   UNL A   1      48.025  28.706  35.102  1.00  0.00    -0.200 F 
ATOM     92  C   UNL A   1      46.660  27.116  36.191  1.00  0.00     0.200 A 
ATOM     93  F   UNL A   1      45.253  25.545  37.254  1.00  0.00    -0.200 F 
ATOM     94  F   UNL A   1      47.738  26.389  36.513  1.00  0.00    -0.200 F 
ENDBRANCH  61  84
ENDBRANCH  35  36
ENDBRANCH  27  30
ENDBRANCH  25  26
ENDBRANCH  24  25
ENDBRANCH  23  24
ENDBRANCH   1  23
TORSDOF 15
ENDMDL
