MODEL 1
REMARK VINA RESULT:     -14.4      0.000      0.000
REMARK SMILES Cc1ccc(-c2cc(Cl)cc3c2O[C@H](C(F)(F)F)C(C(=O)NCCCCCCNC(=O)c2ccc(-c4c5nc(c(-c6c(F)c(F)c(F)c(F)c6F)c6ccc([nH]6)c(-c6c(F)c(F)c(F)c(F)c6F)c6nc(c(-c7c(F)c(F)c(F)c(F)c7F)c7ccc4[nH]7)C=C6)C=C5)cc2)=C3)cc1F
REMARK SMILES IDX 26 1 25 2 24 3 23 4 22 5 20 6 21 7 19 9 6 10 7 11 12 12 8 13
REMARK SMILES IDX 11 14 13 15 9 16 10 17 95 18 14 19 5 20 1 21 2 22 3 23 97 24
REMARK SMILES IDX 4 25 96 26 98 27 15 28 16 29 17 30 18 31 27 32 28 33 29 34
REMARK SMILES IDX 30 35 31 37 32 38 33 39 94 40 34 41 93 42 35 43 36 44 37 45
REMARK SMILES IDX 87 46 38 47 92 48 86 49 88 50 39 51 91 52 85 53 84 54 40 56
REMARK SMILES IDX 72 57 52 58 71 59 53 60 56 61 70 62 89 63 54 64 55 65 69 67
REMARK SMILES IDX 90 68 57 69 41 70 42 71 50 72 43 73 44 74 48 75 51 76 45 77
REMARK SMILES IDX 46 78 49 79 47 80 73 81 74 82 82 83 75 84 76 85 80 86 83 87
REMARK SMILES IDX 77 88 78 89 81 90 79 91 58 92 59 93 67 94 60 95 61 96 65 97
REMARK SMILES IDX 68 98 62 99 63 100 66 101 64 102
REMARK H PARENT 22 8 29 36 88 55 56 66
REMARK Flexibility Score: inf
ROOT
ATOM      1  C   UNL A   1      31.306  29.045  25.026  1.00  0.00     0.002 C 
ENDROOT
BRANCH   1   2
ATOM      2  C   UNL A   1      30.881  28.239  23.799  1.00  0.00     0.002 C 
BRANCH   2   3
ATOM      3  C   UNL A   1      29.842  27.141  24.065  1.00  0.00     0.021 C 
BRANCH   3   4
ATOM      4  C   UNL A   1      30.276  25.749  23.603  1.00  0.00     0.116 C 
BRANCH   4   5
ATOM      5  N   UNL A   1      31.022  25.799  22.359  1.00  0.00    -0.352 N 
ATOM      6  C   UNL A   1      32.207  25.337  21.900  1.00  0.00     0.251 C 
ATOM      7  O   UNL A   1      32.496  25.671  20.746  1.00  0.00    -0.270 OA
ATOM      8  H   UNL A   1      30.536  26.303  21.664  1.00  0.00     0.163 HD
BRANCH   6   9
ATOM      9  C   UNL A   1      33.143  24.466  22.669  1.00  0.00     0.067 C 
ATOM     10  C   UNL A   1      35.608  21.869  24.903  1.00  0.00     0.026 A 
ATOM     11  C   UNL A   1      35.154  20.568  25.163  1.00  0.00     0.033 A 
ATOM     12  C   UNL A   1      34.799  22.708  24.109  1.00  0.00     0.135 A 
ATOM     13  C   UNL A   1      33.933  20.129  24.645  1.00  0.00     0.042 A 
ATOM     14  C   UNL A   1      33.576  22.272  23.592  1.00  0.00     0.019 A 
ATOM     15  O   UNL A   1      35.298  23.946  23.806  1.00  0.00    -0.475 OA
ATOM     16  Cl  UNL A   1      33.398  18.526  24.971  1.00  0.00    -0.084 Cl
ATOM     17  C   UNL A   1      33.143  20.973  23.863  1.00  0.00     0.032 A 
ATOM     18  C   UNL A   1      32.779  23.174  22.768  1.00  0.00     0.025 C 
ATOM     19  C   UNL A   1      34.363  24.969  23.384  1.00  0.00     0.314 C 
BRANCH  10  20
ATOM     20  C   UNL A   1      36.892  22.344  25.445  1.00  0.00    -0.012 A 
ATOM     21  C   UNL A   1      40.591  23.574  27.322  1.00  0.00     0.047 C 
ATOM     22  C   UNL A   1      39.313  23.177  26.651  1.00  0.00    -0.015 A 
ATOM     23  C   UNL A   1      38.198  24.021  26.645  1.00  0.00     0.007 A 
ATOM     24  C   UNL A   1      39.209  21.930  26.034  1.00  0.00     0.126 A 
ATOM     25  C   UNL A   1      37.001  23.608  26.046  1.00  0.00     0.009 A 
ATOM     26  C   UNL A   1      38.025  21.515  25.432  1.00  0.00     0.048 A 
ATOM     27  F   UNL A   1      40.262  21.098  26.031  1.00  0.00    -0.207 F 
ENDBRANCH  10  20
BRANCH  19  28
ATOM     28  C   UNL A   1      34.035  25.870  24.587  1.00  0.00     0.429 C 
ATOM     29  F   UNL A   1      35.011  25.787  25.526  1.00  0.00    -0.167 F 
ATOM     30  F   UNL A   1      33.945  27.177  24.251  1.00  0.00    -0.167 F 
ATOM     31  F   UNL A   1      32.872  25.529  25.186  1.00  0.00    -0.167 F 
ENDBRANCH  19  28
ENDBRANCH   6   9
ENDBRANCH   4   5
ENDBRANCH   3   4
ENDBRANCH   2   3
ENDBRANCH   1   2
BRANCH   1  32
ATOM     32  C   UNL A   1      31.578  28.227  26.290  1.00  0.00     0.021 C 
BRANCH  32  33
ATOM     33  C   UNL A   1      32.691  28.698  27.209  1.00  0.00     0.116 C 
BRANCH  33  34
ATOM     34  N   UNL A   1      32.717  30.129  27.439  1.00  0.00    -0.352 N 
ATOM     35  C   UNL A   1      33.693  31.055  27.716  1.00  0.00     0.251 C 
ATOM     36  H   UNL A   1      31.822  30.535  27.383  1.00  0.00     0.163 HD
ATOM     37  O   UNL A   1      33.339  32.223  27.831  1.00  0.00    -0.269 OA
BRANCH  35  38
ATOM     38  C   UNL A   1      35.123  30.724  27.974  1.00  0.00     0.039 A 
ATOM     39  C   UNL A   1      35.650  29.442  28.135  1.00  0.00     0.014 A 
ATOM     40  C   UNL A   1      36.002  31.817  28.017  1.00  0.00     0.014 A 
ATOM     41  C   UNL A   1      37.005  29.267  28.482  1.00  0.00     0.010 A 
ATOM     42  C   UNL A   1      37.348  31.644  28.340  1.00  0.00     0.010 A 
ATOM     43  C   UNL A   1      37.851  30.373  28.641  1.00  0.00    -0.014 A 
BRANCH  43  44
ATOM     44  C   UNL A   1      39.241  30.268  29.120  1.00  0.00     0.031 A 
ATOM     45  C   UNL A   1      40.088  29.067  28.874  1.00  0.00     0.074 A 
ATOM     46  C   UNL A   1      39.773  31.220  29.928  1.00  0.00     0.049 A 
ATOM     47  N   UNL A   1      40.944  28.598  29.729  1.00  0.00    -0.248 NA
ATOM     48  C   UNL A   1      40.025  28.288  27.641  1.00  0.00     0.031 C 
ATOM     49  C   UNL A   1      41.171  31.345  30.334  1.00  0.00     0.029 A 
ATOM     50  N   UNL A   1      39.107  32.178  30.711  1.00  0.00    -0.354 N 
ATOM     51  C   UNL A   1      41.720  27.665  29.080  1.00  0.00     0.074 A 
ATOM     52  C   UNL A   1      41.048  27.437  27.816  1.00  0.00     0.031 C 
ATOM     53  C   UNL A   1      41.242  32.080  31.453  1.00  0.00     0.029 A 
ATOM     54  C   UNL A   1      39.890  32.370  31.882  1.00  0.00     0.049 A 
ATOM     55  H   UNL A   1      38.260  32.629  30.492  1.00  0.00     0.167 HD
ATOM     56  C   UNL A   1      42.927  27.284  29.595  1.00  0.00     0.037 A 
ATOM     57  C   UNL A   1      39.399  32.203  33.149  1.00  0.00     0.037 A 
ATOM     58  C   UNL A   1      43.267  27.993  30.820  1.00  0.00     0.049 A 
ATOM     59  C   UNL A   1      40.116  31.195  34.000  1.00  0.00     0.074 A 
ATOM     60  C   UNL A   1      44.032  29.123  31.067  1.00  0.00     0.029 A 
ATOM     61  N   UNL A   1      42.613  27.701  32.001  1.00  0.00    -0.354 N 
ATOM     62  N   UNL A   1      41.100  30.468  33.571  1.00  0.00    -0.248 NA
ATOM     63  C   UNL A   1      39.671  30.815  35.343  1.00  0.00     0.031 C 
ATOM     64  C   UNL A   1      43.859  29.490  32.422  1.00  0.00     0.029 A 
ATOM     65  C   UNL A   1      42.966  28.601  32.989  1.00  0.00     0.049 A 
ATOM     66  H   UNL A   1      41.982  26.955  32.123  1.00  0.00     0.167 HD
ATOM     67  C   UNL A   1      41.377  29.512  34.504  1.00  0.00     0.074 A 
ATOM     68  C   UNL A   1      40.470  29.767  35.602  1.00  0.00     0.031 C 
ATOM     69  C   UNL A   1      42.313  28.553  34.280  1.00  0.00     0.037 A 
BRANCH  56  70
ATOM     70  C   UNL A   1      43.951  26.466  28.839  1.00  0.00     0.064 A 
ATOM     71  C   UNL A   1      44.002  25.059  28.968  1.00  0.00     0.173 A 
ATOM     72  C   UNL A   1      44.915  27.020  27.981  1.00  0.00     0.173 A 
ATOM     73  F   UNL A   1      43.085  24.379  29.665  1.00  0.00    -0.203 F 
ATOM     74  C   UNL A   1      45.009  24.288  28.386  1.00  0.00     0.198 A 
ATOM     75  C   UNL A   1      45.947  26.252  27.429  1.00  0.00     0.198 A 
ATOM     76  F   UNL A   1      44.862  28.312  27.628  1.00  0.00    -0.203 F 
ATOM     77  F   UNL A   1      45.012  22.958  28.562  1.00  0.00    -0.200 F 
ATOM     78  C   UNL A   1      46.005  24.888  27.646  1.00  0.00     0.200 A 
ATOM     79  F   UNL A   1      46.896  26.844  26.689  1.00  0.00    -0.200 F 
ATOM     80  F   UNL A   1      47.000  24.155  27.132  1.00  0.00    -0.200 F 
ENDBRANCH  56  70
BRANCH  57  81
ATOM     81  C   UNL A   1      37.931  32.371  33.219  1.00  0.00     0.064 A 
ATOM     82  C   UNL A   1      37.429  33.677  33.141  1.00  0.00     0.173 A 
ATOM     83  C   UNL A   1      37.174  31.314  32.708  1.00  0.00     0.173 A 
ATOM     84  F   UNL A   1      38.111  34.697  33.681  1.00  0.00    -0.203 F 
ATOM     85  C   UNL A   1      36.346  33.947  32.323  1.00  0.00     0.198 A 
ATOM     86  C   UNL A   1      36.128  31.594  31.856  1.00  0.00     0.198 A 
ATOM     87  F   UNL A   1      37.591  30.045  32.828  1.00  0.00    -0.203 F 
ATOM     88  F   UNL A   1      35.956  35.212  32.111  1.00  0.00    -0.200 F 
ATOM     89  C   UNL A   1      35.761  32.916  31.610  1.00  0.00     0.200 A 
ATOM     90  F   UNL A   1      35.578  30.569  31.192  1.00  0.00    -0.200 F 
ATOM     91  F   UNL A   1      34.897  33.225  30.637  1.00  0.00    -0.200 F 
ENDBRANCH  57  81
BRANCH  69  92
ATOM     92  C   UNL A   1      42.719  27.553  35.301  1.00  0.00     0.064 A 
ATOM     93  C   UNL A   1      43.885  27.718  36.066  1.00  0.00     0.173 A 
ATOM     94  C   UNL A   1      42.041  26.328  35.427  1.00  0.00     0.173 A 
ATOM     95  F   UNL A   1      44.611  28.841  35.973  1.00  0.00    -0.203 F 
ATOM     96  C   UNL A   1      44.339  26.716  36.921  1.00  0.00     0.198 A 
ATOM     97  C   UNL A   1      42.518  25.314  36.253  1.00  0.00     0.198 A 
ATOM     98  F   UNL A   1      40.900  26.100  34.759  1.00  0.00    -0.203 F 
ATOM     99  F   UNL A   1      45.442  26.916  37.655  1.00  0.00    -0.200 F 
ATOM    100  C   UNL A   1      43.664  25.509  37.002  1.00  0.00     0.200 A 
ATOM    101  F   UNL A   1      41.866  24.144  36.312  1.00  0.00    -0.200 F 
ATOM    102  F   UNL A   1      44.120  24.534  37.798  1.00  0.00    -0.200 F 
ENDBRANCH  69  92
ENDBRANCH  43  44
ENDBRANCH  35  38
ENDBRANCH  33  34
ENDBRANCH  32  33
ENDBRANCH   1  32
TORSDOF 15
ENDMDL
MODEL 2
REMARK VINA RESULT:     -14.2      1.006      2.026
REMARK SMILES Cc1ccc(-c2cc(Cl)cc3c2O[C@H](C(F)(F)F)C(C(=O)NCCCCCCNC(=O)c2ccc(-c4c5nc(c(-c6c(F)c(F)c(F)c(F)c6F)c6ccc([nH]6)c(-c6c(F)c(F)c(F)c(F)c6F)c6nc(c(-c7c(F)c(F)c(F)c(F)c7F)c7ccc4[nH]7)C=C6)C=C5)cc2)=C3)cc1F
REMARK SMILES IDX 26 1 25 2 24 3 23 4 22 5 20 6 21 7 19 9 6 10 7 11 12 12 8 13
REMARK SMILES IDX 11 14 13 15 9 16 10 17 95 18 14 19 5 20 1 21 2 22 3 23 97 24
REMARK SMILES IDX 4 25 96 26 98 27 15 28 16 29 17 30 18 31 27 32 28 33 29 34
REMARK SMILES IDX 30 35 31 37 32 38 33 39 94 40 34 41 93 42 35 43 36 44 37 45
REMARK SMILES IDX 87 46 38 47 92 48 86 49 88 50 39 51 91 52 85 53 84 54 40 56
REMARK SMILES IDX 72 57 52 58 71 59 53 60 56 61 70 62 89 63 54 64 55 65 69 67
REMARK SMILES IDX 90 68 57 69 41 70 42 71 50 72 43 73 44 74 48 75 51 76 45 77
REMARK SMILES IDX 46 78 49 79 47 80 73 81 74 82 82 83 75 84 76 85 80 86 83 87
REMARK SMILES IDX 77 88 78 89 81 90 79 91 58 92 59 93 67 94 60 95 61 96 65 97
REMARK SMILES IDX 68 98 62 99 63 100 66 101 64 102
REMARK H PARENT 22 8 29 36 88 55 56 66
REMARK Flexibility Score: inf
ROOT
ATOM      1  C   UNL A   1      31.406  27.576  26.992  1.00  0.00     0.002 C 
ENDROOT
BRANCH   1   2
ATOM      2  C   UNL A   1      30.694  26.556  26.104  1.00  0.00     0.002 C 
BRANCH   2   3
ATOM      3  C   UNL A   1      30.730  26.858  24.600  1.00  0.00     0.021 C 
BRANCH   3   4
ATOM      4  C   UNL A   1      30.473  25.638  23.714  1.00  0.00     0.116 C 
BRANCH   4   5
ATOM      5  N   UNL A   1      31.237  25.693  22.481  1.00  0.00    -0.352 N 
ATOM      6  C   UNL A   1      32.341  25.096  21.978  1.00  0.00     0.251 C 
ATOM      7  O   UNL A   1      32.698  25.493  20.864  1.00  0.00    -0.270 OA
ATOM      8  H   UNL A   1      30.848  26.334  21.842  1.00  0.00     0.163 HD
BRANCH   6   9
ATOM      9  C   UNL A   1      33.115  24.014  22.655  1.00  0.00     0.067 C 
ATOM     10  C   UNL A   1      35.101  20.859  24.632  1.00  0.00     0.026 A 
ATOM     11  C   UNL A   1      34.403  19.664  24.861  1.00  0.00     0.033 A 
ATOM     12  C   UNL A   1      34.443  21.885  23.922  1.00  0.00     0.135 A 
ATOM     13  C   UNL A   1      33.096  19.508  24.395  1.00  0.00     0.042 A 
ATOM     14  C   UNL A   1      33.134  21.732  23.457  1.00  0.00     0.019 A 
ATOM     15  O   UNL A   1      35.170  23.012  23.644  1.00  0.00    -0.475 OA
ATOM     16  Cl  UNL A   1      32.261  18.031  24.683  1.00  0.00    -0.084 Cl
ATOM     17  C   UNL A   1      32.459  20.534  23.697  1.00  0.00     0.032 A 
ATOM     18  C   UNL A   1      32.500  22.818  22.719  1.00  0.00     0.025 C 
ATOM     19  C   UNL A   1      34.443  24.222  23.321  1.00  0.00     0.314 C 
BRANCH  10  20
ATOM     20  C   UNL A   1      36.479  21.036  25.120  1.00  0.00    -0.012 A 
ATOM     21  C   UNL A   1      40.594  21.721  26.269  1.00  0.00     0.047 C 
ATOM     22  C   UNL A   1      39.168  21.455  25.894  1.00  0.00    -0.015 A 
ATOM     23  C   UNL A   1      38.778  20.242  25.316  1.00  0.00     0.007 A 
ATOM     24  C   UNL A   1      38.201  22.439  26.096  1.00  0.00     0.126 A 
ATOM     25  C   UNL A   1      37.446  20.036  24.936  1.00  0.00     0.009 A 
ATOM     26  C   UNL A   1      36.875  22.239  25.726  1.00  0.00     0.048 A 
ATOM     27  F   UNL A   1      38.549  23.615  26.642  1.00  0.00    -0.207 F 
ENDBRANCH  10  20
BRANCH  19  28
ATOM     28  C   UNL A   1      34.363  25.105  24.578  1.00  0.00     0.429 C 
ATOM     29  F   UNL A   1      33.267  24.791  25.313  1.00  0.00    -0.167 F 
ATOM     30  F   UNL A   1      35.427  24.944  25.398  1.00  0.00    -0.167 F 
ATOM     31  F   UNL A   1      34.282  26.422  24.280  1.00  0.00    -0.167 F 
ENDBRANCH  19  28
ENDBRANCH   6   9
ENDBRANCH   4   5
ENDBRANCH   3   4
ENDBRANCH   2   3
ENDBRANCH   1   2
BRANCH   1  32
ATOM     32  C   UNL A   1      32.896  27.772  26.705  1.00  0.00     0.021 C 
BRANCH  32  33
ATOM     33  C   UNL A   1      33.315  29.041  25.983  1.00  0.00     0.116 C 
BRANCH  33  34
ATOM     34  N   UNL A   1      32.769  30.261  26.545  1.00  0.00    -0.352 N 
ATOM     35  C   UNL A   1      33.267  31.297  27.296  1.00  0.00     0.251 C 
ATOM     36  H   UNL A   1      31.812  30.374  26.338  1.00  0.00     0.163 HD
ATOM     37  O   UNL A   1      32.492  32.203  27.582  1.00  0.00    -0.269 OA
BRANCH  35  38
ATOM     38  C   UNL A   1      34.646  31.346  27.859  1.00  0.00     0.039 A 
ATOM     39  C   UNL A   1      35.422  32.493  28.026  1.00  0.00     0.014 A 
ATOM     40  C   UNL A   1      35.171  30.117  28.285  1.00  0.00     0.014 A 
ATOM     41  C   UNL A   1      36.755  32.393  28.472  1.00  0.00     0.010 A 
ATOM     42  C   UNL A   1      36.484  30.018  28.746  1.00  0.00     0.010 A 
ATOM     43  C   UNL A   1      37.313  31.145  28.782  1.00  0.00    -0.014 A 
BRANCH  43  44
ATOM     44  C   UNL A   1      38.732  30.957  29.135  1.00  0.00     0.031 A 
ATOM     45  C   UNL A   1      39.514  29.761  28.713  1.00  0.00     0.074 A 
ATOM     46  C   UNL A   1      39.359  31.816  29.979  1.00  0.00     0.049 A 
ATOM     47  N   UNL A   1      40.418  29.192  29.449  1.00  0.00    -0.248 NA
ATOM     48  C   UNL A   1      39.327  29.101  27.424  1.00  0.00     0.031 C 
ATOM     49  C   UNL A   1      40.788  31.863  30.279  1.00  0.00     0.029 A 
ATOM     50  N   UNL A   1      38.792  32.714  30.896  1.00  0.00    -0.354 N 
ATOM     51  C   UNL A   1      41.107  28.301  28.658  1.00  0.00     0.074 A 
ATOM     52  C   UNL A   1      40.330  28.209  27.438  1.00  0.00     0.031 C 
ATOM     53  C   UNL A   1      40.974  32.489  31.450  1.00  0.00     0.029 A 
ATOM     54  C   UNL A   1      39.670  32.776  32.012  1.00  0.00     0.049 A 
ATOM     55  H   UNL A   1      37.946  33.207  30.788  1.00  0.00     0.167 HD
ATOM     56  C   UNL A   1      42.337  27.840  29.036  1.00  0.00     0.037 A 
ATOM     57  C   UNL A   1      39.276  32.506  33.295  1.00  0.00     0.037 A 
ATOM     58  C   UNL A   1      42.797  28.424  30.288  1.00  0.00     0.049 A 
ATOM     59  C   UNL A   1      40.021  31.404  33.990  1.00  0.00     0.074 A 
ATOM     60  C   UNL A   1      43.619  29.503  30.573  1.00  0.00     0.029 A 
ATOM     61  N   UNL A   1      42.228  28.042  31.488  1.00  0.00    -0.354 N 
ATOM     62  N   UNL A   1      40.942  30.692  33.418  1.00  0.00    -0.248 NA
ATOM     63  C   UNL A   1      39.670  30.913  35.326  1.00  0.00     0.031 C 
ATOM     64  C   UNL A   1      43.565  29.749  31.965  1.00  0.00     0.029 A 
ATOM     65  C   UNL A   1      42.690  28.836  32.521  1.00  0.00     0.049 A 
ATOM     66  H   UNL A   1      41.583  27.305  31.593  1.00  0.00     0.167 HD
ATOM     67  C   UNL A   1      41.258  29.647  34.236  1.00  0.00     0.074 A 
ATOM     68  C   UNL A   1      40.449  29.824  35.423  1.00  0.00     0.031 C 
ATOM     69  C   UNL A   1      42.138  28.687  33.851  1.00  0.00     0.037 A 
BRANCH  56  70
ATOM     70  C   UNL A   1      43.269  27.068  28.129  1.00  0.00     0.064 A 
ATOM     71  C   UNL A   1      43.890  27.689  27.021  1.00  0.00     0.173 A 
ATOM     72  C   UNL A   1      43.577  25.708  28.299  1.00  0.00     0.173 A 
ATOM     73  F   UNL A   1      43.778  29.002  26.791  1.00  0.00    -0.203 F 
ATOM     74  C   UNL A   1      44.654  26.978  26.094  1.00  0.00     0.198 A 
ATOM     75  C   UNL A   1      44.309  24.988  27.348  1.00  0.00     0.198 A 
ATOM     76  F   UNL A   1      43.204  25.051  29.406  1.00  0.00    -0.203 F 
ATOM     77  F   UNL A   1      45.201  27.623  25.052  1.00  0.00    -0.200 F 
ATOM     78  C   UNL A   1      44.833  25.620  26.235  1.00  0.00     0.200 A 
ATOM     79  F   UNL A   1      44.500  23.671  27.511  1.00  0.00    -0.200 F 
ATOM     80  F   UNL A   1      45.522  24.929  25.318  1.00  0.00    -0.200 F 
ENDBRANCH  56  70
BRANCH  57  81
ATOM     81  C   UNL A   1      37.824  32.707  33.499  1.00  0.00     0.064 A 
ATOM     82  C   UNL A   1      37.366  34.028  33.596  1.00  0.00     0.173 A 
ATOM     83  C   UNL A   1      36.991  31.732  32.945  1.00  0.00     0.173 A 
ATOM     84  F   UNL A   1      38.125  34.966  34.182  1.00  0.00    -0.203 F 
ATOM     85  C   UNL A   1      36.234  34.415  32.900  1.00  0.00     0.198 A 
ATOM     86  C   UNL A   1      35.894  32.130  32.212  1.00  0.00     0.198 A 
ATOM     87  F   UNL A   1      37.370  30.447  32.899  1.00  0.00    -0.203 F 
ATOM     88  F   UNL A   1      35.876  35.705  32.851  1.00  0.00    -0.200 F 
ATOM     89  C   UNL A   1      35.559  33.481  32.134  1.00  0.00     0.200 A 
ATOM     90  F   UNL A   1      35.258  31.198  31.493  1.00  0.00    -0.200 F 
ATOM     91  F   UNL A   1      34.634  33.916  31.270  1.00  0.00    -0.200 F 
ENDBRANCH  57  81
BRANCH  69  92
ATOM     92  C   UNL A   1      42.588  27.586  34.741  1.00  0.00     0.064 A 
ATOM     93  C   UNL A   1      41.765  26.482  35.017  1.00  0.00     0.173 A 
ATOM     94  C   UNL A   1      43.789  27.683  35.466  1.00  0.00     0.173 A 
ATOM     95  F   UNL A   1      40.584  26.338  34.398  1.00  0.00    -0.203 F 
ATOM     96  C   UNL A   1      42.130  25.523  35.958  1.00  0.00     0.198 A 
ATOM     97  C   UNL A   1      44.134  26.743  36.433  1.00  0.00     0.198 A 
ATOM     98  F   UNL A   1      44.651  28.686  35.240  1.00  0.00    -0.203 F 
ATOM     99  F   UNL A   1      41.332  24.469  36.179  1.00  0.00    -0.200 F 
ATOM    100  C   UNL A   1      43.306  25.662  36.677  1.00  0.00     0.200 A 
ATOM    101  F   UNL A   1      45.266  26.895  37.134  1.00  0.00    -0.200 F 
ATOM    102  F   UNL A   1      43.640  24.756  37.605  1.00  0.00    -0.200 F 
ENDBRANCH  69  92
ENDBRANCH  43  44
ENDBRANCH  35  38
ENDBRANCH  33  34
ENDBRANCH  32  33
ENDBRANCH   1  32
TORSDOF 15
ENDMDL
MODEL 3
REMARK VINA RESULT:     -13.9      2.843      4.315
REMARK SMILES Cc1ccc(-c2cc(Cl)cc3c2O[C@H](C(F)(F)F)C(C(=O)NCCCCCCNC(=O)c2ccc(-c4c5nc(c(-c6c(F)c(F)c(F)c(F)c6F)c6ccc([nH]6)c(-c6c(F)c(F)c(F)c(F)c6F)c6nc(c(-c7c(F)c(F)c(F)c(F)c7F)c7ccc4[nH]7)C=C6)C=C5)cc2)=C3)cc1F
REMARK SMILES IDX 26 1 25 2 24 3 23 4 22 5 20 6 21 7 19 9 6 10 7 11 12 12 8 13
REMARK SMILES IDX 11 14 13 15 9 16 10 17 95 18 14 19 5 20 1 21 2 22 3 23 97 24
REMARK SMILES IDX 4 25 96 26 98 27 15 28 16 29 17 30 18 31 27 32 28 33 29 34
REMARK SMILES IDX 30 35 31 37 32 38 33 39 94 40 34 41 93 42 35 43 36 44 37 45
REMARK SMILES IDX 87 46 38 47 92 48 86 49 88 50 39 51 91 52 85 53 84 54 40 56
REMARK SMILES IDX 72 57 52 58 71 59 53 60 56 61 70 62 89 63 54 64 55 65 69 67
REMARK SMILES IDX 90 68 57 69 41 70 42 71 50 72 43 73 44 74 48 75 51 76 45 77
REMARK SMILES IDX 46 78 49 79 47 80 73 81 74 82 82 83 75 84 76 85 80 86 83 87
REMARK SMILES IDX 77 88 78 89 81 90 79 91 58 92 59 93 67 94 60 95 61 96 65 97
REMARK SMILES IDX 68 98 62 99 63 100 66 101 64 102
REMARK H PARENT 22 8 29 36 88 55 56 66
REMARK Flexibility Score: inf
ROOT
ATOM      1  C   UNL A   1      34.040  28.788  26.122  1.00  0.00     0.002 C 
ENDROOT
BRANCH   1   2
ATOM      2  C   UNL A   1      33.105  29.256  25.007  1.00  0.00     0.002 C 
BRANCH   2   3
ATOM      3  C   UNL A   1      33.097  28.379  23.749  1.00  0.00     0.021 C 
BRANCH   3   4
ATOM      4  C   UNL A   1      31.759  27.686  23.482  1.00  0.00     0.116 C 
BRANCH   4   5
ATOM      5  N   UNL A   1      31.093  27.303  24.713  1.00  0.00    -0.352 N 
ATOM      6  C   UNL A   1      31.108  26.243  25.554  1.00  0.00     0.251 C 
ATOM      7  O   UNL A   1      30.307  26.300  26.493  1.00  0.00    -0.270 OA
ATOM      8  H   UNL A   1      30.464  27.998  25.017  1.00  0.00     0.163 HD
BRANCH   6   9
ATOM      9  C   UNL A   1      32.012  25.063  25.430  1.00  0.00     0.067 C 
ATOM     10  C   UNL A   1      34.743  21.870  25.030  1.00  0.00     0.026 A 
ATOM     11  C   UNL A   1      36.113  22.136  25.169  1.00  0.00     0.033 A 
ATOM     12  C   UNL A   1      33.838  22.936  25.220  1.00  0.00     0.135 A 
ATOM     13  C   UNL A   1      36.555  23.422  25.487  1.00  0.00     0.042 A 
ATOM     14  C   UNL A   1      34.279  24.224  25.535  1.00  0.00     0.019 A 
ATOM     15  O   UNL A   1      32.504  22.636  25.154  1.00  0.00    -0.475 OA
ATOM     16  Cl  UNL A   1      38.241  23.724  25.658  1.00  0.00    -0.084 Cl
ATOM     17  C   UNL A   1      35.647  24.466  25.669  1.00  0.00     0.032 A 
ATOM     18  C   UNL A   1      33.304  25.291  25.732  1.00  0.00     0.025 C 
ATOM     19  C   UNL A   1      31.578  23.723  24.912  1.00  0.00     0.314 C 
BRANCH  10  20
ATOM     20  C   UNL A   1      34.265  20.519  24.693  1.00  0.00    -0.012 A 
ATOM     21  C   UNL A   1      33.034  16.573  23.417  1.00  0.00     0.047 C 
ATOM     22  C   UNL A   1      33.431  17.940  23.879  1.00  0.00    -0.015 A 
ATOM     23  C   UNL A   1      32.602  19.049  23.677  1.00  0.00     0.007 A 
ATOM     24  C   UNL A   1      34.662  18.133  24.506  1.00  0.00     0.126 A 
ATOM     25  C   UNL A   1      33.016  20.324  24.082  1.00  0.00     0.009 A 
ATOM     26  C   UNL A   1      35.077  19.396  24.916  1.00  0.00     0.048 A 
ATOM     27  F   UNL A   1      35.479  17.087  24.706  1.00  0.00    -0.207 F 
ENDBRANCH  10  20
BRANCH  19  28
ATOM     28  C   UNL A   1      31.208  23.738  23.419  1.00  0.00     0.429 C 
ATOM     29  F   UNL A   1      32.021  24.581  22.734  1.00  0.00    -0.167 F 
ATOM     30  F   UNL A   1      31.343  22.525  22.836  1.00  0.00    -0.167 F 
ATOM     31  F   UNL A   1      29.936  24.146  23.206  1.00  0.00    -0.167 F 
ENDBRANCH  19  28
ENDBRANCH   6   9
ENDBRANCH   4   5
ENDBRANCH   3   4
ENDBRANCH   2   3
ENDBRANCH   1   2
BRANCH   1  32
ATOM     32  C   UNL A   1      33.879  29.507  27.462  1.00  0.00     0.021 C 
BRANCH  32  33
ATOM     33  C   UNL A   1      34.234  30.983  27.519  1.00  0.00     0.116 C 
BRANCH  33  34
ATOM     34  N   UNL A   1      34.538  31.478  28.847  1.00  0.00    -0.352 N 
ATOM     35  C   UNL A   1      35.585  31.337  29.725  1.00  0.00     0.251 C 
ATOM     36  H   UNL A   1      33.824  32.054  29.205  1.00  0.00     0.163 HD
ATOM     37  O   UNL A   1      35.507  31.940  30.790  1.00  0.00    -0.269 OA
BRANCH  35  38
ATOM     38  C   UNL A   1      36.752  30.435  29.510  1.00  0.00     0.039 A 
ATOM     39  C   UNL A   1      36.979  29.221  30.159  1.00  0.00     0.014 A 
ATOM     40  C   UNL A   1      37.668  30.852  28.533  1.00  0.00     0.014 A 
ATOM     41  C   UNL A   1      38.178  28.511  29.943  1.00  0.00     0.010 A 
ATOM     42  C   UNL A   1      38.846  30.140  28.303  1.00  0.00     0.010 A 
ATOM     43  C   UNL A   1      39.146  28.997  29.053  1.00  0.00    -0.014 A 
BRANCH  43  44
ATOM     44  C   UNL A   1      40.468  28.371  28.874  1.00  0.00     0.031 A 
ATOM     45  C   UNL A   1      40.636  26.930  28.533  1.00  0.00     0.074 A 
ATOM     46  C   UNL A   1      41.606  29.060  29.143  1.00  0.00     0.049 A 
ATOM     47  N   UNL A   1      41.594  26.185  28.994  1.00  0.00    -0.248 NA
ATOM     48  C   UNL A   1      39.725  26.210  27.649  1.00  0.00     0.031 C 
ATOM     49  C   UNL A   1      42.975  28.641  28.849  1.00  0.00     0.029 A 
ATOM     50  N   UNL A   1      41.768  30.217  29.922  1.00  0.00    -0.354 N 
ATOM     51  C   UNL A   1      41.594  25.009  28.278  1.00  0.00     0.074 A 
ATOM     52  C   UNL A   1      40.357  25.032  27.524  1.00  0.00     0.031 C 
ATOM     53  C   UNL A   1      43.823  29.315  29.639  1.00  0.00     0.029 A 
ATOM     54  C   UNL A   1      43.037  30.117  30.553  1.00  0.00     0.049 A 
ATOM     55  H   UNL A   1      41.124  30.957  30.013  1.00  0.00     0.167 HD
ATOM     56  C   UNL A   1      42.696  24.201  28.269  1.00  0.00     0.037 A 
ATOM     57  C   UNL A   1      43.208  30.181  31.910  1.00  0.00     0.037 A 
ATOM     58  C   UNL A   1      43.805  24.750  29.037  1.00  0.00     0.049 A 
ATOM     59  C   UNL A   1      43.874  28.993  32.542  1.00  0.00     0.074 A 
ATOM     60  C   UNL A   1      44.915  25.499  28.677  1.00  0.00     0.029 A 
ATOM     61  N   UNL A   1      43.760  24.761  30.418  1.00  0.00    -0.354 N 
ATOM     62  N   UNL A   1      44.218  27.931  31.882  1.00  0.00    -0.248 NA
ATOM     63  C   UNL A   1      44.048  28.845  33.990  1.00  0.00     0.031 C 
ATOM     64  C   UNL A   1      45.560  25.935  29.857  1.00  0.00     0.029 A 
ATOM     65  C   UNL A   1      44.826  25.474  30.934  1.00  0.00     0.049 A 
ATOM     66  H   UNL A   1      43.066  24.320  30.960  1.00  0.00     0.167 HD
ATOM     67  C   UNL A   1      44.586  26.963  32.770  1.00  0.00     0.074 A 
ATOM     68  C   UNL A   1      44.476  27.575  34.078  1.00  0.00     0.031 C 
ATOM     69  C   UNL A   1      44.916  25.712  32.359  1.00  0.00     0.037 A 
BRANCH  56  70
ATOM     70  C   UNL A   1      42.884  23.034  27.325  1.00  0.00     0.064 A 
ATOM     71  C   UNL A   1      42.175  21.825  27.510  1.00  0.00     0.173 A 
ATOM     72  C   UNL A   1      43.758  23.049  26.226  1.00  0.00     0.173 A 
ATOM     73  F   UNL A   1      41.230  21.694  28.447  1.00  0.00    -0.203 F 
ATOM     74  C   UNL A   1      42.415  20.688  26.736  1.00  0.00     0.198 A 
ATOM     75  C   UNL A   1      44.028  21.899  25.476  1.00  0.00     0.198 A 
ATOM     76  F   UNL A   1      44.348  24.186  25.832  1.00  0.00    -0.203 F 
ATOM     77  F   UNL A   1      41.723  19.564  26.974  1.00  0.00    -0.200 F 
ATOM     78  C   UNL A   1      43.369  20.713  25.742  1.00  0.00     0.200 A 
ATOM     79  F   UNL A   1      44.939  21.942  24.493  1.00  0.00    -0.200 F 
ATOM     80  F   UNL A   1      43.637  19.608  25.034  1.00  0.00    -0.200 F 
ENDBRANCH  56  70
BRANCH  57  81
ATOM     81  C   UNL A   1      42.112  30.907  32.589  1.00  0.00     0.064 A 
ATOM     82  C   UNL A   1      42.005  32.283  32.345  1.00  0.00     0.173 A 
ATOM     83  C   UNL A   1      40.957  30.164  32.843  1.00  0.00     0.173 A 
ATOM     84  F   UNL A   1      43.107  33.025  32.162  1.00  0.00    -0.203 F 
ATOM     85  C   UNL A   1      40.766  32.837  32.077  1.00  0.00     0.198 A 
ATOM     86  C   UNL A   1      39.731  30.708  32.526  1.00  0.00     0.198 A 
ATOM     87  F   UNL A   1      41.028  28.860  33.148  1.00  0.00    -0.203 F 
ATOM     88  F   UNL A   1      40.666  34.115  31.683  1.00  0.00    -0.200 F 
ATOM     89  C   UNL A   1      39.646  32.025  32.076  1.00  0.00     0.200 A 
ATOM     90  F   UNL A   1      38.668  29.895  32.547  1.00  0.00    -0.200 F 
ATOM     91  F   UNL A   1      38.509  32.510  31.566  1.00  0.00    -0.200 F 
ENDBRANCH  57  81
BRANCH  69  92
ATOM     92  C   UNL A   1      45.417  24.655  33.275  1.00  0.00     0.064 A 
ATOM     93  C   UNL A   1      46.765  24.601  33.666  1.00  0.00     0.173 A 
ATOM     94  C   UNL A   1      44.597  23.580  33.659  1.00  0.00     0.173 A 
ATOM     95  F   UNL A   1      47.621  25.568  33.305  1.00  0.00    -0.203 F 
ATOM     96  C   UNL A   1      47.261  23.533  34.409  1.00  0.00     0.198 A 
ATOM     97  C   UNL A   1      45.105  22.495  34.370  1.00  0.00     0.198 A 
ATOM     98  F   UNL A   1      43.290  23.568  33.359  1.00  0.00    -0.203 F 
ATOM     99  F   UNL A   1      48.547  23.524  34.785  1.00  0.00    -0.200 F 
ATOM    100  C   UNL A   1      46.435  22.473  34.747  1.00  0.00     0.200 A 
ATOM    101  F   UNL A   1      44.301  21.468  34.678  1.00  0.00    -0.200 F 
ATOM    102  F   UNL A   1      46.922  21.432  35.434  1.00  0.00    -0.200 F 
ENDBRANCH  69  92
ENDBRANCH  43  44
ENDBRANCH  35  38
ENDBRANCH  33  34
ENDBRANCH  32  33
ENDBRANCH   1  32
TORSDOF 15
ENDMDL
