MODEL 1
REMARK VINA RESULT:     -12.3      0.000      0.000
REMARK SMILES Cc1ccc(C)c(OCC(=O)N[C@@H](Cc2ccccc2)C(=O)NCCCCCCNC(=O)c2ccc(-c3c4nc(c(-c5c(F)c(F)c(F)c(F)c5F)c5ccc([nH]5)c(-c5c(F)c(F)c(F)c(F)c5F)c5nc(c(-c6c(F)c(F)c(F)c(F)c6F)c6ccc3[nH]6)C=C5)C=C4)cc2)c1
REMARK SMILES IDX 25 1 24 2 23 3 21 4 22 5 13 7 12 8 10 9 11 10 9 12 8 13 7 14
REMARK SMILES IDX 1 15 2 16 3 17 96 18 4 19 5 20 6 21 14 22 15 23 16 24 20 25
REMARK SMILES IDX 17 26 19 27 18 28 26 29 27 30 28 31 29 32 30 33 31 34 32 36
REMARK SMILES IDX 33 37 34 38 95 39 35 40 94 41 36 42 37 43 38 44 88 45 39 46
REMARK SMILES IDX 93 47 87 48 89 49 40 50 92 51 86 52 85 53 41 55 73 56 53 57
REMARK SMILES IDX 72 58 54 59 57 60 71 61 90 62 55 63 56 64 70 66 91 67 58 68
REMARK SMILES IDX 42 69 43 70 51 71 44 72 45 73 49 74 52 75 46 76 47 77 50 78
REMARK SMILES IDX 48 79 74 80 75 81 83 82 76 83 77 84 81 85 84 86 78 87 79 88
REMARK SMILES IDX 82 89 80 90 59 91 60 92 68 93 61 94 62 95 66 96 69 97 63 98
REMARK SMILES IDX 64 99 67 100 65 101
REMARK H PARENT 23 6 12 11 30 35 89 54 57 65
REMARK Flexibility Score: inf
ROOT
ATOM      1  C   UNL A   1      34.010  25.227  25.242  1.00  0.00     0.021 C 
ENDROOT
BRANCH   1   2
ATOM      2  C   UNL A   1      34.061  26.190  24.063  1.00  0.00     0.116 C 
BRANCH   2   3
ATOM      3  N   UNL A   1      33.650  25.633  22.789  1.00  0.00    -0.354 N 
ATOM      4  C   UNL A   1      32.390  25.576  22.253  1.00  0.00     0.242 C 
ATOM      5  O   UNL A   1      32.299  25.696  21.026  1.00  0.00    -0.273 OA
ATOM      6  H   UNL A   1      34.369  25.246  22.238  1.00  0.00     0.163 HD
BRANCH   4   7
ATOM      7  C   UNL A   1      31.106  25.421  23.108  1.00  0.00     0.175 C 
BRANCH   7   8
ATOM      8  N   UNL A   1      30.139  26.468  22.772  1.00  0.00    -0.341 N 
ATOM      9  C   UNL A   1      30.325  27.798  23.031  1.00  0.00     0.258 C 
ATOM     10  O   UNL A   1      29.956  28.621  22.191  1.00  0.00    -0.271 OA
ATOM     11  H   UNL A   1      29.302  26.196  22.330  1.00  0.00     0.164 HD
BRANCH   9  12
ATOM     12  C   UNL A   1      31.000  28.243  24.335  1.00  0.00     0.329 C 
BRANCH  12  13
ATOM     13  O   UNL A   1      31.965  29.277  24.246  1.00  0.00    -0.483 OA
BRANCH  13  14
ATOM     14  C   UNL A   1      32.565  29.733  25.389  1.00  0.00     0.123 A 
ATOM     15  C   UNL A   1      35.582  29.233  27.677  1.00  0.00     0.044 C 
ATOM     16  C   UNL A   1      34.310  29.777  27.095  1.00  0.00    -0.047 A 
ATOM     17  C   UNL A   1      33.678  30.861  27.707  1.00  0.00     0.004 A 
ATOM     18  C   UNL A   1      33.739  29.208  25.945  1.00  0.00     0.050 A 
ATOM     19  C   UNL A   1      32.495  31.374  27.175  1.00  0.00     0.007 A 
ATOM     20  C   UNL A   1      31.933  30.823  26.014  1.00  0.00    -0.009 A 
ATOM     21  C   UNL A   1      30.654  31.422  25.495  1.00  0.00     0.048 C 
ENDBRANCH  13  14
ENDBRANCH  12  13
ENDBRANCH   9  12
ENDBRANCH   7   8
BRANCH   7  22
ATOM     22  C   UNL A   1      30.537  23.996  23.252  1.00  0.00     0.070 C 
BRANCH  22  23
ATOM     23  C   UNL A   1      31.363  22.916  23.904  1.00  0.00    -0.045 A 
ATOM     24  C   UNL A   1      32.111  22.016  23.131  1.00  0.00     0.004 A 
ATOM     25  C   UNL A   1      31.346  22.753  25.296  1.00  0.00     0.004 A 
ATOM     26  C   UNL A   1      32.867  21.013  23.744  1.00  0.00     0.000 A 
ATOM     27  C   UNL A   1      32.120  21.765  25.908  1.00  0.00     0.000 A 
ATOM     28  C   UNL A   1      32.890  20.902  25.133  1.00  0.00     0.000 A 
ENDBRANCH  22  23
ENDBRANCH   7  22
ENDBRANCH   4   7
ENDBRANCH   2   3
ENDBRANCH   1   2
BRANCH   1  29
ATOM     29  C   UNL A   1      35.285  24.420  25.519  1.00  0.00     0.002 C 
BRANCH  29  30
ATOM     30  C   UNL A   1      35.637  23.232  24.607  1.00  0.00     0.002 C 
BRANCH  30  31
ATOM     31  C   UNL A   1      36.843  22.336  24.924  1.00  0.00     0.021 C 
BRANCH  31  32
ATOM     32  C   UNL A   1      38.115  22.990  25.440  1.00  0.00     0.116 C 
BRANCH  32  33
ATOM     33  N   UNL A   1      38.827  22.213  26.457  1.00  0.00    -0.352 N 
ATOM     34  C   UNL A   1      39.947  22.458  27.228  1.00  0.00     0.251 C 
ATOM     35  H   UNL A   1      38.423  21.331  26.626  1.00  0.00     0.163 HD
ATOM     36  O   UNL A   1      40.457  21.530  27.856  1.00  0.00    -0.269 OA
BRANCH  34  37
ATOM     37  C   UNL A   1      40.538  23.809  27.342  1.00  0.00     0.039 A 
ATOM     38  C   UNL A   1      41.825  24.023  27.853  1.00  0.00     0.014 A 
ATOM     39  C   UNL A   1      39.706  24.908  27.240  1.00  0.00     0.014 A 
ATOM     40  C   UNL A   1      42.120  25.292  28.371  1.00  0.00     0.010 A 
ATOM     41  C   UNL A   1      40.241  26.154  27.186  1.00  0.00     0.010 A 
ATOM     42  C   UNL A   1      41.209  26.323  28.143  1.00  0.00    -0.014 A 
BRANCH  42  43
ATOM     43  C   UNL A   1      41.191  27.609  28.798  1.00  0.00     0.031 A 
ATOM     44  C   UNL A   1      42.137  28.593  28.247  1.00  0.00     0.074 A 
ATOM     45  C   UNL A   1      40.163  28.055  29.550  1.00  0.00     0.049 A 
ATOM     46  N   UNL A   1      43.227  29.002  28.796  1.00  0.00    -0.248 NA
ATOM     47  C   UNL A   1      41.923  29.084  26.877  1.00  0.00     0.031 C 
ATOM     48  C   UNL A   1      38.864  27.435  29.823  1.00  0.00     0.029 A 
ATOM     49  N   UNL A   1      40.052  29.270  30.149  1.00  0.00    -0.354 N 
ATOM     50  C   UNL A   1      43.772  29.912  27.905  1.00  0.00     0.074 A 
ATOM     51  C   UNL A   1      43.054  29.756  26.666  1.00  0.00     0.031 C 
ATOM     52  C   UNL A   1      38.032  28.361  30.363  1.00  0.00     0.029 A 
ATOM     53  C   UNL A   1      38.782  29.583  30.600  1.00  0.00     0.049 A 
ATOM     54  H   UNL A   1      40.816  29.881  30.256  1.00  0.00     0.167 HD
ATOM     55  C   UNL A   1      44.626  30.886  28.318  1.00  0.00     0.037 A 
ATOM     56  C   UNL A   1      38.382  30.792  31.062  1.00  0.00     0.037 A 
ATOM     57  C   UNL A   1      45.007  30.710  29.697  1.00  0.00     0.049 A 
ATOM     58  C   UNL A   1      39.595  31.576  31.414  1.00  0.00     0.074 A 
ATOM     59  C   UNL A   1      45.614  29.690  30.407  1.00  0.00     0.029 A 
ATOM     60  N   UNL A   1      44.383  31.495  30.640  1.00  0.00    -0.354 N 
ATOM     61  N   UNL A   1      40.387  31.290  32.410  1.00  0.00    -0.248 NA
ATOM     62  C   UNL A   1      40.179  32.424  30.383  1.00  0.00     0.031 C 
ATOM     63  C   UNL A   1      44.918  29.639  31.653  1.00  0.00     0.029 A 
ATOM     64  C   UNL A   1      43.966  30.658  31.646  1.00  0.00     0.049 A 
ATOM     65  H   UNL A   1      44.261  32.471  30.602  1.00  0.00     0.167 HD
ATOM     66  C   UNL A   1      41.664  31.545  31.931  1.00  0.00     0.074 A 
ATOM     67  C   UNL A   1      41.469  32.338  30.722  1.00  0.00     0.031 C 
ATOM     68  C   UNL A   1      42.741  30.842  32.389  1.00  0.00     0.037 A 
BRANCH  55  69
ATOM     69  C   UNL A   1      44.869  32.163  27.575  1.00  0.00     0.064 A 
ATOM     70  C   UNL A   1      46.085  32.338  26.895  1.00  0.00     0.173 A 
ATOM     71  C   UNL A   1      44.054  33.308  27.693  1.00  0.00     0.173 A 
ATOM     72  F   UNL A   1      46.945  31.315  26.763  1.00  0.00    -0.203 F 
ATOM     73  C   UNL A   1      46.475  33.582  26.399  1.00  0.00     0.198 A 
ATOM     74  C   UNL A   1      44.414  34.533  27.139  1.00  0.00     0.198 A 
ATOM     75  F   UNL A   1      42.940  33.311  28.437  1.00  0.00    -0.203 F 
ATOM     76  F   UNL A   1      47.689  33.729  25.854  1.00  0.00    -0.200 F 
ATOM     77  C   UNL A   1      45.637  34.678  26.517  1.00  0.00     0.200 A 
ATOM     78  F   UNL A   1      43.597  35.586  27.279  1.00  0.00    -0.200 F 
ATOM     79  F   UNL A   1      46.025  35.881  26.077  1.00  0.00    -0.200 F 
ENDBRANCH  55  69
BRANCH  56  80
ATOM     80  C   UNL A   1      37.072  31.438  30.838  1.00  0.00     0.064 A 
ATOM     81  C   UNL A   1      36.185  31.691  31.895  1.00  0.00     0.173 A 
ATOM     82  C   UNL A   1      36.809  32.090  29.618  1.00  0.00     0.173 A 
ATOM     83  F   UNL A   1      36.417  31.166  33.107  1.00  0.00    -0.203 F 
ATOM     84  C   UNL A   1      35.093  32.550  31.738  1.00  0.00     0.198 A 
ATOM     85  C   UNL A   1      35.738  32.969  29.475  1.00  0.00     0.198 A 
ATOM     86  F   UNL A   1      37.651  31.964  28.581  1.00  0.00    -0.203 F 
ATOM     87  F   UNL A   1      34.292  32.813  32.782  1.00  0.00    -0.200 F 
ATOM     88  C   UNL A   1      34.873  33.193  30.529  1.00  0.00     0.200 A 
ATOM     89  F   UNL A   1      35.580  33.638  28.322  1.00  0.00    -0.200 F 
ATOM     90  F   UNL A   1      33.862  34.064  30.396  1.00  0.00    -0.200 F 
ENDBRANCH  56  80
BRANCH  68  91
ATOM     91  C   UNL A   1      42.547  29.987  33.609  1.00  0.00     0.064 A 
ATOM     92  C   UNL A   1      42.665  30.464  34.927  1.00  0.00     0.173 A 
ATOM     93  C   UNL A   1      42.095  28.672  33.443  1.00  0.00     0.173 A 
ATOM     94  F   UNL A   1      42.982  31.741  35.172  1.00  0.00    -0.203 F 
ATOM     95  C   UNL A   1      42.396  29.648  36.023  1.00  0.00     0.198 A 
ATOM     96  C   UNL A   1      41.790  27.868  34.539  1.00  0.00     0.198 A 
ATOM     97  F   UNL A   1      41.905  28.178  32.209  1.00  0.00    -0.203 F 
ATOM     98  F   UNL A   1      42.532  30.128  37.268  1.00  0.00    -0.200 F 
ATOM     99  C   UNL A   1      41.953  28.352  35.828  1.00  0.00     0.200 A 
ATOM    100  F   UNL A   1      41.312  26.631  34.346  1.00  0.00    -0.200 F 
ATOM    101  F   UNL A   1      41.654  27.578  36.881  1.00  0.00    -0.200 F 
ENDBRANCH  68  91
ENDBRANCH  42  43
ENDBRANCH  34  37
ENDBRANCH  32  33
ENDBRANCH  31  32
ENDBRANCH  30  31
ENDBRANCH  29  30
ENDBRANCH   1  29
TORSDOF 19
ENDMDL
MODEL 2
REMARK VINA RESULT:     -11.8      2.917      8.211
REMARK SMILES Cc1ccc(C)c(OCC(=O)N[C@@H](Cc2ccccc2)C(=O)NCCCCCCNC(=O)c2ccc(-c3c4nc(c(-c5c(F)c(F)c(F)c(F)c5F)c5ccc([nH]5)c(-c5c(F)c(F)c(F)c(F)c5F)c5nc(c(-c6c(F)c(F)c(F)c(F)c6F)c6ccc3[nH]6)C=C5)C=C4)cc2)c1
REMARK SMILES IDX 25 1 24 2 23 3 21 4 22 5 13 7 12 8 10 9 11 10 9 12 8 13 7 14
REMARK SMILES IDX 1 15 2 16 3 17 96 18 4 19 5 20 6 21 14 22 15 23 16 24 20 25
REMARK SMILES IDX 17 26 19 27 18 28 26 29 27 30 28 31 29 32 30 33 31 34 32 36
REMARK SMILES IDX 33 37 34 38 95 39 35 40 94 41 36 42 37 43 38 44 88 45 39 46
REMARK SMILES IDX 93 47 87 48 89 49 40 50 92 51 86 52 85 53 41 55 73 56 53 57
REMARK SMILES IDX 72 58 54 59 57 60 71 61 90 62 55 63 56 64 70 66 91 67 58 68
REMARK SMILES IDX 42 69 43 70 51 71 44 72 45 73 49 74 52 75 46 76 47 77 50 78
REMARK SMILES IDX 48 79 74 80 75 81 83 82 76 83 77 84 81 85 84 86 78 87 79 88
REMARK SMILES IDX 82 89 80 90 59 91 60 92 68 93 61 94 62 95 66 96 69 97 63 98
REMARK SMILES IDX 64 99 67 100 65 101
REMARK H PARENT 23 6 12 11 30 35 89 54 57 65
REMARK Flexibility Score: inf
ROOT
ATOM      1  C   UNL A   1      31.695  25.653  26.380  1.00  0.00     0.021 C 
ENDROOT
BRANCH   1   2
ATOM      2  C   UNL A   1      32.194  24.255  26.722  1.00  0.00     0.116 C 
BRANCH   2   3
ATOM      3  N   UNL A   1      31.517  23.171  26.038  1.00  0.00    -0.354 N 
ATOM      4  C   UNL A   1      32.070  22.133  25.334  1.00  0.00     0.242 C 
ATOM      5  O   UNL A   1      31.487  21.044  25.394  1.00  0.00    -0.273 OA
ATOM      6  H   UNL A   1      30.534  23.182  26.085  1.00  0.00     0.163 HD
BRANCH   4   7
ATOM      7  C   UNL A   1      33.389  22.256  24.528  1.00  0.00     0.175 C 
BRANCH   7   8
ATOM      8  N   UNL A   1      33.109  22.295  23.092  1.00  0.00    -0.341 N 
ATOM      9  C   UNL A   1      33.059  23.443  22.350  1.00  0.00     0.258 C 
ATOM     10  O   UNL A   1      33.533  23.431  21.212  1.00  0.00    -0.271 OA
ATOM     11  H   UNL A   1      32.946  21.440  22.632  1.00  0.00     0.164 HD
BRANCH   9  12
ATOM     12  C   UNL A   1      32.443  24.718  22.940  1.00  0.00     0.329 C 
BRANCH  12  13
ATOM     13  O   UNL A   1      32.442  25.877  22.124  1.00  0.00    -0.483 OA
BRANCH  13  14
ATOM     14  C   UNL A   1      31.701  26.963  22.505  1.00  0.00     0.123 A 
ATOM     15  C   UNL A   1      28.157  28.118  23.340  1.00  0.00     0.044 C 
ATOM     16  C   UNL A   1      29.643  28.119  23.125  1.00  0.00    -0.047 A 
ATOM     17  C   UNL A   1      30.375  29.284  23.362  1.00  0.00     0.004 A 
ATOM     18  C   UNL A   1      30.311  26.967  22.681  1.00  0.00     0.050 A 
ATOM     19  C   UNL A   1      31.755  29.297  23.165  1.00  0.00     0.007 A 
ATOM     20  C   UNL A   1      32.430  28.142  22.743  1.00  0.00    -0.009 A 
ATOM     21  C   UNL A   1      33.920  28.226  22.546  1.00  0.00     0.048 C 
ENDBRANCH  13  14
ENDBRANCH  12  13
ENDBRANCH   9  12
ENDBRANCH   7   8
BRANCH   7  22
ATOM     22  C   UNL A   1      34.423  23.277  25.044  1.00  0.00     0.070 C 
BRANCH  22  23
ATOM     23  C   UNL A   1      35.847  22.848  25.290  1.00  0.00    -0.045 A 
ATOM     24  C   UNL A   1      36.772  23.723  25.879  1.00  0.00     0.004 A 
ATOM     25  C   UNL A   1      36.290  21.586  24.872  1.00  0.00     0.004 A 
ATOM     26  C   UNL A   1      38.092  23.320  26.095  1.00  0.00     0.000 A 
ATOM     27  C   UNL A   1      37.605  21.177  25.109  1.00  0.00     0.000 A 
ATOM     28  C   UNL A   1      38.503  22.039  25.732  1.00  0.00     0.000 A 
ENDBRANCH  22  23
ENDBRANCH   7  22
ENDBRANCH   4   7
ENDBRANCH   2   3
ENDBRANCH   1   2
BRANCH   1  29
ATOM     29  C   UNL A   1      32.771  26.714  26.108  1.00  0.00     0.002 C 
BRANCH  29  30
ATOM     30  C   UNL A   1      32.505  28.176  26.508  1.00  0.00     0.002 C 
BRANCH  30  31
ATOM     31  C   UNL A   1      33.660  29.184  26.587  1.00  0.00     0.021 C 
BRANCH  31  32
ATOM     32  C   UNL A   1      33.660  30.197  27.721  1.00  0.00     0.116 C 
BRANCH  32  33
ATOM     33  N   UNL A   1      34.280  31.482  27.386  1.00  0.00    -0.352 N 
ATOM     34  C   UNL A   1      35.417  32.131  27.827  1.00  0.00     0.251 C 
ATOM     35  H   UNL A   1      33.781  31.988  26.705  1.00  0.00     0.163 HD
ATOM     36  O   UNL A   1      35.586  33.313  27.527  1.00  0.00    -0.269 OA
BRANCH  34  37
ATOM     37  C   UNL A   1      36.452  31.442  28.627  1.00  0.00     0.039 A 
ATOM     38  C   UNL A   1      37.261  32.118  29.549  1.00  0.00     0.014 A 
ATOM     39  C   UNL A   1      36.849  30.173  28.246  1.00  0.00     0.014 A 
ATOM     40  C   UNL A   1      38.489  31.536  29.892  1.00  0.00     0.010 A 
ATOM     41  C   UNL A   1      37.679  29.459  29.048  1.00  0.00     0.010 A 
ATOM     42  C   UNL A   1      38.731  30.224  29.483  1.00  0.00    -0.014 A 
BRANCH  42  43
ATOM     43  C   UNL A   1      40.005  29.544  29.503  1.00  0.00     0.031 A 
ATOM     44  C   UNL A   1      40.499  29.203  30.846  1.00  0.00     0.074 A 
ATOM     45  C   UNL A   1      40.525  28.894  28.440  1.00  0.00     0.049 A 
ATOM     46  N   UNL A   1      41.473  29.767  31.472  1.00  0.00    -0.248 NA
ATOM     47  C   UNL A   1      39.753  28.216  31.641  1.00  0.00     0.031 C 
ATOM     48  C   UNL A   1      39.953  28.662  27.112  1.00  0.00     0.029 A 
ATOM     49  N   UNL A   1      41.686  28.188  28.399  1.00  0.00    -0.354 N 
ATOM     50  C   UNL A   1      41.558  29.113  32.691  1.00  0.00     0.074 A 
ATOM     51  C   UNL A   1      40.354  28.334  32.825  1.00  0.00     0.031 C 
ATOM     52  C   UNL A   1      40.677  27.709  26.474  1.00  0.00     0.029 A 
ATOM     53  C   UNL A   1      41.834  27.376  27.289  1.00  0.00     0.049 A 
ATOM     54  H   UNL A   1      42.369  28.249  29.105  1.00  0.00     0.167 HD
ATOM     55  C   UNL A   1      42.716  29.085  33.401  1.00  0.00     0.037 A 
ATOM     56  C   UNL A   1      42.807  26.450  27.110  1.00  0.00     0.037 A 
ATOM     57  C   UNL A   1      43.715  29.951  32.827  1.00  0.00     0.049 A 
ATOM     58  C   UNL A   1      43.908  26.748  28.063  1.00  0.00     0.074 A 
ATOM     59  C   UNL A   1      43.768  31.303  32.539  1.00  0.00     0.029 A 
ATOM     60  N   UNL A   1      44.705  29.373  32.064  1.00  0.00    -0.354 N 
ATOM     61  N   UNL A   1      44.682  27.794  27.983  1.00  0.00    -0.248 NA
ATOM     62  C   UNL A   1      43.865  26.109  29.372  1.00  0.00     0.031 C 
ATOM     63  C   UNL A   1      44.432  31.388  31.277  1.00  0.00     0.029 A 
ATOM     64  C   UNL A   1      44.785  30.093  30.898  1.00  0.00     0.049 A 
ATOM     65  H   UNL A   1      45.251  28.592  32.309  1.00  0.00     0.167 HD
ATOM     66  C   UNL A   1      44.869  28.197  29.298  1.00  0.00     0.074 A 
ATOM     67  C   UNL A   1      44.435  27.065  30.111  1.00  0.00     0.031 C 
ATOM     68  C   UNL A   1      45.077  29.510  29.609  1.00  0.00     0.037 A 
BRANCH  55  69
ATOM     69  C   UNL A   1      43.050  28.045  34.425  1.00  0.00     0.064 A 
ATOM     70  C   UNL A   1      43.318  28.445  35.745  1.00  0.00     0.173 A 
ATOM     71  C   UNL A   1      43.340  26.700  34.115  1.00  0.00     0.173 A 
ATOM     72  F   UNL A   1      43.109  29.715  36.126  1.00  0.00    -0.203 F 
ATOM     73  C   UNL A   1      43.872  27.569  36.678  1.00  0.00     0.198 A 
ATOM     74  C   UNL A   1      43.830  25.810  35.066  1.00  0.00     0.198 A 
ATOM     75  F   UNL A   1      43.264  26.230  32.862  1.00  0.00    -0.203 F 
ATOM     76  F   UNL A   1      44.213  28.020  37.892  1.00  0.00    -0.200 F 
ATOM     77  C   UNL A   1      44.122  26.250  36.340  1.00  0.00     0.200 A 
ATOM     78  F   UNL A   1      44.082  24.541  34.714  1.00  0.00    -0.200 F 
ATOM     79  F   UNL A   1      44.691  25.419  37.221  1.00  0.00    -0.200 F 
ENDBRANCH  55  69
BRANCH  56  80
ATOM     80  C   UNL A   1      42.664  25.126  26.470  1.00  0.00     0.064 A 
ATOM     81  C   UNL A   1      43.456  24.749  25.375  1.00  0.00     0.173 A 
ATOM     82  C   UNL A   1      41.954  24.101  27.124  1.00  0.00     0.173 A 
ATOM     83  F   UNL A   1      44.219  25.658  24.752  1.00  0.00    -0.203 F 
ATOM     84  C   UNL A   1      43.531  23.416  24.957  1.00  0.00     0.198 A 
ATOM     85  C   UNL A   1      42.056  22.771  26.724  1.00  0.00     0.198 A 
ATOM     86  F   UNL A   1      41.236  24.364  28.226  1.00  0.00    -0.203 F 
ATOM     87  F   UNL A   1      44.337  23.078  23.939  1.00  0.00    -0.200 F 
ATOM     88  C   UNL A   1      42.836  22.426  25.636  1.00  0.00     0.200 A 
ATOM     89  F   UNL A   1      41.434  21.817  27.434  1.00  0.00    -0.200 F 
ATOM     90  F   UNL A   1      42.955  21.141  25.274  1.00  0.00    -0.200 F 
ENDBRANCH  56  80
BRANCH  68  91
ATOM     91  C   UNL A   1      45.367  30.457  28.480  1.00  0.00     0.064 A 
ATOM     92  C   UNL A   1      44.373  31.137  27.753  1.00  0.00     0.173 A 
ATOM     93  C   UNL A   1      46.699  30.791  28.209  1.00  0.00     0.173 A 
ATOM     94  F   UNL A   1      43.075  30.959  28.028  1.00  0.00    -0.203 F 
ATOM     95  C   UNL A   1      44.699  32.065  26.767  1.00  0.00     0.198 A 
ATOM     96  C   UNL A   1      47.024  31.747  27.249  1.00  0.00     0.198 A 
ATOM     97  F   UNL A   1      47.691  30.220  28.910  1.00  0.00    -0.203 F 
ATOM     98  F   UNL A   1      43.728  32.687  26.082  1.00  0.00    -0.200 F 
ATOM     99  C   UNL A   1      46.025  32.374  26.520  1.00  0.00     0.200 A 
ATOM    100  F   UNL A   1      48.306  32.081  27.048  1.00  0.00    -0.200 F 
ATOM    101  F   UNL A   1      46.340  33.297  25.600  1.00  0.00    -0.200 F 
ENDBRANCH  68  91
ENDBRANCH  42  43
ENDBRANCH  34  37
ENDBRANCH  32  33
ENDBRANCH  31  32
ENDBRANCH  30  31
ENDBRANCH  29  30
ENDBRANCH   1  29
TORSDOF 19
ENDMDL
MODEL 3
REMARK VINA RESULT:     -11.7      5.557     10.211
REMARK SMILES Cc1ccc(C)c(OCC(=O)N[C@@H](Cc2ccccc2)C(=O)NCCCCCCNC(=O)c2ccc(-c3c4nc(c(-c5c(F)c(F)c(F)c(F)c5F)c5ccc([nH]5)c(-c5c(F)c(F)c(F)c(F)c5F)c5nc(c(-c6c(F)c(F)c(F)c(F)c6F)c6ccc3[nH]6)C=C5)C=C4)cc2)c1
REMARK SMILES IDX 25 1 24 2 23 3 21 4 22 5 13 7 12 8 10 9 11 10 9 12 8 13 7 14
REMARK SMILES IDX 1 15 2 16 3 17 96 18 4 19 5 20 6 21 14 22 15 23 16 24 20 25
REMARK SMILES IDX 17 26 19 27 18 28 26 29 27 30 28 31 29 32 30 33 31 34 32 36
REMARK SMILES IDX 33 37 34 38 95 39 35 40 94 41 36 42 37 43 38 44 88 45 39 46
REMARK SMILES IDX 93 47 87 48 89 49 40 50 92 51 86 52 85 53 41 55 73 56 53 57
REMARK SMILES IDX 72 58 54 59 57 60 71 61 90 62 55 63 56 64 70 66 91 67 58 68
REMARK SMILES IDX 42 69 43 70 51 71 44 72 45 73 49 74 52 75 46 76 47 77 50 78
REMARK SMILES IDX 48 79 74 80 75 81 83 82 76 83 77 84 81 85 84 86 78 87 79 88
REMARK SMILES IDX 82 89 80 90 59 91 60 92 68 93 61 94 62 95 66 96 69 97 63 98
REMARK SMILES IDX 64 99 67 100 65 101
REMARK H PARENT 23 6 12 11 30 35 89 54 57 65
REMARK Flexibility Score: inf
ROOT
ATOM      1  C   UNL A   1      41.701  28.782  32.699  1.00  0.00     0.021 C 
ENDROOT
BRANCH   1   2
ATOM      2  C   UNL A   1      40.994  30.131  32.675  1.00  0.00     0.116 C 
BRANCH   2   3
ATOM      3  N   UNL A   1      40.894  30.802  33.957  1.00  0.00    -0.354 N 
ATOM      4  C   UNL A   1      39.765  31.092  34.678  1.00  0.00     0.242 C 
ATOM      5  O   UNL A   1      39.861  31.041  35.910  1.00  0.00    -0.273 OA
ATOM      6  H   UNL A   1      41.746  31.085  34.360  1.00  0.00     0.163 HD
BRANCH   4   7
ATOM      7  C   UNL A   1      38.398  31.424  34.026  1.00  0.00     0.175 C 
BRANCH   7   8
ATOM      8  N   UNL A   1      37.565  30.224  33.946  1.00  0.00    -0.341 N 
ATOM      9  C   UNL A   1      37.633  29.308  32.932  1.00  0.00     0.258 C 
ATOM     10  O   UNL A   1      37.530  28.111  33.209  1.00  0.00    -0.271 OA
ATOM     11  H   UNL A   1      36.915  30.065  34.669  1.00  0.00     0.164 HD
BRANCH   9  12
ATOM     12  C   UNL A   1      37.854  29.772  31.487  1.00  0.00     0.329 C 
BRANCH  12  13
ATOM     13  O   UNL A   1      36.912  30.682  30.945  1.00  0.00    -0.483 OA
BRANCH  13  14
ATOM     14  C   UNL A   1      37.349  31.876  30.439  1.00  0.00     0.123 A 
ATOM     15  C   UNL A   1      40.347  34.239  30.314  1.00  0.00     0.044 C 
ATOM     16  C   UNL A   1      38.988  33.648  30.077  1.00  0.00    -0.047 A 
ATOM     17  C   UNL A   1      38.082  34.309  29.246  1.00  0.00     0.004 A 
ATOM     18  C   UNL A   1      38.609  32.439  30.682  1.00  0.00     0.050 A 
ATOM     19  C   UNL A   1      36.817  33.770  29.019  1.00  0.00     0.007 A 
ATOM     20  C   UNL A   1      36.441  32.552  29.604  1.00  0.00    -0.009 A 
ATOM     21  C   UNL A   1      35.060  32.027  29.321  1.00  0.00     0.048 C 
ENDBRANCH  13  14
ENDBRANCH  12  13
ENDBRANCH   9  12
ENDBRANCH   7   8
BRANCH   7  22
ATOM     22  C   UNL A   1      37.692  32.706  34.512  1.00  0.00     0.070 C 
BRANCH  22  23
ATOM     23  C   UNL A   1      36.602  33.329  33.677  1.00  0.00    -0.045 A 
ATOM     24  C   UNL A   1      35.396  32.652  33.444  1.00  0.00     0.004 A 
ATOM     25  C   UNL A   1      36.803  34.573  33.063  1.00  0.00     0.004 A 
ATOM     26  C   UNL A   1      34.395  33.234  32.661  1.00  0.00     0.000 A 
ATOM     27  C   UNL A   1      35.792  35.163  32.300  1.00  0.00     0.000 A 
ATOM     28  C   UNL A   1      34.584  34.499  32.109  1.00  0.00     0.000 A 
ENDBRANCH  22  23
ENDBRANCH   7  22
ENDBRANCH   4   7
ENDBRANCH   2   3
ENDBRANCH   1   2
BRANCH   1  29
ATOM     29  C   UNL A   1      41.939  28.162  34.083  1.00  0.00     0.002 C 
BRANCH  29  30
ATOM     30  C   UNL A   1      42.024  26.631  34.217  1.00  0.00     0.002 C 
BRANCH  30  31
ATOM     31  C   UNL A   1      41.547  25.933  35.498  1.00  0.00     0.021 C 
BRANCH  31  32
ATOM     32  C   UNL A   1      41.846  24.452  35.671  1.00  0.00     0.116 C 
BRANCH  32  33
ATOM     33  N   UNL A   1      42.994  24.162  36.533  1.00  0.00    -0.352 N 
ATOM     34  C   UNL A   1      44.347  24.016  36.295  1.00  0.00     0.251 C 
ATOM     35  H   UNL A   1      42.751  24.047  37.480  1.00  0.00     0.163 HD
ATOM     36  O   UNL A   1      45.065  23.555  37.182  1.00  0.00    -0.269 OA
BRANCH  34  37
ATOM     37  C   UNL A   1      44.965  24.419  35.013  1.00  0.00     0.039 A 
ATOM     38  C   UNL A   1      45.437  25.718  34.784  1.00  0.00     0.014 A 
ATOM     39  C   UNL A   1      44.798  23.602  33.910  1.00  0.00     0.014 A 
ATOM     40  C   UNL A   1      45.550  26.148  33.454  1.00  0.00     0.010 A 
ATOM     41  C   UNL A   1      45.480  23.866  32.768  1.00  0.00     0.010 A 
ATOM     42  C   UNL A   1      45.411  25.197  32.443  1.00  0.00    -0.014 A 
BRANCH  42  43
ATOM     43  C   UNL A   1      45.233  25.467  31.036  1.00  0.00     0.031 A 
ATOM     44  C   UNL A   1      46.244  26.361  30.448  1.00  0.00     0.074 A 
ATOM     45  C   UNL A   1      44.501  24.690  30.209  1.00  0.00     0.049 A 
ATOM     46  N   UNL A   1      46.070  27.584  30.088  1.00  0.00    -0.248 NA
ATOM     47  C   UNL A   1      47.636  25.893  30.369  1.00  0.00     0.031 C 
ATOM     48  C   UNL A   1      43.806  23.430  30.479  1.00  0.00     0.029 A 
ATOM     49  N   UNL A   1      44.334  24.848  28.869  1.00  0.00    -0.354 N 
ATOM     50  C   UNL A   1      47.298  28.006  29.603  1.00  0.00     0.074 A 
ATOM     51  C   UNL A   1      48.261  27.011  30.002  1.00  0.00     0.031 C 
ATOM     52  C   UNL A   1      43.467  22.846  29.303  1.00  0.00     0.029 A 
ATOM     53  C   UNL A   1      43.792  23.755  28.217  1.00  0.00     0.049 A 
ATOM     54  H   UNL A   1      44.579  25.677  28.399  1.00  0.00     0.167 HD
ATOM     55  C   UNL A   1      47.397  29.029  28.715  1.00  0.00     0.037 A 
ATOM     56  C   UNL A   1      43.698  23.602  26.874  1.00  0.00     0.037 A 
ATOM     57  C   UNL A   1      46.132  29.694  28.525  1.00  0.00     0.049 A 
ATOM     58  C   UNL A   1      43.855  24.939  26.245  1.00  0.00     0.074 A 
ATOM     59  C   UNL A   1      45.244  30.335  29.369  1.00  0.00     0.029 A 
ATOM     60  N   UNL A   1      45.410  29.389  27.393  1.00  0.00    -0.354 N 
ATOM     61  N   UNL A   1      42.981  25.902  26.347  1.00  0.00    -0.248 NA
ATOM     62  C   UNL A   1      45.198  25.360  25.867  1.00  0.00     0.031 C 
ATOM     63  C   UNL A   1      43.949  29.939  28.915  1.00  0.00     0.029 A 
ATOM     64  C   UNL A   1      44.124  29.125  27.797  1.00  0.00     0.049 A 
ATOM     65  H   UNL A   1      45.751  29.365  26.470  1.00  0.00     0.167 HD
ATOM     66  C   UNL A   1      43.741  27.056  26.478  1.00  0.00     0.074 A 
ATOM     67  C   UNL A   1      45.089  26.676  26.070  1.00  0.00     0.031 C 
ATOM     68  C   UNL A   1      43.277  28.128  27.185  1.00  0.00     0.037 A 
BRANCH  55  69
ATOM     69  C   UNL A   1      48.556  29.231  27.788  1.00  0.00     0.064 A 
ATOM     70  C   UNL A   1      48.850  28.241  26.835  1.00  0.00     0.173 A 
ATOM     71  C   UNL A   1      49.522  30.245  27.946  1.00  0.00     0.173 A 
ATOM     72  F   UNL A   1      48.008  27.214  26.638  1.00  0.00    -0.203 F 
ATOM     73  C   UNL A   1      50.046  28.247  26.118  1.00  0.00     0.198 A 
ATOM     74  C   UNL A   1      50.684  30.287  27.181  1.00  0.00     0.198 A 
ATOM     75  F   UNL A   1      49.430  31.166  28.915  1.00  0.00    -0.203 F 
ATOM     76  F   UNL A   1      50.335  27.227  25.300  1.00  0.00    -0.200 F 
ATOM     77  C   UNL A   1      50.960  29.273  26.287  1.00  0.00     0.200 A 
ATOM     78  F   UNL A   1      51.565  31.279  27.372  1.00  0.00    -0.200 F 
ATOM     79  F   UNL A   1      52.126  29.260  25.630  1.00  0.00    -0.200 F 
ENDBRANCH  55  69
BRANCH  56  80
ATOM     80  C   UNL A   1      43.884  22.352  26.110  1.00  0.00     0.064 A 
ATOM     81  C   UNL A   1      45.161  21.873  25.780  1.00  0.00     0.173 A 
ATOM     82  C   UNL A   1      42.810  21.454  25.957  1.00  0.00     0.173 A 
ATOM     83  F   UNL A   1      46.239  22.647  25.973  1.00  0.00    -0.203 F 
ATOM     84  C   UNL A   1      45.351  20.565  25.321  1.00  0.00     0.198 A 
ATOM     85  C   UNL A   1      43.008  20.143  25.529  1.00  0.00     0.198 A 
ATOM     86  F   UNL A   1      41.568  21.806  26.323  1.00  0.00    -0.203 F 
ATOM     87  F   UNL A   1      46.590  20.120  25.063  1.00  0.00    -0.200 F 
ATOM     88  C   UNL A   1      44.275  19.699  25.202  1.00  0.00     0.200 A 
ATOM     89  F   UNL A   1      41.967  19.296  25.488  1.00  0.00    -0.200 F 
ATOM     90  F   UNL A   1      44.464  18.428  24.821  1.00  0.00    -0.200 F 
ENDBRANCH  56  80
BRANCH  68  91
ATOM     91  C   UNL A   1      41.827  28.128  27.579  1.00  0.00     0.064 A 
ATOM     92  C   UNL A   1      41.346  27.609  28.794  1.00  0.00     0.173 A 
ATOM     93  C   UNL A   1      40.908  28.795  26.760  1.00  0.00     0.173 A 
ATOM     94  F   UNL A   1      42.178  27.056  29.685  1.00  0.00    -0.203 F 
ATOM     95  C   UNL A   1      40.002  27.705  29.146  1.00  0.00     0.198 A 
ATOM     96  C   UNL A   1      39.571  28.924  27.129  1.00  0.00     0.198 A 
ATOM     97  F   UNL A   1      41.318  29.364  25.615  1.00  0.00    -0.203 F 
ATOM     98  F   UNL A   1      39.571  27.187  30.305  1.00  0.00    -0.200 F 
ATOM     99  C   UNL A   1      39.116  28.369  28.315  1.00  0.00     0.200 A 
ATOM    100  F   UNL A   1      38.728  29.612  26.347  1.00  0.00    -0.200 F 
ATOM    101  F   UNL A   1      37.830  28.499  28.670  1.00  0.00    -0.200 F 
ENDBRANCH  68  91
ENDBRANCH  42  43
ENDBRANCH  34  37
ENDBRANCH  32  33
ENDBRANCH  31  32
ENDBRANCH  30  31
ENDBRANCH  29  30
ENDBRANCH   1  29
TORSDOF 19
ENDMDL
