MODEL 1
REMARK VINA RESULT:     -12.1      0.000      0.000
REMARK SMILES O=C(C[C@H]1CN(S(=O)(=O)c2cc(F)cc(F)c2)CCO1)NCCCCCCNC(=O)c1ccc(-c2c3nc(c(-c4c(F)c(F)c(F)c(F)c4F)c4ccc([nH]4)c(-c4c(F)c(F)c(F)c(F)c4F)c4nc(c(-c5c(F)c(F)c(F)c(F)c5F)c5ccc2[nH]5)C=C4)C=C3)cc1
REMARK SMILES IDX 24 1 23 2 22 3 21 4 1 5 2 6 3 8 4 9 5 10 20 11 6 12 19 13
REMARK SMILES IDX 18 14 7 15 8 16 9 17 10 18 11 19 17 20 12 21 15 22 13 23
REMARK SMILES IDX 14 24 16 25 25 26 26 27 27 28 28 29 29 30 30 32 31 33 32 34
REMARK SMILES IDX 93 35 33 36 92 37 34 38 35 39 36 40 86 41 37 42 91 43 85 44
REMARK SMILES IDX 87 45 38 46 90 47 84 48 83 49 39 51 71 52 51 53 70 54 52 55
REMARK SMILES IDX 55 56 69 57 88 58 53 59 54 60 68 62 89 63 56 64 40 65 41 66
REMARK SMILES IDX 49 67 42 68 43 69 47 70 50 71 44 72 45 73 48 74 46 75 72 76
REMARK SMILES IDX 73 77 81 78 74 79 75 80 79 81 82 82 76 83 77 84 80 85 78 86
REMARK SMILES IDX 57 87 58 88 66 89 59 90 60 91 64 92 67 93 61 94 62 95 65 96
REMARK SMILES IDX 63 97
REMARK H PARENT 21 7 28 31 87 50 55 61
REMARK Flexibility Score: inf
ROOT
ATOM      1  C   UNL A   1      37.637  22.320  25.299  1.00  0.00     0.002 C 
ENDROOT
BRANCH   1   2
ATOM      2  C   UNL A   1      36.882  23.552  24.774  1.00  0.00     0.021 C 
BRANCH   2   3
ATOM      3  C   UNL A   1      36.006  24.070  25.898  1.00  0.00     0.116 C 
BRANCH   3   4
ATOM      4  N   UNL A   1      34.578  24.149  25.766  1.00  0.00    -0.356 N 
ATOM      5  O   UNL A   1      34.070  26.346  25.925  1.00  0.00    -0.275 OA
ATOM      6  C   UNL A   1      34.014  25.306  25.285  1.00  0.00     0.222 C 
ATOM      7  H   UNL A   1      34.010  23.385  26.017  1.00  0.00     0.163 HD
BRANCH   6   8
ATOM      8  C   UNL A   1      33.276  25.186  23.955  1.00  0.00     0.133 C 
BRANCH   8   9
ATOM      9  C   UNL A   1      31.833  24.618  23.889  1.00  0.00     0.142 C 
ATOM     10  C   UNL A   1      31.599  23.107  23.759  1.00  0.00     0.135 C 
ATOM     11  O   UNL A   1      30.917  25.159  24.861  1.00  0.00    -0.375 OA
ATOM     12  N   UNL A   1      31.845  22.434  25.041  1.00  0.00    -0.193 NA
ATOM     13  C   UNL A   1      30.981  24.531  26.141  1.00  0.00     0.177 C 
ATOM     14  C   UNL A   1      31.057  22.980  26.167  1.00  0.00     0.131 C 
BRANCH  12  15
ATOM     15  S   UNL A   1      33.125  21.361  25.188  1.00  0.00     0.243 S 
ATOM     16  O   UNL A   1      34.091  21.657  24.146  1.00  0.00    -0.207 OA
ATOM     17  O   UNL A   1      33.469  21.251  26.584  1.00  0.00    -0.207 OA
BRANCH  15  18
ATOM     18  C   UNL A   1      32.572  19.744  24.704  1.00  0.00     0.088 A 
ATOM     19  C   UNL A   1      32.354  19.483  23.350  1.00  0.00     0.061 A 
ATOM     20  C   UNL A   1      32.828  18.697  25.601  1.00  0.00     0.061 A 
ATOM     21  C   UNL A   1      32.455  18.170  22.899  1.00  0.00     0.127 A 
ATOM     22  C   UNL A   1      32.937  17.401  25.115  1.00  0.00     0.127 A 
ATOM     23  F   UNL A   1      32.331  17.917  21.590  1.00  0.00    -0.207 F 
ATOM     24  C   UNL A   1      32.765  17.128  23.766  1.00  0.00     0.078 A 
ATOM     25  F   UNL A   1      33.295  16.418  25.950  1.00  0.00    -0.207 F 
ENDBRANCH  15  18
ENDBRANCH  12  15
ENDBRANCH   8   9
ENDBRANCH   6   8
ENDBRANCH   3   4
ENDBRANCH   2   3
ENDBRANCH   1   2
BRANCH   1  26
ATOM     26  C   UNL A   1      37.270  20.989  24.600  1.00  0.00     0.002 C 
BRANCH  26  27
ATOM     27  C   UNL A   1      38.180  19.803  24.907  1.00  0.00     0.021 C 
BRANCH  27  28
ATOM     28  C   UNL A   1      39.179  20.058  26.024  1.00  0.00     0.116 C 
BRANCH  28  29
ATOM     29  N   UNL A   1      40.305  19.133  25.990  1.00  0.00    -0.352 N 
ATOM     30  C   UNL A   1      41.644  19.390  26.081  1.00  0.00     0.251 C 
ATOM     31  H   UNL A   1      40.066  18.184  25.886  1.00  0.00     0.163 HD
ATOM     32  O   UNL A   1      42.466  18.497  25.913  1.00  0.00    -0.269 OA
BRANCH  30  33
ATOM     33  C   UNL A   1      42.084  20.763  26.366  1.00  0.00     0.039 A 
ATOM     34  C   UNL A   1      42.379  21.110  27.684  1.00  0.00     0.014 A 
ATOM     35  C   UNL A   1      42.208  21.694  25.331  1.00  0.00     0.014 A 
ATOM     36  C   UNL A   1      42.825  22.397  27.962  1.00  0.00     0.010 A 
ATOM     37  C   UNL A   1      42.742  22.944  25.595  1.00  0.00     0.010 A 
ATOM     38  C   UNL A   1      43.022  23.314  26.917  1.00  0.00    -0.014 A 
BRANCH  38  39
ATOM     39  C   UNL A   1      43.464  24.695  27.196  1.00  0.00     0.031 A 
ATOM     40  C   UNL A   1      42.488  25.680  27.766  1.00  0.00     0.074 A 
ATOM     41  C   UNL A   1      44.722  25.058  26.893  1.00  0.00     0.049 A 
ATOM     42  N   UNL A   1      42.667  26.942  28.064  1.00  0.00    -0.248 NA
ATOM     43  C   UNL A   1      41.117  25.198  28.002  1.00  0.00     0.031 C 
ATOM     44  C   UNL A   1      45.725  24.188  26.278  1.00  0.00     0.029 A 
ATOM     45  N   UNL A   1      45.370  26.254  27.060  1.00  0.00    -0.354 N 
ATOM     46  C   UNL A   1      41.431  27.400  28.498  1.00  0.00     0.074 A 
ATOM     47  C   UNL A   1      40.495  26.308  28.364  1.00  0.00     0.031 C 
ATOM     48  C   UNL A   1      46.875  24.869  26.153  1.00  0.00     0.029 A 
ATOM     49  C   UNL A   1      46.678  26.228  26.649  1.00  0.00     0.049 A 
ATOM     50  H   UNL A   1      44.938  27.054  27.438  1.00  0.00     0.167 HD
ATOM     51  C   UNL A   1      41.119  28.617  28.998  1.00  0.00     0.037 A 
ATOM     52  C   UNL A   1      47.613  27.196  26.676  1.00  0.00     0.037 A 
ATOM     53  C   UNL A   1      42.077  29.675  29.167  1.00  0.00     0.049 A 
ATOM     54  C   UNL A   1      47.251  28.536  27.250  1.00  0.00     0.074 A 
ATOM     55  C   UNL A   1      41.898  30.912  29.756  1.00  0.00     0.029 A 
ATOM     56  N   UNL A   1      43.397  29.615  28.742  1.00  0.00    -0.354 N 
ATOM     57  N   UNL A   1      46.106  28.936  27.748  1.00  0.00    -0.248 NA
ATOM     58  C   UNL A   1      48.305  29.560  27.268  1.00  0.00     0.031 C 
ATOM     59  C   UNL A   1      43.097  31.623  29.638  1.00  0.00     0.029 A 
ATOM     60  C   UNL A   1      44.037  30.810  29.022  1.00  0.00     0.049 A 
ATOM     61  H   UNL A   1      43.817  28.838  28.307  1.00  0.00     0.167 HD
ATOM     62  C   UNL A   1      46.299  30.250  28.147  1.00  0.00     0.074 A 
ATOM     63  C   UNL A   1      47.680  30.576  27.850  1.00  0.00     0.031 C 
ATOM     64  C   UNL A   1      45.412  31.111  28.704  1.00  0.00     0.037 A 
BRANCH  51  65
ATOM     65  C   UNL A   1      39.695  28.863  29.401  1.00  0.00     0.064 A 
ATOM     66  C   UNL A   1      38.772  29.372  28.475  1.00  0.00     0.173 A 
ATOM     67  C   UNL A   1      39.244  28.619  30.708  1.00  0.00     0.173 A 
ATOM     68  F   UNL A   1      39.149  29.626  27.213  1.00  0.00    -0.203 F 
ATOM     69  C   UNL A   1      37.453  29.628  28.844  1.00  0.00     0.198 A 
ATOM     70  C   UNL A   1      37.917  28.844  31.064  1.00  0.00     0.198 A 
ATOM     71  F   UNL A   1      40.083  28.120  31.629  1.00  0.00    -0.203 F 
ATOM     72  F   UNL A   1      36.596  30.135  27.948  1.00  0.00    -0.200 F 
ATOM     73  C   UNL A   1      37.025  29.355  30.134  1.00  0.00     0.200 A 
ATOM     74  F   UNL A   1      37.499  28.550  32.302  1.00  0.00    -0.200 F 
ATOM     75  F   UNL A   1      35.750  29.579  30.480  1.00  0.00    -0.200 F 
ENDBRANCH  51  65
BRANCH  52  76
ATOM     76  C   UNL A   1      48.982  26.891  26.189  1.00  0.00     0.064 A 
ATOM     77  C   UNL A   1      49.350  27.124  24.855  1.00  0.00     0.173 A 
ATOM     78  C   UNL A   1      49.921  26.278  27.028  1.00  0.00     0.173 A 
ATOM     79  F   UNL A   1      48.481  27.697  24.009  1.00  0.00    -0.203 F 
ATOM     80  C   UNL A   1      50.596  26.729  24.373  1.00  0.00     0.198 A 
ATOM     81  C   UNL A   1      51.176  25.904  26.551  1.00  0.00     0.198 A 
ATOM     82  F   UNL A   1      49.618  26.046  28.314  1.00  0.00    -0.203 F 
ATOM     83  F   UNL A   1      50.905  26.920  23.084  1.00  0.00    -0.200 F 
ATOM     84  C   UNL A   1      51.507  26.119  25.221  1.00  0.00     0.200 A 
ATOM     85  F   UNL A   1      52.059  25.327  27.377  1.00  0.00    -0.200 F 
ATOM     86  F   UNL A   1      52.704  25.733  24.757  1.00  0.00    -0.200 F 
ENDBRANCH  52  76
BRANCH  64  87
ATOM     87  C   UNL A   1      45.891  32.496  29.020  1.00  0.00     0.064 A 
ATOM     88  C   UNL A   1      45.804  33.517  28.062  1.00  0.00     0.173 A 
ATOM     89  C   UNL A   1      46.538  32.779  30.231  1.00  0.00     0.173 A 
ATOM     90  F   UNL A   1      45.202  33.290  26.885  1.00  0.00    -0.203 F 
ATOM     91  C   UNL A   1      46.377  34.764  28.294  1.00  0.00     0.198 A 
ATOM     92  C   UNL A   1      47.085  34.036  30.470  1.00  0.00     0.198 A 
ATOM     93  F   UNL A   1      46.633  31.838  31.183  1.00  0.00    -0.203 F 
ATOM     94  F   UNL A   1      46.325  35.709  27.346  1.00  0.00    -0.200 F 
ATOM     95  C   UNL A   1      47.015  35.023  29.498  1.00  0.00     0.200 A 
ATOM     96  F   UNL A   1      47.684  34.293  31.642  1.00  0.00    -0.200 F 
ATOM     97  F   UNL A   1      47.567  36.223  29.719  1.00  0.00    -0.200 F 
ENDBRANCH  64  87
ENDBRANCH  38  39
ENDBRANCH  30  33
ENDBRANCH  28  29
ENDBRANCH  27  28
ENDBRANCH  26  27
ENDBRANCH   1  26
TORSDOF 16
ENDMDL
MODEL 2
REMARK VINA RESULT:     -12.1      3.599      8.888
REMARK SMILES O=C(C[C@H]1CN(S(=O)(=O)c2cc(F)cc(F)c2)CCO1)NCCCCCCNC(=O)c1ccc(-c2c3nc(c(-c4c(F)c(F)c(F)c(F)c4F)c4ccc([nH]4)c(-c4c(F)c(F)c(F)c(F)c4F)c4nc(c(-c5c(F)c(F)c(F)c(F)c5F)c5ccc2[nH]5)C=C4)C=C3)cc1
REMARK SMILES IDX 24 1 23 2 22 3 21 4 1 5 2 6 3 8 4 9 5 10 20 11 6 12 19 13
REMARK SMILES IDX 18 14 7 15 8 16 9 17 10 18 11 19 17 20 12 21 15 22 13 23
REMARK SMILES IDX 14 24 16 25 25 26 26 27 27 28 28 29 29 30 30 32 31 33 32 34
REMARK SMILES IDX 93 35 33 36 92 37 34 38 35 39 36 40 86 41 37 42 91 43 85 44
REMARK SMILES IDX 87 45 38 46 90 47 84 48 83 49 39 51 71 52 51 53 70 54 52 55
REMARK SMILES IDX 55 56 69 57 88 58 53 59 54 60 68 62 89 63 56 64 40 65 41 66
REMARK SMILES IDX 49 67 42 68 43 69 47 70 50 71 44 72 45 73 48 74 46 75 72 76
REMARK SMILES IDX 73 77 81 78 74 79 75 80 79 81 82 82 76 83 77 84 80 85 78 86
REMARK SMILES IDX 57 87 58 88 66 89 59 90 60 91 64 92 67 93 61 94 62 95 65 96
REMARK SMILES IDX 63 97
REMARK H PARENT 21 7 28 31 87 50 55 61
REMARK Flexibility Score: inf
ROOT
ATOM      1  C   UNL A   1      34.728  21.322  24.696  1.00  0.00     0.002 C 
ENDROOT
BRANCH   1   2
ATOM      2  C   UNL A   1      33.494  20.405  24.671  1.00  0.00     0.021 C 
BRANCH   2   3
ATOM      3  C   UNL A   1      32.605  20.797  25.834  1.00  0.00     0.116 C 
BRANCH   3   4
ATOM      4  N   UNL A   1      31.499  21.699  25.670  1.00  0.00    -0.356 N 
ATOM      5  O   UNL A   1      31.550  23.065  27.469  1.00  0.00    -0.275 OA
ATOM      6  C   UNL A   1      31.557  22.942  26.253  1.00  0.00     0.222 C 
ATOM      7  H   UNL A   1      30.710  21.430  25.146  1.00  0.00     0.163 HD
BRANCH   6   8
ATOM      8  C   UNL A   1      31.566  24.128  25.295  1.00  0.00     0.133 C 
BRANCH   8   9
ATOM      9  C   UNL A   1      31.345  23.929  23.772  1.00  0.00     0.142 C 
ATOM     10  C   UNL A   1      30.805  25.079  22.910  1.00  0.00     0.135 C 
ATOM     11  O   UNL A   1      32.426  23.280  23.076  1.00  0.00    -0.375 OA
ATOM     12  N   UNL A   1      31.854  26.077  22.665  1.00  0.00    -0.193 NA
ATOM     13  C   UNL A   1      33.486  24.155  22.690  1.00  0.00     0.177 C 
ATOM     14  C   UNL A   1      33.086  25.520  22.065  1.00  0.00     0.131 C 
BRANCH  12  15
ATOM     15  S   UNL A   1      31.704  27.619  23.305  1.00  0.00     0.243 S 
ATOM     16  O   UNL A   1      32.643  28.491  22.623  1.00  0.00    -0.207 OA
ATOM     17  O   UNL A   1      30.300  27.917  23.448  1.00  0.00    -0.207 OA
BRANCH  15  18
ATOM     18  C   UNL A   1      32.362  27.618  24.956  1.00  0.00     0.088 A 
ATOM     19  C   UNL A   1      33.672  28.054  25.158  1.00  0.00     0.061 A 
ATOM     20  C   UNL A   1      31.431  27.641  26.004  1.00  0.00     0.061 A 
ATOM     21  C   UNL A   1      34.019  28.565  26.406  1.00  0.00     0.127 A 
ATOM     22  C   UNL A   1      31.806  28.171  27.230  1.00  0.00     0.127 A 
ATOM     23  F   UNL A   1      35.248  29.063  26.589  1.00  0.00    -0.207 F 
ATOM     24  C   UNL A   1      33.092  28.647  27.439  1.00  0.00     0.078 A 
ATOM     25  F   UNL A   1      30.887  28.299  28.196  1.00  0.00    -0.207 F 
ENDBRANCH  15  18
ENDBRANCH  12  15
ENDBRANCH   8   9
ENDBRANCH   6   8
ENDBRANCH   3   4
ENDBRANCH   2   3
ENDBRANCH   1   2
BRANCH   1  26
ATOM     26  C   UNL A   1      35.143  21.811  26.104  1.00  0.00     0.002 C 
BRANCH  26  27
ATOM     27  C   UNL A   1      35.393  23.310  26.240  1.00  0.00     0.021 C 
BRANCH  27  28
ATOM     28  C   UNL A   1      36.752  23.763  25.734  1.00  0.00     0.116 C 
BRANCH  28  29
ATOM     29  N   UNL A   1      37.782  22.747  25.909  1.00  0.00    -0.352 N 
ATOM     30  C   UNL A   1      39.051  22.870  26.401  1.00  0.00     0.251 C 
ATOM     31  H   UNL A   1      37.527  21.837  25.630  1.00  0.00     0.163 HD
ATOM     32  O   UNL A   1      39.831  21.926  26.367  1.00  0.00    -0.269 OA
BRANCH  30  33
ATOM     33  C   UNL A   1      39.472  24.164  26.958  1.00  0.00     0.039 A 
ATOM     34  C   UNL A   1      40.095  25.083  26.114  1.00  0.00     0.014 A 
ATOM     35  C   UNL A   1      39.243  24.461  28.304  1.00  0.00     0.014 A 
ATOM     36  C   UNL A   1      40.471  26.321  26.621  1.00  0.00     0.010 A 
ATOM     37  C   UNL A   1      39.531  25.728  28.784  1.00  0.00     0.010 A 
ATOM     38  C   UNL A   1      40.178  26.654  27.954  1.00  0.00    -0.014 A 
BRANCH  38  39
ATOM     39  C   UNL A   1      40.598  27.951  28.519  1.00  0.00     0.031 A 
ATOM     40  C   UNL A   1      42.044  28.183  28.839  1.00  0.00     0.074 A 
ATOM     41  C   UNL A   1      39.669  28.888  28.780  1.00  0.00     0.049 A 
ATOM     42  N   UNL A   1      42.616  29.238  29.358  1.00  0.00    -0.248 NA
ATOM     43  C   UNL A   1      42.970  27.069  28.575  1.00  0.00     0.031 C 
ATOM     44  C   UNL A   1      38.231  28.732  28.562  1.00  0.00     0.029 A 
ATOM     45  N   UNL A   1      39.798  30.155  29.286  1.00  0.00    -0.354 N 
ATOM     46  C   UNL A   1      43.956  28.904  29.498  1.00  0.00     0.074 A 
ATOM     47  C   UNL A   1      44.104  27.531  29.075  1.00  0.00     0.031 C 
ATOM     48  C   UNL A   1      37.612  29.875  28.898  1.00  0.00     0.029 A 
ATOM     49  C   UNL A   1      38.607  30.828  29.383  1.00  0.00     0.049 A 
ATOM     50  H   UNL A   1      40.662  30.544  29.554  1.00  0.00     0.167 HD
ATOM     51  C   UNL A   1      44.975  29.691  29.910  1.00  0.00     0.037 A 
ATOM     52  C   UNL A   1      38.351  32.078  29.812  1.00  0.00     0.037 A 
ATOM     53  C   UNL A   1      44.814  31.070  30.281  1.00  0.00     0.049 A 
ATOM     54  C   UNL A   1      39.500  32.941  30.251  1.00  0.00     0.074 A 
ATOM     55  C   UNL A   1      45.788  31.991  30.616  1.00  0.00     0.029 A 
ATOM     56  N   UNL A   1      43.592  31.723  30.365  1.00  0.00    -0.354 N 
ATOM     57  N   UNL A   1      40.778  32.653  30.291  1.00  0.00    -0.248 NA
ATOM     58  C   UNL A   1      39.176  34.301  30.702  1.00  0.00     0.031 C 
ATOM     59  C   UNL A   1      45.150  33.187  30.957  1.00  0.00     0.029 A 
ATOM     60  C   UNL A   1      43.784  33.028  30.786  1.00  0.00     0.049 A 
ATOM     61  H   UNL A   1      42.719  31.319  30.157  1.00  0.00     0.167 HD
ATOM     62  C   UNL A   1      41.414  33.791  30.763  1.00  0.00     0.074 A 
ATOM     63  C   UNL A   1      40.381  34.786  30.976  1.00  0.00     0.031 C 
ATOM     64  C   UNL A   1      42.734  33.994  31.001  1.00  0.00     0.037 A 
BRANCH  51  65
ATOM     65  C   UNL A   1      46.346  29.083  29.972  1.00  0.00     0.064 A 
ATOM     66  C   UNL A   1      46.815  28.508  31.164  1.00  0.00     0.173 A 
ATOM     67  C   UNL A   1      47.208  29.088  28.865  1.00  0.00     0.173 A 
ATOM     68  F   UNL A   1      46.034  28.479  32.255  1.00  0.00    -0.203 F 
ATOM     69  C   UNL A   1      48.094  27.963  31.242  1.00  0.00     0.198 A 
ATOM     70  C   UNL A   1      48.474  28.513  28.937  1.00  0.00     0.198 A 
ATOM     71  F   UNL A   1      46.805  29.614  27.698  1.00  0.00    -0.203 F 
ATOM     72  F   UNL A   1      48.527  27.440  32.397  1.00  0.00    -0.200 F 
ATOM     73  C   UNL A   1      48.918  27.957  30.127  1.00  0.00     0.200 A 
ATOM     74  F   UNL A   1      49.256  28.480  27.849  1.00  0.00    -0.200 F 
ATOM     75  F   UNL A   1      50.139  27.410  30.198  1.00  0.00    -0.200 F 
ENDBRANCH  51  65
BRANCH  52  76
ATOM     76  C   UNL A   1      36.954  32.578  29.786  1.00  0.00     0.064 A 
ATOM     77  C   UNL A   1      36.452  33.285  28.683  1.00  0.00     0.173 A 
ATOM     78  C   UNL A   1      36.122  32.436  30.903  1.00  0.00     0.173 A 
ATOM     79  F   UNL A   1      37.216  33.459  27.593  1.00  0.00    -0.203 F 
ATOM     80  C   UNL A   1      35.180  33.853  28.710  1.00  0.00     0.198 A 
ATOM     81  C   UNL A   1      34.841  32.985  30.921  1.00  0.00     0.198 A 
ATOM     82  F   UNL A   1      36.554  31.758  31.977  1.00  0.00    -0.203 F 
ATOM     83  F   UNL A   1      34.744  34.563  27.661  1.00  0.00    -0.200 F 
ATOM     84  C   UNL A   1      34.377  33.702  29.829  1.00  0.00     0.200 A 
ATOM     85  F   UNL A   1      34.061  32.825  31.999  1.00  0.00    -0.200 F 
ATOM     86  F   UNL A   1      33.156  34.254  29.858  1.00  0.00    -0.200 F 
ENDBRANCH  52  76
BRANCH  64  87
ATOM     87  C   UNL A   1      43.146  35.333  31.534  1.00  0.00     0.064 A 
ATOM     88  C   UNL A   1      43.619  36.331  30.669  1.00  0.00     0.173 A 
ATOM     89  C   UNL A   1      43.181  35.584  32.913  1.00  0.00     0.173 A 
ATOM     90  F   UNL A   1      43.615  36.133  29.342  1.00  0.00    -0.203 F 
ATOM     91  C   UNL A   1      44.139  37.521  31.168  1.00  0.00     0.198 A 
ATOM     92  C   UNL A   1      43.676  36.787  33.407  1.00  0.00     0.198 A 
ATOM     93  F   UNL A   1      42.727  34.663  33.778  1.00  0.00    -0.203 F 
ATOM     94  F   UNL A   1      44.630  38.441  30.326  1.00  0.00    -0.200 F 
ATOM     95  C   UNL A   1      44.166  37.748  32.536  1.00  0.00     0.200 A 
ATOM     96  F   UNL A   1      43.683  37.014  34.728  1.00  0.00    -0.200 F 
ATOM     97  F   UNL A   1      44.668  38.894  33.016  1.00  0.00    -0.200 F 
ENDBRANCH  64  87
ENDBRANCH  38  39
ENDBRANCH  30  33
ENDBRANCH  28  29
ENDBRANCH  27  28
ENDBRANCH  26  27
ENDBRANCH   1  26
TORSDOF 16
ENDMDL
MODEL 3
REMARK VINA RESULT:     -12.0      5.393      9.614
REMARK SMILES O=C(C[C@H]1CN(S(=O)(=O)c2cc(F)cc(F)c2)CCO1)NCCCCCCNC(=O)c1ccc(-c2c3nc(c(-c4c(F)c(F)c(F)c(F)c4F)c4ccc([nH]4)c(-c4c(F)c(F)c(F)c(F)c4F)c4nc(c(-c5c(F)c(F)c(F)c(F)c5F)c5ccc2[nH]5)C=C4)C=C3)cc1
REMARK SMILES IDX 24 1 23 2 22 3 21 4 1 5 2 6 3 8 4 9 5 10 20 11 6 12 19 13
REMARK SMILES IDX 18 14 7 15 8 16 9 17 10 18 11 19 17 20 12 21 15 22 13 23
REMARK SMILES IDX 14 24 16 25 25 26 26 27 27 28 28 29 29 30 30 32 31 33 32 34
REMARK SMILES IDX 93 35 33 36 92 37 34 38 35 39 36 40 86 41 37 42 91 43 85 44
REMARK SMILES IDX 87 45 38 46 90 47 84 48 83 49 39 51 71 52 51 53 70 54 52 55
REMARK SMILES IDX 55 56 69 57 88 58 53 59 54 60 68 62 89 63 56 64 40 65 41 66
REMARK SMILES IDX 49 67 42 68 43 69 47 70 50 71 44 72 45 73 48 74 46 75 72 76
REMARK SMILES IDX 73 77 81 78 74 79 75 80 79 81 82 82 76 83 77 84 80 85 78 86
REMARK SMILES IDX 57 87 58 88 66 89 59 90 60 91 64 92 67 93 61 94 62 95 65 96
REMARK SMILES IDX 63 97
REMARK H PARENT 21 7 28 31 87 50 55 61
REMARK Flexibility Score: inf
ROOT
ATOM      1  C   UNL A   1      32.830  29.955  27.076  1.00  0.00     0.002 C 
ENDROOT
BRANCH   1   2
ATOM      2  C   UNL A   1      32.814  28.436  27.312  1.00  0.00     0.021 C 
BRANCH   2   3
ATOM      3  C   UNL A   1      31.517  27.894  26.742  1.00  0.00     0.116 C 
BRANCH   3   4
ATOM      4  N   UNL A   1      31.034  26.583  27.076  1.00  0.00    -0.356 N 
ATOM      5  O   UNL A   1      29.670  25.981  25.378  1.00  0.00    -0.275 OA
ATOM      6  C   UNL A   1      30.649  25.734  26.067  1.00  0.00     0.222 C 
ATOM      7  H   UNL A   1      30.980  26.297  28.017  1.00  0.00     0.163 HD
BRANCH   6   8
ATOM      8  C   UNL A   1      31.475  24.461  25.915  1.00  0.00     0.133 C 
BRANCH   8   9
ATOM      9  C   UNL A   1      30.979  23.286  25.031  1.00  0.00     0.142 C 
ATOM     10  C   UNL A   1      31.070  23.374  23.501  1.00  0.00     0.135 C 
ATOM     11  O   UNL A   1      31.403  21.977  25.458  1.00  0.00    -0.375 OA
ATOM     12  N   UNL A   1      32.455  23.174  23.054  1.00  0.00    -0.193 NA
ATOM     13  C   UNL A   1      32.708  21.608  25.014  1.00  0.00     0.177 C 
ATOM     14  C   UNL A   1      33.066  21.916  23.533  1.00  0.00     0.131 C 
BRANCH  12  15
ATOM     15  S   UNL A   1      33.285  24.435  22.324  1.00  0.00     0.243 S 
ATOM     16  O   UNL A   1      34.664  24.396  22.775  1.00  0.00    -0.207 OA
ATOM     17  O   UNL A   1      32.903  24.488  20.935  1.00  0.00    -0.207 OA
BRANCH  15  18
ATOM     18  C   UNL A   1      32.729  25.968  23.031  1.00  0.00     0.088 A 
ATOM     19  C   UNL A   1      33.653  26.782  23.687  1.00  0.00     0.061 A 
ATOM     20  C   UNL A   1      31.546  26.509  22.507  1.00  0.00     0.061 A 
ATOM     21  C   UNL A   1      33.404  28.149  23.760  1.00  0.00     0.127 A 
ATOM     22  C   UNL A   1      31.336  27.878  22.585  1.00  0.00     0.127 A 
ATOM     23  F   UNL A   1      34.321  28.952  24.314  1.00  0.00    -0.207 F 
ATOM     24  C   UNL A   1      32.262  28.709  23.197  1.00  0.00     0.078 A 
ATOM     25  F   UNL A   1      30.263  28.410  21.986  1.00  0.00    -0.207 F 
ENDBRANCH  15  18
ENDBRANCH  12  15
ENDBRANCH   8   9
ENDBRANCH   6   8
ENDBRANCH   3   4
ENDBRANCH   2   3
ENDBRANCH   1   2
BRANCH   1  26
ATOM     26  C   UNL A   1      31.520  30.532  26.486  1.00  0.00     0.002 C 
BRANCH  26  27
ATOM     27  C   UNL A   1      31.399  32.054  26.502  1.00  0.00     0.021 C 
BRANCH  27  28
ATOM     28  C   UNL A   1      32.682  32.777  26.876  1.00  0.00     0.116 C 
BRANCH  28  29
ATOM     29  N   UNL A   1      32.434  34.061  27.520  1.00  0.00    -0.352 N 
ATOM     30  C   UNL A   1      33.051  34.624  28.602  1.00  0.00     0.251 C 
ATOM     31  H   UNL A   1      31.716  34.601  27.118  1.00  0.00     0.163 HD
ATOM     32  O   UNL A   1      32.633  35.669  29.088  1.00  0.00    -0.269 OA
BRANCH  30  33
ATOM     33  C   UNL A   1      34.217  33.946  29.185  1.00  0.00     0.039 A 
ATOM     34  C   UNL A   1      35.490  34.436  28.893  1.00  0.00     0.014 A 
ATOM     35  C   UNL A   1      34.045  32.839  30.019  1.00  0.00     0.014 A 
ATOM     36  C   UNL A   1      36.599  33.821  29.463  1.00  0.00     0.010 A 
ATOM     37  C   UNL A   1      35.142  32.287  30.660  1.00  0.00     0.010 A 
ATOM     38  C   UNL A   1      36.429  32.754  30.359  1.00  0.00    -0.014 A 
BRANCH  38  39
ATOM     39  C   UNL A   1      37.595  32.068  30.949  1.00  0.00     0.031 A 
ATOM     40  C   UNL A   1      38.053  32.445  32.326  1.00  0.00     0.074 A 
ATOM     41  C   UNL A   1      38.256  31.148  30.224  1.00  0.00     0.049 A 
ATOM     42  N   UNL A   1      39.064  31.982  33.016  1.00  0.00    -0.248 NA
ATOM     43  C   UNL A   1      37.300  33.510  33.010  1.00  0.00     0.031 C 
ATOM     44  C   UNL A   1      37.924  30.760  28.853  1.00  0.00     0.029 A 
ATOM     45  N   UNL A   1      39.342  30.376  30.539  1.00  0.00    -0.354 N 
ATOM     46  C   UNL A   1      39.074  32.712  34.196  1.00  0.00     0.074 A 
ATOM     47  C   UNL A   1      38.018  33.692  34.106  1.00  0.00     0.031 C 
ATOM     48  C   UNL A   1      38.767  29.794  28.457  1.00  0.00     0.029 A 
ATOM     49  C   UNL A   1      39.715  29.521  29.534  1.00  0.00     0.049 A 
ATOM     50  H   UNL A   1      39.810  30.430  31.404  1.00  0.00     0.167 HD
ATOM     51  C   UNL A   1      39.876  32.549  35.273  1.00  0.00     0.037 A 
ATOM     52  C   UNL A   1      40.709  28.615  29.492  1.00  0.00     0.037 A 
ATOM     53  C   UNL A   1      40.891  31.535  35.361  1.00  0.00     0.049 A 
ATOM     54  C   UNL A   1      41.579  28.439  30.705  1.00  0.00     0.074 A 
ATOM     55  C   UNL A   1      41.693  31.212  36.439  1.00  0.00     0.029 A 
ATOM     56  N   UNL A   1      41.241  30.682  34.323  1.00  0.00    -0.354 N 
ATOM     57  N   UNL A   1      41.524  29.066  31.855  1.00  0.00    -0.248 NA
ATOM     58  C   UNL A   1      42.646  27.433  30.618  1.00  0.00     0.031 C 
ATOM     59  C   UNL A   1      42.568  30.198  36.035  1.00  0.00     0.029 A 
ATOM     60  C   UNL A   1      42.277  29.856  34.723  1.00  0.00     0.049 A 
ATOM     61  H   UNL A   1      40.817  30.667  33.435  1.00  0.00     0.167 HD
ATOM     62  C   UNL A   1      42.539  28.529  32.633  1.00  0.00     0.074 A 
ATOM     63  C   UNL A   1      43.183  27.509  31.830  1.00  0.00     0.031 C 
ATOM     64  C   UNL A   1      42.907  28.854  33.897  1.00  0.00     0.037 A 
BRANCH  51  65
ATOM     65  C   UNL A   1      39.682  33.478  36.435  1.00  0.00     0.064 A 
ATOM     66  C   UNL A   1      38.820  33.130  37.486  1.00  0.00     0.173 A 
ATOM     67  C   UNL A   1      40.327  34.723  36.503  1.00  0.00     0.173 A 
ATOM     68  F   UNL A   1      38.175  31.953  37.472  1.00  0.00    -0.203 F 
ATOM     69  C   UNL A   1      38.611  33.994  38.558  1.00  0.00     0.198 A 
ATOM     70  C   UNL A   1      40.141  35.570  37.592  1.00  0.00     0.198 A 
ATOM     71  F   UNL A   1      41.171  35.099  35.530  1.00  0.00    -0.203 F 
ATOM     72  F   UNL A   1      37.766  33.649  39.539  1.00  0.00    -0.200 F 
ATOM     73  C   UNL A   1      39.278  35.208  38.616  1.00  0.00     0.200 A 
ATOM     74  F   UNL A   1      40.812  36.728  37.660  1.00  0.00    -0.200 F 
ATOM     75  F   UNL A   1      39.095  36.026  39.660  1.00  0.00    -0.200 F 
ENDBRANCH  51  65
BRANCH  52  76
ATOM     76  C   UNL A   1      40.879  27.786  28.273  1.00  0.00     0.064 A 
ATOM     77  C   UNL A   1      40.291  26.516  28.167  1.00  0.00     0.173 A 
ATOM     78  C   UNL A   1      41.707  28.211  27.227  1.00  0.00     0.173 A 
ATOM     79  F   UNL A   1      39.500  26.058  29.149  1.00  0.00    -0.203 F 
ATOM     80  C   UNL A   1      40.548  25.693  27.072  1.00  0.00     0.198 A 
ATOM     81  C   UNL A   1      41.946  27.397  26.121  1.00  0.00     0.198 A 
ATOM     82  F   UNL A   1      42.282  29.422  27.279  1.00  0.00    -0.203 F 
ATOM     83  F   UNL A   1      40.012  24.467  27.018  1.00  0.00    -0.200 F 
ATOM     84  C   UNL A   1      41.375  26.134  26.051  1.00  0.00     0.200 A 
ATOM     85  F   UNL A   1      42.735  27.832  25.130  1.00  0.00    -0.200 F 
ATOM     86  F   UNL A   1      41.628  25.341  25.001  1.00  0.00    -0.200 F 
ENDBRANCH  52  76
BRANCH  64  87
ATOM     87  C   UNL A   1      44.068  28.117  34.495  1.00  0.00     0.064 A 
ATOM     88  C   UNL A   1      43.865  26.924  35.206  1.00  0.00     0.173 A 
ATOM     89  C   UNL A   1      45.362  28.654  34.461  1.00  0.00     0.173 A 
ATOM     90  F   UNL A   1      42.642  26.378  35.275  1.00  0.00    -0.203 F 
ATOM     91  C   UNL A   1      44.913  26.312  35.886  1.00  0.00     0.198 A 
ATOM     92  C   UNL A   1      46.413  28.023  35.119  1.00  0.00     0.198 A 
ATOM     93  F   UNL A   1      45.606  29.786  33.783  1.00  0.00    -0.203 F 
ATOM     94  F   UNL A   1      44.687  25.200  36.599  1.00  0.00    -0.200 F 
ATOM     95  C   UNL A   1      46.186  26.861  35.841  1.00  0.00     0.200 A 
ATOM     96  F   UNL A   1      47.647  28.543  35.058  1.00  0.00    -0.200 F 
ATOM     97  F   UNL A   1      47.194  26.271  36.497  1.00  0.00    -0.200 F 
ENDBRANCH  64  87
ENDBRANCH  38  39
ENDBRANCH  30  33
ENDBRANCH  28  29
ENDBRANCH  27  28
ENDBRANCH  26  27
ENDBRANCH   1  26
TORSDOF 16
ENDMDL
