MODEL 1
REMARK VINA RESULT:     -12.4      0.000      0.000
REMARK SMILES O=C(NCCCCCCNC(=O)c1ncoc1-c1cc(F)cc(F)c1)c1ccc(-c2c3nc(c(-c4c(F)c(F)c(F)c(F)c4F)c4ccc([nH]4)c(-c4c(F)c(F)c(F)c(F)c4F)c4nc(c(-c5c(F)c(F)c(F)c(F)c5F)c5ccc2[nH]5)C=C4)C=C3)cc1
REMARK SMILES IDX 6 1 5 2 4 3 3 4 1 5 2 6 26 8 27 9 88 10 28 11 87 12 29 13
REMARK SMILES IDX 30 14 31 15 81 16 32 17 86 18 80 19 82 20 33 21 85 22 79 23
REMARK SMILES IDX 78 24 34 26 66 27 46 28 65 29 47 30 50 31 64 32 83 33 48 34
REMARK SMILES IDX 49 35 63 37 84 38 51 39 35 40 36 41 44 42 37 43 38 44 42 45
REMARK SMILES IDX 45 46 39 47 40 48 43 49 41 50 67 51 68 52 76 53 69 54 70 55
REMARK SMILES IDX 74 56 77 57 71 58 72 59 75 60 73 61 52 62 53 63 61 64 54 65
REMARK SMILES IDX 55 66 59 67 62 68 56 69 57 70 60 71 58 72 7 73 8 74 9 75
REMARK SMILES IDX 10 76 11 77 12 79 13 80 14 81 17 82 15 83 16 84 18 85 19 86
REMARK SMILES IDX 25 87 20 88 23 89 21 90 22 91 24 92
REMARK H PARENT 3 7 82 25 50 36 10 78
REMARK Flexibility Score: inf
ROOT
ATOM      1  C   UNL A   1      31.440  30.898  25.876  1.00  0.00     0.002 C 
ENDROOT
BRANCH   1   2
ATOM      2  C   UNL A   1      31.254  32.269  26.530  1.00  0.00     0.021 C 
BRANCH   2   3
ATOM      3  C   UNL A   1      32.487  32.809  27.248  1.00  0.00     0.116 C 
BRANCH   3   4
ATOM      4  N   UNL A   1      32.333  34.203  27.626  1.00  0.00    -0.352 N 
ATOM      5  O   UNL A   1      32.566  36.033  28.919  1.00  0.00    -0.269 OA
ATOM      6  C   UNL A   1      32.959  34.911  28.620  1.00  0.00     0.251 C 
ATOM      7  H   UNL A   1      31.684  34.715  27.089  1.00  0.00     0.163 HD
BRANCH   6   8
ATOM      8  C   UNL A   1      34.103  34.318  29.346  1.00  0.00     0.039 A 
ATOM      9  C   UNL A   1      33.905  33.531  30.485  1.00  0.00     0.014 A 
ATOM     10  C   UNL A   1      35.393  34.514  28.844  1.00  0.00     0.014 A 
ATOM     11  C   UNL A   1      35.001  33.015  31.172  1.00  0.00     0.010 A 
ATOM     12  C   UNL A   1      36.488  33.948  29.502  1.00  0.00     0.010 A 
ATOM     13  C   UNL A   1      36.302  33.204  30.676  1.00  0.00    -0.014 A 
BRANCH  13  14
ATOM     14  C   UNL A   1      37.457  32.559  31.348  1.00  0.00     0.031 A 
ATOM     15  C   UNL A   1      38.204  31.436  30.687  1.00  0.00     0.074 A 
ATOM     16  C   UNL A   1      37.825  32.991  32.569  1.00  0.00     0.049 A 
ATOM     17  N   UNL A   1      39.177  30.700  31.163  1.00  0.00    -0.248 NA
ATOM     18  C   UNL A   1      37.810  31.094  29.312  1.00  0.00     0.031 C 
ATOM     19  C   UNL A   1      37.186  34.087  33.302  1.00  0.00     0.029 A 
ATOM     20  N   UNL A   1      38.823  32.567  33.409  1.00  0.00    -0.354 N 
ATOM     21  C   UNL A   1      39.508  29.807  30.153  1.00  0.00     0.074 A 
ATOM     22  C   UNL A   1      38.618  30.076  29.042  1.00  0.00     0.031 C 
ATOM     23  C   UNL A   1      37.824  34.265  34.469  1.00  0.00     0.029 A 
ATOM     24  C   UNL A   1      38.873  33.259  34.594  1.00  0.00     0.049 A 
ATOM     25  H   UNL A   1      39.444  31.837  33.184  1.00  0.00     0.167 HD
ATOM     26  C   UNL A   1      40.472  28.856  30.155  1.00  0.00     0.037 A 
ATOM     27  C   UNL A   1      39.659  33.085  35.672  1.00  0.00     0.037 A 
ATOM     28  C   UNL A   1      41.356  28.593  31.263  1.00  0.00     0.049 A 
ATOM     29  C   UNL A   1      40.675  31.978  35.666  1.00  0.00     0.074 A 
ATOM     30  C   UNL A   1      42.352  27.636  31.363  1.00  0.00     0.029 A 
ATOM     31  N   UNL A   1      41.354  29.294  32.459  1.00  0.00    -0.354 N 
ATOM     32  N   UNL A   1      40.965  31.126  34.714  1.00  0.00    -0.248 NA
ATOM     33  C   UNL A   1      41.468  31.803  36.891  1.00  0.00     0.031 C 
ATOM     34  C   UNL A   1      42.932  27.738  32.631  1.00  0.00     0.029 A 
ATOM     35  C   UNL A   1      42.328  28.786  33.306  1.00  0.00     0.049 A 
ATOM     36  H   UNL A   1      40.751  30.042  32.675  1.00  0.00     0.167 HD
ATOM     37  C   UNL A   1      41.983  30.329  35.214  1.00  0.00     0.074 A 
ATOM     38  C   UNL A   1      42.277  30.812  36.548  1.00  0.00     0.031 C 
ATOM     39  C   UNL A   1      42.613  29.284  34.625  1.00  0.00     0.037 A 
BRANCH  26  40
ATOM     40  C   UNL A   1      40.638  28.018  28.923  1.00  0.00     0.064 A 
ATOM     41  C   UNL A   1      41.442  28.460  27.861  1.00  0.00     0.173 A 
ATOM     42  C   UNL A   1      39.919  26.827  28.752  1.00  0.00     0.173 A 
ATOM     43  F   UNL A   1      42.145  29.597  27.974  1.00  0.00    -0.203 F 
ATOM     44  C   UNL A   1      41.502  27.750  26.665  1.00  0.00     0.198 A 
ATOM     45  C   UNL A   1      39.998  26.109  27.561  1.00  0.00     0.198 A 
ATOM     46  F   UNL A   1      39.146  26.357  29.743  1.00  0.00    -0.203 F 
ATOM     47  F   UNL A   1      42.248  28.211  25.650  1.00  0.00    -0.200 F 
ATOM     48  C   UNL A   1      40.780  26.576  26.515  1.00  0.00     0.200 A 
ATOM     49  F   UNL A   1      39.312  24.965  27.424  1.00  0.00    -0.200 F 
ATOM     50  F   UNL A   1      40.835  25.896  25.362  1.00  0.00    -0.200 F 
ENDBRANCH  26  40
BRANCH  27  51
ATOM     51  C   UNL A   1      39.510  33.974  36.853  1.00  0.00     0.064 A 
ATOM     52  C   UNL A   1      38.730  33.600  37.956  1.00  0.00     0.173 A 
ATOM     53  C   UNL A   1      40.159  35.216  36.902  1.00  0.00     0.173 A 
ATOM     54  F   UNL A   1      38.088  32.423  37.958  1.00  0.00    -0.203 F 
ATOM     55  C   UNL A   1      38.595  34.441  39.059  1.00  0.00     0.198 A 
ATOM     56  C   UNL A   1      40.047  36.042  38.018  1.00  0.00     0.198 A 
ATOM     57  F   UNL A   1      40.935  35.606  35.880  1.00  0.00    -0.203 F 
ATOM     58  F   UNL A   1      37.823  34.070  40.090  1.00  0.00    -0.200 F 
ATOM     59  C   UNL A   1      39.260  35.655  39.093  1.00  0.00     0.200 A 
ATOM     60  F   UNL A   1      40.715  37.202  38.058  1.00  0.00    -0.200 F 
ATOM     61  F   UNL A   1      39.151  36.452  40.164  1.00  0.00    -0.200 F 
ENDBRANCH  27  51
BRANCH  39  62
ATOM     62  C   UNL A   1      43.704  28.615  35.407  1.00  0.00     0.064 A 
ATOM     63  C   UNL A   1      45.044  28.987  35.218  1.00  0.00     0.173 A 
ATOM     64  C   UNL A   1      43.427  27.590  36.321  1.00  0.00     0.173 A 
ATOM     65  F   UNL A   1      45.360  29.960  34.350  1.00  0.00    -0.203 F 
ATOM     66  C   UNL A   1      46.067  28.354  35.918  1.00  0.00     0.198 A 
ATOM     67  C   UNL A   1      44.450  26.977  37.039  1.00  0.00     0.198 A 
ATOM     68  F   UNL A   1      42.160  27.210  36.548  1.00  0.00    -0.203 F 
ATOM     69  F   UNL A   1      47.341  28.713  35.709  1.00  0.00    -0.200 F 
ATOM     70  C   UNL A   1      45.769  27.356  36.833  1.00  0.00     0.200 A 
ATOM     71  F   UNL A   1      44.159  26.033  37.945  1.00  0.00    -0.200 F 
ATOM     72  F   UNL A   1      46.753  26.764  37.524  1.00  0.00    -0.200 F 
ENDBRANCH  39  62
ENDBRANCH  13  14
ENDBRANCH   6   8
ENDBRANCH   3   4
ENDBRANCH   2   3
ENDBRANCH   1   2
BRANCH   1  73
ATOM     73  C   UNL A   1      32.577  30.046  26.450  1.00  0.00     0.002 C 
BRANCH  73  74
ATOM     74  C   UNL A   1      32.139  28.812  27.248  1.00  0.00     0.021 C 
BRANCH  74  75
ATOM     75  C   UNL A   1      32.331  27.475  26.527  1.00  0.00     0.116 C 
BRANCH  75  76
ATOM     76  N   UNL A   1      31.281  26.541  26.877  1.00  0.00    -0.351 N 
ATOM     77  C   UNL A   1      30.553  25.722  26.053  1.00  0.00     0.273 C 
ATOM     78  H   UNL A   1      31.060  26.487  27.834  1.00  0.00     0.163 HD
ATOM     79  O   UNL A   1      29.528  25.205  26.500  1.00  0.00    -0.267 OA
BRANCH  77  80
ATOM     80  C   UNL A   1      31.000  25.501  24.688  1.00  0.00     0.174 A 
ATOM     81  N   UNL A   1      31.916  24.537  24.287  1.00  0.00    -0.211 NA
ATOM     82  C   UNL A   1      30.527  26.165  23.574  1.00  0.00     0.167 A 
ATOM     83  C   UNL A   1      31.926  24.646  22.977  1.00  0.00     0.309 A 
ATOM     84  O   UNL A   1      31.112  25.611  22.468  1.00  0.00    -0.443 OA
BRANCH  82  85
ATOM     85  C   UNL A   1      29.636  27.284  23.349  1.00  0.00     0.026 A 
ATOM     86  C   UNL A   1      30.141  28.490  22.845  1.00  0.00     0.051 A 
ATOM     87  C   UNL A   1      28.276  27.189  23.657  1.00  0.00     0.051 A 
ATOM     88  C   UNL A   1      29.292  29.577  22.666  1.00  0.00     0.126 A 
ATOM     89  C   UNL A   1      27.449  28.296  23.480  1.00  0.00     0.126 A 
ATOM     90  F   UNL A   1      29.786  30.722  22.178  1.00  0.00    -0.207 F 
ATOM     91  C   UNL A   1      27.945  29.494  22.986  1.00  0.00     0.078 A 
ATOM     92  F   UNL A   1      26.152  28.204  23.799  1.00  0.00    -0.207 F 
ENDBRANCH  82  85
ENDBRANCH  77  80
ENDBRANCH  75  76
ENDBRANCH  74  75
ENDBRANCH  73  74
ENDBRANCH   1  73
TORSDOF 14
ENDMDL
MODEL 2
REMARK VINA RESULT:     -12.4      1.186      2.023
REMARK SMILES O=C(NCCCCCCNC(=O)c1ncoc1-c1cc(F)cc(F)c1)c1ccc(-c2c3nc(c(-c4c(F)c(F)c(F)c(F)c4F)c4ccc([nH]4)c(-c4c(F)c(F)c(F)c(F)c4F)c4nc(c(-c5c(F)c(F)c(F)c(F)c5F)c5ccc2[nH]5)C=C4)C=C3)cc1
REMARK SMILES IDX 6 1 5 2 4 3 3 4 1 5 2 6 26 8 27 9 88 10 28 11 87 12 29 13
REMARK SMILES IDX 30 14 31 15 81 16 32 17 86 18 80 19 82 20 33 21 85 22 79 23
REMARK SMILES IDX 78 24 34 26 66 27 46 28 65 29 47 30 50 31 64 32 83 33 48 34
REMARK SMILES IDX 49 35 63 37 84 38 51 39 35 40 36 41 44 42 37 43 38 44 42 45
REMARK SMILES IDX 45 46 39 47 40 48 43 49 41 50 67 51 68 52 76 53 69 54 70 55
REMARK SMILES IDX 74 56 77 57 71 58 72 59 75 60 73 61 52 62 53 63 61 64 54 65
REMARK SMILES IDX 55 66 59 67 62 68 56 69 57 70 60 71 58 72 7 73 8 74 9 75
REMARK SMILES IDX 10 76 11 77 12 79 13 80 14 81 17 82 15 83 16 84 18 85 19 86
REMARK SMILES IDX 25 87 20 88 23 89 21 90 22 91 24 92
REMARK H PARENT 3 7 82 25 50 36 10 78
REMARK Flexibility Score: inf
ROOT
ATOM      1  C   UNL A   1      31.428  30.891  26.043  1.00  0.00     0.002 C 
ENDROOT
BRANCH   1   2
ATOM      2  C   UNL A   1      31.288  32.302  26.620  1.00  0.00     0.021 C 
BRANCH   2   3
ATOM      3  C   UNL A   1      32.557  32.863  27.254  1.00  0.00     0.116 C 
BRANCH   3   4
ATOM      4  N   UNL A   1      32.404  34.254  27.642  1.00  0.00    -0.352 N 
ATOM      5  O   UNL A   1      32.644  36.075  28.948  1.00  0.00    -0.269 OA
ATOM      6  C   UNL A   1      33.035  34.954  28.639  1.00  0.00     0.251 C 
ATOM      7  H   UNL A   1      31.753  34.770  27.112  1.00  0.00     0.163 HD
BRANCH   6   8
ATOM      8  C   UNL A   1      34.183  34.357  29.355  1.00  0.00     0.039 A 
ATOM      9  C   UNL A   1      33.989  33.535  30.470  1.00  0.00     0.014 A 
ATOM     10  C   UNL A   1      35.473  34.584  28.867  1.00  0.00     0.014 A 
ATOM     11  C   UNL A   1      35.087  33.015  31.149  1.00  0.00     0.010 A 
ATOM     12  C   UNL A   1      36.571  34.014  29.515  1.00  0.00     0.010 A 
ATOM     13  C   UNL A   1      36.388  33.235  30.667  1.00  0.00    -0.014 A 
BRANCH  13  14
ATOM     14  C   UNL A   1      37.547  32.586  31.328  1.00  0.00     0.031 A 
ATOM     15  C   UNL A   1      38.291  31.468  30.656  1.00  0.00     0.074 A 
ATOM     16  C   UNL A   1      37.923  33.011  32.549  1.00  0.00     0.049 A 
ATOM     17  N   UNL A   1      39.268  30.729  31.121  1.00  0.00    -0.248 NA
ATOM     18  C   UNL A   1      37.889  31.133  29.281  1.00  0.00     0.031 C 
ATOM     19  C   UNL A   1      37.289  34.102  33.293  1.00  0.00     0.029 A 
ATOM     20  N   UNL A   1      38.926  32.582  33.380  1.00  0.00    -0.354 N 
ATOM     21  C   UNL A   1      39.593  29.843  30.103  1.00  0.00     0.074 A 
ATOM     22  C   UNL A   1      38.696  30.118  29.000  1.00  0.00     0.031 C 
ATOM     23  C   UNL A   1      37.934  34.273  34.457  1.00  0.00     0.029 A 
ATOM     24  C   UNL A   1      38.984  33.267  34.570  1.00  0.00     0.049 A 
ATOM     25  H   UNL A   1      39.546  31.854  33.147  1.00  0.00     0.167 HD
ATOM     26  C   UNL A   1      40.557  28.893  30.093  1.00  0.00     0.037 A 
ATOM     27  C   UNL A   1      39.777  33.087  35.642  1.00  0.00     0.037 A 
ATOM     28  C   UNL A   1      41.448  28.623  31.194  1.00  0.00     0.049 A 
ATOM     29  C   UNL A   1      40.793  31.981  35.622  1.00  0.00     0.074 A 
ATOM     30  C   UNL A   1      42.445  27.666  31.282  1.00  0.00     0.029 A 
ATOM     31  N   UNL A   1      41.453  29.317  32.395  1.00  0.00    -0.354 N 
ATOM     32  N   UNL A   1      41.077  31.135  34.663  1.00  0.00    -0.248 NA
ATOM     33  C   UNL A   1      41.593  31.799  36.841  1.00  0.00     0.031 C 
ATOM     34  C   UNL A   1      43.033  27.760  32.548  1.00  0.00     0.029 A 
ATOM     35  C   UNL A   1      42.433  28.804  33.232  1.00  0.00     0.049 A 
ATOM     36  H   UNL A   1      40.852  30.063  32.619  1.00  0.00     0.167 HD
ATOM     37  C   UNL A   1      42.099  30.335  35.152  1.00  0.00     0.074 A 
ATOM     38  C   UNL A   1      42.401  30.810  36.487  1.00  0.00     0.031 C 
ATOM     39  C   UNL A   1      42.726  29.294  34.553  1.00  0.00     0.037 A 
BRANCH  26  40
ATOM     40  C   UNL A   1      40.716  28.062  28.855  1.00  0.00     0.064 A 
ATOM     41  C   UNL A   1      41.526  28.503  27.797  1.00  0.00     0.173 A 
ATOM     42  C   UNL A   1      39.985  26.879  28.675  1.00  0.00     0.173 A 
ATOM     43  F   UNL A   1      42.241  29.632  27.920  1.00  0.00    -0.203 F 
ATOM     44  C   UNL A   1      41.580  27.802  26.596  1.00  0.00     0.198 A 
ATOM     45  C   UNL A   1      40.057  26.169  27.479  1.00  0.00     0.198 A 
ATOM     46  F   UNL A   1      39.205  26.411  29.661  1.00  0.00    -0.203 F 
ATOM     47  F   UNL A   1      42.332  28.262  25.586  1.00  0.00    -0.200 F 
ATOM     48  C   UNL A   1      40.845  26.637  26.437  1.00  0.00     0.200 A 
ATOM     49  F   UNL A   1      39.360  25.034  27.332  1.00  0.00    -0.200 F 
ATOM     50  F   UNL A   1      40.895  25.965  25.279  1.00  0.00    -0.200 F 
ENDBRANCH  26  40
BRANCH  27  51
ATOM     51  C   UNL A   1      39.635  33.969  36.828  1.00  0.00     0.064 A 
ATOM     52  C   UNL A   1      40.271  35.217  36.891  1.00  0.00     0.173 A 
ATOM     53  C   UNL A   1      38.847  33.581  37.921  1.00  0.00     0.173 A 
ATOM     54  F   UNL A   1      41.036  35.635  35.873  1.00  0.00    -0.203 F 
ATOM     55  C   UNL A   1      40.134  36.038  38.009  1.00  0.00     0.198 A 
ATOM     56  C   UNL A   1      38.687  34.416  39.024  1.00  0.00     0.198 A 
ATOM     57  F   UNL A   1      38.201  32.406  37.895  1.00  0.00    -0.203 F 
ATOM     58  F   UNL A   1      40.772  37.215  38.054  1.00  0.00    -0.200 F 
ATOM     59  C   UNL A   1      39.335  35.641  39.069  1.00  0.00     0.200 A 
ATOM     60  F   UNL A   1      37.891  34.040  40.034  1.00  0.00    -0.200 F 
ATOM     61  F   UNL A   1      39.182  36.442  40.132  1.00  0.00    -0.200 F 
ENDBRANCH  27  51
BRANCH  39  62
ATOM     62  C   UNL A   1      43.822  28.621  35.323  1.00  0.00     0.064 A 
ATOM     63  C   UNL A   1      45.159  29.008  35.142  1.00  0.00     0.173 A 
ATOM     64  C   UNL A   1      43.554  27.577  36.219  1.00  0.00     0.173 A 
ATOM     65  F   UNL A   1      45.467  29.998  34.292  1.00  0.00    -0.203 F 
ATOM     66  C   UNL A   1      46.187  28.372  35.832  1.00  0.00     0.198 A 
ATOM     67  C   UNL A   1      44.582  26.961  36.927  1.00  0.00     0.198 A 
ATOM     68  F   UNL A   1      42.290  27.183  36.438  1.00  0.00    -0.203 F 
ATOM     69  F   UNL A   1      47.458  28.745  35.631  1.00  0.00    -0.200 F 
ATOM     70  C   UNL A   1      45.897  27.355  36.729  1.00  0.00     0.200 A 
ATOM     71  F   UNL A   1      44.298  25.998  37.816  1.00  0.00    -0.200 F 
ATOM     72  F   UNL A   1      46.886  26.759  37.410  1.00  0.00    -0.200 F 
ENDBRANCH  39  62
ENDBRANCH  13  14
ENDBRANCH   6   8
ENDBRANCH   3   4
ENDBRANCH   2   3
ENDBRANCH   1   2
BRANCH   1  73
ATOM     73  C   UNL A   1      32.227  29.907  26.903  1.00  0.00     0.002 C 
BRANCH  73  74
ATOM     74  C   UNL A   1      32.554  28.563  26.239  1.00  0.00     0.021 C 
BRANCH  74  75
ATOM     75  C   UNL A   1      31.399  27.932  25.457  1.00  0.00     0.116 C 
BRANCH  75  76
ATOM     76  N   UNL A   1      31.645  27.990  24.031  1.00  0.00    -0.351 N 
ATOM     77  C   UNL A   1      30.790  27.696  23.001  1.00  0.00     0.273 C 
ATOM     78  H   UNL A   1      32.547  28.279  23.765  1.00  0.00     0.163 HD
ATOM     79  O   UNL A   1      31.262  27.545  21.874  1.00  0.00    -0.267 OA
BRANCH  77  80
ATOM     80  C   UNL A   1      29.367  27.558  23.270  1.00  0.00     0.174 A 
ATOM     81  N   UNL A   1      28.747  26.416  23.758  1.00  0.00    -0.211 NA
ATOM     82  C   UNL A   1      28.429  28.564  23.149  1.00  0.00     0.167 A 
ATOM     83  C   UNL A   1      27.500  26.791  23.932  1.00  0.00     0.309 A 
ATOM     84  O   UNL A   1      27.227  28.079  23.585  1.00  0.00    -0.443 OA
BRANCH  82  85
ATOM     85  C   UNL A   1      28.441  29.921  22.645  1.00  0.00     0.026 A 
ATOM     86  C   UNL A   1      28.899  30.967  23.459  1.00  0.00     0.051 A 
ATOM     87  C   UNL A   1      27.973  30.211  21.360  1.00  0.00     0.051 A 
ATOM     88  C   UNL A   1      28.874  32.275  22.987  1.00  0.00     0.126 A 
ATOM     89  C   UNL A   1      27.948  31.531  20.916  1.00  0.00     0.126 A 
ATOM     90  F   UNL A   1      29.319  33.264  23.772  1.00  0.00    -0.207 F 
ATOM     91  C   UNL A   1      28.395  32.571  21.719  1.00  0.00     0.078 A 
ATOM     92  F   UNL A   1      27.476  31.803  19.693  1.00  0.00    -0.207 F 
ENDBRANCH  82  85
ENDBRANCH  77  80
ENDBRANCH  75  76
ENDBRANCH  74  75
ENDBRANCH  73  74
ENDBRANCH   1  73
TORSDOF 14
ENDMDL
MODEL 3
REMARK VINA RESULT:     -12.3      0.731      1.687
REMARK SMILES O=C(NCCCCCCNC(=O)c1ncoc1-c1cc(F)cc(F)c1)c1ccc(-c2c3nc(c(-c4c(F)c(F)c(F)c(F)c4F)c4ccc([nH]4)c(-c4c(F)c(F)c(F)c(F)c4F)c4nc(c(-c5c(F)c(F)c(F)c(F)c5F)c5ccc2[nH]5)C=C4)C=C3)cc1
REMARK SMILES IDX 6 1 5 2 4 3 3 4 1 5 2 6 26 8 27 9 88 10 28 11 87 12 29 13
REMARK SMILES IDX 30 14 31 15 81 16 32 17 86 18 80 19 82 20 33 21 85 22 79 23
REMARK SMILES IDX 78 24 34 26 66 27 46 28 65 29 47 30 50 31 64 32 83 33 48 34
REMARK SMILES IDX 49 35 63 37 84 38 51 39 35 40 36 41 44 42 37 43 38 44 42 45
REMARK SMILES IDX 45 46 39 47 40 48 43 49 41 50 67 51 68 52 76 53 69 54 70 55
REMARK SMILES IDX 74 56 77 57 71 58 72 59 75 60 73 61 52 62 53 63 61 64 54 65
REMARK SMILES IDX 55 66 59 67 62 68 56 69 57 70 60 71 58 72 7 73 8 74 9 75
REMARK SMILES IDX 10 76 11 77 12 79 13 80 14 81 17 82 15 83 16 84 18 85 19 86
REMARK SMILES IDX 25 87 20 88 23 89 21 90 22 91 24 92
REMARK H PARENT 3 7 82 25 50 36 10 78
REMARK Flexibility Score: inf
ROOT
ATOM      1  C   UNL A   1      31.213  30.591  25.700  1.00  0.00     0.002 C 
ENDROOT
BRANCH   1   2
ATOM      2  C   UNL A   1      31.118  31.944  26.409  1.00  0.00     0.021 C 
BRANCH   2   3
ATOM      3  C   UNL A   1      32.445  32.495  26.919  1.00  0.00     0.116 C 
BRANCH   3   4
ATOM      4  N   UNL A   1      32.322  33.860  27.399  1.00  0.00    -0.352 N 
ATOM      5  O   UNL A   1      32.662  35.602  28.787  1.00  0.00    -0.269 OA
ATOM      6  C   UNL A   1      33.029  34.504  28.382  1.00  0.00     0.251 C 
ATOM      7  H   UNL A   1      31.631  34.402  26.953  1.00  0.00     0.163 HD
BRANCH   6   8
ATOM      8  C   UNL A   1      34.230  33.872  28.970  1.00  0.00     0.039 A 
ATOM      9  C   UNL A   1      35.513  34.341  28.668  1.00  0.00     0.014 A 
ATOM     10  C   UNL A   1      34.062  32.824  29.879  1.00  0.00     0.014 A 
ATOM     11  C   UNL A   1      36.629  33.705  29.205  1.00  0.00     0.010 A 
ATOM     12  C   UNL A   1      35.181  32.224  30.462  1.00  0.00     0.010 A 
ATOM     13  C   UNL A   1      36.473  32.652  30.121  1.00  0.00    -0.014 A 
BRANCH  13  14
ATOM     14  C   UNL A   1      37.660  32.052  30.778  1.00  0.00     0.031 A 
ATOM     15  C   UNL A   1      38.466  30.988  30.090  1.00  0.00     0.074 A 
ATOM     16  C   UNL A   1      38.005  32.473  32.010  1.00  0.00     0.049 A 
ATOM     17  N   UNL A   1      39.477  30.292  30.548  1.00  0.00    -0.248 NA
ATOM     18  C   UNL A   1      38.090  30.659  28.706  1.00  0.00     0.031 C 
ATOM     19  C   UNL A   1      37.310  33.514  32.769  1.00  0.00     0.029 A 
ATOM     20  N   UNL A   1      39.025  32.081  32.839  1.00  0.00    -0.354 N 
ATOM     21  C   UNL A   1      39.854  29.444  29.516  1.00  0.00     0.074 A 
ATOM     22  C   UNL A   1      38.951  29.693  28.412  1.00  0.00     0.031 C 
ATOM     23  C   UNL A   1      37.938  33.697  33.941  1.00  0.00     0.029 A 
ATOM     24  C   UNL A   1      39.039  32.745  34.042  1.00  0.00     0.049 A 
ATOM     25  H   UNL A   1      39.684  31.390  32.597  1.00  0.00     0.167 HD
ATOM     26  C   UNL A   1      40.867  28.546  29.495  1.00  0.00     0.037 A 
ATOM     27  C   UNL A   1      39.833  32.586  35.116  1.00  0.00     0.037 A 
ATOM     28  C   UNL A   1      41.764  28.302  30.597  1.00  0.00     0.049 A 
ATOM     29  C   UNL A   1      40.907  31.535  35.083  1.00  0.00     0.074 A 
ATOM     30  C   UNL A   1      42.810  27.397  30.674  1.00  0.00     0.029 A 
ATOM     31  N   UNL A   1      41.726  28.972  31.811  1.00  0.00    -0.354 N 
ATOM     32  N   UNL A   1      41.241  30.724  34.110  1.00  0.00    -0.248 NA
ATOM     33  C   UNL A   1      41.708  31.371  36.305  1.00  0.00     0.031 C 
ATOM     34  C   UNL A   1      43.384  27.497  31.946  1.00  0.00     0.029 A 
ATOM     35  C   UNL A   1      42.725  28.495  32.645  1.00  0.00     0.049 A 
ATOM     36  H   UNL A   1      41.084  29.680  32.045  1.00  0.00     0.167 HD
ATOM     37  C   UNL A   1      42.300  29.969  34.592  1.00  0.00     0.074 A 
ATOM     38  C   UNL A   1      42.568  30.433  35.937  1.00  0.00     0.031 C 
ATOM     39  C   UNL A   1      42.984  28.974  33.977  1.00  0.00     0.037 A 
BRANCH  26  40
ATOM     40  C   UNL A   1      41.078  27.749  28.243  1.00  0.00     0.064 A 
ATOM     41  C   UNL A   1      40.516  26.470  28.106  1.00  0.00     0.173 A 
ATOM     42  C   UNL A   1      41.922  28.209  27.222  1.00  0.00     0.173 A 
ATOM     43  F   UNL A   1      39.706  25.984  29.059  1.00  0.00    -0.203 F 
ATOM     44  C   UNL A   1      40.809  25.674  27.003  1.00  0.00     0.198 A 
ATOM     45  C   UNL A   1      42.196  27.417  26.110  1.00  0.00     0.198 A 
ATOM     46  F   UNL A   1      42.474  29.429  27.302  1.00  0.00    -0.203 F 
ATOM     47  F   UNL A   1      40.289  24.441  26.911  1.00  0.00    -0.200 F 
ATOM     48  C   UNL A   1      41.649  26.147  26.006  1.00  0.00     0.200 A 
ATOM     49  F   UNL A   1      42.995  27.882  25.139  1.00  0.00    -0.200 F 
ATOM     50  F   UNL A   1      41.933  25.377  24.947  1.00  0.00    -0.200 F 
ENDBRANCH  26  40
BRANCH  27  51
ATOM     51  C   UNL A   1      39.638  33.436  36.319  1.00  0.00     0.064 A 
ATOM     52  C   UNL A   1      38.797  33.037  37.367  1.00  0.00     0.173 A 
ATOM     53  C   UNL A   1      40.302  34.664  36.444  1.00  0.00     0.173 A 
ATOM     54  F   UNL A   1      38.138  31.872  37.295  1.00  0.00    -0.203 F 
ATOM     55  C   UNL A   1      38.618  33.841  38.491  1.00  0.00     0.198 A 
ATOM     56  C   UNL A   1      40.146  35.452  37.582  1.00  0.00     0.198 A 
ATOM     57  F   UNL A   1      41.135  35.076  35.477  1.00  0.00    -0.203 F 
ATOM     58  F   UNL A   1      37.789  33.449  39.468  1.00  0.00    -0.200 F 
ATOM     59  C   UNL A   1      39.299  35.043  38.601  1.00  0.00     0.200 A 
ATOM     60  F   UNL A   1      40.829  36.599  37.697  1.00  0.00    -0.200 F 
ATOM     61  F   UNL A   1      39.148  35.804  39.693  1.00  0.00    -0.200 F 
ENDBRANCH  27  51
BRANCH  39  62
ATOM     62  C   UNL A   1      44.109  28.344  34.743  1.00  0.00     0.064 A 
ATOM     63  C   UNL A   1      45.404  28.882  34.674  1.00  0.00     0.173 A 
ATOM     64  C   UNL A   1      43.913  27.196  35.522  1.00  0.00     0.173 A 
ATOM     65  F   UNL A   1      45.644  29.977  33.937  1.00  0.00    -0.203 F 
ATOM     66  C   UNL A   1      46.461  28.290  35.359  1.00  0.00     0.198 A 
ATOM     67  C   UNL A   1      44.967  26.622  36.227  1.00  0.00     0.198 A 
ATOM     68  F   UNL A   1      42.690  26.655  35.632  1.00  0.00    -0.203 F 
ATOM     69  F   UNL A   1      47.692  28.809  35.264  1.00  0.00    -0.200 F 
ATOM     70  C   UNL A   1      46.240  27.166  36.140  1.00  0.00     0.200 A 
ATOM     71  F   UNL A   1      44.747  25.553  37.005  1.00  0.00    -0.200 F 
ATOM     72  F   UNL A   1      47.255  26.611  36.818  1.00  0.00    -0.200 F 
ENDBRANCH  39  62
ENDBRANCH  13  14
ENDBRANCH   6   8
ENDBRANCH   3   4
ENDBRANCH   2   3
ENDBRANCH   1   2
BRANCH   1  73
ATOM     73  C   UNL A   1      32.557  29.870  25.840  1.00  0.00     0.002 C 
BRANCH  73  74
ATOM     74  C   UNL A   1      32.629  28.817  26.953  1.00  0.00     0.021 C 
BRANCH  74  75
ATOM     75  C   UNL A   1      32.769  27.372  26.468  1.00  0.00     0.116 C 
BRANCH  75  76
ATOM     76  N   UNL A   1      31.601  26.590  26.821  1.00  0.00    -0.351 N 
ATOM     77  C   UNL A   1      30.755  25.894  25.999  1.00  0.00     0.273 C 
ATOM     78  H   UNL A   1      31.388  26.554  27.781  1.00  0.00     0.163 HD
ATOM     79  O   UNL A   1      29.672  25.521  26.454  1.00  0.00    -0.267 OA
BRANCH  77  80
ATOM     80  C   UNL A   1      31.147  25.632  24.624  1.00  0.00     0.174 A 
ATOM     81  N   UNL A   1      32.046  24.657  24.215  1.00  0.00    -0.211 NA
ATOM     82  C   UNL A   1      30.630  26.264  23.510  1.00  0.00     0.167 A 
ATOM     83  C   UNL A   1      32.005  24.727  22.904  1.00  0.00     0.309 A 
ATOM     84  O   UNL A   1      31.172  25.677  22.399  1.00  0.00    -0.443 OA
BRANCH  82  85
ATOM     85  C   UNL A   1      29.731  27.377  23.288  1.00  0.00     0.026 A 
ATOM     86  C   UNL A   1      28.373  27.256  23.613  1.00  0.00     0.051 A 
ATOM     87  C   UNL A   1      30.195  28.570  22.725  1.00  0.00     0.051 A 
ATOM     88  C   UNL A   1      27.504  28.313  23.364  1.00  0.00     0.126 A 
ATOM     89  C   UNL A   1      29.301  29.608  22.475  1.00  0.00     0.126 A 
ATOM     90  F   UNL A   1      26.209  28.186  23.683  1.00  0.00    -0.207 F 
ATOM     91  C   UNL A   1      27.954  29.492  22.789  1.00  0.00     0.078 A 
ATOM     92  F   UNL A   1      29.749  30.738  21.913  1.00  0.00    -0.207 F 
ENDBRANCH  82  85
ENDBRANCH  77  80
ENDBRANCH  75  76
ENDBRANCH  74  75
ENDBRANCH  73  74
ENDBRANCH   1  73
TORSDOF 14
ENDMDL
