MODEL 1
REMARK VINA RESULT:     -11.9      0.000      0.000
REMARK SMILES O=C(NCCCCCCNC(=O)[C@H]1CS[C@@H](c2cccc(OCc3ccc(Cl)cc3Cl)c2)[NH2+]1)c1ccc(-c2c3nc(c(-c4c(F)c(F)c(F)c(F)c4F)c4ccc([nH]4)c(-c4c(F)c(F)c(F)c(F)c4F)c4nc(c(-c5c(F)c(F)c(F)c(F)c5F)c5ccc2[nH]5)C=C4)C=C3)cc1
REMARK SMILES IDX 7 1 6 2 5 3 4 4 3 5 1 6 2 7 34 9 35 10 96 11 36 12 95 13
REMARK SMILES IDX 37 14 38 15 39 16 89 17 40 18 94 19 88 20 90 21 41 22 93 23
REMARK SMILES IDX 87 24 86 25 42 27 74 28 54 29 73 30 55 31 58 32 72 33 91 34
REMARK SMILES IDX 56 35 57 36 71 38 92 39 59 40 43 41 44 42 52 43 45 44 46 45
REMARK SMILES IDX 50 46 53 47 47 48 48 49 51 50 49 51 75 52 76 53 84 54 77 55
REMARK SMILES IDX 78 56 82 57 85 58 79 59 80 60 83 61 81 62 60 63 61 64 69 65
REMARK SMILES IDX 62 66 63 67 67 68 70 69 64 70 65 71 68 72 66 73 8 74 9 75
REMARK SMILES IDX 10 76 11 77 12 79 13 80 14 81 33 82 15 83 16 84 17 87 18 88
REMARK SMILES IDX 32 89 19 90 21 91 20 92 22 93 23 94 24 95 25 96 30 97 26 98
REMARK SMILES IDX 29 99 31 100 27 101 28 102
REMARK H PARENT 3 8 90 26 58 37 10 78 33 85 33 86
REMARK Flexibility Score: inf
ROOT
ATOM      1  C   UNL A   1      34.859  32.894  28.831  1.00  0.00     0.002 C 
ENDROOT
BRANCH   1   2
ATOM      2  C   UNL A   1      35.346  34.341  28.684  1.00  0.00     0.002 C 
BRANCH   2   3
ATOM      3  C   UNL A   1      34.242  35.396  28.761  1.00  0.00     0.021 C 
BRANCH   3   4
ATOM      4  C   UNL A   1      32.946  34.888  29.376  1.00  0.00     0.116 C 
BRANCH   4   5
ATOM      5  N   UNL A   1      32.485  35.751  30.452  1.00  0.00    -0.352 N 
ATOM      6  O   UNL A   1      32.235  36.400  32.600  1.00  0.00    -0.269 OA
ATOM      7  C   UNL A   1      32.875  35.773  31.769  1.00  0.00     0.251 C 
ATOM      8  H   UNL A   1      31.799  36.413  30.202  1.00  0.00     0.163 HD
BRANCH   7   9
ATOM      9  C   UNL A   1      34.078  35.017  32.175  1.00  0.00     0.039 A 
ATOM     10  C   UNL A   1      35.323  35.651  32.222  1.00  0.00     0.014 A 
ATOM     11  C   UNL A   1      33.959  33.668  32.518  1.00  0.00     0.014 A 
ATOM     12  C   UNL A   1      36.465  34.906  32.477  1.00  0.00     0.010 A 
ATOM     13  C   UNL A   1      35.099  32.943  32.870  1.00  0.00     0.010 A 
ATOM     14  C   UNL A   1      36.363  33.551  32.831  1.00  0.00    -0.014 A 
BRANCH  14  15
ATOM     15  C   UNL A   1      37.587  32.818  33.235  1.00  0.00     0.031 A 
ATOM     16  C   UNL A   1      38.274  33.099  34.539  1.00  0.00     0.074 A 
ATOM     17  C   UNL A   1      38.066  31.870  32.405  1.00  0.00     0.049 A 
ATOM     18  N   UNL A   1      39.346  32.542  35.044  1.00  0.00    -0.248 NA
ATOM     19  C   UNL A   1      37.688  34.149  35.385  1.00  0.00     0.031 C 
ATOM     20  C   UNL A   1      37.484  31.521  31.107  1.00  0.00     0.029 A 
ATOM     21  N   UNL A   1      39.134  31.022  32.529  1.00  0.00    -0.354 N 
ATOM     22  C   UNL A   1      39.574  33.182  36.254  1.00  0.00     0.074 A 
ATOM     23  C   UNL A   1      38.545  34.192  36.395  1.00  0.00     0.031 C 
ATOM     24  C   UNL A   1      38.171  30.500  30.577  1.00  0.00     0.029 A 
ATOM     25  C   UNL A   1      39.282  30.172  31.461  1.00  0.00     0.049 A 
ATOM     26  H   UNL A   1      39.736  31.021  33.307  1.00  0.00     0.167 HD
ATOM     27  C   UNL A   1      40.549  32.940  37.165  1.00  0.00     0.037 A 
ATOM     28  C   UNL A   1      40.224  29.246  31.208  1.00  0.00     0.037 A 
ATOM     29  C   UNL A   1      41.565  31.929  37.011  1.00  0.00     0.049 A 
ATOM     30  C   UNL A   1      41.317  29.030  32.213  1.00  0.00     0.074 A 
ATOM     31  C   UNL A   1      42.575  31.578  37.890  1.00  0.00     0.029 A 
ATOM     32  N   UNL A   1      41.710  31.114  35.895  1.00  0.00    -0.354 N 
ATOM     33  N   UNL A   1      41.500  29.611  33.374  1.00  0.00    -0.248 NA
ATOM     34  C   UNL A   1      42.338  28.033  31.870  1.00  0.00     0.031 C 
ATOM     35  C   UNL A   1      43.366  30.597  37.282  1.00  0.00     0.029 A 
ATOM     36  C   UNL A   1      42.812  30.286  36.051  1.00  0.00     0.049 A 
ATOM     37  H   UNL A   1      41.117  31.122  35.109  1.00  0.00     0.167 HD
ATOM     38  C   UNL A   1      42.641  29.037  33.912  1.00  0.00     0.074 A 
ATOM     39  C   UNL A   1      43.098  28.047  32.956  1.00  0.00     0.031 C 
ATOM     40  C   UNL A   1      43.256  29.306  35.089  1.00  0.00     0.037 A 
BRANCH  27  41
ATOM     41  C   UNL A   1      40.582  33.804  38.394  1.00  0.00     0.064 A 
ATOM     42  C   UNL A   1      41.387  34.951  38.475  1.00  0.00     0.173 A 
ATOM     43  C   UNL A   1      39.775  33.496  39.501  1.00  0.00     0.173 A 
ATOM     44  F   UNL A   1      42.186  35.290  37.451  1.00  0.00    -0.203 F 
ATOM     45  C   UNL A   1      41.411  35.734  39.628  1.00  0.00     0.198 A 
ATOM     46  C   UNL A   1      39.775  34.299  40.639  1.00  0.00     0.198 A 
ATOM     47  F   UNL A   1      38.978  32.417  39.477  1.00  0.00    -0.203 F 
ATOM     48  F   UNL A   1      42.232  36.790  39.702  1.00  0.00    -0.200 F 
ATOM     49  C   UNL A   1      40.601  35.410  40.706  1.00  0.00     0.200 A 
ATOM     50  F   UNL A   1      38.981  33.993  41.674  1.00  0.00    -0.200 F 
ATOM     51  F   UNL A   1      40.624  36.165  41.814  1.00  0.00    -0.200 F 
ENDBRANCH  27  41
BRANCH  28  52
ATOM     52  C   UNL A   1      40.161  28.460  29.949  1.00  0.00     0.064 A 
ATOM     53  C   UNL A   1      40.791  28.913  28.783  1.00  0.00     0.173 A 
ATOM     54  C   UNL A   1      39.494  27.225  29.894  1.00  0.00     0.173 A 
ATOM     55  F   UNL A   1      41.428  30.093  28.783  1.00  0.00    -0.203 F 
ATOM     56  C   UNL A   1      40.747  28.168  27.606  1.00  0.00     0.198 A 
ATOM     57  C   UNL A   1      39.479  26.467  28.727  1.00  0.00     0.198 A 
ATOM     58  F   UNL A   1      38.883  26.743  30.986  1.00  0.00    -0.203 F 
ATOM     59  F   UNL A   1      41.327  28.642  26.495  1.00  0.00    -0.200 F 
ATOM     60  C   UNL A   1      40.099  26.943  27.581  1.00  0.00     0.200 A 
ATOM     61  F   UNL A   1      38.871  25.274  28.714  1.00  0.00    -0.200 F 
ATOM     62  F   UNL A   1      40.069  26.221  26.454  1.00  0.00    -0.200 F 
ENDBRANCH  28  52
BRANCH  40  63
ATOM     63  C   UNL A   1      44.472  28.492  35.425  1.00  0.00     0.064 A 
ATOM     64  C   UNL A   1      45.764  28.918  35.083  1.00  0.00     0.173 A 
ATOM     65  C   UNL A   1      44.344  27.280  36.121  1.00  0.00     0.173 A 
ATOM     66  F   UNL A   1      45.942  30.060  34.402  1.00  0.00    -0.203 F 
ATOM     67  C   UNL A   1      46.880  28.146  35.398  1.00  0.00     0.198 A 
ATOM     68  C   UNL A   1      45.464  26.528  36.465  1.00  0.00     0.198 A 
ATOM     69  F   UNL A   1      43.132  26.829  36.476  1.00  0.00    -0.203 F 
ATOM     70  F   UNL A   1      48.100  28.545  35.011  1.00  0.00    -0.200 F 
ATOM     71  C   UNL A   1      46.730  26.957  36.095  1.00  0.00     0.200 A 
ATOM     72  F   UNL A   1      45.317  25.387  37.151  1.00  0.00    -0.200 F 
ATOM     73  F   UNL A   1      47.804  26.219  36.404  1.00  0.00    -0.200 F 
ENDBRANCH  40  63
ENDBRANCH  14  15
ENDBRANCH   7   9
ENDBRANCH   4   5
ENDBRANCH   3   4
ENDBRANCH   2   3
ENDBRANCH   1   2
BRANCH   1  74
ATOM     74  C   UNL A   1      35.657  31.859  28.023  1.00  0.00     0.021 C 
BRANCH  74  75
ATOM     75  C   UNL A   1      34.949  30.506  27.899  1.00  0.00     0.116 C 
BRANCH  75  76
ATOM     76  N   UNL A   1      33.975  30.557  26.830  1.00  0.00    -0.351 N 
ATOM     77  C   UNL A   1      33.303  29.577  26.169  1.00  0.00     0.279 C 
ATOM     78  H   UNL A   1      33.759  31.469  26.526  1.00  0.00     0.163 HD
ATOM     79  O   UNL A   1      32.723  29.921  25.132  1.00  0.00    -0.268 OA
BRANCH  77  80
ATOM     80  C   UNL A   1      33.117  28.149  26.726  1.00  0.00     0.283 C 
ATOM     81  C   UNL A   1      31.697  27.595  26.877  1.00  0.00     0.151 C 
ATOM     82  N   UNL A   1      33.977  27.234  25.933  1.00  0.00    -0.321 N 
ATOM     83  S   UNL A   1      31.680  26.047  25.917  1.00  0.00    -0.088 SA
ATOM     84  C   UNL A   1      33.456  25.876  26.084  1.00  0.00     0.274 C 
ATOM     85  H   UNL A   1      34.935  27.275  26.279  1.00  0.00     0.348 HD
ATOM     86  H   UNL A   1      33.972  27.506  24.951  1.00  0.00     0.348 HD
BRANCH  84  87
ATOM     87  C   UNL A   1      34.210  24.951  25.156  1.00  0.00     0.024 A 
ATOM     88  C   UNL A   1      35.496  24.445  25.387  1.00  0.00     0.011 A 
ATOM     89  C   UNL A   1      33.472  24.431  24.071  1.00  0.00     0.057 A 
ATOM     90  C   UNL A   1      36.025  23.457  24.552  1.00  0.00     0.004 A 
ATOM     91  C   UNL A   1      33.955  23.372  23.306  1.00  0.00     0.120 A 
ATOM     92  C   UNL A   1      35.254  22.920  23.521  1.00  0.00     0.046 A 
BRANCH  91  93
ATOM     93  O   UNL A   1      33.215  22.623  22.435  1.00  0.00    -0.489 OA
BRANCH  93  94
ATOM     94  C   UNL A   1      32.072  21.899  22.918  1.00  0.00     0.267 C 
BRANCH  94  95
ATOM     95  C   UNL A   1      32.295  20.440  23.312  1.00  0.00     0.008 A 
ATOM     96  C   UNL A   1      32.205  19.392  22.377  1.00  0.00     0.010 A 
ATOM     97  C   UNL A   1      32.702  20.098  24.618  1.00  0.00     0.049 A 
ATOM     98  C   UNL A   1      32.526  18.074  22.713  1.00  0.00     0.021 A 
ATOM     99  C   UNL A   1      32.992  18.772  24.967  1.00  0.00     0.041 A 
ATOM    100  Cl  UNL A   1      32.886  21.287  25.863  1.00  0.00    -0.084 Cl
ATOM    101  C   UNL A   1      32.913  17.768  24.009  1.00  0.00     0.042 A 
ATOM    102  Cl  UNL A   1      33.296  16.145  24.426  1.00  0.00    -0.084 Cl
ENDBRANCH  94  95
ENDBRANCH  93  94
ENDBRANCH  91  93
ENDBRANCH  84  87
ENDBRANCH  77  80
ENDBRANCH  75  76
ENDBRANCH  74  75
ENDBRANCH   1  74
TORSDOF 17
ENDMDL
MODEL 2
REMARK VINA RESULT:     -11.8      0.312      7.136
REMARK SMILES O=C(NCCCCCCNC(=O)[C@H]1CS[C@@H](c2cccc(OCc3ccc(Cl)cc3Cl)c2)[NH2+]1)c1ccc(-c2c3nc(c(-c4c(F)c(F)c(F)c(F)c4F)c4ccc([nH]4)c(-c4c(F)c(F)c(F)c(F)c4F)c4nc(c(-c5c(F)c(F)c(F)c(F)c5F)c5ccc2[nH]5)C=C4)C=C3)cc1
REMARK SMILES IDX 7 1 6 2 5 3 4 4 3 5 1 6 2 7 34 9 35 10 96 11 36 12 95 13
REMARK SMILES IDX 37 14 38 15 39 16 89 17 40 18 94 19 88 20 90 21 41 22 93 23
REMARK SMILES IDX 87 24 86 25 42 27 74 28 54 29 73 30 55 31 58 32 72 33 91 34
REMARK SMILES IDX 56 35 57 36 71 38 92 39 59 40 43 41 44 42 52 43 45 44 46 45
REMARK SMILES IDX 50 46 53 47 47 48 48 49 51 50 49 51 75 52 76 53 84 54 77 55
REMARK SMILES IDX 78 56 82 57 85 58 79 59 80 60 83 61 81 62 60 63 61 64 69 65
REMARK SMILES IDX 62 66 63 67 67 68 70 69 64 70 65 71 68 72 66 73 8 74 9 75
REMARK SMILES IDX 10 76 11 77 12 79 13 80 14 81 33 82 15 83 16 84 17 87 18 88
REMARK SMILES IDX 32 89 19 90 21 91 20 92 22 93 23 94 24 95 25 96 30 97 26 98
REMARK SMILES IDX 29 99 31 100 27 101 28 102
REMARK H PARENT 3 8 90 26 58 37 10 78 33 85 33 86
REMARK Flexibility Score: inf
ROOT
ATOM      1  C   UNL A   1      34.872  32.814  28.739  1.00  0.00     0.002 C 
ENDROOT
BRANCH   1   2
ATOM      2  C   UNL A   1      35.357  34.266  28.642  1.00  0.00     0.002 C 
BRANCH   2   3
ATOM      3  C   UNL A   1      34.247  35.315  28.722  1.00  0.00     0.021 C 
BRANCH   3   4
ATOM      4  C   UNL A   1      32.950  34.795  29.326  1.00  0.00     0.116 C 
BRANCH   4   5
ATOM      5  N   UNL A   1      32.467  35.662  30.390  1.00  0.00    -0.352 N 
ATOM      6  O   UNL A   1      32.181  36.325  32.529  1.00  0.00    -0.269 OA
ATOM      7  C   UNL A   1      32.838  35.697  31.712  1.00  0.00     0.251 C 
ATOM      8  H   UNL A   1      31.779  36.316  30.125  1.00  0.00     0.163 HD
BRANCH   7   9
ATOM      9  C   UNL A   1      34.042  34.956  32.139  1.00  0.00     0.039 A 
ATOM     10  C   UNL A   1      35.291  35.584  32.140  1.00  0.00     0.014 A 
ATOM     11  C   UNL A   1      33.920  33.626  32.551  1.00  0.00     0.014 A 
ATOM     12  C   UNL A   1      36.432  34.846  32.418  1.00  0.00     0.010 A 
ATOM     13  C   UNL A   1      35.061  32.913  32.924  1.00  0.00     0.010 A 
ATOM     14  C   UNL A   1      36.328  33.511  32.840  1.00  0.00    -0.014 A 
BRANCH  14  15
ATOM     15  C   UNL A   1      37.553  32.791  33.265  1.00  0.00     0.031 A 
ATOM     16  C   UNL A   1      38.195  31.755  32.390  1.00  0.00     0.074 A 
ATOM     17  C   UNL A   1      38.094  33.103  34.459  1.00  0.00     0.049 A 
ATOM     18  N   UNL A   1      39.271  31.042  32.610  1.00  0.00    -0.248 NA
ATOM     19  C   UNL A   1      37.541  31.473  31.104  1.00  0.00     0.031 C 
ATOM     20  C   UNL A   1      37.547  34.088  35.395  1.00  0.00     0.029 A 
ATOM     21  N   UNL A   1      39.222  32.641  35.084  1.00  0.00    -0.354 N 
ATOM     22  C   UNL A   1      39.415  30.217  31.503  1.00  0.00     0.074 A 
ATOM     23  C   UNL A   1      38.297  30.495  30.625  1.00  0.00     0.031 C 
ATOM     24  C   UNL A   1      38.364  34.192  36.451  1.00  0.00     0.029 A 
ATOM     25  C   UNL A   1      39.451  33.233  36.302  1.00  0.00     0.049 A 
ATOM     26  H   UNL A   1      39.811  31.954  34.698  1.00  0.00     0.167 HD
ATOM     27  C   UNL A   1      40.396  29.317  31.245  1.00  0.00     0.037 A 
ATOM     28  C   UNL A   1      40.416  33.010  37.211  1.00  0.00     0.037 A 
ATOM     29  C   UNL A   1      41.503  29.052  32.129  1.00  0.00     0.049 A 
ATOM     30  C   UNL A   1      41.463  31.976  36.918  1.00  0.00     0.074 A 
ATOM     31  C   UNL A   1      42.568  28.189  31.944  1.00  0.00     0.029 A 
ATOM     32  N   UNL A   1      41.681  29.640  33.375  1.00  0.00    -0.354 N 
ATOM     33  N   UNL A   1      41.614  31.231  35.850  1.00  0.00    -0.248 NA
ATOM     34  C   UNL A   1      42.472  31.748  37.960  1.00  0.00     0.031 C 
ATOM     35  C   UNL A   1      43.355  28.207  33.101  1.00  0.00     0.029 A 
ATOM     36  C   UNL A   1      42.820  29.133  33.982  1.00  0.00     0.049 A 
ATOM     37  H   UNL A   1      41.085  30.319  33.769  1.00  0.00     0.167 HD
ATOM     38  C   UNL A   1      42.745  30.462  36.078  1.00  0.00     0.074 A 
ATOM     39  C   UNL A   1      43.252  30.846  37.381  1.00  0.00     0.031 C 
ATOM     40  C   UNL A   1      43.311  29.523  35.282  1.00  0.00     0.037 A 
BRANCH  27  41
ATOM     41  C   UNL A   1      40.298  28.529  29.968  1.00  0.00     0.064 A 
ATOM     42  C   UNL A   1      39.575  27.329  29.889  1.00  0.00     0.173 A 
ATOM     43  C   UNL A   1      40.914  28.997  28.796  1.00  0.00     0.173 A 
ATOM     44  F   UNL A   1      38.973  26.829  30.979  1.00  0.00    -0.203 F 
ATOM     45  C   UNL A   1      39.505  26.608  28.698  1.00  0.00     0.198 A 
ATOM     46  C   UNL A   1      40.813  28.292  27.599  1.00  0.00     0.198 A 
ATOM     47  F   UNL A   1      41.610  30.143  28.809  1.00  0.00    -0.203 F 
ATOM     48  F   UNL A   1      38.858  25.435  28.663  1.00  0.00    -0.200 F 
ATOM     49  C   UNL A   1      40.118  27.093  27.553  1.00  0.00     0.200 A 
ATOM     50  F   UNL A   1      41.394  28.770  26.490  1.00  0.00    -0.200 F 
ATOM     51  F   UNL A   1      40.048  26.400  26.408  1.00  0.00    -0.200 F 
ENDBRANCH  27  41
BRANCH  28  52
ATOM     52  C   UNL A   1      40.427  33.789  38.476  1.00  0.00     0.064 A 
ATOM     53  C   UNL A   1      41.192  34.956  38.597  1.00  0.00     0.173 A 
ATOM     54  C   UNL A   1      39.649  33.399  39.578  1.00  0.00     0.173 A 
ATOM     55  F   UNL A   1      41.962  35.360  37.578  1.00  0.00    -0.203 F 
ATOM     56  C   UNL A   1      41.189  35.697  39.778  1.00  0.00     0.198 A 
ATOM     57  C   UNL A   1      39.621  34.158  40.744  1.00  0.00     0.198 A 
ATOM     58  F   UNL A   1      38.891  32.294  39.508  1.00  0.00    -0.203 F 
ATOM     59  F   UNL A   1      41.958  36.789  39.881  1.00  0.00    -0.200 F 
ATOM     60  C   UNL A   1      40.397  35.303  40.846  1.00  0.00     0.200 A 
ATOM     61  F   UNL A   1      38.838  33.786  41.765  1.00  0.00    -0.200 F 
ATOM     62  F   UNL A   1      40.384  36.024  41.975  1.00  0.00    -0.200 F 
ENDBRANCH  28  52
BRANCH  40  63
ATOM     63  C   UNL A   1      44.566  28.869  35.785  1.00  0.00     0.064 A 
ATOM     64  C   UNL A   1      44.532  27.683  36.533  1.00  0.00     0.173 A 
ATOM     65  C   UNL A   1      45.821  29.424  35.492  1.00  0.00     0.173 A 
ATOM     66  F   UNL A   1      43.357  27.120  36.857  1.00  0.00    -0.203 F 
ATOM     67  C   UNL A   1      45.706  27.094  36.996  1.00  0.00     0.198 A 
ATOM     68  C   UNL A   1      46.994  28.814  35.926  1.00  0.00     0.198 A 
ATOM     69  F   UNL A   1      45.910  30.554  34.775  1.00  0.00    -0.203 F 
ATOM     70  F   UNL A   1      45.647  25.993  37.759  1.00  0.00    -0.200 F 
ATOM     71  C   UNL A   1      46.936  27.656  36.686  1.00  0.00     0.200 A 
ATOM     72  F   UNL A   1      48.181  29.350  35.612  1.00  0.00    -0.200 F 
ATOM     73  F   UNL A   1      48.065  27.085  37.126  1.00  0.00    -0.200 F 
ENDBRANCH  40  63
ENDBRANCH  14  15
ENDBRANCH   7   9
ENDBRANCH   4   5
ENDBRANCH   3   4
ENDBRANCH   2   3
ENDBRANCH   1   2
BRANCH   1  74
ATOM     74  C   UNL A   1      35.756  31.789  28.011  1.00  0.00     0.021 C 
BRANCH  74  75
ATOM     75  C   UNL A   1      35.081  30.427  27.825  1.00  0.00     0.116 C 
BRANCH  75  76
ATOM     76  N   UNL A   1      34.032  30.528  26.834  1.00  0.00    -0.351 N 
ATOM     77  C   UNL A   1      33.283  29.583  26.206  1.00  0.00     0.279 C 
ATOM     78  H   UNL A   1      33.822  31.452  26.565  1.00  0.00     0.163 HD
ATOM     79  O   UNL A   1      32.638  29.966  25.223  1.00  0.00    -0.268 OA
BRANCH  77  80
ATOM     80  C   UNL A   1      33.095  28.149  26.748  1.00  0.00     0.283 C 
ATOM     81  C   UNL A   1      31.675  27.595  26.893  1.00  0.00     0.151 C 
ATOM     82  N   UNL A   1      33.953  27.242  25.945  1.00  0.00    -0.321 N 
ATOM     83  S   UNL A   1      31.655  26.058  25.918  1.00  0.00    -0.088 SA
ATOM     84  C   UNL A   1      33.431  25.883  26.081  1.00  0.00     0.274 C 
ATOM     85  H   UNL A   1      34.912  27.278  26.291  1.00  0.00     0.348 HD
ATOM     86  H   UNL A   1      33.949  27.525  24.966  1.00  0.00     0.348 HD
BRANCH  84  87
ATOM     87  C   UNL A   1      34.183  24.966  25.144  1.00  0.00     0.024 A 
ATOM     88  C   UNL A   1      35.470  24.459  25.368  1.00  0.00     0.011 A 
ATOM     89  C   UNL A   1      33.444  24.457  24.055  1.00  0.00     0.057 A 
ATOM     90  C   UNL A   1      35.998  23.479  24.522  1.00  0.00     0.004 A 
ATOM     91  C   UNL A   1      33.925  23.406  23.279  1.00  0.00     0.120 A 
ATOM     92  C   UNL A   1      35.225  22.951  23.487  1.00  0.00     0.046 A 
BRANCH  91  93
ATOM     93  O   UNL A   1      33.184  22.666  22.402  1.00  0.00    -0.489 OA
BRANCH  93  94
ATOM     94  C   UNL A   1      32.040  21.939  22.879  1.00  0.00     0.267 C 
BRANCH  94  95
ATOM     95  C   UNL A   1      32.266  20.482  23.280  1.00  0.00     0.008 A 
ATOM     96  C   UNL A   1      32.182  19.431  22.348  1.00  0.00     0.010 A 
ATOM     97  C   UNL A   1      32.668  20.146  24.588  1.00  0.00     0.049 A 
ATOM     98  C   UNL A   1      32.505  18.114  22.690  1.00  0.00     0.021 A 
ATOM     99  C   UNL A   1      32.960  18.823  24.944  1.00  0.00     0.041 A 
ATOM    100  Cl  UNL A   1      32.843  21.340  25.829  1.00  0.00    -0.084 Cl
ATOM    101  C   UNL A   1      32.888  17.815  23.989  1.00  0.00     0.042 A 
ATOM    102  Cl  UNL A   1      33.273  16.194  24.414  1.00  0.00    -0.084 Cl
ENDBRANCH  94  95
ENDBRANCH  93  94
ENDBRANCH  91  93
ENDBRANCH  84  87
ENDBRANCH  77  80
ENDBRANCH  75  76
ENDBRANCH  74  75
ENDBRANCH   1  74
TORSDOF 17
ENDMDL
MODEL 3
REMARK VINA RESULT:     -11.5      6.600     12.086
REMARK SMILES O=C(NCCCCCCNC(=O)[C@H]1CS[C@@H](c2cccc(OCc3ccc(Cl)cc3Cl)c2)[NH2+]1)c1ccc(-c2c3nc(c(-c4c(F)c(F)c(F)c(F)c4F)c4ccc([nH]4)c(-c4c(F)c(F)c(F)c(F)c4F)c4nc(c(-c5c(F)c(F)c(F)c(F)c5F)c5ccc2[nH]5)C=C4)C=C3)cc1
REMARK SMILES IDX 7 1 6 2 5 3 4 4 3 5 1 6 2 7 34 9 35 10 96 11 36 12 95 13
REMARK SMILES IDX 37 14 38 15 39 16 89 17 40 18 94 19 88 20 90 21 41 22 93 23
REMARK SMILES IDX 87 24 86 25 42 27 74 28 54 29 73 30 55 31 58 32 72 33 91 34
REMARK SMILES IDX 56 35 57 36 71 38 92 39 59 40 43 41 44 42 52 43 45 44 46 45
REMARK SMILES IDX 50 46 53 47 47 48 48 49 51 50 49 51 75 52 76 53 84 54 77 55
REMARK SMILES IDX 78 56 82 57 85 58 79 59 80 60 83 61 81 62 60 63 61 64 69 65
REMARK SMILES IDX 62 66 63 67 67 68 70 69 64 70 65 71 68 72 66 73 8 74 9 75
REMARK SMILES IDX 10 76 11 77 12 79 13 80 14 81 33 82 15 83 16 84 17 87 18 88
REMARK SMILES IDX 32 89 19 90 21 91 20 92 22 93 23 94 24 95 25 96 30 97 26 98
REMARK SMILES IDX 29 99 31 100 27 101 28 102
REMARK H PARENT 3 8 90 26 58 37 10 78 33 85 33 86
REMARK Flexibility Score: inf
ROOT
ATOM      1  C   UNL A   1      40.403  21.645  27.257  1.00  0.00     0.002 C 
ENDROOT
BRANCH   1   2
ATOM      2  C   UNL A   1      41.828  21.209  27.621  1.00  0.00     0.002 C 
BRANCH   2   3
ATOM      3  C   UNL A   1      42.234  19.839  27.078  1.00  0.00     0.021 C 
BRANCH   3   4
ATOM      4  C   UNL A   1      42.065  19.699  25.571  1.00  0.00     0.116 C 
BRANCH   4   5
ATOM      5  N   UNL A   1      43.268  19.178  24.941  1.00  0.00    -0.352 N 
ATOM      6  O   UNL A   1      45.239  19.317  23.847  1.00  0.00    -0.269 OA
ATOM      7  C   UNL A   1      44.409  19.848  24.570  1.00  0.00     0.251 C 
ATOM      8  H   UNL A   1      43.266  18.211  24.755  1.00  0.00     0.163 HD
BRANCH   7   9
ATOM      9  C   UNL A   1      44.618  21.230  25.049  1.00  0.00     0.039 A 
ATOM     10  C   UNL A   1      44.115  22.311  24.319  1.00  0.00     0.014 A 
ATOM     11  C   UNL A   1      45.313  21.445  26.242  1.00  0.00     0.014 A 
ATOM     12  C   UNL A   1      44.425  23.606  24.706  1.00  0.00     0.010 A 
ATOM     13  C   UNL A   1      45.540  22.751  26.681  1.00  0.00     0.010 A 
ATOM     14  C   UNL A   1      45.118  23.842  25.905  1.00  0.00    -0.014 A 
BRANCH  14  15
ATOM     15  C   UNL A   1      45.312  25.239  26.363  1.00  0.00     0.031 A 
ATOM     16  C   UNL A   1      46.646  25.916  26.264  1.00  0.00     0.074 A 
ATOM     17  C   UNL A   1      44.248  25.900  26.860  1.00  0.00     0.049 A 
ATOM     18  N   UNL A   1      46.981  27.134  26.612  1.00  0.00    -0.248 NA
ATOM     19  C   UNL A   1      47.755  25.124  25.712  1.00  0.00     0.031 C 
ATOM     20  C   UNL A   1      42.905  25.335  27.012  1.00  0.00     0.029 A 
ATOM     21  N   UNL A   1      44.120  27.186  27.314  1.00  0.00    -0.354 N 
ATOM     22  C   UNL A   1      48.337  27.250  26.338  1.00  0.00     0.074 A 
ATOM     23  C   UNL A   1      48.772  25.967  25.824  1.00  0.00     0.031 C 
ATOM     24  C   UNL A   1      42.079  26.281  27.476  1.00  0.00     0.029 A 
ATOM     25  C   UNL A   1      42.847  27.495  27.723  1.00  0.00     0.049 A 
ATOM     26  H   UNL A   1      44.867  27.826  27.343  1.00  0.00     0.167 HD
ATOM     27  C   UNL A   1      49.139  28.331  26.496  1.00  0.00     0.037 A 
ATOM     28  C   UNL A   1      42.354  28.625  28.263  1.00  0.00     0.037 A 
ATOM     29  C   UNL A   1      48.690  29.602  27.008  1.00  0.00     0.049 A 
ATOM     30  C   UNL A   1      43.275  29.791  28.467  1.00  0.00     0.074 A 
ATOM     31  C   UNL A   1      49.413  30.771  27.173  1.00  0.00     0.029 A 
ATOM     32  N   UNL A   1      47.401  29.867  27.453  1.00  0.00    -0.354 N 
ATOM     33  N   UNL A   1      44.546  29.905  28.166  1.00  0.00    -0.248 NA
ATOM     34  C   UNL A   1      42.694  30.986  29.092  1.00  0.00     0.031 C 
ATOM     35  C   UNL A   1      48.581  31.722  27.774  1.00  0.00     0.029 A 
ATOM     36  C   UNL A   1      47.319  31.170  27.922  1.00  0.00     0.049 A 
ATOM     37  H   UNL A   1      46.655  29.224  27.438  1.00  0.00     0.167 HD
ATOM     38  C   UNL A   1      44.914  31.187  28.543  1.00  0.00     0.074 A 
ATOM     39  C   UNL A   1      43.725  31.820  29.077  1.00  0.00     0.031 C 
ATOM     40  C   UNL A   1      46.127  31.785  28.455  1.00  0.00     0.037 A 
BRANCH  27  41
ATOM     41  C   UNL A   1      50.591  28.178  26.141  1.00  0.00     0.064 A 
ATOM     42  C   UNL A   1      51.043  28.244  24.813  1.00  0.00     0.173 A 
ATOM     43  C   UNL A   1      51.553  27.988  27.147  1.00  0.00     0.173 A 
ATOM     44  F   UNL A   1      50.168  28.414  23.810  1.00  0.00    -0.203 F 
ATOM     45  C   UNL A   1      52.393  28.088  24.504  1.00  0.00     0.198 A 
ATOM     46  C   UNL A   1      52.905  27.867  26.838  1.00  0.00     0.198 A 
ATOM     47  F   UNL A   1      51.180  27.926  28.434  1.00  0.00    -0.203 F 
ATOM     48  F   UNL A   1      52.791  28.097  23.225  1.00  0.00    -0.200 F 
ATOM     49  C   UNL A   1      53.323  27.906  25.516  1.00  0.00     0.200 A 
ATOM     50  F   UNL A   1      53.804  27.706  27.818  1.00  0.00    -0.200 F 
ATOM     51  F   UNL A   1      54.621  27.759  25.217  1.00  0.00    -0.200 F 
ENDBRANCH  27  41
BRANCH  28  52
ATOM     52  C   UNL A   1      40.919  28.694  28.638  1.00  0.00     0.064 A 
ATOM     53  C   UNL A   1      40.495  28.363  29.932  1.00  0.00     0.173 A 
ATOM     54  C   UNL A   1      39.945  29.120  27.720  1.00  0.00     0.173 A 
ATOM     55  F   UNL A   1      41.385  27.937  30.838  1.00  0.00    -0.203 F 
ATOM     56  C   UNL A   1      39.150  28.444  30.290  1.00  0.00     0.198 A 
ATOM     57  C   UNL A   1      38.608  29.232  28.089  1.00  0.00     0.198 A 
ATOM     58  F   UNL A   1      40.302  29.457  26.472  1.00  0.00    -0.203 F 
ATOM     59  F   UNL A   1      38.767  28.087  31.523  1.00  0.00    -0.200 F 
ATOM     60  C   UNL A   1      38.210  28.887  29.372  1.00  0.00     0.200 A 
ATOM     61  F   UNL A   1      37.707  29.680  27.205  1.00  0.00    -0.200 F 
ATOM     62  F   UNL A   1      36.921  28.978  29.721  1.00  0.00    -0.200 F 
ENDBRANCH  28  52
BRANCH  40  63
ATOM     63  C   UNL A   1      46.219  33.212  28.917  1.00  0.00     0.064 A 
ATOM     64  C   UNL A   1      45.952  34.286  28.055  1.00  0.00     0.173 A 
ATOM     65  C   UNL A   1      46.556  33.505  30.247  1.00  0.00     0.173 A 
ATOM     66  F   UNL A   1      45.644  34.061  26.769  1.00  0.00    -0.203 F 
ATOM     67  C   UNL A   1      46.048  35.603  28.501  1.00  0.00     0.198 A 
ATOM     68  C   UNL A   1      46.617  34.821  30.698  1.00  0.00     0.198 A 
ATOM     69  F   UNL A   1      46.815  32.515  31.113  1.00  0.00    -0.203 F 
ATOM     70  F   UNL A   1      45.845  36.614  27.645  1.00  0.00    -0.200 F 
ATOM     71  C   UNL A   1      46.373  35.868  29.823  1.00  0.00     0.200 A 
ATOM     72  F   UNL A   1      46.916  35.074  31.979  1.00  0.00    -0.200 F 
ATOM     73  F   UNL A   1      46.459  37.134  30.251  1.00  0.00    -0.200 F 
ENDBRANCH  40  63
ENDBRANCH  14  15
ENDBRANCH   7   9
ENDBRANCH   4   5
ENDBRANCH   3   4
ENDBRANCH   2   3
ENDBRANCH   1   2
BRANCH   1  74
ATOM     74  C   UNL A   1      40.159  23.161  27.306  1.00  0.00     0.021 C 
BRANCH  74  75
ATOM     75  C   UNL A   1      38.909  23.602  26.537  1.00  0.00     0.116 C 
BRANCH  75  76
ATOM     76  N   UNL A   1      38.067  22.456  26.267  1.00  0.00    -0.351 N 
ATOM     77  C   UNL A   1      36.861  22.342  25.650  1.00  0.00     0.279 C 
ATOM     78  H   UNL A   1      38.436  21.601  26.590  1.00  0.00     0.163 HD
ATOM     79  O   UNL A   1      36.276  21.262  25.796  1.00  0.00    -0.268 OA
BRANCH  77  80
ATOM     80  C   UNL A   1      36.294  23.409  24.689  1.00  0.00     0.283 C 
ATOM     81  C   UNL A   1      35.581  22.950  23.414  1.00  0.00     0.151 C 
ATOM     82  N   UNL A   1      35.447  24.335  25.482  1.00  0.00    -0.321 N 
ATOM     83  S   UNL A   1      33.928  23.710  23.486  1.00  0.00    -0.088 SA
ATOM     84  C   UNL A   1      34.527  25.008  24.567  1.00  0.00     0.274 C 
ATOM     85  H   UNL A   1      36.034  25.026  25.949  1.00  0.00     0.348 HD
ATOM     86  H   UNL A   1      34.925  23.819  26.190  1.00  0.00     0.348 HD
BRANCH  84  87
ATOM     87  C   UNL A   1      33.543  25.830  25.368  1.00  0.00     0.024 A 
ATOM     88  C   UNL A   1      33.866  26.959  26.132  1.00  0.00     0.011 A 
ATOM     89  C   UNL A   1      32.180  25.522  25.171  1.00  0.00     0.057 A 
ATOM     90  C   UNL A   1      32.853  27.748  26.686  1.00  0.00     0.004 A 
ATOM     91  C   UNL A   1      31.172  26.366  25.631  1.00  0.00     0.120 A 
ATOM     92  C   UNL A   1      31.513  27.454  26.430  1.00  0.00     0.046 A 
BRANCH  91  93
ATOM     93  O   UNL A   1      29.860  26.310  25.254  1.00  0.00    -0.489 OA
BRANCH  93  94
ATOM     94  C   UNL A   1      29.523  26.321  23.857  1.00  0.00     0.267 C 
BRANCH  94  95
ATOM     95  C   UNL A   1      29.141  27.670  23.250  1.00  0.00     0.008 A 
ATOM     96  C   UNL A   1      27.825  28.165  23.301  1.00  0.00     0.010 A 
ATOM     97  C   UNL A   1      30.122  28.520  22.701  1.00  0.00     0.049 A 
ATOM     98  C   UNL A   1      27.501  29.449  22.852  1.00  0.00     0.021 A 
ATOM     99  C   UNL A   1      29.796  29.794  22.218  1.00  0.00     0.041 A 
ATOM    100  Cl  UNL A   1      31.787  28.054  22.601  1.00  0.00    -0.084 Cl
ATOM    101  C   UNL A   1      28.488  30.256  22.307  1.00  0.00     0.042 A 
ATOM    102  Cl  UNL A   1      28.089  31.831  21.743  1.00  0.00    -0.084 Cl
ENDBRANCH  94  95
ENDBRANCH  93  94
ENDBRANCH  91  93
ENDBRANCH  84  87
ENDBRANCH  77  80
ENDBRANCH  75  76
ENDBRANCH  74  75
ENDBRANCH   1  74
TORSDOF 17
ENDMDL
