MODEL 1
REMARK VINA RESULT:     -12.1      0.000      0.000
REMARK SMILES Cc1ccc(S(=O)(=O)n2cc(C(=O)C(=O)N[C@@H](Cc3c[nH]c4ccccc34)C(=O)NCC(=O)NCCCCCCNC(=O)c3ccc(-c4c5nc(c(-c6c(F)c(F)c(F)c(F)c6F)c6ccc([nH]6)c(-c6c(F)c(F)c(F)c(F)c6F)c6nc(c(-c7c(F)c(F)c(F)c(F)c7F)c7ccc4[nH]7)C=C6)C=C5)cc3)c3ccccc32)cc1
REMARK SMILES IDX 35 1 34 2 32 3 33 4 31 6 30 7 28 8 29 9 17 11 16 12 14 13
REMARK SMILES IDX 15 14 12 16 13 17 11 18 9 19 10 20 112 21 107 22 111 23
REMARK SMILES IDX 108 24 110 25 109 26 6 27 7 28 8 29 5 30 1 31 2 32 3 33
REMARK SMILES IDX 114 34 4 35 113 36 18 37 19 38 20 39 27 40 21 41 22 42 26 43
REMARK SMILES IDX 23 45 25 46 24 47 36 48 37 49 38 50 39 51 40 52 41 53 42 54
REMARK SMILES IDX 43 56 44 57 45 58 106 59 46 60 105 61 47 62 48 63 49 64
REMARK SMILES IDX 99 65 50 66 104 67 98 68 100 69 51 70 103 71 97 72 96 73
REMARK SMILES IDX 52 75 84 76 64 77 83 78 65 79 68 80 82 81 101 82 66 83 67 84
REMARK SMILES IDX 81 86 102 87 69 88 53 89 54 90 62 91 55 92 56 93 60 94 63 95
REMARK SMILES IDX 57 96 58 97 61 98 59 99 85 100 86 101 94 102 87 103 88 104
REMARK SMILES IDX 92 105 95 106 89 107 90 108 93 109 91 110 70 111 71 112
REMARK SMILES IDX 79 113 72 114 73 115 77 116 80 117 74 118 75 119 78 120
REMARK SMILES IDX 76 121
REMARK H PARENT 34 5 30 10 16 15 21 44 41 55 100 74 68 85
REMARK Flexibility Score: inf
ROOT
ATOM      1  C   UNL A   1      42.777  34.975  29.128  1.00  0.00     0.116 C 
ENDROOT
BRANCH   1   2
ATOM      2  N   UNL A   1      42.209  35.828  28.111  1.00  0.00    -0.355 N 
ATOM      3  C   UNL A   1      42.657  37.054  27.715  1.00  0.00     0.239 C 
ATOM      4  O   UNL A   1      42.107  37.611  26.764  1.00  0.00    -0.273 OA
ATOM      5  H   UNL A   1      41.407  35.487  27.653  1.00  0.00     0.163 HD
BRANCH   3   6
ATOM      6  C   UNL A   1      43.946  37.601  28.329  1.00  0.00     0.216 C 
BRANCH   6   7
ATOM      7  N   UNL A   1      43.897  38.262  29.622  1.00  0.00    -0.345 N 
ATOM      8  C   UNL A   1      43.433  39.499  29.965  1.00  0.00     0.243 C 
ATOM      9  O   UNL A   1      43.166  39.661  31.163  1.00  0.00    -0.273 OA
ATOM     10  H   UNL A   1      44.255  37.733  30.371  1.00  0.00     0.164 HD
BRANCH   8  11
ATOM     11  C   UNL A   1      43.127  40.652  28.951  1.00  0.00     0.176 C 
BRANCH  11  12
ATOM     12  N   UNL A   1      41.855  40.575  28.194  1.00  0.00    -0.337 N 
ATOM     13  C   UNL A   1      41.560  40.860  26.863  1.00  0.00     0.293 C 
ATOM     14  O   UNL A   1      40.389  40.947  26.501  1.00  0.00    -0.265 OA
ATOM     15  H   UNL A   1      41.084  40.268  28.724  1.00  0.00     0.164 HD
BRANCH  13  16
ATOM     16  C   UNL A   1      42.664  40.964  25.806  1.00  0.00     0.252 C 
ATOM     17  O   UNL A   1      43.631  40.223  25.986  1.00  0.00    -0.283 OA
BRANCH  16  18
ATOM     18  C   UNL A   1      42.627  41.918  24.674  1.00  0.00     0.054 A 
ATOM     19  N   UNL A   1      42.186  43.134  22.795  1.00  0.00    -0.240 N 
ATOM     20  C   UNL A   1      41.790  42.018  23.549  1.00  0.00     0.117 A 
ATOM     21  C   UNL A   1      43.135  43.831  23.567  1.00  0.00     0.065 A 
ATOM     22  C   UNL A   1      43.639  42.908  24.478  1.00  0.00     0.012 A 
ATOM     23  C   UNL A   1      43.769  45.070  23.351  1.00  0.00     0.028 A 
ATOM     24  C   UNL A   1      44.923  43.131  25.021  1.00  0.00     0.011 A 
ATOM     25  C   UNL A   1      45.062  45.237  23.846  1.00  0.00     0.002 A 
ATOM     26  C   UNL A   1      45.652  44.259  24.632  1.00  0.00     0.001 A 
BRANCH  19  27
ATOM     27  S   UNL A   1      42.630  43.128  21.088  1.00  0.00     0.268 S 
ATOM     28  O   UNL A   1      41.616  43.970  20.479  1.00  0.00    -0.201 OA
ATOM     29  O   UNL A   1      42.697  41.701  20.799  1.00  0.00    -0.201 OA
BRANCH  27  30
ATOM     30  C   UNL A   1      44.162  43.662  20.401  1.00  0.00     0.088 A 
ATOM     31  C   UNL A   1      48.315  44.337  19.372  1.00  0.00     0.044 C 
ATOM     32  C   UNL A   1      46.862  44.109  19.679  1.00  0.00    -0.051 A 
ATOM     33  C   UNL A   1      46.549  43.065  20.537  1.00  0.00     0.005 A 
ATOM     34  C   UNL A   1      45.814  44.916  19.180  1.00  0.00     0.005 A 
ATOM     35  C   UNL A   1      45.224  42.844  20.873  1.00  0.00     0.022 A 
ATOM     36  C   UNL A   1      44.455  44.704  19.539  1.00  0.00     0.022 A 
ENDBRANCH  27  30
ENDBRANCH  19  27
ENDBRANCH  16  18
ENDBRANCH  13  16
ENDBRANCH  11  12
BRANCH  11  37
ATOM     37  C   UNL A   1      43.404  42.074  29.546  1.00  0.00     0.072 C 
BRANCH  37  38
ATOM     38  C   UNL A   1      44.839  42.468  29.815  1.00  0.00    -0.020 A 
ATOM     39  C   UNL A   1      45.270  43.292  30.844  1.00  0.00     0.087 A 
ATOM     40  C   UNL A   1      46.016  42.137  29.054  1.00  0.00     0.003 A 
ATOM     41  N   UNL A   1      46.597  43.578  30.650  1.00  0.00    -0.361 N 
ATOM     42  C   UNL A   1      47.040  42.979  29.494  1.00  0.00     0.046 A 
ATOM     43  C   UNL A   1      46.273  41.311  27.940  1.00  0.00     0.010 A 
ATOM     44  H   UNL A   1      47.150  44.130  31.248  1.00  0.00     0.166 HD
ATOM     45  C   UNL A   1      48.243  43.143  28.797  1.00  0.00     0.026 A 
ATOM     46  C   UNL A   1      47.460  41.479  27.216  1.00  0.00     0.001 A 
ATOM     47  C   UNL A   1      48.416  42.404  27.623  1.00  0.00     0.002 A 
ENDBRANCH  37  38
ENDBRANCH  11  37
ENDBRANCH   8  11
ENDBRANCH   6   7
ENDBRANCH   3   6
ENDBRANCH   1   2
BRANCH   1  48
ATOM     48  C   UNL A   1      41.705  34.295  29.961  1.00  0.00     0.021 C 
BRANCH  48  49
ATOM     49  C   UNL A   1      40.277  34.588  29.501  1.00  0.00     0.002 C 
BRANCH  49  50
ATOM     50  C   UNL A   1      39.153  33.970  30.352  1.00  0.00     0.002 C 
BRANCH  50  51
ATOM     51  C   UNL A   1      37.866  33.605  29.611  1.00  0.00     0.021 C 
BRANCH  51  52
ATOM     52  C   UNL A   1      36.795  32.970  30.483  1.00  0.00     0.116 C 
BRANCH  52  53
ATOM     53  N   UNL A   1      35.549  32.700  29.799  1.00  0.00    -0.352 N 
ATOM     54  C   UNL A   1      35.223  31.665  28.916  1.00  0.00     0.251 C 
ATOM     55  H   UNL A   1      34.823  33.339  29.982  1.00  0.00     0.163 HD
ATOM     56  O   UNL A   1      34.145  31.650  28.374  1.00  0.00    -0.269 OA
BRANCH  54  57
ATOM     57  C   UNL A   1      36.162  30.523  28.767  1.00  0.00     0.039 A 
ATOM     58  C   UNL A   1      36.399  29.722  29.893  1.00  0.00     0.014 A 
ATOM     59  C   UNL A   1      36.937  30.358  27.625  1.00  0.00     0.014 A 
ATOM     60  C   UNL A   1      37.560  28.950  29.957  1.00  0.00     0.010 A 
ATOM     61  C   UNL A   1      38.143  29.694  27.728  1.00  0.00     0.010 A 
ATOM     62  C   UNL A   1      38.484  29.043  28.918  1.00  0.00    -0.014 A 
BRANCH  62  63
ATOM     63  C   UNL A   1      39.864  28.580  29.002  1.00  0.00     0.031 A 
ATOM     64  C   UNL A   1      40.211  27.192  28.629  1.00  0.00     0.074 A 
ATOM     65  C   UNL A   1      40.841  29.481  29.250  1.00  0.00     0.049 A 
ATOM     66  N   UNL A   1      41.348  26.636  28.873  1.00  0.00    -0.248 NA
ATOM     67  C   UNL A   1      39.270  26.302  27.960  1.00  0.00     0.031 C 
ATOM     68  C   UNL A   1      42.276  29.324  29.021  1.00  0.00     0.029 A 
ATOM     69  N   UNL A   1      40.738  30.687  29.964  1.00  0.00    -0.354 N 
ATOM     70  C   UNL A   1      41.392  25.438  28.199  1.00  0.00     0.074 A 
ATOM     71  C   UNL A   1      40.058  25.262  27.672  1.00  0.00     0.031 C 
ATOM     72  C   UNL A   1      42.937  30.176  29.818  1.00  0.00     0.029 A 
ATOM     73  C   UNL A   1      41.953  30.790  30.690  1.00  0.00     0.049 A 
ATOM     74  H   UNL A   1      39.986  31.322  29.962  1.00  0.00     0.167 HD
ATOM     75  C   UNL A   1      42.584  24.784  28.086  1.00  0.00     0.037 A 
ATOM     76  C   UNL A   1      41.956  30.715  32.054  1.00  0.00     0.037 A 
ATOM     77  C   UNL A   1      43.629  25.447  28.865  1.00  0.00     0.049 A 
ATOM     78  C   UNL A   1      42.740  29.551  32.626  1.00  0.00     0.074 A 
ATOM     79  C   UNL A   1      44.646  26.342  28.573  1.00  0.00     0.029 A 
ATOM     80  N   UNL A   1      43.517  25.433  30.241  1.00  0.00    -0.354 N 
ATOM     81  N   UNL A   1      43.291  28.611  31.910  1.00  0.00    -0.248 NA
ATOM     82  C   UNL A   1      42.878  29.304  34.063  1.00  0.00     0.031 C 
ATOM     83  C   UNL A   1      45.122  26.885  29.802  1.00  0.00     0.029 A 
ATOM     84  C   UNL A   1      44.398  26.313  30.832  1.00  0.00     0.049 A 
ATOM     85  H   UNL A   1      42.886  24.864  30.738  1.00  0.00     0.167 HD
ATOM     86  C   UNL A   1      43.786  27.642  32.737  1.00  0.00     0.074 A 
ATOM     87  C   UNL A   1      43.513  28.119  34.078  1.00  0.00     0.031 C 
ATOM     88  C   UNL A   1      44.345  26.490  32.271  1.00  0.00     0.037 A 
BRANCH  75  89
ATOM     89  C   UNL A   1      42.860  23.648  27.131  1.00  0.00     0.064 A 
ATOM     90  C   UNL A   1      42.359  22.354  27.393  1.00  0.00     0.173 A 
ATOM     91  C   UNL A   1      43.636  23.751  25.962  1.00  0.00     0.173 A 
ATOM     92  F   UNL A   1      41.526  22.119  28.415  1.00  0.00    -0.203 F 
ATOM     93  C   UNL A   1      42.696  21.244  26.613  1.00  0.00     0.198 A 
ATOM     94  C   UNL A   1      44.024  22.633  25.215  1.00  0.00     0.198 A 
ATOM     95  F   UNL A   1      43.987  24.940  25.459  1.00  0.00    -0.203 F 
ATOM     96  F   UNL A   1      42.183  20.042  26.909  1.00  0.00    -0.200 F 
ATOM     97  C   UNL A   1      43.561  21.377  25.546  1.00  0.00     0.200 A 
ATOM     98  F   UNL A   1      44.843  22.787  24.166  1.00  0.00    -0.200 F 
ATOM     99  F   UNL A   1      43.919  20.308  24.824  1.00  0.00    -0.200 F 
ENDBRANCH  75  89
BRANCH  76 100
ATOM    100  C   UNL A   1      40.719  31.288  32.652  1.00  0.00     0.064 A 
ATOM    101  C   UNL A   1      39.662  30.409  32.964  1.00  0.00     0.173 A 
ATOM    102  C   UNL A   1      40.723  32.544  33.267  1.00  0.00     0.173 A 
ATOM    103  F   UNL A   1      39.612  29.193  32.398  1.00  0.00    -0.203 F 
ATOM    104  C   UNL A   1      38.734  30.721  33.955  1.00  0.00     0.198 A 
ATOM    105  C   UNL A   1      39.775  32.862  34.241  1.00  0.00     0.198 A 
ATOM    106  F   UNL A   1      41.708  33.419  33.023  1.00  0.00    -0.203 F 
ATOM    107  F   UNL A   1      37.822  29.810  34.325  1.00  0.00    -0.200 F 
ATOM    108  C   UNL A   1      38.810  31.935  34.613  1.00  0.00     0.200 A 
ATOM    109  F   UNL A   1      39.861  34.028  34.896  1.00  0.00    -0.200 F 
ATOM    110  F   UNL A   1      37.983  32.199  35.635  1.00  0.00    -0.200 F 
ENDBRANCH  76 100
BRANCH  88 111
ATOM    111  C   UNL A   1      44.891  25.424  33.167  1.00  0.00     0.064 A 
ATOM    112  C   UNL A   1      44.067  24.699  34.039  1.00  0.00     0.173 A 
ATOM    113  C   UNL A   1      46.277  25.198  33.271  1.00  0.00     0.173 A 
ATOM    114  F   UNL A   1      42.736  24.874  34.026  1.00  0.00    -0.203 F 
ATOM    115  C   UNL A   1      44.600  23.788  34.951  1.00  0.00     0.198 A 
ATOM    116  C   UNL A   1      46.810  24.325  34.216  1.00  0.00     0.198 A 
ATOM    117  F   UNL A   1      47.144  25.802  32.445  1.00  0.00    -0.203 F 
ATOM    118  F   UNL A   1      43.780  23.082  35.742  1.00  0.00    -0.200 F 
ATOM    119  C   UNL A   1      45.971  23.614  35.052  1.00  0.00     0.200 A 
ATOM    120  F   UNL A   1      48.139  24.178  34.311  1.00  0.00    -0.200 F 
ATOM    121  F   UNL A   1      46.482  22.760  35.949  1.00  0.00    -0.200 F 
ENDBRANCH  88 111
ENDBRANCH  62  63
ENDBRANCH  54  57
ENDBRANCH  52  53
ENDBRANCH  51  52
ENDBRANCH  50  51
ENDBRANCH  49  50
ENDBRANCH  48  49
ENDBRANCH   1  48
TORSDOF 22
ENDMDL
MODEL 2
REMARK VINA RESULT:     -10.6      6.380     12.941
REMARK SMILES Cc1ccc(S(=O)(=O)n2cc(C(=O)C(=O)N[C@@H](Cc3c[nH]c4ccccc34)C(=O)NCC(=O)NCCCCCCNC(=O)c3ccc(-c4c5nc(c(-c6c(F)c(F)c(F)c(F)c6F)c6ccc([nH]6)c(-c6c(F)c(F)c(F)c(F)c6F)c6nc(c(-c7c(F)c(F)c(F)c(F)c7F)c7ccc4[nH]7)C=C6)C=C5)cc3)c3ccccc32)cc1
REMARK SMILES IDX 35 1 34 2 32 3 33 4 31 6 30 7 28 8 29 9 17 11 16 12 14 13
REMARK SMILES IDX 15 14 12 16 13 17 11 18 9 19 10 20 112 21 107 22 111 23
REMARK SMILES IDX 108 24 110 25 109 26 6 27 7 28 8 29 5 30 1 31 2 32 3 33
REMARK SMILES IDX 114 34 4 35 113 36 18 37 19 38 20 39 27 40 21 41 22 42 26 43
REMARK SMILES IDX 23 45 25 46 24 47 36 48 37 49 38 50 39 51 40 52 41 53 42 54
REMARK SMILES IDX 43 56 44 57 45 58 106 59 46 60 105 61 47 62 48 63 49 64
REMARK SMILES IDX 99 65 50 66 104 67 98 68 100 69 51 70 103 71 97 72 96 73
REMARK SMILES IDX 52 75 84 76 64 77 83 78 65 79 68 80 82 81 101 82 66 83 67 84
REMARK SMILES IDX 81 86 102 87 69 88 53 89 54 90 62 91 55 92 56 93 60 94 63 95
REMARK SMILES IDX 57 96 58 97 61 98 59 99 85 100 86 101 94 102 87 103 88 104
REMARK SMILES IDX 92 105 95 106 89 107 90 108 93 109 91 110 70 111 71 112
REMARK SMILES IDX 79 113 72 114 73 115 77 116 80 117 74 118 75 119 78 120
REMARK SMILES IDX 76 121
REMARK H PARENT 34 5 30 10 16 15 21 44 41 55 100 74 68 85
REMARK Flexibility Score: inf
ROOT
ATOM      1  C   UNL A   1      40.628  27.787  28.908  1.00  0.00     0.116 C 
ENDROOT
BRANCH   1   2
ATOM      2  N   UNL A   1      39.907  28.282  27.759  1.00  0.00    -0.355 N 
ATOM      3  C   UNL A   1      39.073  29.360  27.708  1.00  0.00     0.239 C 
ATOM      4  O   UNL A   1      38.608  29.702  26.620  1.00  0.00    -0.273 OA
ATOM      5  H   UNL A   1      40.031  27.785  26.918  1.00  0.00     0.163 HD
BRANCH   3   6
ATOM      6  C   UNL A   1      38.904  30.220  28.960  1.00  0.00     0.216 C 
BRANCH   6   7
ATOM      7  N   UNL A   1      37.811  29.944  29.876  1.00  0.00    -0.345 N 
ATOM      8  C   UNL A   1      36.465  30.098  29.717  1.00  0.00     0.243 C 
ATOM      9  O   UNL A   1      35.753  29.447  30.493  1.00  0.00    -0.273 OA
ATOM     10  H   UNL A   1      38.085  29.587  30.752  1.00  0.00     0.164 HD
BRANCH   8  11
ATOM     11  C   UNL A   1      35.788  30.937  28.582  1.00  0.00     0.176 C 
BRANCH  11  12
ATOM     12  N   UNL A   1      34.331  30.757  28.376  1.00  0.00    -0.337 N 
ATOM     13  C   UNL A   1      33.621  30.052  27.406  1.00  0.00     0.293 C 
ATOM     14  O   UNL A   1      32.411  30.225  27.289  1.00  0.00    -0.265 OA
ATOM     15  H   UNL A   1      33.768  31.214  29.041  1.00  0.00     0.164 HD
BRANCH  13  16
ATOM     16  C   UNL A   1      34.296  28.979  26.546  1.00  0.00     0.252 C 
ATOM     17  O   UNL A   1      35.499  29.148  26.349  1.00  0.00    -0.283 OA
BRANCH  16  18
ATOM     18  C   UNL A   1      33.568  27.843  25.935  1.00  0.00     0.054 A 
ATOM     19  N   UNL A   1      32.709  25.830  25.293  1.00  0.00    -0.240 N 
ATOM     20  C   UNL A   1      33.654  26.453  26.124  1.00  0.00     0.117 A 
ATOM     21  C   UNL A   1      31.909  26.851  24.749  1.00  0.00     0.065 A 
ATOM     22  C   UNL A   1      32.661  28.018  24.844  1.00  0.00     0.012 A 
ATOM     23  C   UNL A   1      30.750  26.789  23.950  1.00  0.00     0.028 A 
ATOM     24  C   UNL A   1      32.378  29.075  23.952  1.00  0.00     0.011 A 
ATOM     25  C   UNL A   1      30.531  27.817  23.035  1.00  0.00     0.002 A 
ATOM     26  C   UNL A   1      31.364  28.926  23.003  1.00  0.00     0.001 A 
BRANCH  19  27
ATOM     27  S   UNL A   1      33.046  24.575  24.100  1.00  0.00     0.268 S 
ATOM     28  O   UNL A   1      33.163  25.322  22.859  1.00  0.00    -0.201 OA
ATOM     29  O   UNL A   1      31.943  23.647  24.318  1.00  0.00    -0.201 OA
BRANCH  27  30
ATOM     30  C   UNL A   1      34.407  23.457  24.108  1.00  0.00     0.088 A 
ATOM     31  C   UNL A   1      37.354  20.407  24.991  1.00  0.00     0.044 C 
ATOM     32  C   UNL A   1      36.335  21.453  24.634  1.00  0.00    -0.051 A 
ATOM     33  C   UNL A   1      35.194  21.524  25.417  1.00  0.00     0.005 A 
ATOM     34  C   UNL A   1      36.497  22.385  23.583  1.00  0.00     0.005 A 
ATOM     35  C   UNL A   1      34.248  22.498  25.144  1.00  0.00     0.022 A 
ATOM     36  C   UNL A   1      35.537  23.398  23.312  1.00  0.00     0.022 A 
ENDBRANCH  27  30
ENDBRANCH  19  27
ENDBRANCH  16  18
ENDBRANCH  13  16
ENDBRANCH  11  12
BRANCH  11  37
ATOM     37  C   UNL A   1      36.227  32.440  28.592  1.00  0.00     0.072 C 
BRANCH  37  38
ATOM     38  C   UNL A   1      35.248  33.466  29.117  1.00  0.00    -0.020 A 
ATOM     39  C   UNL A   1      34.741  34.539  28.399  1.00  0.00     0.087 A 
ATOM     40  C   UNL A   1      34.700  33.584  30.444  1.00  0.00     0.003 A 
ATOM     41  N   UNL A   1      34.047  35.353  29.259  1.00  0.00    -0.361 N 
ATOM     42  C   UNL A   1      34.115  34.849  30.536  1.00  0.00     0.046 A 
ATOM     43  C   UNL A   1      34.773  32.803  31.617  1.00  0.00     0.010 A 
ATOM     44  H   UNL A   1      33.573  36.175  28.999  1.00  0.00     0.166 HD
ATOM     45  C   UNL A   1      33.734  35.425  31.754  1.00  0.00     0.026 A 
ATOM     46  C   UNL A   1      34.421  33.371  32.847  1.00  0.00     0.001 A 
ATOM     47  C   UNL A   1      33.937  34.674  32.915  1.00  0.00     0.002 A 
ENDBRANCH  37  38
ENDBRANCH  11  37
ENDBRANCH   8  11
ENDBRANCH   6   7
ENDBRANCH   3   6
ENDBRANCH   1   2
BRANCH   1  48
ATOM     48  C   UNL A   1      42.077  27.476  28.577  1.00  0.00     0.021 C 
BRANCH  48  49
ATOM     49  C   UNL A   1      42.296  26.087  27.977  1.00  0.00     0.002 C 
BRANCH  49  50
ATOM     50  C   UNL A   1      43.718  25.787  27.470  1.00  0.00     0.002 C 
BRANCH  50  51
ATOM     51  C   UNL A   1      43.916  25.813  25.954  1.00  0.00     0.021 C 
BRANCH  51  52
ATOM     52  C   UNL A   1      44.203  27.190  25.379  1.00  0.00     0.116 C 
BRANCH  52  53
ATOM     53  N   UNL A   1      45.436  27.281  24.628  1.00  0.00    -0.352 N 
ATOM     54  C   UNL A   1      46.482  28.204  24.740  1.00  0.00     0.251 C 
ATOM     55  H   UNL A   1      45.558  26.592  23.936  1.00  0.00     0.163 HD
ATOM     56  O   UNL A   1      47.404  28.170  23.962  1.00  0.00    -0.269 OA
BRANCH  54  57
ATOM     57  C   UNL A   1      46.507  29.126  25.905  1.00  0.00     0.039 A 
ATOM     58  C   UNL A   1      47.550  28.979  26.831  1.00  0.00     0.014 A 
ATOM     59  C   UNL A   1      45.442  29.973  26.190  1.00  0.00     0.014 A 
ATOM     60  C   UNL A   1      47.396  29.475  28.126  1.00  0.00     0.010 A 
ATOM     61  C   UNL A   1      45.231  30.360  27.498  1.00  0.00     0.010 A 
ATOM     62  C   UNL A   1      46.179  30.055  28.480  1.00  0.00    -0.014 A 
BRANCH  62  63
ATOM     63  C   UNL A   1      45.753  30.296  29.854  1.00  0.00     0.031 A 
ATOM     64  C   UNL A   1      45.111  29.219  30.637  1.00  0.00     0.074 A 
ATOM     65  C   UNL A   1      46.115  31.451  30.457  1.00  0.00     0.049 A 
ATOM     66  N   UNL A   1      44.514  29.397  31.766  1.00  0.00    -0.248 NA
ATOM     67  C   UNL A   1      45.073  27.835  30.182  1.00  0.00     0.031 C 
ATOM     68  C   UNL A   1      46.124  31.742  31.889  1.00  0.00     0.029 A 
ATOM     69  N   UNL A   1      46.370  32.693  29.852  1.00  0.00    -0.354 N 
ATOM     70  C   UNL A   1      44.236  28.161  32.302  1.00  0.00     0.074 A 
ATOM     71  C   UNL A   1      44.576  27.221  31.259  1.00  0.00     0.031 C 
ATOM     72  C   UNL A   1      46.052  33.070  32.060  1.00  0.00     0.029 A 
ATOM     73  C   UNL A   1      45.838  33.656  30.749  1.00  0.00     0.049 A 
ATOM     74  H   UNL A   1      46.820  32.860  28.993  1.00  0.00     0.167 HD
ATOM     75  C   UNL A   1      43.843  28.079  33.606  1.00  0.00     0.037 A 
ATOM     76  C   UNL A   1      44.760  34.415  30.395  1.00  0.00     0.037 A 
ATOM     77  C   UNL A   1      43.645  29.405  34.187  1.00  0.00     0.049 A 
ATOM     78  C   UNL A   1      43.533  34.224  31.263  1.00  0.00     0.074 A 
ATOM     79  C   UNL A   1      44.408  30.250  34.977  1.00  0.00     0.029 A 
ATOM     80  N   UNL A   1      42.602  30.172  33.706  1.00  0.00    -0.354 N 
ATOM     81  N   UNL A   1      43.434  33.338  32.214  1.00  0.00    -0.248 NA
ATOM     82  C   UNL A   1      42.281  34.956  31.057  1.00  0.00     0.031 C 
ATOM     83  C   UNL A   1      43.816  31.546  34.938  1.00  0.00     0.029 A 
ATOM     84  C   UNL A   1      42.695  31.481  34.130  1.00  0.00     0.049 A 
ATOM     85  H   UNL A   1      41.881  29.827  33.131  1.00  0.00     0.167 HD
ATOM     86  C   UNL A   1      42.155  33.328  32.694  1.00  0.00     0.074 A 
ATOM     87  C   UNL A   1      41.467  34.362  31.947  1.00  0.00     0.031 C 
ATOM     88  C   UNL A   1      41.728  32.443  33.638  1.00  0.00     0.037 A 
BRANCH  75  89
ATOM     89  C   UNL A   1      43.808  26.806  34.420  1.00  0.00     0.064 A 
ATOM     90  C   UNL A   1      45.004  26.228  34.896  1.00  0.00     0.173 A 
ATOM     91  C   UNL A   1      42.641  26.087  34.738  1.00  0.00     0.173 A 
ATOM     92  F   UNL A   1      46.185  26.844  34.757  1.00  0.00    -0.203 F 
ATOM     93  C   UNL A   1      45.037  24.987  35.538  1.00  0.00     0.198 A 
ATOM     94  C   UNL A   1      42.676  24.817  35.324  1.00  0.00     0.198 A 
ATOM     95  F   UNL A   1      41.425  26.615  34.558  1.00  0.00    -0.203 F 
ATOM     96  F   UNL A   1      46.204  24.492  35.972  1.00  0.00    -0.200 F 
ATOM     97  C   UNL A   1      43.877  24.263  35.717  1.00  0.00     0.200 A 
ATOM     98  F   UNL A   1      41.535  24.142  35.515  1.00  0.00    -0.200 F 
ATOM     99  F   UNL A   1      43.911  23.054  36.292  1.00  0.00    -0.200 F 
ENDBRANCH  75  89
BRANCH  76 100
ATOM    100  C   UNL A   1      44.737  34.713  28.936  1.00  0.00     0.064 A 
ATOM    101  C   UNL A   1      45.662  35.650  28.433  1.00  0.00     0.173 A 
ATOM    102  C   UNL A   1      44.139  33.837  28.024  1.00  0.00     0.173 A 
ATOM    103  F   UNL A   1      46.262  36.515  29.267  1.00  0.00    -0.203 F 
ATOM    104  C   UNL A   1      46.074  35.614  27.104  1.00  0.00     0.198 A 
ATOM    105  C   UNL A   1      44.537  33.822  26.687  1.00  0.00     0.198 A 
ATOM    106  F   UNL A   1      43.262  32.914  28.442  1.00  0.00    -0.203 F 
ATOM    107  F   UNL A   1      47.055  36.428  26.687  1.00  0.00    -0.200 F 
ATOM    108  C   UNL A   1      45.533  34.679  26.239  1.00  0.00     0.200 A 
ATOM    109  F   UNL A   1      44.030  32.903  25.854  1.00  0.00    -0.200 F 
ATOM    110  F   UNL A   1      45.998  34.574  24.986  1.00  0.00    -0.200 F 
ENDBRANCH  76 100
BRANCH  88 111
ATOM    111  C   UNL A   1      40.330  32.425  34.171  1.00  0.00     0.064 A 
ATOM    112  C   UNL A   1      39.300  31.734  33.518  1.00  0.00     0.173 A 
ATOM    113  C   UNL A   1      39.962  33.213  35.279  1.00  0.00     0.173 A 
ATOM    114  F   UNL A   1      39.559  30.983  32.436  1.00  0.00    -0.203 F 
ATOM    115  C   UNL A   1      37.979  31.817  33.959  1.00  0.00     0.198 A 
ATOM    116  C   UNL A   1      38.636  33.332  35.686  1.00  0.00     0.198 A 
ATOM    117  F   UNL A   1      40.882  33.867  36.003  1.00  0.00    -0.203 F 
ATOM    118  F   UNL A   1      37.024  31.112  33.334  1.00  0.00    -0.200 F 
ATOM    119  C   UNL A   1      37.644  32.629  35.030  1.00  0.00     0.200 A 
ATOM    120  F   UNL A   1      38.326  34.132  36.717  1.00  0.00    -0.200 F 
ATOM    121  F   UNL A   1      36.371  32.728  35.433  1.00  0.00    -0.200 F 
ENDBRANCH  88 111
ENDBRANCH  62  63
ENDBRANCH  54  57
ENDBRANCH  52  53
ENDBRANCH  51  52
ENDBRANCH  50  51
ENDBRANCH  49  50
ENDBRANCH  48  49
ENDBRANCH   1  48
TORSDOF 22
ENDMDL
MODEL 3
REMARK VINA RESULT:     -10.5      6.542     13.138
REMARK SMILES Cc1ccc(S(=O)(=O)n2cc(C(=O)C(=O)N[C@@H](Cc3c[nH]c4ccccc34)C(=O)NCC(=O)NCCCCCCNC(=O)c3ccc(-c4c5nc(c(-c6c(F)c(F)c(F)c(F)c6F)c6ccc([nH]6)c(-c6c(F)c(F)c(F)c(F)c6F)c6nc(c(-c7c(F)c(F)c(F)c(F)c7F)c7ccc4[nH]7)C=C6)C=C5)cc3)c3ccccc32)cc1
REMARK SMILES IDX 35 1 34 2 32 3 33 4 31 6 30 7 28 8 29 9 17 11 16 12 14 13
REMARK SMILES IDX 15 14 12 16 13 17 11 18 9 19 10 20 112 21 107 22 111 23
REMARK SMILES IDX 108 24 110 25 109 26 6 27 7 28 8 29 5 30 1 31 2 32 3 33
REMARK SMILES IDX 114 34 4 35 113 36 18 37 19 38 20 39 27 40 21 41 22 42 26 43
REMARK SMILES IDX 23 45 25 46 24 47 36 48 37 49 38 50 39 51 40 52 41 53 42 54
REMARK SMILES IDX 43 56 44 57 45 58 106 59 46 60 105 61 47 62 48 63 49 64
REMARK SMILES IDX 99 65 50 66 104 67 98 68 100 69 51 70 103 71 97 72 96 73
REMARK SMILES IDX 52 75 84 76 64 77 83 78 65 79 68 80 82 81 101 82 66 83 67 84
REMARK SMILES IDX 81 86 102 87 69 88 53 89 54 90 62 91 55 92 56 93 60 94 63 95
REMARK SMILES IDX 57 96 58 97 61 98 59 99 85 100 86 101 94 102 87 103 88 104
REMARK SMILES IDX 92 105 95 106 89 107 90 108 93 109 91 110 70 111 71 112
REMARK SMILES IDX 79 113 72 114 73 115 77 116 80 117 74 118 75 119 78 120
REMARK SMILES IDX 76 121
REMARK H PARENT 34 5 30 10 16 15 21 44 41 55 100 74 68 85
REMARK Flexibility Score: inf
ROOT
ATOM      1  C   UNL A   1      40.869  28.078  28.964  1.00  0.00     0.116 C 
ENDROOT
BRANCH   1   2
ATOM      2  N   UNL A   1      40.031  28.475  27.857  1.00  0.00    -0.355 N 
ATOM      3  C   UNL A   1      39.081  29.454  27.850  1.00  0.00     0.239 C 
ATOM      4  O   UNL A   1      38.516  29.729  26.790  1.00  0.00    -0.273 OA
ATOM      5  H   UNL A   1      40.159  27.984  27.013  1.00  0.00     0.163 HD
BRANCH   3   6
ATOM      6  C   UNL A   1      38.892  30.307  29.104  1.00  0.00     0.216 C 
BRANCH   6   7
ATOM      7  N   UNL A   1      37.787  30.023  30.003  1.00  0.00    -0.345 N 
ATOM      8  C   UNL A   1      36.441  30.141  29.813  1.00  0.00     0.243 C 
ATOM      9  O   UNL A   1      35.729  29.489  30.588  1.00  0.00    -0.273 OA
ATOM     10  H   UNL A   1      38.052  29.692  30.892  1.00  0.00     0.164 HD
BRANCH   8  11
ATOM     11  C   UNL A   1      35.769  30.939  28.648  1.00  0.00     0.176 C 
BRANCH  11  12
ATOM     12  N   UNL A   1      34.320  30.725  28.420  1.00  0.00    -0.337 N 
ATOM     13  C   UNL A   1      33.641  29.975  27.463  1.00  0.00     0.293 C 
ATOM     14  O   UNL A   1      32.431  30.122  27.316  1.00  0.00    -0.265 OA
ATOM     15  H   UNL A   1      33.735  31.195  29.059  1.00  0.00     0.164 HD
BRANCH  13  16
ATOM     16  C   UNL A   1      34.352  28.886  26.652  1.00  0.00     0.252 C 
ATOM     17  O   UNL A   1      35.574  29.011  26.569  1.00  0.00    -0.283 OA
BRANCH  16  18
ATOM     18  C   UNL A   1      33.641  27.787  25.960  1.00  0.00     0.054 A 
ATOM     19  N   UNL A   1      32.749  25.819  25.229  1.00  0.00    -0.240 N 
ATOM     20  C   UNL A   1      33.610  26.398  26.174  1.00  0.00     0.117 A 
ATOM     21  C   UNL A   1      32.099  26.878  24.568  1.00  0.00     0.065 A 
ATOM     22  C   UNL A   1      32.905  27.997  24.753  1.00  0.00     0.012 A 
ATOM     23  C   UNL A   1      31.058  26.873  23.618  1.00  0.00     0.028 A 
ATOM     24  C   UNL A   1      32.815  29.052  23.819  1.00  0.00     0.011 A 
ATOM     25  C   UNL A   1      31.033  27.895  22.671  1.00  0.00     0.002 A 
ATOM     26  C   UNL A   1      31.933  28.948  22.741  1.00  0.00     0.001 A 
BRANCH  19  27
ATOM     27  S   UNL A   1      33.162  24.522  24.107  1.00  0.00     0.268 S 
ATOM     28  O   UNL A   1      33.766  25.230  22.991  1.00  0.00    -0.201 OA
ATOM     29  O   UNL A   1      31.885  23.834  23.958  1.00  0.00    -0.201 OA
BRANCH  27  30
ATOM     30  C   UNL A   1      34.224  23.154  24.430  1.00  0.00     0.088 A 
ATOM     31  C   UNL A   1      37.519  20.365  24.778  1.00  0.00     0.044 C 
ATOM     32  C   UNL A   1      36.358  21.317  24.704  1.00  0.00    -0.051 A 
ATOM     33  C   UNL A   1      36.621  22.608  24.273  1.00  0.00     0.005 A 
ATOM     34  C   UNL A   1      35.024  20.959  25.005  1.00  0.00     0.005 A 
ATOM     35  C   UNL A   1      35.573  23.505  24.155  1.00  0.00     0.022 A 
ATOM     36  C   UNL A   1      33.944  21.872  24.867  1.00  0.00     0.022 A 
ENDBRANCH  27  30
ENDBRANCH  19  27
ENDBRANCH  16  18
ENDBRANCH  13  16
ENDBRANCH  11  12
BRANCH  11  37
ATOM     37  C   UNL A   1      36.178  32.451  28.630  1.00  0.00     0.072 C 
BRANCH  37  38
ATOM     38  C   UNL A   1      35.198  33.462  29.184  1.00  0.00    -0.020 A 
ATOM     39  C   UNL A   1      34.688  34.552  28.495  1.00  0.00     0.087 A 
ATOM     40  C   UNL A   1      34.654  33.545  30.515  1.00  0.00     0.003 A 
ATOM     41  N   UNL A   1      33.996  35.343  29.376  1.00  0.00    -0.361 N 
ATOM     42  C   UNL A   1      34.067  34.807  30.640  1.00  0.00     0.046 A 
ATOM     43  C   UNL A   1      34.732  32.736  31.667  1.00  0.00     0.010 A 
ATOM     44  H   UNL A   1      33.520  36.171  29.139  1.00  0.00     0.166 HD
ATOM     45  C   UNL A   1      33.689  35.351  31.874  1.00  0.00     0.026 A 
ATOM     46  C   UNL A   1      34.382  33.271  32.912  1.00  0.00     0.001 A 
ATOM     47  C   UNL A   1      33.897  34.571  33.015  1.00  0.00     0.002 A 
ENDBRANCH  37  38
ENDBRANCH  11  37
ENDBRANCH   8  11
ENDBRANCH   6   7
ENDBRANCH   3   6
ENDBRANCH   1   2
BRANCH   1  48
ATOM     48  C   UNL A   1      42.147  27.405  28.493  1.00  0.00     0.021 C 
BRANCH  48  49
ATOM     49  C   UNL A   1      42.126  25.881  28.601  1.00  0.00     0.002 C 
BRANCH  49  50
ATOM     50  C   UNL A   1      42.899  25.116  27.513  1.00  0.00     0.002 C 
BRANCH  50  51
ATOM     51  C   UNL A   1      42.584  25.494  26.065  1.00  0.00     0.021 C 
BRANCH  51  52
ATOM     52  C   UNL A   1      43.558  26.483  25.445  1.00  0.00     0.116 C 
BRANCH  52  53
ATOM     53  N   UNL A   1      44.781  25.889  24.951  1.00  0.00    -0.352 N 
ATOM     54  C   UNL A   1      46.107  26.299  25.128  1.00  0.00     0.251 C 
ATOM     55  H   UNL A   1      44.663  25.075  24.410  1.00  0.00     0.163 HD
ATOM     56  O   UNL A   1      47.000  25.717  24.565  1.00  0.00    -0.269 OA
BRANCH  54  57
ATOM     57  C   UNL A   1      46.404  27.364  26.121  1.00  0.00     0.039 A 
ATOM     58  C   UNL A   1      47.289  27.056  27.164  1.00  0.00     0.014 A 
ATOM     59  C   UNL A   1      45.692  28.558  26.148  1.00  0.00     0.014 A 
ATOM     60  C   UNL A   1      47.264  27.813  28.336  1.00  0.00     0.010 A 
ATOM     61  C   UNL A   1      45.575  29.237  27.344  1.00  0.00     0.010 A 
ATOM     62  C   UNL A   1      46.313  28.825  28.458  1.00  0.00    -0.014 A 
BRANCH  62  63
ATOM     63  C   UNL A   1      45.941  29.454  29.721  1.00  0.00     0.031 A 
ATOM     64  C   UNL A   1      45.073  28.742  30.682  1.00  0.00     0.074 A 
ATOM     65  C   UNL A   1      46.544  30.610  30.076  1.00  0.00     0.049 A 
ATOM     66  N   UNL A   1      44.522  29.293  31.709  1.00  0.00    -0.248 NA
ATOM     67  C   UNL A   1      44.734  27.332  30.537  1.00  0.00     0.031 C 
ATOM     68  C   UNL A   1      46.606  31.208  31.409  1.00  0.00     0.029 A 
ATOM     69  N   UNL A   1      47.070  31.601  29.231  1.00  0.00    -0.354 N 
ATOM     70  C   UNL A   1      43.975  28.297  32.486  1.00  0.00     0.074 A 
ATOM     71  C   UNL A   1      44.107  27.096  31.693  1.00  0.00     0.031 C 
ATOM     72  C   UNL A   1      46.827  32.525  31.282  1.00  0.00     0.029 A 
ATOM     73  C   UNL A   1      46.756  32.832  29.865  1.00  0.00     0.049 A 
ATOM     74  H   UNL A   1      47.551  31.471  28.382  1.00  0.00     0.167 HD
ATOM     75  C   UNL A   1      43.564  28.595  33.752  1.00  0.00     0.037 A 
ATOM     76  C   UNL A   1      45.874  33.704  29.293  1.00  0.00     0.037 A 
ATOM     77  C   UNL A   1      43.658  30.030  34.018  1.00  0.00     0.049 A 
ATOM     78  C   UNL A   1      44.628  33.978  30.112  1.00  0.00     0.074 A 
ATOM     79  C   UNL A   1      44.582  30.848  34.646  1.00  0.00     0.029 A 
ATOM     80  N   UNL A   1      42.813  30.872  33.324  1.00  0.00    -0.354 N 
ATOM     81  N   UNL A   1      44.331  33.370  31.227  1.00  0.00    -0.248 NA
ATOM     82  C   UNL A   1      43.569  34.894  29.682  1.00  0.00     0.031 C 
ATOM     83  C   UNL A   1      44.291  32.198  34.292  1.00  0.00     0.029 A 
ATOM     84  C   UNL A   1      43.188  32.193  33.457  1.00  0.00     0.049 A 
ATOM     85  H   UNL A   1      42.038  30.569  32.798  1.00  0.00     0.167 HD
ATOM     86  C   UNL A   1      43.077  33.740  31.624  1.00  0.00     0.074 A 
ATOM     87  C   UNL A   1      42.638  34.702  30.633  1.00  0.00     0.031 C 
ATOM     88  C   UNL A   1      42.460  33.202  32.713  1.00  0.00     0.037 A 
BRANCH  75  89
ATOM     89  C   UNL A   1      43.244  27.576  34.821  1.00  0.00     0.064 A 
ATOM     90  C   UNL A   1      42.010  26.890  34.809  1.00  0.00     0.173 A 
ATOM     91  C   UNL A   1      44.086  27.252  35.900  1.00  0.00     0.173 A 
ATOM     92  F   UNL A   1      41.145  27.020  33.795  1.00  0.00    -0.203 F 
ATOM     93  C   UNL A   1      41.614  26.038  35.844  1.00  0.00     0.198 A 
ATOM     94  C   UNL A   1      43.667  26.450  36.966  1.00  0.00     0.198 A 
ATOM     95  F   UNL A   1      45.366  27.641  35.929  1.00  0.00    -0.203 F 
ATOM     96  F   UNL A   1      40.432  25.410  35.772  1.00  0.00    -0.200 F 
ATOM     97  C   UNL A   1      42.425  25.849  36.942  1.00  0.00     0.200 A 
ATOM     98  F   UNL A   1      44.482  26.256  38.012  1.00  0.00    -0.200 F 
ATOM     99  F   UNL A   1      42.029  25.068  37.955  1.00  0.00    -0.200 F 
ENDBRANCH  75  89
BRANCH  76 100
ATOM    100  C   UNL A   1      45.927  33.663  27.806  1.00  0.00     0.064 A 
ATOM    101  C   UNL A   1      44.905  32.974  27.122  1.00  0.00     0.173 A 
ATOM    102  C   UNL A   1      46.685  34.587  27.080  1.00  0.00     0.173 A 
ATOM    103  F   UNL A   1      44.150  32.075  27.774  1.00  0.00    -0.203 F 
ATOM    104  C   UNL A   1      44.567  33.300  25.811  1.00  0.00     0.198 A 
ATOM    105  C   UNL A   1      46.359  34.892  25.758  1.00  0.00     0.198 A 
ATOM    106  F   UNL A   1      47.662  35.285  27.677  1.00  0.00    -0.203 F 
ATOM    107  F   UNL A   1      43.505  32.722  25.233  1.00  0.00    -0.200 F 
ATOM    108  C   UNL A   1      45.276  34.280  25.140  1.00  0.00     0.200 A 
ATOM    109  F   UNL A   1      47.030  35.857  25.114  1.00  0.00    -0.200 F 
ATOM    110  F   UNL A   1      44.892  34.668  23.916  1.00  0.00    -0.200 F 
ENDBRANCH  76 100
BRANCH  88 111
ATOM    111  C   UNL A   1      41.088  33.602  33.158  1.00  0.00     0.064 A 
ATOM    112  C   UNL A   1      40.887  34.602  34.119  1.00  0.00     0.173 A 
ATOM    113  C   UNL A   1      39.947  32.896  32.729  1.00  0.00     0.173 A 
ATOM    114  F   UNL A   1      41.923  35.304  34.603  1.00  0.00    -0.203 F 
ATOM    115  C   UNL A   1      39.613  34.889  34.611  1.00  0.00     0.198 A 
ATOM    116  C   UNL A   1      38.685  33.151  33.258  1.00  0.00     0.198 A 
ATOM    117  F   UNL A   1      40.028  31.958  31.773  1.00  0.00    -0.203 F 
ATOM    118  F   UNL A   1      39.451  35.879  35.500  1.00  0.00    -0.200 F 
ATOM    119  C   UNL A   1      38.516  34.152  34.195  1.00  0.00     0.200 A 
ATOM    120  F   UNL A   1      37.635  32.421  32.855  1.00  0.00    -0.200 F 
ATOM    121  F   UNL A   1      37.298  34.411  34.690  1.00  0.00    -0.200 F 
ENDBRANCH  88 111
ENDBRANCH  62  63
ENDBRANCH  54  57
ENDBRANCH  52  53
ENDBRANCH  51  52
ENDBRANCH  50  51
ENDBRANCH  49  50
ENDBRANCH  48  49
ENDBRANCH   1  48
TORSDOF 22
ENDMDL
