MODEL 1
REMARK VINA RESULT:     -11.4      0.000      0.000
REMARK SMILES CN1N=C(CC(=O)NCCCCCCNC(=O)c2ccc(-c3c4nc(c(-c5c(F)c(F)c(F)c(F)c5F)c5ccc([nH]5)c(-c5c(F)c(F)c(F)c(F)c5F)c5nc(c(-c6c(F)c(F)c(F)c(F)c6F)c6ccc3[nH]6)C=C5)C=C4)cc2)CC1=O
REMARK SMILES IDX 12 1 11 2 10 3 9 4 8 5 6 6 7 7 5 9 4 10 1 11 2 12 3 13 82 14
REMARK SMILES IDX 81 15 83 16 13 17 14 18 15 19 16 20 17 22 18 23 19 24 80 25
REMARK SMILES IDX 20 26 79 27 21 28 22 29 23 30 73 31 24 32 78 33 72 34 74 35
REMARK SMILES IDX 25 36 77 37 71 38 70 39 26 41 58 42 38 43 57 44 39 45 42 46
REMARK SMILES IDX 56 47 75 48 40 49 41 50 55 52 76 53 43 54 27 55 28 56 36 57
REMARK SMILES IDX 29 58 30 59 34 60 37 61 31 62 32 63 35 64 33 65 59 66 60 67
REMARK SMILES IDX 68 68 61 69 62 70 66 71 69 72 63 73 64 74 67 75 65 76 44 77
REMARK SMILES IDX 45 78 53 79 46 80 47 81 51 82 54 83 48 84 49 85 52 86 50 87
REMARK H PARENT 8 8 15 21 74 40 42 51
REMARK Flexibility Score: inf
ROOT
ATOM      1  C   UNL A   1      31.216  30.798  25.644  1.00  0.00     0.002 C 
ENDROOT
BRANCH   1   2
ATOM      2  C   UNL A   1      32.387  29.821  25.500  1.00  0.00     0.002 C 
BRANCH   2   3
ATOM      3  C   UNL A   1      32.100  28.393  25.983  1.00  0.00     0.021 C 
BRANCH   3   4
ATOM      4  C   UNL A   1      30.923  27.730  25.267  1.00  0.00     0.116 C 
BRANCH   4   5
ATOM      5  N   UNL A   1      31.139  27.684  23.837  1.00  0.00    -0.356 N 
ATOM      6  C   UNL A   1      30.267  27.964  22.826  1.00  0.00     0.225 C 
ATOM      7  O   UNL A   1      30.641  27.804  21.665  1.00  0.00    -0.275 OA
ATOM      8  H   UNL A   1      32.042  27.412  23.554  1.00  0.00     0.163 HD
BRANCH   6   9
ATOM      9  C   UNL A   1      28.922  28.560  23.149  1.00  0.00     0.153 C 
BRANCH   9  10
ATOM     10  C   UNL A   1      28.665  29.912  22.576  1.00  0.00     0.057 C 
ATOM     11  C   UNL A   1      27.907  32.126  19.966  1.00  0.00     0.177 C 
ATOM     12  N   UNL A   1      28.255  31.514  21.223  1.00  0.00    -0.237 N 
ATOM     13  N   UNL A   1      28.393  30.150  21.330  1.00  0.00    -0.179 NA
ATOM     14  C   UNL A   1      28.426  32.207  22.417  1.00  0.00     0.248 C 
ATOM     15  C   UNL A   1      28.742  31.149  23.426  1.00  0.00     0.156 C 
ATOM     16  O   UNL A   1      28.326  33.403  22.633  1.00  0.00    -0.273 OA
ENDBRANCH   9  10
ENDBRANCH   6   9
ENDBRANCH   4   5
ENDBRANCH   3   4
ENDBRANCH   2   3
ENDBRANCH   1   2
BRANCH   1  17
ATOM     17  C   UNL A   1      31.310  31.740  26.846  1.00  0.00     0.021 C 
BRANCH  17  18
ATOM     18  C   UNL A   1      32.650  32.457  26.977  1.00  0.00     0.116 C 
BRANCH  18  19
ATOM     19  N   UNL A   1      32.488  33.832  27.420  1.00  0.00    -0.352 N 
ATOM     20  C   UNL A   1      33.125  34.501  28.432  1.00  0.00     0.251 C 
ATOM     21  H   UNL A   1      31.823  34.360  26.920  1.00  0.00     0.163 HD
ATOM     22  O   UNL A   1      32.711  35.593  28.809  1.00  0.00    -0.269 OA
BRANCH  20  23
ATOM     23  C   UNL A   1      34.306  33.897  29.086  1.00  0.00     0.039 A 
ATOM     24  C   UNL A   1      34.108  32.918  30.063  1.00  0.00     0.014 A 
ATOM     25  C   UNL A   1      35.601  34.302  28.751  1.00  0.00     0.014 A 
ATOM     26  C   UNL A   1      35.210  32.312  30.667  1.00  0.00     0.010 A 
ATOM     27  C   UNL A   1      36.698  33.639  29.293  1.00  0.00     0.010 A 
ATOM     28  C   UNL A   1      36.515  32.644  30.264  1.00  0.00    -0.014 A 
BRANCH  28  29
ATOM     29  C   UNL A   1      37.695  31.964  30.860  1.00  0.00     0.031 A 
ATOM     30  C   UNL A   1      38.180  32.346  32.232  1.00  0.00     0.074 A 
ATOM     31  C   UNL A   1      38.349  31.024  30.149  1.00  0.00     0.049 A 
ATOM     32  N   UNL A   1      39.209  31.892  32.902  1.00  0.00    -0.248 NA
ATOM     33  C   UNL A   1      37.423  33.393  32.937  1.00  0.00     0.031 C 
ATOM     34  C   UNL A   1      38.007  30.600  28.790  1.00  0.00     0.029 A 
ATOM     35  N   UNL A   1      39.443  30.257  30.468  1.00  0.00    -0.354 N 
ATOM     36  C   UNL A   1      39.219  32.594  34.101  1.00  0.00     0.074 A 
ATOM     37  C   UNL A   1      38.139  33.553  34.040  1.00  0.00     0.031 C 
ATOM     38  C   UNL A   1      38.855  29.633  28.402  1.00  0.00     0.029 A 
ATOM     39  C   UNL A   1      39.825  29.398  29.466  1.00  0.00     0.049 A 
ATOM     40  H   UNL A   1      39.908  30.317  31.334  1.00  0.00     0.167 HD
ATOM     41  C   UNL A   1      40.036  32.430  35.170  1.00  0.00     0.037 A 
ATOM     42  C   UNL A   1      40.850  28.525  29.410  1.00  0.00     0.037 A 
ATOM     43  C   UNL A   1      41.106  31.469  35.233  1.00  0.00     0.049 A 
ATOM     44  C   UNL A   1      41.753  28.382  30.607  1.00  0.00     0.074 A 
ATOM     45  C   UNL A   1      41.977  31.213  36.278  1.00  0.00     0.029 A 
ATOM     46  N   UNL A   1      41.449  30.602  34.207  1.00  0.00    -0.354 N 
ATOM     47  N   UNL A   1      41.716  29.012  31.756  1.00  0.00    -0.248 NA
ATOM     48  C   UNL A   1      42.833  27.392  30.503  1.00  0.00     0.031 C 
ATOM     49  C   UNL A   1      42.875  30.224  35.868  1.00  0.00     0.029 A 
ATOM     50  C   UNL A   1      42.524  29.817  34.591  1.00  0.00     0.049 A 
ATOM     51  H   UNL A   1      40.996  30.552  33.333  1.00  0.00     0.167 HD
ATOM     52  C   UNL A   1      42.735  28.465  32.525  1.00  0.00     0.074 A 
ATOM     53  C   UNL A   1      43.360  27.439  31.718  1.00  0.00     0.031 C 
ATOM     54  C   UNL A   1      43.120  28.783  33.785  1.00  0.00     0.037 A 
BRANCH  41  55
ATOM     55  C   UNL A   1      39.793  33.297  36.373  1.00  0.00     0.064 A 
ATOM     56  C   UNL A   1      40.411  34.550  36.509  1.00  0.00     0.173 A 
ATOM     57  C   UNL A   1      38.885  32.904  37.367  1.00  0.00     0.173 A 
ATOM     58  F   UNL A   1      41.297  34.969  35.592  1.00  0.00    -0.203 F 
ATOM     59  C   UNL A   1      40.143  35.369  37.602  1.00  0.00     0.198 A 
ATOM     60  C   UNL A   1      38.595  33.740  38.443  1.00  0.00     0.198 A 
ATOM     61  F   UNL A   1      38.262  31.719  37.286  1.00  0.00    -0.203 F 
ATOM     62  F   UNL A   1      40.776  36.543  37.730  1.00  0.00    -0.200 F 
ATOM     63  C   UNL A   1      39.227  34.968  38.563  1.00  0.00     0.200 A 
ATOM     64  F   UNL A   1      37.697  33.358  39.363  1.00  0.00    -0.200 F 
ATOM     65  F   UNL A   1      38.956  35.765  39.606  1.00  0.00    -0.200 F 
ENDBRANCH  41  55
BRANCH  42  66
ATOM     66  C   UNL A   1      41.079  27.709  28.186  1.00  0.00     0.064 A 
ATOM     67  C   UNL A   1      40.535  26.423  28.060  1.00  0.00     0.173 A 
ATOM     68  C   UNL A   1      41.890  28.176  27.142  1.00  0.00     0.173 A 
ATOM     69  F   UNL A   1      39.766  25.921  29.038  1.00  0.00    -0.203 F 
ATOM     70  C   UNL A   1      40.831  25.619  26.960  1.00  0.00     0.198 A 
ATOM     71  C   UNL A   1      42.154  27.387  26.024  1.00  0.00     0.198 A 
ATOM     72  F   UNL A   1      42.428  29.403  27.205  1.00  0.00    -0.203 F 
ATOM     73  F   UNL A   1      40.360  24.367  26.903  1.00  0.00    -0.200 F 
ATOM     74  C   UNL A   1      41.638  26.102  25.943  1.00  0.00     0.200 A 
ATOM     75  F   UNL A   1      42.919  27.866  25.034  1.00  0.00    -0.200 F 
ATOM     76  F   UNL A   1      41.930  25.328  24.889  1.00  0.00    -0.200 F 
ENDBRANCH  42  66
BRANCH  54  77
ATOM     77  C   UNL A   1      44.226  27.966  34.394  1.00  0.00     0.064 A 
ATOM     78  C   UNL A   1      45.571  28.354  34.310  1.00  0.00     0.173 A 
ATOM     79  C   UNL A   1      43.927  26.780  35.083  1.00  0.00     0.173 A 
ATOM     80  F   UNL A   1      45.913  29.472  33.653  1.00  0.00    -0.203 F 
ATOM     81  C   UNL A   1      46.579  27.561  34.854  1.00  0.00     0.198 A 
ATOM     82  C   UNL A   1      44.933  26.011  35.660  1.00  0.00     0.198 A 
ATOM     83  F   UNL A   1      42.656  26.368  35.203  1.00  0.00    -0.203 F 
ATOM     84  F   UNL A   1      47.863  27.915  34.700  1.00  0.00    -0.200 F 
ATOM     85  C   UNL A   1      46.260  26.395  35.533  1.00  0.00     0.200 A 
ATOM     86  F   UNL A   1      44.620  24.894  36.331  1.00  0.00    -0.200 F 
ATOM     87  F   UNL A   1      47.232  25.634  36.056  1.00  0.00    -0.200 F 
ENDBRANCH  54  77
ENDBRANCH  28  29
ENDBRANCH  20  23
ENDBRANCH  18  19
ENDBRANCH  17  18
ENDBRANCH   1  17
TORSDOF 14
ENDMDL
MODEL 2
REMARK VINA RESULT:     -11.3      0.606      1.758
REMARK SMILES CN1N=C(CC(=O)NCCCCCCNC(=O)c2ccc(-c3c4nc(c(-c5c(F)c(F)c(F)c(F)c5F)c5ccc([nH]5)c(-c5c(F)c(F)c(F)c(F)c5F)c5nc(c(-c6c(F)c(F)c(F)c(F)c6F)c6ccc3[nH]6)C=C5)C=C4)cc2)CC1=O
REMARK SMILES IDX 12 1 11 2 10 3 9 4 8 5 6 6 7 7 5 9 4 10 1 11 2 12 3 13 82 14
REMARK SMILES IDX 81 15 83 16 13 17 14 18 15 19 16 20 17 22 18 23 19 24 80 25
REMARK SMILES IDX 20 26 79 27 21 28 22 29 23 30 73 31 24 32 78 33 72 34 74 35
REMARK SMILES IDX 25 36 77 37 71 38 70 39 26 41 58 42 38 43 57 44 39 45 42 46
REMARK SMILES IDX 56 47 75 48 40 49 41 50 55 52 76 53 43 54 27 55 28 56 36 57
REMARK SMILES IDX 29 58 30 59 34 60 37 61 31 62 32 63 35 64 33 65 59 66 60 67
REMARK SMILES IDX 68 68 61 69 62 70 66 71 69 72 63 73 64 74 67 75 65 76 44 77
REMARK SMILES IDX 45 78 53 79 46 80 47 81 51 82 54 83 48 84 49 85 52 86 50 87
REMARK H PARENT 8 8 15 21 74 40 42 51
REMARK Flexibility Score: inf
ROOT
ATOM      1  C   UNL A   1      31.470  31.019  26.129  1.00  0.00     0.002 C 
ENDROOT
BRANCH   1   2
ATOM      2  C   UNL A   1      32.502  30.091  26.780  1.00  0.00     0.002 C 
BRANCH   2   3
ATOM      3  C   UNL A   1      32.032  28.644  26.980  1.00  0.00     0.021 C 
BRANCH   3   4
ATOM      4  C   UNL A   1      31.353  28.045  25.748  1.00  0.00     0.116 C 
BRANCH   4   5
ATOM      5  N   UNL A   1      32.016  28.461  24.531  1.00  0.00    -0.356 N 
ATOM      6  C   UNL A   1      31.489  28.652  23.287  1.00  0.00     0.225 C 
ATOM      7  O   UNL A   1      32.247  28.955  22.367  1.00  0.00    -0.275 OA
ATOM      8  H   UNL A   1      32.983  28.630  24.612  1.00  0.00     0.163 HD
BRANCH   6   9
ATOM      9  C   UNL A   1      29.996  28.596  23.096  1.00  0.00     0.153 C 
BRANCH   9  10
ATOM     10  C   UNL A   1      29.365  29.854  22.605  1.00  0.00     0.057 C 
ATOM     11  C   UNL A   1      28.011  31.929  20.124  1.00  0.00     0.177 C 
ATOM     12  N   UNL A   1      28.516  31.359  21.347  1.00  0.00    -0.237 N 
ATOM     13  N   UNL A   1      29.038  30.087  21.370  1.00  0.00    -0.179 NA
ATOM     14  C   UNL A   1      28.480  31.991  22.586  1.00  0.00     0.248 C 
ATOM     15  C   UNL A   1      29.083  31.002  23.532  1.00  0.00     0.156 C 
ATOM     16  O   UNL A   1      28.041  33.092  22.875  1.00  0.00    -0.273 OA
ENDBRANCH   9  10
ENDBRANCH   6   9
ENDBRANCH   4   5
ENDBRANCH   3   4
ENDBRANCH   2   3
ENDBRANCH   1   2
BRANCH   1  17
ATOM     17  C   UNL A   1      31.348  32.399  26.779  1.00  0.00     0.021 C 
BRANCH  17  18
ATOM     18  C   UNL A   1      32.676  33.006  27.215  1.00  0.00     0.116 C 
BRANCH  18  19
ATOM     19  N   UNL A   1      32.511  34.353  27.736  1.00  0.00    -0.352 N 
ATOM     20  C   UNL A   1      33.128  34.956  28.802  1.00  0.00     0.251 C 
ATOM     21  H   UNL A   1      31.862  34.915  27.253  1.00  0.00     0.163 HD
ATOM     22  O   UNL A   1      32.711  36.027  29.232  1.00  0.00    -0.269 OA
BRANCH  20  23
ATOM     23  C   UNL A   1      34.289  34.306  29.446  1.00  0.00     0.039 A 
ATOM     24  C   UNL A   1      34.069  33.459  30.535  1.00  0.00     0.014 A 
ATOM     25  C   UNL A   1      35.590  34.541  28.991  1.00  0.00     0.014 A 
ATOM     26  C   UNL A   1      35.149  32.811  31.135  1.00  0.00     0.010 A 
ATOM     27  C   UNL A   1      36.655  33.828  29.535  1.00  0.00     0.010 A 
ATOM     28  C   UNL A   1      36.447  32.963  30.620  1.00  0.00    -0.014 A 
BRANCH  28  29
ATOM     29  C   UNL A   1      37.596  32.232  31.215  1.00  0.00     0.031 A 
ATOM     30  C   UNL A   1      38.094  32.589  32.589  1.00  0.00     0.074 A 
ATOM     31  C   UNL A   1      38.211  31.268  30.502  1.00  0.00     0.049 A 
ATOM     32  N   UNL A   1      39.103  32.090  33.260  1.00  0.00    -0.248 NA
ATOM     33  C   UNL A   1      37.381  33.664  33.297  1.00  0.00     0.031 C 
ATOM     34  C   UNL A   1      37.854  30.864  29.141  1.00  0.00     0.029 A 
ATOM     35  N   UNL A   1      39.271  30.455  30.820  1.00  0.00    -0.354 N 
ATOM     36  C   UNL A   1      39.140  32.786  34.461  1.00  0.00     0.074 A 
ATOM     37  C   UNL A   1      38.101  33.790  34.402  1.00  0.00     0.031 C 
ATOM     38  C   UNL A   1      38.661  29.864  28.751  1.00  0.00     0.029 A 
ATOM     39  C   UNL A   1      39.619  29.584  29.815  1.00  0.00     0.049 A 
ATOM     40  H   UNL A   1      39.737  30.492  31.687  1.00  0.00     0.167 HD
ATOM     41  C   UNL A   1      39.948  32.585  35.531  1.00  0.00     0.037 A 
ATOM     42  C   UNL A   1      40.606  28.669  29.758  1.00  0.00     0.037 A 
ATOM     43  C   UNL A   1      40.975  31.579  35.592  1.00  0.00     0.049 A 
ATOM     44  C   UNL A   1      41.500  28.484  30.956  1.00  0.00     0.074 A 
ATOM     45  C   UNL A   1      41.833  31.283  36.637  1.00  0.00     0.029 A 
ATOM     46  N   UNL A   1      41.284  30.702  34.563  1.00  0.00    -0.354 N 
ATOM     47  N   UNL A   1      41.488  29.110  32.108  1.00  0.00    -0.248 NA
ATOM     48  C   UNL A   1      42.538  27.449  30.851  1.00  0.00     0.031 C 
ATOM     49  C   UNL A   1      42.690  30.258  36.225  1.00  0.00     0.029 A 
ATOM     50  C   UNL A   1      42.324  29.871  34.946  1.00  0.00     0.049 A 
ATOM     51  H   UNL A   1      40.830  30.674  33.689  1.00  0.00     0.167 HD
ATOM     52  C   UNL A   1      42.482  28.519  32.876  1.00  0.00     0.074 A 
ATOM     53  C   UNL A   1      43.064  27.470  32.066  1.00  0.00     0.031 C 
ATOM     54  C   UNL A   1      42.878  28.815  34.137  1.00  0.00     0.037 A 
BRANCH  41  55
ATOM     55  C   UNL A   1      39.739  33.456  36.736  1.00  0.00     0.064 A 
ATOM     56  C   UNL A   1      40.399  34.688  36.872  1.00  0.00     0.173 A 
ATOM     57  C   UNL A   1      38.823  33.093  37.734  1.00  0.00     0.173 A 
ATOM     58  F   UNL A   1      41.295  35.079  35.952  1.00  0.00    -0.203 F 
ATOM     59  C   UNL A   1      40.164  35.513  37.968  1.00  0.00     0.198 A 
ATOM     60  C   UNL A   1      38.566  33.935  38.813  1.00  0.00     0.198 A 
ATOM     61  F   UNL A   1      38.160  31.929  37.653  1.00  0.00    -0.203 F 
ATOM     62  F   UNL A   1      40.837  36.665  38.095  1.00  0.00    -0.200 F 
ATOM     63  C   UNL A   1      39.239  35.141  38.932  1.00  0.00     0.200 A 
ATOM     64  F   UNL A   1      37.660  33.582  39.736  1.00  0.00    -0.200 F 
ATOM     65  F   UNL A   1      39.000  35.944  39.978  1.00  0.00    -0.200 F 
ENDBRANCH  41  55
BRANCH  42  66
ATOM     66  C   UNL A   1      40.803  27.848  28.532  1.00  0.00     0.064 A 
ATOM     67  C   UNL A   1      41.603  28.304  27.474  1.00  0.00     0.173 A 
ATOM     68  C   UNL A   1      40.155  26.615  28.369  1.00  0.00     0.173 A 
ATOM     69  F   UNL A   1      42.233  29.486  27.572  1.00  0.00    -0.203 F 
ATOM     70  C   UNL A   1      41.709  27.584  26.286  1.00  0.00     0.198 A 
ATOM     71  C   UNL A   1      40.291  25.877  27.196  1.00  0.00     0.198 A 
ATOM     72  F   UNL A   1      39.385  26.125  29.353  1.00  0.00    -0.203 F 
ATOM     73  F   UNL A   1      42.417  28.083  25.264  1.00  0.00    -0.200 F 
ATOM     74  C   UNL A   1      41.055  26.370  26.148  1.00  0.00     0.200 A 
ATOM     75  F   UNL A   1      39.673  24.694  27.076  1.00  0.00    -0.200 F 
ATOM     76  F   UNL A   1      41.148  25.681  25.003  1.00  0.00    -0.200 F 
ENDBRANCH  42  66
BRANCH  54  77
ATOM     77  C   UNL A   1      43.946  27.950  34.745  1.00  0.00     0.064 A 
ATOM     78  C   UNL A   1      43.643  26.765  35.433  1.00  0.00     0.173 A 
ATOM     79  C   UNL A   1      45.298  28.311  34.625  1.00  0.00     0.173 A 
ATOM     80  F   UNL A   1      42.368  26.380  35.588  1.00  0.00    -0.203 F 
ATOM     81  C   UNL A   1      44.650  26.000  36.016  1.00  0.00     0.198 A 
ATOM     82  C   UNL A   1      46.304  27.522  35.174  1.00  0.00     0.198 A 
ATOM     83  F   UNL A   1      45.644  29.428  33.967  1.00  0.00    -0.203 F 
ATOM     84  F   UNL A   1      44.332  24.910  36.729  1.00  0.00    -0.200 F 
ATOM     85  C   UNL A   1      45.978  26.374  35.882  1.00  0.00     0.200 A 
ATOM     86  F   UNL A   1      47.587  27.877  35.027  1.00  0.00    -0.200 F 
ATOM     87  F   UNL A   1      46.945  25.635  36.443  1.00  0.00    -0.200 F 
ENDBRANCH  54  77
ENDBRANCH  28  29
ENDBRANCH  20  23
ENDBRANCH  18  19
ENDBRANCH  17  18
ENDBRANCH   1  17
TORSDOF 14
ENDMDL
MODEL 3
REMARK VINA RESULT:     -11.3      0.912      7.627
REMARK SMILES CN1N=C(CC(=O)NCCCCCCNC(=O)c2ccc(-c3c4nc(c(-c5c(F)c(F)c(F)c(F)c5F)c5ccc([nH]5)c(-c5c(F)c(F)c(F)c(F)c5F)c5nc(c(-c6c(F)c(F)c(F)c(F)c6F)c6ccc3[nH]6)C=C5)C=C4)cc2)CC1=O
REMARK SMILES IDX 12 1 11 2 10 3 9 4 8 5 6 6 7 7 5 9 4 10 1 11 2 12 3 13 82 14
REMARK SMILES IDX 81 15 83 16 13 17 14 18 15 19 16 20 17 22 18 23 19 24 80 25
REMARK SMILES IDX 20 26 79 27 21 28 22 29 23 30 73 31 24 32 78 33 72 34 74 35
REMARK SMILES IDX 25 36 77 37 71 38 70 39 26 41 58 42 38 43 57 44 39 45 42 46
REMARK SMILES IDX 56 47 75 48 40 49 41 50 55 52 76 53 43 54 27 55 28 56 36 57
REMARK SMILES IDX 29 58 30 59 34 60 37 61 31 62 32 63 35 64 33 65 59 66 60 67
REMARK SMILES IDX 68 68 61 69 62 70 66 71 69 72 63 73 64 74 67 75 65 76 44 77
REMARK SMILES IDX 45 78 53 79 46 80 47 81 51 82 54 83 48 84 49 85 52 86 50 87
REMARK H PARENT 8 8 15 21 74 40 42 51
REMARK Flexibility Score: inf
ROOT
ATOM      1  C   UNL A   1      31.438  30.938  26.049  1.00  0.00     0.002 C 
ENDROOT
BRANCH   1   2
ATOM      2  C   UNL A   1      32.004  29.617  26.580  1.00  0.00     0.002 C 
BRANCH   2   3
ATOM      3  C   UNL A   1      32.559  28.674  25.504  1.00  0.00     0.021 C 
BRANCH   3   4
ATOM      4  C   UNL A   1      32.697  29.328  24.129  1.00  0.00     0.116 C 
BRANCH   4   5
ATOM      5  N   UNL A   1      32.175  28.471  23.086  1.00  0.00    -0.356 N 
ATOM      6  C   UNL A   1      30.879  28.157  22.800  1.00  0.00     0.225 C 
ATOM      7  O   UNL A   1      30.653  27.354  21.896  1.00  0.00    -0.275 OA
ATOM      8  H   UNL A   1      32.850  28.057  22.502  1.00  0.00     0.163 HD
BRANCH   6   9
ATOM      9  C   UNL A   1      29.765  28.876  23.516  1.00  0.00     0.153 C 
BRANCH   9  10
ATOM     10  C   UNL A   1      29.254  30.102  22.840  1.00  0.00     0.057 C 
ATOM     11  C   UNL A   1      28.029  31.891  20.085  1.00  0.00     0.177 C 
ATOM     12  N   UNL A   1      28.521  31.472  21.372  1.00  0.00    -0.237 N 
ATOM     13  N   UNL A   1      28.902  30.169  21.592  1.00  0.00    -0.179 NA
ATOM     14  C   UNL A   1      28.607  32.294  22.490  1.00  0.00     0.248 C 
ATOM     15  C   UNL A   1      29.139  31.409  23.571  1.00  0.00     0.156 C 
ATOM     16  O   UNL A   1      28.304  33.471  22.604  1.00  0.00    -0.273 OA
ENDBRANCH   9  10
ENDBRANCH   6   9
ENDBRANCH   4   5
ENDBRANCH   3   4
ENDBRANCH   2   3
ENDBRANCH   1   2
BRANCH   1  17
ATOM     17  C   UNL A   1      31.403  32.077  27.070  1.00  0.00     0.021 C 
BRANCH  17  18
ATOM     18  C   UNL A   1      32.722  32.828  27.216  1.00  0.00     0.116 C 
BRANCH  18  19
ATOM     19  N   UNL A   1      32.518  34.208  27.626  1.00  0.00    -0.352 N 
ATOM     20  C   UNL A   1      33.092  34.903  28.659  1.00  0.00     0.251 C 
ATOM     21  H   UNL A   1      31.873  34.717  27.083  1.00  0.00     0.163 HD
ATOM     22  O   UNL A   1      32.644  35.995  28.993  1.00  0.00    -0.269 OA
BRANCH  20  23
ATOM     23  C   UNL A   1      34.245  34.328  29.384  1.00  0.00     0.039 A 
ATOM     24  C   UNL A   1      34.007  33.547  30.517  1.00  0.00     0.014 A 
ATOM     25  C   UNL A   1      35.555  34.569  28.960  1.00  0.00     0.014 A 
ATOM     26  C   UNL A   1      35.081  32.968  31.195  1.00  0.00     0.010 A 
ATOM     27  C   UNL A   1      36.617  33.922  29.586  1.00  0.00     0.010 A 
ATOM     28  C   UNL A   1      36.393  33.123  30.717  1.00  0.00    -0.014 A 
BRANCH  28  29
ATOM     29  C   UNL A   1      37.537  32.464  31.397  1.00  0.00     0.031 A 
ATOM     30  C   UNL A   1      38.270  31.333  30.728  1.00  0.00     0.074 A 
ATOM     31  C   UNL A   1      37.894  32.863  32.634  1.00  0.00     0.049 A 
ATOM     32  N   UNL A   1      39.267  30.612  31.177  1.00  0.00    -0.248 NA
ATOM     33  C   UNL A   1      37.809  30.944  29.386  1.00  0.00     0.031 C 
ATOM     34  C   UNL A   1      37.232  33.914  33.408  1.00  0.00     0.029 A 
ATOM     35  N   UNL A   1      38.901  32.429  33.462  1.00  0.00    -0.354 N 
ATOM     36  C   UNL A   1      39.550  29.692  30.175  1.00  0.00     0.074 A 
ATOM     37  C   UNL A   1      38.577  29.896  29.125  1.00  0.00     0.031 C 
ATOM     38  C   UNL A   1      37.863  34.061  34.585  1.00  0.00     0.029 A 
ATOM     39  C   UNL A   1      38.947  33.088  34.666  1.00  0.00     0.049 A 
ATOM     40  H   UNL A   1      39.529  31.712  33.214  1.00  0.00     0.167 HD
ATOM     41  C   UNL A   1      40.552  28.781  30.122  1.00  0.00     0.037 A 
ATOM     42  C   UNL A   1      39.769  32.920  35.721  1.00  0.00     0.037 A 
ATOM     43  C   UNL A   1      41.524  28.585  31.165  1.00  0.00     0.049 A 
ATOM     44  C   UNL A   1      40.859  31.884  35.639  1.00  0.00     0.074 A 
ATOM     45  C   UNL A   1      42.589  27.700  31.197  1.00  0.00     0.029 A 
ATOM     46  N   UNL A   1      41.553  29.286  32.360  1.00  0.00    -0.354 N 
ATOM     47  N   UNL A   1      41.151  31.060  34.662  1.00  0.00    -0.248 NA
ATOM     48  C   UNL A   1      41.746  31.766  36.804  1.00  0.00     0.031 C 
ATOM     49  C   UNL A   1      43.234  27.835  32.430  1.00  0.00     0.029 A 
ATOM     50  C   UNL A   1      42.611  28.849  33.140  1.00  0.00     0.049 A 
ATOM     51  H   UNL A   1      40.915  29.992  32.617  1.00  0.00     0.167 HD
ATOM     52  C   UNL A   1      42.277  30.360  35.075  1.00  0.00     0.074 A 
ATOM     53  C   UNL A   1      42.626  30.870  36.384  1.00  0.00     0.031 C 
ATOM     54  C   UNL A   1      42.961  29.383  34.431  1.00  0.00     0.037 A 
BRANCH  41  55
ATOM     55  C   UNL A   1      40.662  27.937  28.884  1.00  0.00     0.064 A 
ATOM     56  C   UNL A   1      39.923  26.752  28.738  1.00  0.00     0.173 A 
ATOM     57  C   UNL A   1      41.461  28.346  27.807  1.00  0.00     0.173 A 
ATOM     58  F   UNL A   1      39.151  26.309  29.743  1.00  0.00    -0.203 F 
ATOM     59  C   UNL A   1      39.993  26.001  27.568  1.00  0.00     0.198 A 
ATOM     60  C   UNL A   1      41.504  27.609  26.626  1.00  0.00     0.198 A 
ATOM     61  F   UNL A   1      42.185  29.472  27.890  1.00  0.00    -0.203 F 
ATOM     62  F   UNL A   1      39.309  24.853  27.468  1.00  0.00    -0.200 F 
ATOM     63  C   UNL A   1      40.775  26.436  26.509  1.00  0.00     0.200 A 
ATOM     64  F   UNL A   1      42.248  28.039  25.596  1.00  0.00    -0.200 F 
ATOM     65  F   UNL A   1      40.828  25.722  25.376  1.00  0.00    -0.200 F 
ENDBRANCH  41  55
BRANCH  42  66
ATOM     66  C   UNL A   1      39.605  33.752  36.944  1.00  0.00     0.064 A 
ATOM     67  C   UNL A   1      38.825  33.311  38.023  1.00  0.00     0.173 A 
ATOM     68  C   UNL A   1      40.182  35.027  37.040  1.00  0.00     0.173 A 
ATOM     69  F   UNL A   1      38.236  32.106  37.975  1.00  0.00    -0.203 F 
ATOM     70  C   UNL A   1      38.589  34.130  39.126  1.00  0.00     0.198 A 
ATOM     71  C   UNL A   1      39.979  35.830  38.160  1.00  0.00     0.198 A 
ATOM     72  F   UNL A   1      40.948  35.495  36.043  1.00  0.00    -0.203 F 
ATOM     73  F   UNL A   1      37.776  33.713  40.105  1.00  0.00    -0.200 F 
ATOM     74  C   UNL A   1      39.168  35.387  39.194  1.00  0.00     0.200 A 
ATOM     75  F   UNL A   1      40.556  37.036  38.230  1.00  0.00    -0.200 F 
ATOM     76  F   UNL A   1      38.935  36.179  40.250  1.00  0.00    -0.200 F 
ENDBRANCH  42  66
BRANCH  54  77
ATOM     77  C   UNL A   1      44.196  28.850  35.102  1.00  0.00     0.064 A 
ATOM     78  C   UNL A   1      45.454  29.448  34.930  1.00  0.00     0.173 A 
ATOM     79  C   UNL A   1      44.113  27.727  35.941  1.00  0.00     0.173 A 
ATOM     80  F   UNL A   1      45.591  30.516  34.131  1.00  0.00    -0.203 F 
ATOM     81  C   UNL A   1      46.588  28.915  35.536  1.00  0.00     0.198 A 
ATOM     82  C   UNL A   1      45.243  27.221  36.576  1.00  0.00     0.198 A 
ATOM     83  F   UNL A   1      42.934  27.123  36.149  1.00  0.00    -0.203 F 
ATOM     84  F   UNL A   1      47.790  29.460  35.301  1.00  0.00    -0.200 F 
ATOM     85  C   UNL A   1      46.482  27.806  36.363  1.00  0.00     0.200 A 
ATOM     86  F   UNL A   1      45.134  26.161  37.389  1.00  0.00    -0.200 F 
ATOM     87  F   UNL A   1      47.575  27.295  36.945  1.00  0.00    -0.200 F 
ENDBRANCH  54  77
ENDBRANCH  28  29
ENDBRANCH  20  23
ENDBRANCH  18  19
ENDBRANCH  17  18
ENDBRANCH   1  17
TORSDOF 14
ENDMDL
