MODEL 1
REMARK VINA RESULT:     -12.2      0.000      0.000
REMARK SMILES CC1(C)CCSC[C@@]1(Nc1ccccc1Br)C(=O)NCCCCCCNC(=O)c1ccc(-c2c3nc(c(-c4c(F)c(F)c(F)c(F)c4F)c4ccc([nH]4)c(-c4c(F)c(F)c(F)c(F)c4F)c4nc(c(-c5c(F)c(F)c(F)c(F)c5F)c5ccc2[nH]5)C=C4)C=C3)cc1
REMARK SMILES IDX 22 1 21 2 20 3 19 4 17 5 18 6 8 8 1 9 2 10 3 11 4 12 5 13
REMARK SMILES IDX 7 14 6 15 9 16 10 18 11 19 15 20 12 21 14 22 16 23 13 24
REMARK SMILES IDX 23 25 24 26 25 27 26 28 27 29 28 31 29 32 30 33 91 34 31 35
REMARK SMILES IDX 90 36 32 37 33 38 34 39 84 40 35 41 89 42 83 43 85 44 36 45
REMARK SMILES IDX 88 46 82 47 81 48 37 50 69 51 49 52 68 53 50 54 53 55 67 56
REMARK SMILES IDX 86 57 51 58 52 59 66 61 87 62 54 63 38 64 39 65 47 66 40 67
REMARK SMILES IDX 41 68 45 69 48 70 42 71 43 72 46 73 44 74 70 75 71 76 79 77
REMARK SMILES IDX 72 78 73 79 77 80 80 81 74 82 75 83 78 84 76 85 55 86 56 87
REMARK SMILES IDX 64 88 57 89 58 90 62 91 65 92 59 93 60 94 63 95 61 96
REMARK H PARENT 19 7 9 17 26 30 85 49 53 60
REMARK Flexibility Score: inf
ROOT
ATOM      1  C   UNL A   1      32.308  29.929  26.299  1.00  0.00     0.002 C 
ENDROOT
BRANCH   1   2
ATOM      2  C   UNL A   1      31.781  28.884  27.282  1.00  0.00     0.021 C 
BRANCH   2   3
ATOM      3  C   UNL A   1      32.174  27.443  26.990  1.00  0.00     0.116 C 
BRANCH   3   4
ATOM      4  N   UNL A   1      31.088  26.608  26.521  1.00  0.00    -0.354 N 
ATOM      5  C   UNL A   1      31.110  25.297  26.130  1.00  0.00     0.247 C 
ATOM      6  O   UNL A   1      30.238  24.608  26.687  1.00  0.00    -0.272 OA
ATOM      7  H   UNL A   1      30.208  27.047  26.479  1.00  0.00     0.163 HD
BRANCH   5   8
ATOM      8  C   UNL A   1      32.016  24.660  24.962  1.00  0.00     0.131 C 
ATOM      9  C   UNL A   1      33.646  23.489  26.630  1.00  0.00     0.014 C 
ATOM     10  C   UNL A   1      33.535  24.309  25.309  1.00  0.00    -0.002 C 
ATOM     11  C   UNL A   1      34.401  25.608  25.367  1.00  0.00     0.014 C 
ATOM     12  C   UNL A   1      34.236  23.449  24.197  1.00  0.00     0.020 C 
ATOM     13  C   UNL A   1      33.620  22.097  23.869  1.00  0.00     0.070 C 
ATOM     14  C   UNL A   1      31.251  23.334  24.604  1.00  0.00     0.108 C 
ATOM     15  S   UNL A   1      31.931  22.262  23.286  1.00  0.00    -0.159 SA
BRANCH   8  16
ATOM     16  N   UNL A   1      32.034  25.623  23.787  1.00  0.00    -0.369 N 
ATOM     17  H   UNL A   1      32.782  25.569  23.149  1.00  0.00     0.161 HD
BRANCH  16  18
ATOM     18  C   UNL A   1      31.040  26.583  23.563  1.00  0.00     0.049 A 
ATOM     19  C   UNL A   1      29.695  26.174  23.632  1.00  0.00     0.027 A 
ATOM     20  C   UNL A   1      31.280  27.933  23.258  1.00  0.00     0.041 A 
ATOM     21  C   UNL A   1      28.636  27.076  23.501  1.00  0.00     0.002 A 
ATOM     22  C   UNL A   1      30.218  28.845  23.134  1.00  0.00     0.018 A 
ATOM     23  Br  UNL A   1      33.008  28.587  22.806  1.00  0.00    -0.049 Br
ATOM     24  C   UNL A   1      28.899  28.419  23.272  1.00  0.00     0.001 A 
ENDBRANCH  16  18
ENDBRANCH   8  16
ENDBRANCH   5   8
ENDBRANCH   3   4
ENDBRANCH   2   3
ENDBRANCH   1   2
BRANCH   1  25
ATOM     25  C   UNL A   1      31.295  30.949  25.766  1.00  0.00     0.002 C 
BRANCH  25  26
ATOM     26  C   UNL A   1      31.190  32.290  26.503  1.00  0.00     0.021 C 
BRANCH  26  27
ATOM     27  C   UNL A   1      32.500  32.937  26.943  1.00  0.00     0.116 C 
BRANCH  27  28
ATOM     28  N   UNL A   1      32.307  34.204  27.620  1.00  0.00    -0.352 N 
ATOM     29  C   UNL A   1      32.981  34.774  28.665  1.00  0.00     0.251 C 
ATOM     30  H   UNL A   1      31.564  34.746  27.268  1.00  0.00     0.163 HD
ATOM     31  O   UNL A   1      32.551  35.820  29.153  1.00  0.00    -0.269 OA
BRANCH  29  32
ATOM     32  C   UNL A   1      34.198  34.157  29.242  1.00  0.00     0.039 A 
ATOM     33  C   UNL A   1      34.028  33.168  30.217  1.00  0.00     0.014 A 
ATOM     34  C   UNL A   1      35.489  34.575  28.903  1.00  0.00     0.014 A 
ATOM     35  C   UNL A   1      35.139  32.575  30.819  1.00  0.00     0.010 A 
ATOM     36  C   UNL A   1      36.603  33.939  29.461  1.00  0.00     0.010 A 
ATOM     37  C   UNL A   1      36.439  32.939  30.432  1.00  0.00    -0.014 A 
BRANCH  37  38
ATOM     38  C   UNL A   1      37.613  32.258  31.037  1.00  0.00     0.031 A 
ATOM     39  C   UNL A   1      38.083  32.613  32.421  1.00  0.00     0.074 A 
ATOM     40  C   UNL A   1      38.269  31.321  30.324  1.00  0.00     0.049 A 
ATOM     41  N   UNL A   1      39.060  32.089  33.121  1.00  0.00    -0.248 NA
ATOM     42  C   UNL A   1      37.387  33.716  33.101  1.00  0.00     0.031 C 
ATOM     43  C   UNL A   1      37.955  30.938  28.946  1.00  0.00     0.029 A 
ATOM     44  N   UNL A   1      39.333  30.521  30.657  1.00  0.00    -0.354 N 
ATOM     45  C   UNL A   1      39.101  32.802  34.312  1.00  0.00     0.074 A 
ATOM     46  C   UNL A   1      38.080  33.824  34.227  1.00  0.00     0.031 C 
ATOM     47  C   UNL A   1      38.791  29.963  28.559  1.00  0.00     0.029 A 
ATOM     48  C   UNL A   1      39.712  29.664  29.652  1.00  0.00     0.049 A 
ATOM     49  H   UNL A   1      39.784  30.559  31.531  1.00  0.00     0.167 HD
ATOM     50  C   UNL A   1      39.905  32.608  35.385  1.00  0.00     0.037 A 
ATOM     51  C   UNL A   1      40.687  28.737  29.618  1.00  0.00     0.037 A 
ATOM     52  C   UNL A   1      40.891  31.563  35.485  1.00  0.00     0.049 A 
ATOM     53  C   UNL A   1      41.524  28.506  30.847  1.00  0.00     0.074 A 
ATOM     54  C   UNL A   1      41.684  31.225  36.569  1.00  0.00     0.029 A 
ATOM     55  N   UNL A   1      41.222  30.688  34.461  1.00  0.00    -0.354 N 
ATOM     56  N   UNL A   1      41.480  29.118  32.006  1.00  0.00    -0.248 NA
ATOM     57  C   UNL A   1      42.535  27.442  30.769  1.00  0.00     0.031 C 
ATOM     58  C   UNL A   1      42.525  30.175  36.188  1.00  0.00     0.029 A 
ATOM     59  C   UNL A   1      42.225  29.828  34.880  1.00  0.00     0.049 A 
ATOM     60  H   UNL A   1      40.805  30.679  33.569  1.00  0.00     0.167 HD
ATOM     61  C   UNL A   1      42.441  28.504  32.797  1.00  0.00     0.074 A 
ATOM     62  C   UNL A   1      43.031  27.452  31.998  1.00  0.00     0.031 C 
ATOM     63  C   UNL A   1      42.807  28.789  34.071  1.00  0.00     0.037 A 
BRANCH  50  64
ATOM     64  C   UNL A   1      39.754  33.536  36.554  1.00  0.00     0.064 A 
ATOM     65  C   UNL A   1      40.419  34.770  36.604  1.00  0.00     0.173 A 
ATOM     66  C   UNL A   1      38.872  33.223  37.600  1.00  0.00     0.173 A 
ATOM     67  F   UNL A   1      41.279  35.113  35.633  1.00  0.00    -0.203 F 
ATOM     68  C   UNL A   1      40.217  35.650  37.664  1.00  0.00     0.198 A 
ATOM     69  C   UNL A   1      38.654  34.115  38.646  1.00  0.00     0.198 A 
ATOM     70  F   UNL A   1      38.206  32.058  37.597  1.00  0.00    -0.203 F 
ATOM     71  F   UNL A   1      40.885  36.812  37.706  1.00  0.00    -0.200 F 
ATOM     72  C   UNL A   1      39.328  35.327  38.679  1.00  0.00     0.200 A 
ATOM     73  F   UNL A   1      37.785  33.807  39.619  1.00  0.00    -0.200 F 
ATOM     74  F   UNL A   1      39.122  36.183  39.689  1.00  0.00    -0.200 F 
ENDBRANCH  50  64
BRANCH  51  75
ATOM     75  C   UNL A   1      40.911  27.936  28.387  1.00  0.00     0.064 A 
ATOM     76  C   UNL A   1      40.299  26.687  28.214  1.00  0.00     0.173 A 
ATOM     77  C   UNL A   1      41.759  28.394  27.369  1.00  0.00     0.173 A 
ATOM     78  F   UNL A   1      39.495  26.197  29.169  1.00  0.00    -0.203 F 
ATOM     79  C   UNL A   1      40.551  25.912  27.083  1.00  0.00     0.198 A 
ATOM     80  C   UNL A   1      41.987  27.632  26.225  1.00  0.00     0.198 A 
ATOM     81  F   UNL A   1      42.364  29.586  27.483  1.00  0.00    -0.203 F 
ATOM     82  F   UNL A   1      39.996  24.698  26.969  1.00  0.00    -0.200 F 
ATOM     83  C   UNL A   1      41.391  26.387  26.088  1.00  0.00     0.200 A 
ATOM     84  F   UNL A   1      42.789  28.100  25.260  1.00  0.00    -0.200 F 
ATOM     85  F   UNL A   1      41.635  25.641  25.002  1.00  0.00    -0.200 F 
ENDBRANCH  51  75
BRANCH  63  86
ATOM     86  C   UNL A   1      43.887  27.943  34.674  1.00  0.00     0.064 A 
ATOM     87  C   UNL A   1      43.595  26.728  35.312  1.00  0.00     0.173 A 
ATOM     88  C   UNL A   1      45.230  28.344  34.607  1.00  0.00     0.173 A 
ATOM     89  F   UNL A   1      42.324  26.309  35.416  1.00  0.00    -0.203 F 
ATOM     90  C   UNL A   1      44.603  25.963  35.890  1.00  0.00     0.198 A 
ATOM     91  C   UNL A   1      46.239  27.561  35.161  1.00  0.00     0.198 A 
ATOM     92  F   UNL A   1      45.564  29.494  34.002  1.00  0.00    -0.203 F 
ATOM     93  F   UNL A   1      44.294  24.834  36.544  1.00  0.00    -0.200 F 
ATOM     94  C   UNL A   1      45.924  26.377  35.811  1.00  0.00     0.200 A 
ATOM     95  F   UNL A   1      47.516  27.956  35.073  1.00  0.00    -0.200 F 
ATOM     96  F   UNL A   1      46.893  25.640  36.371  1.00  0.00    -0.200 F 
ENDBRANCH  63  86
ENDBRANCH  37  38
ENDBRANCH  29  32
ENDBRANCH  27  28
ENDBRANCH  26  27
ENDBRANCH  25  26
ENDBRANCH   1  25
TORSDOF 15
ENDMDL
MODEL 2
REMARK VINA RESULT:     -12.1      1.390      3.044
REMARK SMILES CC1(C)CCSC[C@@]1(Nc1ccccc1Br)C(=O)NCCCCCCNC(=O)c1ccc(-c2c3nc(c(-c4c(F)c(F)c(F)c(F)c4F)c4ccc([nH]4)c(-c4c(F)c(F)c(F)c(F)c4F)c4nc(c(-c5c(F)c(F)c(F)c(F)c5F)c5ccc2[nH]5)C=C4)C=C3)cc1
REMARK SMILES IDX 22 1 21 2 20 3 19 4 17 5 18 6 8 8 1 9 2 10 3 11 4 12 5 13
REMARK SMILES IDX 7 14 6 15 9 16 10 18 11 19 15 20 12 21 14 22 16 23 13 24
REMARK SMILES IDX 23 25 24 26 25 27 26 28 27 29 28 31 29 32 30 33 91 34 31 35
REMARK SMILES IDX 90 36 32 37 33 38 34 39 84 40 35 41 89 42 83 43 85 44 36 45
REMARK SMILES IDX 88 46 82 47 81 48 37 50 69 51 49 52 68 53 50 54 53 55 67 56
REMARK SMILES IDX 86 57 51 58 52 59 66 61 87 62 54 63 38 64 39 65 47 66 40 67
REMARK SMILES IDX 41 68 45 69 48 70 42 71 43 72 46 73 44 74 70 75 71 76 79 77
REMARK SMILES IDX 72 78 73 79 77 80 80 81 74 82 75 83 78 84 76 85 55 86 56 87
REMARK SMILES IDX 64 88 57 89 58 90 62 91 65 92 59 93 60 94 63 95 61 96
REMARK H PARENT 19 7 9 17 26 30 85 49 53 60
REMARK Flexibility Score: inf
ROOT
ATOM      1  C   UNL A   1      32.460  29.891  25.478  1.00  0.00     0.002 C 
ENDROOT
BRANCH   1   2
ATOM      2  C   UNL A   1      32.682  29.003  24.254  1.00  0.00     0.021 C 
BRANCH   2   3
ATOM      3  C   UNL A   1      33.907  28.101  24.305  1.00  0.00     0.116 C 
BRANCH   3   4
ATOM      4  N   UNL A   1      33.865  26.979  23.391  1.00  0.00    -0.354 N 
ATOM      5  C   UNL A   1      32.998  25.921  23.358  1.00  0.00     0.247 C 
ATOM      6  O   UNL A   1      32.503  25.732  22.233  1.00  0.00    -0.272 OA
ATOM      7  H   UNL A   1      34.559  26.979  22.693  1.00  0.00     0.163 HD
BRANCH   5   8
ATOM      8  C   UNL A   1      32.716  24.875  24.549  1.00  0.00     0.131 C 
ATOM      9  C   UNL A   1      30.264  25.691  24.914  1.00  0.00     0.014 C 
ATOM     10  C   UNL A   1      31.586  25.251  25.614  1.00  0.00    -0.002 C 
ATOM     11  C   UNL A   1      32.101  26.345  26.603  1.00  0.00     0.014 C 
ATOM     12  C   UNL A   1      31.207  24.052  26.555  1.00  0.00     0.020 C 
ATOM     13  C   UNL A   1      30.676  22.788  25.897  1.00  0.00     0.070 C 
ATOM     14  C   UNL A   1      32.287  23.572  23.783  1.00  0.00     0.108 C 
ATOM     15  S   UNL A   1      31.870  22.082  24.759  1.00  0.00    -0.159 SA
BRANCH   8  16
ATOM     16  N   UNL A   1      34.007  24.664  25.321  1.00  0.00    -0.369 N 
ATOM     17  H   UNL A   1      34.200  25.258  26.083  1.00  0.00     0.161 HD
BRANCH  16  18
ATOM     18  C   UNL A   1      34.938  23.667  25.006  1.00  0.00     0.049 A 
ATOM     19  C   UNL A   1      35.540  23.697  23.735  1.00  0.00     0.027 A 
ATOM     20  C   UNL A   1      35.313  22.618  25.864  1.00  0.00     0.041 A 
ATOM     21  C   UNL A   1      36.536  22.792  23.362  1.00  0.00     0.002 A 
ATOM     22  C   UNL A   1      36.321  21.712  25.495  1.00  0.00     0.018 A 
ATOM     23  Br  UNL A   1      34.379  22.230  27.474  1.00  0.00    -0.049 Br
ATOM     24  C   UNL A   1      36.942  21.809  24.252  1.00  0.00     0.001 A 
ENDBRANCH  16  18
ENDBRANCH   8  16
ENDBRANCH   5   8
ENDBRANCH   3   4
ENDBRANCH   2   3
ENDBRANCH   1   2
BRANCH   1  25
ATOM     25  C   UNL A   1      31.160  30.703  25.516  1.00  0.00     0.002 C 
BRANCH  25  26
ATOM     26  C   UNL A   1      31.098  31.890  26.486  1.00  0.00     0.021 C 
BRANCH  26  27
ATOM     27  C   UNL A   1      32.431  32.496  26.916  1.00  0.00     0.116 C 
BRANCH  27  28
ATOM     28  N   UNL A   1      32.299  33.843  27.434  1.00  0.00    -0.352 N 
ATOM     29  C   UNL A   1      33.029  34.517  28.375  1.00  0.00     0.251 C 
ATOM     30  H   UNL A   1      31.558  34.361  27.044  1.00  0.00     0.163 HD
ATOM     31  O   UNL A   1      32.647  35.630  28.742  1.00  0.00    -0.269 OA
BRANCH  29  32
ATOM     32  C   UNL A   1      34.251  33.939  28.981  1.00  0.00     0.039 A 
ATOM     33  C   UNL A   1      34.089  32.999  30.004  1.00  0.00     0.014 A 
ATOM     34  C   UNL A   1      35.539  34.349  28.620  1.00  0.00     0.014 A 
ATOM     35  C   UNL A   1      35.203  32.445  30.634  1.00  0.00     0.010 A 
ATOM     36  C   UNL A   1      36.657  33.750  29.209  1.00  0.00     0.010 A 
ATOM     37  C   UNL A   1      36.501  32.799  30.228  1.00  0.00    -0.014 A 
BRANCH  37  38
ATOM     38  C   UNL A   1      37.680  32.157  30.867  1.00  0.00     0.031 A 
ATOM     39  C   UNL A   1      38.130  32.563  32.243  1.00  0.00     0.074 A 
ATOM     40  C   UNL A   1      38.358  31.209  30.190  1.00  0.00     0.049 A 
ATOM     41  N   UNL A   1      39.108  32.078  32.968  1.00  0.00    -0.248 NA
ATOM     42  C   UNL A   1      37.409  33.675  32.880  1.00  0.00     0.031 C 
ATOM     43  C   UNL A   1      38.065  30.777  28.821  1.00  0.00     0.029 A 
ATOM     44  N   UNL A   1      39.433  30.439  30.558  1.00  0.00    -0.354 N 
ATOM     45  C   UNL A   1      39.126  32.829  34.136  1.00  0.00     0.074 A 
ATOM     46  C   UNL A   1      38.088  33.831  34.009  1.00  0.00     0.031 C 
ATOM     47  C   UNL A   1      38.921  29.805  28.474  1.00  0.00     0.029 A 
ATOM     48  C   UNL A   1      39.836  29.557  29.584  1.00  0.00     0.049 A 
ATOM     49  H   UNL A   1      39.874  30.512  31.435  1.00  0.00     0.167 HD
ATOM     50  C   UNL A   1      39.921  32.683  35.222  1.00  0.00     0.037 A 
ATOM     51  C   UNL A   1      40.827  28.645  29.590  1.00  0.00     0.037 A 
ATOM     52  C   UNL A   1      40.924  31.659  35.365  1.00  0.00     0.049 A 
ATOM     53  C   UNL A   1      41.655  28.468  30.833  1.00  0.00     0.074 A 
ATOM     54  C   UNL A   1      41.712  31.369  36.466  1.00  0.00     0.029 A 
ATOM     55  N   UNL A   1      41.280  30.758  34.373  1.00  0.00    -0.354 N 
ATOM     56  N   UNL A   1      41.589  29.115  31.971  1.00  0.00    -0.248 NA
ATOM     57  C   UNL A   1      42.684  27.420  30.799  1.00  0.00     0.031 C 
ATOM     58  C   UNL A   1      42.574  30.322  36.127  1.00  0.00     0.029 A 
ATOM     59  C   UNL A   1      42.293  29.928  34.828  1.00  0.00     0.049 A 
ATOM     60  H   UNL A   1      40.872  30.714  33.477  1.00  0.00     0.167 HD
ATOM     61  C   UNL A   1      42.552  28.543  32.791  1.00  0.00     0.074 A 
ATOM     62  C   UNL A   1      43.168  27.476  32.031  1.00  0.00     0.031 C 
ATOM     63  C   UNL A   1      42.900  28.875  34.058  1.00  0.00     0.037 A 
BRANCH  50  64
ATOM     64  C   UNL A   1      39.744  33.645  36.360  1.00  0.00     0.064 A 
ATOM     65  C   UNL A   1      38.921  33.344  37.455  1.00  0.00     0.173 A 
ATOM     66  C   UNL A   1      40.468  34.847  36.394  1.00  0.00     0.173 A 
ATOM     67  F   UNL A   1      38.202  32.211  37.469  1.00  0.00    -0.203 F 
ATOM     68  C   UNL A   1      38.818  34.217  38.535  1.00  0.00     0.198 A 
ATOM     69  C   UNL A   1      40.382  35.706  37.485  1.00  0.00     0.198 A 
ATOM     70  F   UNL A   1      41.273  35.179  35.374  1.00  0.00    -0.203 F 
ATOM     71  F   UNL A   1      38.004  33.923  39.559  1.00  0.00    -0.200 F 
ATOM     72  C   UNL A   1      39.556  35.392  38.554  1.00  0.00     0.200 A 
ATOM     73  F   UNL A   1      41.104  36.835  37.508  1.00  0.00    -0.200 F 
ATOM     74  F   UNL A   1      39.469  36.223  39.602  1.00  0.00    -0.200 F 
ENDBRANCH  50  64
BRANCH  51  75
ATOM     75  C   UNL A   1      41.077  27.810  28.387  1.00  0.00     0.064 A 
ATOM     76  C   UNL A   1      41.948  28.239  27.375  1.00  0.00     0.173 A 
ATOM     77  C   UNL A   1      40.432  26.577  28.213  1.00  0.00     0.173 A 
ATOM     78  F   UNL A   1      42.573  29.420  27.487  1.00  0.00    -0.203 F 
ATOM     79  C   UNL A   1      42.142  27.480  26.223  1.00  0.00     0.198 A 
ATOM     80  C   UNL A   1      40.649  25.806  27.074  1.00  0.00     0.198 A 
ATOM     81  F   UNL A   1      39.593  26.119  29.154  1.00  0.00    -0.203 F 
ATOM     82  F   UNL A   1      42.938  27.940  25.248  1.00  0.00    -0.200 F 
ATOM     83  C   UNL A   1      41.496  26.262  26.075  1.00  0.00     0.200 A 
ATOM     84  F   UNL A   1      40.033  24.624  26.941  1.00  0.00    -0.200 F 
ATOM     85  F   UNL A   1      41.680  25.535  24.965  1.00  0.00    -0.200 F 
ENDBRANCH  51  75
BRANCH  63  86
ATOM     86  C   UNL A   1      43.988  28.067  34.699  1.00  0.00     0.064 A 
ATOM     87  C   UNL A   1      43.707  26.884  35.399  1.00  0.00     0.173 A 
ATOM     88  C   UNL A   1      45.328  28.471  34.604  1.00  0.00     0.173 A 
ATOM     89  F   UNL A   1      42.438  26.464  35.530  1.00  0.00    -0.203 F 
ATOM     90  C   UNL A   1      44.722  26.155  36.010  1.00  0.00     0.198 A 
ATOM     91  C   UNL A   1      46.345  27.723  35.191  1.00  0.00     0.198 A 
ATOM     92  F   UNL A   1      45.652  29.591  33.939  1.00  0.00    -0.203 F 
ATOM     93  F   UNL A   1      44.423  25.060  36.722  1.00  0.00    -0.200 F 
ATOM     94  C   UNL A   1      46.041  26.572  35.903  1.00  0.00     0.200 A 
ATOM     95  F   UNL A   1      47.619  28.121  35.077  1.00  0.00    -0.200 F 
ATOM     96  F   UNL A   1      47.017  25.871  36.495  1.00  0.00    -0.200 F 
ENDBRANCH  63  86
ENDBRANCH  37  38
ENDBRANCH  29  32
ENDBRANCH  27  28
ENDBRANCH  26  27
ENDBRANCH  25  26
ENDBRANCH   1  25
TORSDOF 15
ENDMDL
MODEL 3
REMARK VINA RESULT:     -12.0      5.144     10.629
REMARK SMILES CC1(C)CCSC[C@@]1(Nc1ccccc1Br)C(=O)NCCCCCCNC(=O)c1ccc(-c2c3nc(c(-c4c(F)c(F)c(F)c(F)c4F)c4ccc([nH]4)c(-c4c(F)c(F)c(F)c(F)c4F)c4nc(c(-c5c(F)c(F)c(F)c(F)c5F)c5ccc2[nH]5)C=C4)C=C3)cc1
REMARK SMILES IDX 22 1 21 2 20 3 19 4 17 5 18 6 8 8 1 9 2 10 3 11 4 12 5 13
REMARK SMILES IDX 7 14 6 15 9 16 10 18 11 19 15 20 12 21 14 22 16 23 13 24
REMARK SMILES IDX 23 25 24 26 25 27 26 28 27 29 28 31 29 32 30 33 91 34 31 35
REMARK SMILES IDX 90 36 32 37 33 38 34 39 84 40 35 41 89 42 83 43 85 44 36 45
REMARK SMILES IDX 88 46 82 47 81 48 37 50 69 51 49 52 68 53 50 54 53 55 67 56
REMARK SMILES IDX 86 57 51 58 52 59 66 61 87 62 54 63 38 64 39 65 47 66 40 67
REMARK SMILES IDX 41 68 45 69 48 70 42 71 43 72 46 73 44 74 70 75 71 76 79 77
REMARK SMILES IDX 72 78 73 79 77 80 80 81 74 82 75 83 78 84 76 85 55 86 56 87
REMARK SMILES IDX 64 88 57 89 58 90 62 91 65 92 59 93 60 94 63 95 61 96
REMARK H PARENT 19 7 9 17 26 30 85 49 53 60
REMARK Flexibility Score: inf
ROOT
ATOM      1  C   UNL A   1      36.110  21.406  25.516  1.00  0.00     0.002 C 
ENDROOT
BRANCH   1   2
ATOM      2  C   UNL A   1      34.799  21.633  26.268  1.00  0.00     0.021 C 
BRANCH   2   3
ATOM      3  C   UNL A   1      34.591  23.033  26.829  1.00  0.00     0.116 C 
BRANCH   3   4
ATOM      4  N   UNL A   1      33.209  23.462  26.875  1.00  0.00    -0.354 N 
ATOM      5  C   UNL A   1      32.353  23.738  25.844  1.00  0.00     0.247 C 
ATOM      6  O   UNL A   1      31.262  23.151  25.946  1.00  0.00    -0.272 OA
ATOM      7  H   UNL A   1      32.832  23.569  27.778  1.00  0.00     0.163 HD
BRANCH   5   8
ATOM      8  C   UNL A   1      32.581  24.818  24.672  1.00  0.00     0.131 C 
ATOM      9  C   UNL A   1      32.531  23.026  22.776  1.00  0.00     0.014 C 
ATOM     10  C   UNL A   1      33.240  24.308  23.309  1.00  0.00    -0.002 C 
ATOM     11  C   UNL A   1      34.775  24.078  23.491  1.00  0.00     0.014 C 
ATOM     12  C   UNL A   1      33.161  25.368  22.154  1.00  0.00     0.020 C 
ATOM     13  C   UNL A   1      31.777  25.837  21.731  1.00  0.00     0.070 C 
ATOM     14  C   UNL A   1      31.126  25.333  24.377  1.00  0.00     0.108 C 
ATOM     15  S   UNL A   1      30.896  26.612  23.089  1.00  0.00    -0.159 SA
BRANCH   8  16
ATOM     16  N   UNL A   1      33.465  25.932  25.208  1.00  0.00    -0.369 N 
ATOM     17  H   UNL A   1      34.441  25.808  25.184  1.00  0.00     0.161 HD
BRANCH  16  18
ATOM     18  C   UNL A   1      32.962  27.127  25.735  1.00  0.00     0.049 A 
ATOM     19  C   UNL A   1      32.140  27.057  26.875  1.00  0.00     0.027 A 
ATOM     20  C   UNL A   1      33.204  28.405  25.203  1.00  0.00     0.041 A 
ATOM     21  C   UNL A   1      31.658  28.201  27.516  1.00  0.00     0.002 A 
ATOM     22  C   UNL A   1      32.729  29.558  25.850  1.00  0.00     0.018 A 
ATOM     23  Br  UNL A   1      34.011  28.667  23.500  1.00  0.00    -0.049 Br
ATOM     24  C   UNL A   1      31.970  29.456  27.014  1.00  0.00     0.001 A 
ENDBRANCH  16  18
ENDBRANCH   8  16
ENDBRANCH   5   8
ENDBRANCH   3   4
ENDBRANCH   2   3
ENDBRANCH   1   2
BRANCH   1  25
ATOM     25  C   UNL A   1      36.375  19.987  25.000  1.00  0.00     0.002 C 
BRANCH  25  26
ATOM     26  C   UNL A   1      37.834  19.592  24.740  1.00  0.00     0.021 C 
BRANCH  26  27
ATOM     27  C   UNL A   1      38.869  20.083  25.748  1.00  0.00     0.116 C 
BRANCH  27  28
ATOM     28  N   UNL A   1      40.018  19.206  25.853  1.00  0.00    -0.352 N 
ATOM     29  C   UNL A   1      41.331  19.477  26.125  1.00  0.00     0.251 C 
ATOM     30  H   UNL A   1      39.820  18.253  25.702  1.00  0.00     0.163 HD
ATOM     31  O   UNL A   1      42.158  18.568  26.041  1.00  0.00    -0.269 OA
BRANCH  29  32
ATOM     32  C   UNL A   1      41.790  20.836  26.495  1.00  0.00     0.039 A 
ATOM     33  C   UNL A   1      41.889  21.790  25.476  1.00  0.00     0.014 A 
ATOM     34  C   UNL A   1      42.191  21.171  27.792  1.00  0.00     0.014 A 
ATOM     35  C   UNL A   1      42.347  23.077  25.760  1.00  0.00     0.010 A 
ATOM     36  C   UNL A   1      42.592  22.477  28.089  1.00  0.00     0.010 A 
ATOM     37  C   UNL A   1      42.683  23.441  27.074  1.00  0.00    -0.014 A 
BRANCH  37  38
ATOM     38  C   UNL A   1      43.112  24.832  27.373  1.00  0.00     0.031 A 
ATOM     39  C   UNL A   1      44.509  25.294  27.062  1.00  0.00     0.074 A 
ATOM     40  C   UNL A   1      42.236  25.681  27.946  1.00  0.00     0.049 A 
ATOM     41  N   UNL A   1      45.039  26.483  27.214  1.00  0.00    -0.248 NA
ATOM     42  C   UNL A   1      45.443  24.287  26.535  1.00  0.00     0.031 C 
ATOM     43  C   UNL A   1      40.875  25.334  28.362  1.00  0.00     0.029 A 
ATOM     44  N   UNL A   1      42.356  27.008  28.278  1.00  0.00    -0.354 N 
ATOM     45  C   UNL A   1      46.364  26.365  26.814  1.00  0.00     0.074 A 
ATOM     46  C   UNL A   1      46.572  24.979  26.451  1.00  0.00     0.031 C 
ATOM     47  C   UNL A   1      40.280  26.423  28.872  1.00  0.00     0.029 A 
ATOM     48  C   UNL A   1      41.220  27.540  28.837  1.00  0.00     0.049 A 
ATOM     49  H   UNL A   1      43.179  27.527  28.131  1.00  0.00     0.167 HD
ATOM     50  C   UNL A   1      47.312  27.328  26.739  1.00  0.00     0.037 A 
ATOM     51  C   UNL A   1      40.962  28.790  29.266  1.00  0.00     0.037 A 
ATOM     52  C   UNL A   1      47.092  28.715  27.060  1.00  0.00     0.049 A 
ATOM     53  C   UNL A   1      42.018  29.851  29.115  1.00  0.00     0.074 A 
ATOM     54  C   UNL A   1      47.963  29.783  26.921  1.00  0.00     0.029 A 
ATOM     55  N   UNL A   1      45.916  29.226  27.587  1.00  0.00    -0.354 N 
ATOM     56  N   UNL A   1      43.233  29.747  28.634  1.00  0.00    -0.248 NA
ATOM     57  C   UNL A   1      41.659  31.208  29.548  1.00  0.00     0.031 C 
ATOM     58  C   UNL A   1      47.330  30.932  27.404  1.00  0.00     0.029 A 
ATOM     59  C   UNL A   1      46.047  30.589  27.803  1.00  0.00     0.049 A 
ATOM     60  H   UNL A   1      45.106  28.699  27.779  1.00  0.00     0.167 HD
ATOM     61  C   UNL A   1      43.776  31.023  28.691  1.00  0.00     0.074 A 
ATOM     62  C   UNL A   1      42.748  31.891  29.225  1.00  0.00     0.031 C 
ATOM     63  C   UNL A   1      45.017  31.439  28.341  1.00  0.00     0.037 A 
BRANCH  50  64
ATOM     64  C   UNL A   1      48.685  26.931  26.282  1.00  0.00     0.064 A 
ATOM     65  C   UNL A   1      49.615  26.357  27.161  1.00  0.00     0.173 A 
ATOM     66  C   UNL A   1      49.046  27.051  24.931  1.00  0.00     0.173 A 
ATOM     67  F   UNL A   1      49.322  26.227  28.464  1.00  0.00    -0.203 F 
ATOM     68  C   UNL A   1      50.861  25.931  26.708  1.00  0.00     0.198 A 
ATOM     69  C   UNL A   1      50.283  26.602  24.476  1.00  0.00     0.198 A 
ATOM     70  F   UNL A   1      48.190  27.587  24.048  1.00  0.00    -0.203 F 
ATOM     71  F   UNL A   1      51.746  25.412  27.570  1.00  0.00    -0.200 F 
ATOM     72  C   UNL A   1      51.190  26.045  25.364  1.00  0.00     0.200 A 
ATOM     73  F   UNL A   1      50.595  26.701  23.176  1.00  0.00    -0.200 F 
ATOM     74  F   UNL A   1      52.383  25.619  24.927  1.00  0.00    -0.200 F 
ENDBRANCH  50  64
BRANCH  51  75
ATOM     75  C   UNL A   1      39.639  29.116  29.857  1.00  0.00     0.064 A 
ATOM     76  C   UNL A   1      39.403  28.970  31.231  1.00  0.00     0.173 A 
ATOM     77  C   UNL A   1      38.576  29.559  29.056  1.00  0.00     0.173 A 
ATOM     78  F   UNL A   1      40.382  28.529  32.035  1.00  0.00    -0.203 F 
ATOM     79  C   UNL A   1      38.147  29.225  31.777  1.00  0.00     0.198 A 
ATOM     80  C   UNL A   1      37.329  29.843  29.609  1.00  0.00     0.198 A 
ATOM     81  F   UNL A   1      38.751  29.722  27.736  1.00  0.00    -0.203 F 
ATOM     82  F   UNL A   1      37.935  29.024  33.085  1.00  0.00    -0.200 F 
ATOM     83  C   UNL A   1      37.112  29.666  30.966  1.00  0.00     0.200 A 
ATOM     84  F   UNL A   1      36.336  30.281  28.824  1.00  0.00    -0.200 F 
ATOM     85  F   UNL A   1      35.904  29.908  31.492  1.00  0.00    -0.200 F 
ENDBRANCH  51  75
BRANCH  63  86
ATOM     86  C   UNL A   1      45.321  32.897  28.514  1.00  0.00     0.064 A 
ATOM     87  C   UNL A   1      45.032  33.830  27.507  1.00  0.00     0.173 A 
ATOM     88  C   UNL A   1      45.897  33.369  29.702  1.00  0.00     0.173 A 
ATOM     89  F   UNL A   1      44.494  33.425  26.346  1.00  0.00    -0.203 F 
ATOM     90  C   UNL A   1      45.341  35.177  27.669  1.00  0.00     0.198 A 
ATOM     91  C   UNL A   1      46.177  34.723  29.873  1.00  0.00     0.198 A 
ATOM     92  F   UNL A   1      46.187  32.520  30.700  1.00  0.00    -0.203 F 
ATOM     93  F   UNL A   1      45.108  36.041  26.671  1.00  0.00    -0.200 F 
ATOM     94  C   UNL A   1      45.909  35.623  28.854  1.00  0.00     0.200 A 
ATOM     95  F   UNL A   1      46.715  35.154  31.022  1.00  0.00    -0.200 F 
ATOM     96  F   UNL A   1      46.208  36.920  29.007  1.00  0.00    -0.200 F 
ENDBRANCH  63  86
ENDBRANCH  37  38
ENDBRANCH  29  32
ENDBRANCH  27  28
ENDBRANCH  26  27
ENDBRANCH  25  26
ENDBRANCH   1  25
TORSDOF 15
ENDMDL
