MODEL 1
REMARK VINA RESULT:     -13.5      0.000      0.000
REMARK SMILES Cc1ccccc1C(=O)Nc1ccc(OCC(=O)NCCCCCCNC(=O)c2ccc(-c3c4nc(c(-c5c(F)c(F)c(F)c(F)c5F)c5ccc([nH]5)c(-c5c(F)c(F)c(F)c(F)c5F)c5nc(c(-c6c(F)c(F)c(F)c(F)c6F)c6ccc3[nH]6)C=C5)C=C4)cc2)c(-c2nc3ccccc3s2)c1
REMARK SMILES IDX 21 1 20 2 19 3 17 4 18 5 16 7 15 8 14 9 11 10 12 11 102 12
REMARK SMILES IDX 13 13 92 14 10 15 8 16 9 17 7 19 1 20 2 21 3 22 4 23 6 24
REMARK SMILES IDX 5 25 93 26 94 27 101 28 95 29 100 30 96 31 99 32 97 33 98 34
REMARK SMILES IDX 22 35 23 36 24 37 25 38 26 39 27 40 28 42 29 43 30 44 91 45
REMARK SMILES IDX 31 46 90 47 32 48 33 49 34 50 84 51 35 52 89 53 83 54 85 55
REMARK SMILES IDX 36 56 88 57 82 58 81 59 37 61 69 62 49 63 68 64 50 65 53 66
REMARK SMILES IDX 67 67 86 68 51 69 52 70 66 72 87 73 54 74 38 75 39 76 47 77
REMARK SMILES IDX 40 78 41 79 45 80 48 81 42 82 43 83 46 84 44 85 70 86 71 87
REMARK SMILES IDX 79 88 72 89 73 90 77 91 80 92 74 93 75 94 78 95 76 96 55 97
REMARK SMILES IDX 56 98 64 99 57 100 58 101 62 102 65 103 59 104 60 105 63 106
REMARK SMILES IDX 61 107
REMARK H PARENT 19 6 10 18 26 41 85 60 53 71
REMARK Flexibility Score: inf
ROOT
ATOM      1  C   UNL A   1      35.180  31.427  27.915  1.00  0.00     0.021 C 
ENDROOT
BRANCH   1   2
ATOM      2  C   UNL A   1      34.544  30.085  27.560  1.00  0.00     0.116 C 
BRANCH   2   3
ATOM      3  N   UNL A   1      34.018  30.094  26.217  1.00  0.00    -0.353 N 
ATOM      4  C   UNL A   1      33.442  29.112  25.478  1.00  0.00     0.257 C 
ATOM      5  O   UNL A   1      33.146  29.420  24.323  1.00  0.00    -0.271 OA
ATOM      6  H   UNL A   1      34.089  30.962  25.757  1.00  0.00     0.163 HD
BRANCH   4   7
ATOM      7  C   UNL A   1      33.134  27.722  26.097  1.00  0.00     0.329 C 
BRANCH   7   8
ATOM      8  O   UNL A   1      31.819  27.224  26.329  1.00  0.00    -0.483 OA
BRANCH   8   9
ATOM      9  C   UNL A   1      31.646  25.915  25.978  1.00  0.00     0.130 A 
ATOM     10  C   UNL A   1      31.493  23.207  25.322  1.00  0.00     0.042 A 
ATOM     11  C   UNL A   1      32.084  23.595  26.524  1.00  0.00     0.030 A 
ATOM     12  C   UNL A   1      30.855  24.164  24.529  1.00  0.00     0.041 A 
ATOM     13  C   UNL A   1      32.197  24.949  26.831  1.00  0.00     0.049 A 
ATOM     14  C   UNL A   1      30.870  25.537  24.864  1.00  0.00     0.055 A 
BRANCH  10  15
ATOM     15  N   UNL A   1      31.610  21.860  24.954  1.00  0.00    -0.322 N 
ATOM     16  C   UNL A   1      32.642  21.181  24.343  1.00  0.00     0.255 C 
ATOM     17  O   UNL A   1      32.431  20.036  23.935  1.00  0.00    -0.269 OA
ATOM     18  H   UNL A   1      30.823  21.307  25.167  1.00  0.00     0.170 HD
BRANCH  16  19
ATOM     19  C   UNL A   1      34.029  21.725  24.235  1.00  0.00     0.043 A 
ATOM     20  C   UNL A   1      33.574  23.352  22.283  1.00  0.00     0.045 C 
ATOM     21  C   UNL A   1      34.460  22.683  23.293  1.00  0.00    -0.038 A 
ATOM     22  C   UNL A   1      35.810  23.087  23.305  1.00  0.00     0.004 A 
ATOM     23  C   UNL A   1      36.685  22.650  24.298  1.00  0.00     0.000 A 
ATOM     24  C   UNL A   1      34.915  21.323  25.252  1.00  0.00     0.014 A 
ATOM     25  C   UNL A   1      36.229  21.791  25.291  1.00  0.00     0.001 A 
ENDBRANCH  16  19
ENDBRANCH  10  15
BRANCH  14  26
ATOM     26  C   UNL A   1      30.131  26.462  23.969  1.00  0.00     0.128 A 
ATOM     27  N   UNL A   1      30.729  27.327  23.167  1.00  0.00    -0.236 NA
ATOM     28  S   UNL A   1      28.409  26.533  23.864  1.00  0.00    -0.114 S 
ATOM     29  C   UNL A   1      29.830  28.300  22.771  1.00  0.00     0.082 A 
ATOM     30  C   UNL A   1      28.518  28.105  23.198  1.00  0.00     0.055 A 
ATOM     31  C   UNL A   1      30.134  29.463  22.042  1.00  0.00     0.030 A 
ATOM     32  C   UNL A   1      27.524  29.080  23.041  1.00  0.00     0.021 A 
ATOM     33  C   UNL A   1      29.147  30.438  21.857  1.00  0.00     0.002 A 
ATOM     34  C   UNL A   1      27.869  30.261  22.382  1.00  0.00     0.002 A 
ENDBRANCH  14  26
ENDBRANCH   8   9
ENDBRANCH   7   8
ENDBRANCH   4   7
ENDBRANCH   2   3
ENDBRANCH   1   2
BRANCH   1  35
ATOM     35  C   UNL A   1      34.215  32.549  28.328  1.00  0.00     0.002 C 
BRANCH  35  36
ATOM     36  C   UNL A   1      34.539  33.975  27.856  1.00  0.00     0.002 C 
BRANCH  36  37
ATOM     37  C   UNL A   1      34.072  35.127  28.745  1.00  0.00     0.021 C 
BRANCH  37  38
ATOM     38  C   UNL A   1      33.541  34.710  30.107  1.00  0.00     0.116 C 
BRANCH  38  39
ATOM     39  N   UNL A   1      34.227  35.304  31.244  1.00  0.00    -0.352 N 
ATOM     40  C   UNL A   1      35.406  34.900  31.856  1.00  0.00     0.251 C 
ATOM     41  H   UNL A   1      33.797  36.100  31.631  1.00  0.00     0.163 HD
ATOM     42  O   UNL A   1      35.815  35.472  32.847  1.00  0.00    -0.269 OA
BRANCH  40  43
ATOM     43  C   UNL A   1      36.232  33.851  31.201  1.00  0.00     0.039 A 
ATOM     44  C   UNL A   1      36.220  32.568  31.763  1.00  0.00     0.014 A 
ATOM     45  C   UNL A   1      37.154  34.171  30.210  1.00  0.00     0.014 A 
ATOM     46  C   UNL A   1      37.285  31.706  31.515  1.00  0.00     0.010 A 
ATOM     47  C   UNL A   1      38.262  33.367  30.047  1.00  0.00     0.010 A 
ATOM     48  C   UNL A   1      38.357  32.163  30.748  1.00  0.00    -0.014 A 
BRANCH  48  49
ATOM     49  C   UNL A   1      39.649  31.494  30.704  1.00  0.00     0.031 A 
ATOM     50  C   UNL A   1      39.811  30.229  29.962  1.00  0.00     0.074 A 
ATOM     51  C   UNL A   1      40.724  32.069  31.289  1.00  0.00     0.049 A 
ATOM     52  N   UNL A   1      40.681  29.327  30.269  1.00  0.00    -0.248 NA
ATOM     53  C   UNL A   1      38.982  29.869  28.816  1.00  0.00     0.031 C 
ATOM     54  C   UNL A   1      42.123  31.673  31.141  1.00  0.00     0.029 A 
ATOM     55  N   UNL A   1      40.741  33.037  32.306  1.00  0.00    -0.354 N 
ATOM     56  C   UNL A   1      40.719  28.423  29.236  1.00  0.00     0.074 A 
ATOM     57  C   UNL A   1      39.599  28.763  28.387  1.00  0.00     0.031 C 
ATOM     58  C   UNL A   1      42.817  32.133  32.192  1.00  0.00     0.029 A 
ATOM     59  C   UNL A   1      41.863  32.725  33.111  1.00  0.00     0.049 A 
ATOM     60  H   UNL A   1      40.106  33.779  32.433  1.00  0.00     0.167 HD
ATOM     61  C   UNL A   1      41.774  27.568  29.123  1.00  0.00     0.037 A 
ATOM     62  C   UNL A   1      41.732  32.389  34.426  1.00  0.00     0.037 A 
ATOM     63  C   UNL A   1      42.744  27.763  30.192  1.00  0.00     0.049 A 
ATOM     64  C   UNL A   1      42.272  31.023  34.766  1.00  0.00     0.074 A 
ATOM     65  C   UNL A   1      43.923  28.488  30.256  1.00  0.00     0.029 A 
ATOM     66  N   UNL A   1      42.399  27.456  31.504  1.00  0.00    -0.354 N 
ATOM     67  N   UNL A   1      42.470  30.083  33.884  1.00  0.00    -0.248 NA
ATOM     68  C   UNL A   1      42.605  30.596  36.123  1.00  0.00     0.031 C 
ATOM     69  C   UNL A   1      44.276  28.642  31.616  1.00  0.00     0.029 A 
ATOM     70  C   UNL A   1      43.319  27.999  32.381  1.00  0.00     0.049 A 
ATOM     71  H   UNL A   1      41.613  26.927  31.770  1.00  0.00     0.167 HD
ATOM     72  C   UNL A   1      42.931  28.954  34.514  1.00  0.00     0.074 A 
ATOM     73  C   UNL A   1      43.012  29.332  35.912  1.00  0.00     0.031 C 
ATOM     74  C   UNL A   1      43.200  27.809  33.818  1.00  0.00     0.037 A 
BRANCH  61  75
ATOM     75  C   UNL A   1      42.042  26.792  27.861  1.00  0.00     0.064 A 
ATOM     76  C   UNL A   1      41.447  25.533  27.631  1.00  0.00     0.173 A 
ATOM     77  C   UNL A   1      42.930  27.227  26.862  1.00  0.00     0.173 A 
ATOM     78  F   UNL A   1      40.521  25.032  28.458  1.00  0.00    -0.203 F 
ATOM     79  C   UNL A   1      41.802  24.727  26.548  1.00  0.00     0.198 A 
ATOM     80  C   UNL A   1      43.324  26.400  25.806  1.00  0.00     0.198 A 
ATOM     81  F   UNL A   1      43.433  28.471  26.885  1.00  0.00    -0.203 F 
ATOM     82  F   UNL A   1      41.219  23.530  26.391  1.00  0.00    -0.200 F 
ATOM     83  C   UNL A   1      42.769  25.144  25.656  1.00  0.00     0.200 A 
ATOM     84  F   UNL A   1      44.260  26.822  24.944  1.00  0.00    -0.200 F 
ATOM     85  F   UNL A   1      43.154  24.345  24.652  1.00  0.00    -0.200 F 
ENDBRANCH  61  75
BRANCH  62  86
ATOM     86  C   UNL A   1      40.572  33.046  35.080  1.00  0.00     0.064 A 
ATOM     87  C   UNL A   1      39.425  32.267  35.321  1.00  0.00     0.173 A 
ATOM     88  C   UNL A   1      40.720  34.228  35.813  1.00  0.00     0.173 A 
ATOM     89  F   UNL A   1      39.239  31.122  34.644  1.00  0.00    -0.203 F 
ATOM     90  C   UNL A   1      38.533  32.588  36.341  1.00  0.00     0.198 A 
ATOM     91  C   UNL A   1      39.816  34.556  36.826  1.00  0.00     0.198 A 
ATOM     92  F   UNL A   1      41.801  35.002  35.640  1.00  0.00    -0.203 F 
ATOM     93  F   UNL A   1      37.517  31.761  36.628  1.00  0.00    -0.200 F 
ATOM     94  C   UNL A   1      38.748  33.716  37.114  1.00  0.00     0.200 A 
ATOM     95  F   UNL A   1      40.032  35.637  37.589  1.00  0.00    -0.200 F 
ATOM     96  F   UNL A   1      37.952  33.972  38.162  1.00  0.00    -0.200 F 
ENDBRANCH  62  86
BRANCH  74  97
ATOM     97  C   UNL A   1      43.493  26.440  34.390  1.00  0.00     0.064 A 
ATOM     98  C   UNL A   1      42.521  25.579  34.923  1.00  0.00     0.173 A 
ATOM     99  C   UNL A   1      44.795  25.882  34.279  1.00  0.00     0.173 A 
ATOM    100  F   UNL A   1      41.230  25.931  34.974  1.00  0.00    -0.203 F 
ATOM    101  C   UNL A   1      42.834  24.290  35.367  1.00  0.00     0.198 A 
ATOM    102  C   UNL A   1      45.090  24.577  34.666  1.00  0.00     0.198 A 
ATOM    103  F   UNL A   1      45.819  26.578  33.762  1.00  0.00    -0.203 F 
ATOM    104  F   UNL A   1      41.874  23.524  35.906  1.00  0.00    -0.200 F 
ATOM    105  C   UNL A   1      44.113  23.784  35.227  1.00  0.00     0.200 A 
ATOM    106  F   UNL A   1      46.323  24.087  34.470  1.00  0.00    -0.200 F 
ATOM    107  F   UNL A   1      44.395  22.531  35.606  1.00  0.00    -0.200 F 
ENDBRANCH  74  97
ENDBRANCH  48  49
ENDBRANCH  40  43
ENDBRANCH  38  39
ENDBRANCH  37  38
ENDBRANCH  36  37
ENDBRANCH  35  36
ENDBRANCH   1  35
TORSDOF 18
ENDMDL
MODEL 2
REMARK VINA RESULT:     -13.0      4.700     10.511
REMARK SMILES Cc1ccccc1C(=O)Nc1ccc(OCC(=O)NCCCCCCNC(=O)c2ccc(-c3c4nc(c(-c5c(F)c(F)c(F)c(F)c5F)c5ccc([nH]5)c(-c5c(F)c(F)c(F)c(F)c5F)c5nc(c(-c6c(F)c(F)c(F)c(F)c6F)c6ccc3[nH]6)C=C5)C=C4)cc2)c(-c2nc3ccccc3s2)c1
REMARK SMILES IDX 21 1 20 2 19 3 17 4 18 5 16 7 15 8 14 9 11 10 12 11 102 12
REMARK SMILES IDX 13 13 92 14 10 15 8 16 9 17 7 19 1 20 2 21 3 22 4 23 6 24
REMARK SMILES IDX 5 25 93 26 94 27 101 28 95 29 100 30 96 31 99 32 97 33 98 34
REMARK SMILES IDX 22 35 23 36 24 37 25 38 26 39 27 40 28 42 29 43 30 44 91 45
REMARK SMILES IDX 31 46 90 47 32 48 33 49 34 50 84 51 35 52 89 53 83 54 85 55
REMARK SMILES IDX 36 56 88 57 82 58 81 59 37 61 69 62 49 63 68 64 50 65 53 66
REMARK SMILES IDX 67 67 86 68 51 69 52 70 66 72 87 73 54 74 38 75 39 76 47 77
REMARK SMILES IDX 40 78 41 79 45 80 48 81 42 82 43 83 46 84 44 85 70 86 71 87
REMARK SMILES IDX 79 88 72 89 73 90 77 91 80 92 74 93 75 94 78 95 76 96 55 97
REMARK SMILES IDX 56 98 64 99 57 100 58 101 62 102 65 103 59 104 60 105 63 106
REMARK SMILES IDX 61 107
REMARK H PARENT 19 6 10 18 26 41 85 60 53 71
REMARK Flexibility Score: inf
ROOT
ATOM      1  C   UNL A   1      39.205  22.072  26.513  1.00  0.00     0.021 C 
ENDROOT
BRANCH   1   2
ATOM      2  C   UNL A   1      38.099  22.722  25.684  1.00  0.00     0.116 C 
BRANCH   2   3
ATOM      3  N   UNL A   1      37.219  21.730  25.117  1.00  0.00    -0.353 N 
ATOM      4  C   UNL A   1      35.976  21.324  25.485  1.00  0.00     0.257 C 
ATOM      5  O   UNL A   1      35.502  20.398  24.826  1.00  0.00    -0.271 OA
ATOM      6  H   UNL A   1      37.582  21.267  24.327  1.00  0.00     0.163 HD
BRANCH   4   7
ATOM      7  C   UNL A   1      35.207  22.042  26.627  1.00  0.00     0.329 C 
BRANCH   7   8
ATOM      8  O   UNL A   1      33.830  21.822  26.923  1.00  0.00    -0.483 OA
BRANCH   8   9
ATOM      9  C   UNL A   1      32.969  22.564  26.164  1.00  0.00     0.130 A 
ATOM     10  C   UNL A   1      31.169  24.193  24.788  1.00  0.00     0.042 A 
ATOM     11  C   UNL A   1      32.092  24.767  25.662  1.00  0.00     0.030 A 
ATOM     12  C   UNL A   1      31.251  22.828  24.500  1.00  0.00     0.041 A 
ATOM     13  C   UNL A   1      32.962  23.949  26.380  1.00  0.00     0.049 A 
ATOM     14  C   UNL A   1      32.188  21.988  25.142  1.00  0.00     0.055 A 
BRANCH  10  15
ATOM     15  N   UNL A   1      30.170  25.027  24.270  1.00  0.00    -0.322 N 
ATOM     16  C   UNL A   1      30.220  26.340  23.852  1.00  0.00     0.255 C 
ATOM     17  O   UNL A   1      29.158  26.924  23.622  1.00  0.00    -0.269 OA
ATOM     18  H   UNL A   1      29.284  24.605  24.191  1.00  0.00     0.170 HD
BRANCH  16  19
ATOM     19  C   UNL A   1      31.498  27.060  23.570  1.00  0.00     0.043 A 
ATOM     20  C   UNL A   1      32.151  25.724  21.460  1.00  0.00     0.045 C 
ATOM     21  C   UNL A   1      32.384  26.771  22.511  1.00  0.00    -0.038 A 
ATOM     22  C   UNL A   1      33.563  27.530  22.386  1.00  0.00     0.004 A 
ATOM     23  C   UNL A   1      33.806  28.627  23.210  1.00  0.00     0.000 A 
ATOM     24  C   UNL A   1      31.740  28.194  24.370  1.00  0.00     0.014 A 
ATOM     25  C   UNL A   1      32.878  28.979  24.183  1.00  0.00     0.001 A 
ENDBRANCH  16  19
ENDBRANCH  10  15
BRANCH  14  26
ATOM     26  C   UNL A   1      32.211  20.561  24.735  1.00  0.00     0.128 A 
ATOM     27  N   UNL A   1      32.122  19.560  25.595  1.00  0.00    -0.236 NA
ATOM     28  S   UNL A   1      32.363  20.026  23.100  1.00  0.00    -0.114 S 
ATOM     29  C   UNL A   1      32.565  18.391  25.003  1.00  0.00     0.082 A 
ATOM     30  C   UNL A   1      32.893  18.497  23.654  1.00  0.00     0.055 A 
ATOM     31  C   UNL A   1      32.758  17.157  25.649  1.00  0.00     0.030 A 
ATOM     32  C   UNL A   1      33.524  17.461  22.951  1.00  0.00     0.021 A 
ATOM     33  C   UNL A   1      33.369  16.105  24.955  1.00  0.00     0.002 A 
ATOM     34  C   UNL A   1      33.777  16.271  23.634  1.00  0.00     0.002 A 
ENDBRANCH  14  26
ENDBRANCH   8   9
ENDBRANCH   7   8
ENDBRANCH   4   7
ENDBRANCH   2   3
ENDBRANCH   1   2
BRANCH   1  35
ATOM     35  C   UNL A   1      40.325  23.003  27.000  1.00  0.00     0.002 C 
BRANCH  35  36
ATOM     36  C   UNL A   1      41.502  22.365  27.754  1.00  0.00     0.002 C 
BRANCH  36  37
ATOM     37  C   UNL A   1      42.435  21.458  26.951  1.00  0.00     0.021 C 
BRANCH  37  38
ATOM     38  C   UNL A   1      42.817  21.987  25.579  1.00  0.00     0.116 C 
BRANCH  38  39
ATOM     39  N   UNL A   1      43.971  21.343  24.970  1.00  0.00    -0.352 N 
ATOM     40  C   UNL A   1      45.291  21.772  24.942  1.00  0.00     0.251 C 
ATOM     41  H   UNL A   1      43.792  20.488  24.518  1.00  0.00     0.163 HD
ATOM     42  O   UNL A   1      46.132  21.144  24.328  1.00  0.00    -0.269 OA
BRANCH  40  43
ATOM     43  C   UNL A   1      45.688  22.930  25.785  1.00  0.00     0.039 A 
ATOM     44  C   UNL A   1      45.755  22.735  27.170  1.00  0.00     0.014 A 
ATOM     45  C   UNL A   1      45.774  24.214  25.256  1.00  0.00     0.014 A 
ATOM     46  C   UNL A   1      45.649  23.833  28.020  1.00  0.00     0.010 A 
ATOM     47  C   UNL A   1      45.559  25.293  26.088  1.00  0.00     0.010 A 
ATOM     48  C   UNL A   1      45.433  25.095  27.465  1.00  0.00    -0.014 A 
BRANCH  48  49
ATOM     49  C   UNL A   1      44.977  26.240  28.239  1.00  0.00     0.031 A 
ATOM     50  C   UNL A   1      43.582  26.707  28.132  1.00  0.00     0.074 A 
ATOM     51  C   UNL A   1      45.818  26.839  29.112  1.00  0.00     0.049 A 
ATOM     52  N   UNL A   1      43.221  27.930  28.322  1.00  0.00    -0.248 NA
ATOM     53  C   UNL A   1      42.475  25.824  27.778  1.00  0.00     0.031 C 
ATOM     54  C   UNL A   1      45.469  27.826  30.131  1.00  0.00     0.029 A 
ATOM     55  N   UNL A   1      47.222  26.805  29.125  1.00  0.00    -0.354 N 
ATOM     56  C   UNL A   1      41.849  27.950  28.388  1.00  0.00     0.074 A 
ATOM     57  C   UNL A   1      41.426  26.630  27.978  1.00  0.00     0.031 C 
ATOM     58  C   UNL A   1      46.571  28.518  30.459  1.00  0.00     0.029 A 
ATOM     59  C   UNL A   1      47.631  28.085  29.566  1.00  0.00     0.049 A 
ATOM     60  H   UNL A   1      47.801  26.048  28.877  1.00  0.00     0.167 HD
ATOM     61  C   UNL A   1      41.212  29.031  28.919  1.00  0.00     0.037 A 
ATOM     62  C   UNL A   1      48.377  28.912  28.780  1.00  0.00     0.037 A 
ATOM     63  C   UNL A   1      42.154  30.056  29.348  1.00  0.00     0.049 A 
ATOM     64  C   UNL A   1      47.722  30.240  28.492  1.00  0.00     0.074 A 
ATOM     65  C   UNL A   1      42.712  30.347  30.583  1.00  0.00     0.029 A 
ATOM     66  N   UNL A   1      42.914  30.737  28.403  1.00  0.00    -0.354 N 
ATOM     67  N   UNL A   1      46.442  30.457  28.610  1.00  0.00    -0.248 NA
ATOM     68  C   UNL A   1      48.448  31.418  28.024  1.00  0.00     0.031 C 
ATOM     69  C   UNL A   1      43.830  31.188  30.377  1.00  0.00     0.029 A 
ATOM     70  C   UNL A   1      43.946  31.419  29.018  1.00  0.00     0.049 A 
ATOM     71  H   UNL A   1      42.740  30.734  27.434  1.00  0.00     0.167 HD
ATOM     72  C   UNL A   1      46.160  31.748  28.242  1.00  0.00     0.074 A 
ATOM     73  C   UNL A   1      47.451  32.312  27.897  1.00  0.00     0.031 C 
ATOM     74  C   UNL A   1      44.881  32.230  28.254  1.00  0.00     0.037 A 
BRANCH  61  75
ATOM     75  C   UNL A   1      39.761  28.987  29.320  1.00  0.00     0.064 A 
ATOM     76  C   UNL A   1      38.739  29.369  28.424  1.00  0.00     0.173 A 
ATOM     77  C   UNL A   1      39.327  28.623  30.606  1.00  0.00     0.173 A 
ATOM     78  F   UNL A   1      39.000  29.661  27.145  1.00  0.00    -0.203 F 
ATOM     79  C   UNL A   1      37.406  29.488  28.821  1.00  0.00     0.198 A 
ATOM     80  C   UNL A   1      38.001  28.791  31.018  1.00  0.00     0.198 A 
ATOM     81  F   UNL A   1      40.180  28.089  31.493  1.00  0.00    -0.203 F 
ATOM     82  F   UNL A   1      36.480  29.876  27.933  1.00  0.00    -0.200 F 
ATOM     83  C   UNL A   1      37.043  29.236  30.129  1.00  0.00     0.200 A 
ATOM     84  F   UNL A   1      37.663  28.536  32.290  1.00  0.00    -0.200 F 
ATOM     85  F   UNL A   1      35.775  29.409  30.524  1.00  0.00    -0.200 F 
ENDBRANCH  61  75
BRANCH  62  86
ATOM     86  C   UNL A   1      49.279  28.178  27.858  1.00  0.00     0.064 A 
ATOM     87  C   UNL A   1      50.523  27.749  28.358  1.00  0.00     0.173 A 
ATOM     88  C   UNL A   1      48.793  27.555  26.703  1.00  0.00     0.173 A 
ATOM     89  F   UNL A   1      51.029  28.314  29.465  1.00  0.00    -0.203 F 
ATOM     90  C   UNL A   1      51.188  26.658  27.804  1.00  0.00     0.198 A 
ATOM     91  C   UNL A   1      49.471  26.471  26.141  1.00  0.00     0.198 A 
ATOM     92  F   UNL A   1      47.606  27.908  26.190  1.00  0.00    -0.203 F 
ATOM     93  F   UNL A   1      52.309  26.196  28.378  1.00  0.00    -0.200 F 
ATOM     94  C   UNL A   1      50.645  26.000  26.714  1.00  0.00     0.200 A 
ATOM     95  F   UNL A   1      48.938  25.819  25.098  1.00  0.00    -0.200 F 
ATOM     96  F   UNL A   1      51.228  24.888  26.244  1.00  0.00    -0.200 F 
ENDBRANCH  62  86
BRANCH  74  97
ATOM     97  C   UNL A   1      44.391  33.537  27.671  1.00  0.00     0.064 A 
ATOM     98  C   UNL A   1      43.866  33.680  26.377  1.00  0.00     0.173 A 
ATOM     99  C   UNL A   1      44.305  34.696  28.488  1.00  0.00     0.173 A 
ATOM    100  F   UNL A   1      43.773  32.638  25.542  1.00  0.00    -0.203 F 
ATOM    101  C   UNL A   1      43.354  34.897  25.915  1.00  0.00     0.198 A 
ATOM    102  C   UNL A   1      43.738  35.889  28.044  1.00  0.00     0.198 A 
ATOM    103  F   UNL A   1      44.741  34.700  29.756  1.00  0.00    -0.203 F 
ATOM    104  F   UNL A   1      42.902  34.989  24.656  1.00  0.00    -0.200 F 
ATOM    105  C   UNL A   1      43.277  35.996  26.751  1.00  0.00     0.200 A 
ATOM    106  F   UNL A   1      43.622  36.925  28.887  1.00  0.00    -0.200 F 
ATOM    107  F   UNL A   1      42.739  37.143  26.318  1.00  0.00    -0.200 F 
ENDBRANCH  74  97
ENDBRANCH  48  49
ENDBRANCH  40  43
ENDBRANCH  38  39
ENDBRANCH  37  38
ENDBRANCH  36  37
ENDBRANCH  35  36
ENDBRANCH   1  35
TORSDOF 18
ENDMDL
MODEL 3
REMARK VINA RESULT:     -12.9      1.070      2.069
REMARK SMILES Cc1ccccc1C(=O)Nc1ccc(OCC(=O)NCCCCCCNC(=O)c2ccc(-c3c4nc(c(-c5c(F)c(F)c(F)c(F)c5F)c5ccc([nH]5)c(-c5c(F)c(F)c(F)c(F)c5F)c5nc(c(-c6c(F)c(F)c(F)c(F)c6F)c6ccc3[nH]6)C=C5)C=C4)cc2)c(-c2nc3ccccc3s2)c1
REMARK SMILES IDX 21 1 20 2 19 3 17 4 18 5 16 7 15 8 14 9 11 10 12 11 102 12
REMARK SMILES IDX 13 13 92 14 10 15 8 16 9 17 7 19 1 20 2 21 3 22 4 23 6 24
REMARK SMILES IDX 5 25 93 26 94 27 101 28 95 29 100 30 96 31 99 32 97 33 98 34
REMARK SMILES IDX 22 35 23 36 24 37 25 38 26 39 27 40 28 42 29 43 30 44 91 45
REMARK SMILES IDX 31 46 90 47 32 48 33 49 34 50 84 51 35 52 89 53 83 54 85 55
REMARK SMILES IDX 36 56 88 57 82 58 81 59 37 61 69 62 49 63 68 64 50 65 53 66
REMARK SMILES IDX 67 67 86 68 51 69 52 70 66 72 87 73 54 74 38 75 39 76 47 77
REMARK SMILES IDX 40 78 41 79 45 80 48 81 42 82 43 83 46 84 44 85 70 86 71 87
REMARK SMILES IDX 79 88 72 89 73 90 77 91 80 92 74 93 75 94 78 95 76 96 55 97
REMARK SMILES IDX 56 98 64 99 57 100 58 101 62 102 65 103 59 104 60 105 63 106
REMARK SMILES IDX 61 107
REMARK H PARENT 19 6 10 18 26 41 85 60 53 71
REMARK Flexibility Score: inf
ROOT
ATOM      1  C   UNL A   1      35.220  31.145  28.020  1.00  0.00     0.021 C 
ENDROOT
BRANCH   1   2
ATOM      2  C   UNL A   1      34.618  29.950  27.286  1.00  0.00     0.116 C 
BRANCH   2   3
ATOM      3  N   UNL A   1      33.503  30.350  26.462  1.00  0.00    -0.353 N 
ATOM      4  C   UNL A   1      32.284  29.782  26.275  1.00  0.00     0.257 C 
ATOM      5  O   UNL A   1      31.560  30.339  25.448  1.00  0.00    -0.271 OA
ATOM      6  H   UNL A   1      33.651  31.177  25.948  1.00  0.00     0.163 HD
BRANCH   4   7
ATOM      7  C   UNL A   1      31.839  28.550  27.108  1.00  0.00     0.329 C 
BRANCH   7   8
ATOM      8  O   UNL A   1      31.233  27.386  26.552  1.00  0.00    -0.483 OA
BRANCH   8   9
ATOM      9  C   UNL A   1      32.059  26.658  25.743  1.00  0.00     0.130 A 
ATOM     10  C   UNL A   1      33.904  25.220  24.222  1.00  0.00     0.042 A 
ATOM     11  C   UNL A   1      33.914  25.105  25.612  1.00  0.00     0.030 A 
ATOM     12  C   UNL A   1      32.880  25.938  23.599  1.00  0.00     0.041 A 
ATOM     13  C   UNL A   1      33.020  25.855  26.373  1.00  0.00     0.049 A 
ATOM     14  C   UNL A   1      31.900  26.633  24.343  1.00  0.00     0.055 A 
BRANCH  10  15
ATOM     15  N   UNL A   1      34.964  24.631  23.521  1.00  0.00    -0.322 N 
ATOM     16  C   UNL A   1      35.326  23.309  23.380  1.00  0.00     0.255 C 
ATOM     17  O   UNL A   1      36.422  23.050  22.876  1.00  0.00    -0.269 OA
ATOM     18  H   UNL A   1      35.549  25.269  23.050  1.00  0.00     0.170 HD
BRANCH  16  19
ATOM     19  C   UNL A   1      34.418  22.172  23.718  1.00  0.00     0.043 A 
ATOM     20  C   UNL A   1      35.819  21.223  25.669  1.00  0.00     0.045 C 
ATOM     21  C   UNL A   1      34.647  21.216  24.730  1.00  0.00    -0.038 A 
ATOM     22  C   UNL A   1      33.703  20.188  24.918  1.00  0.00     0.004 A 
ATOM     23  C   UNL A   1      32.502  20.172  24.211  1.00  0.00     0.000 A 
ATOM     24  C   UNL A   1      33.185  22.163  23.039  1.00  0.00     0.014 A 
ATOM     25  C   UNL A   1      32.229  21.178  23.292  1.00  0.00     0.001 A 
ENDBRANCH  16  19
ENDBRANCH  10  15
BRANCH  14  26
ATOM     26  C   UNL A   1      30.839  27.334  23.579  1.00  0.00     0.128 A 
ATOM     27  N   UNL A   1      31.084  28.327  22.740  1.00  0.00    -0.236 NA
ATOM     28  S   UNL A   1      29.158  26.953  23.689  1.00  0.00    -0.114 S 
ATOM     29  C   UNL A   1      29.920  29.032  22.493  1.00  0.00     0.082 A 
ATOM     30  C   UNL A   1      28.770  28.499  23.070  1.00  0.00     0.055 A 
ATOM     31  C   UNL A   1      29.817  30.235  21.773  1.00  0.00     0.030 A 
ATOM     32  C   UNL A   1      27.545  29.180  23.070  1.00  0.00     0.021 A 
ATOM     33  C   UNL A   1      28.596  30.918  21.745  1.00  0.00     0.002 A 
ATOM     34  C   UNL A   1      27.485  30.412  22.417  1.00  0.00     0.002 A 
ENDBRANCH  14  26
ENDBRANCH   8   9
ENDBRANCH   7   8
ENDBRANCH   4   7
ENDBRANCH   2   3
ENDBRANCH   1   2
BRANCH   1  35
ATOM     35  C   UNL A   1      34.271  32.319  28.302  1.00  0.00     0.002 C 
BRANCH  35  36
ATOM     36  C   UNL A   1      34.764  33.732  27.955  1.00  0.00     0.002 C 
BRANCH  36  37
ATOM     37  C   UNL A   1      34.143  34.898  28.725  1.00  0.00     0.021 C 
BRANCH  37  38
ATOM     38  C   UNL A   1      33.597  34.539  30.098  1.00  0.00     0.116 C 
BRANCH  38  39
ATOM     39  N   UNL A   1      34.254  35.200  31.214  1.00  0.00    -0.352 N 
ATOM     40  C   UNL A   1      35.444  34.865  31.844  1.00  0.00     0.251 C 
ATOM     41  H   UNL A   1      33.793  35.993  31.570  1.00  0.00     0.163 HD
ATOM     42  O   UNL A   1      35.827  35.488  32.815  1.00  0.00    -0.269 OA
BRANCH  40  43
ATOM     43  C   UNL A   1      36.313  33.825  31.233  1.00  0.00     0.039 A 
ATOM     44  C   UNL A   1      36.349  32.565  31.843  1.00  0.00     0.014 A 
ATOM     45  C   UNL A   1      37.225  34.142  30.231  1.00  0.00     0.014 A 
ATOM     46  C   UNL A   1      37.448  31.736  31.631  1.00  0.00     0.010 A 
ATOM     47  C   UNL A   1      38.365  33.376  30.102  1.00  0.00     0.010 A 
ATOM     48  C   UNL A   1      38.504  32.205  30.849  1.00  0.00    -0.014 A 
BRANCH  48  49
ATOM     49  C   UNL A   1      39.821  31.586  30.833  1.00  0.00     0.031 A 
ATOM     50  C   UNL A   1      40.044  30.320  30.109  1.00  0.00     0.074 A 
ATOM     51  C   UNL A   1      40.864  32.208  31.428  1.00  0.00     0.049 A 
ATOM     52  N   UNL A   1      40.943  29.455  30.440  1.00  0.00    -0.248 NA
ATOM     53  C   UNL A   1      39.248  29.916  28.954  1.00  0.00     0.031 C 
ATOM     54  C   UNL A   1      42.279  31.865  31.306  1.00  0.00     0.029 A 
ATOM     55  N   UNL A   1      40.828  33.188  32.434  1.00  0.00    -0.354 N 
ATOM     56  C   UNL A   1      41.032  28.542  29.418  1.00  0.00     0.074 A 
ATOM     57  C   UNL A   1      39.914  28.829  28.547  1.00  0.00     0.031 C 
ATOM     58  C   UNL A   1      42.938  32.363  32.363  1.00  0.00     0.029 A 
ATOM     59  C   UNL A   1      41.947  32.928  33.260  1.00  0.00     0.049 A 
ATOM     60  H   UNL A   1      40.162  33.906  32.542  1.00  0.00     0.167 HD
ATOM     61  C   UNL A   1      42.120  27.727  29.332  1.00  0.00     0.037 A 
ATOM     62  C   UNL A   1      41.807  32.601  34.576  1.00  0.00     0.037 A 
ATOM     63  C   UNL A   1      43.065  27.971  30.414  1.00  0.00     0.049 A 
ATOM     64  C   UNL A   1      42.394  31.261  34.941  1.00  0.00     0.074 A 
ATOM     65  C   UNL A   1      44.214  28.742  30.487  1.00  0.00     0.029 A 
ATOM     66  N   UNL A   1      42.711  27.666  31.724  1.00  0.00    -0.354 N 
ATOM     67  N   UNL A   1      42.642  30.319  34.074  1.00  0.00    -0.248 NA
ATOM     68  C   UNL A   1      42.721  30.862  36.308  1.00  0.00     0.031 C 
ATOM     69  C   UNL A   1      44.538  28.924  31.851  1.00  0.00     0.029 A 
ATOM     70  C   UNL A   1      43.594  28.253  32.608  1.00  0.00     0.049 A 
ATOM     71  H   UNL A   1      41.941  27.110  31.983  1.00  0.00     0.167 HD
ATOM     72  C   UNL A   1      43.136  29.216  34.724  1.00  0.00     0.074 A 
ATOM     73  C   UNL A   1      43.179  29.612  36.118  1.00  0.00     0.031 C 
ATOM     74  C   UNL A   1      43.460  28.075  34.045  1.00  0.00     0.037 A 
BRANCH  61  75
ATOM     75  C   UNL A   1      42.438  26.948  28.083  1.00  0.00     0.064 A 
ATOM     76  C   UNL A   1      43.069  27.556  26.977  1.00  0.00     0.173 A 
ATOM     77  C   UNL A   1      42.087  25.598  27.907  1.00  0.00     0.173 A 
ATOM     78  F   UNL A   1      43.529  28.812  27.033  1.00  0.00    -0.203 F 
ATOM     79  C   UNL A   1      43.229  26.899  25.756  1.00  0.00     0.198 A 
ATOM     80  C   UNL A   1      42.201  24.956  26.669  1.00  0.00     0.198 A 
ATOM     81  F   UNL A   1      41.632  24.867  28.935  1.00  0.00    -0.203 F 
ATOM     82  F   UNL A   1      43.817  27.533  24.732  1.00  0.00    -0.200 F 
ATOM     83  C   UNL A   1      42.761  25.611  25.590  1.00  0.00     0.200 A 
ATOM     84  F   UNL A   1      41.747  23.703  26.526  1.00  0.00    -0.200 F 
ATOM     85  F   UNL A   1      42.859  25.003  24.400  1.00  0.00    -0.200 F 
ENDBRANCH  61  75
BRANCH  62  86
ATOM     86  C   UNL A   1      40.613  33.220  35.204  1.00  0.00     0.064 A 
ATOM     87  C   UNL A   1      39.467  32.420  35.367  1.00  0.00     0.173 A 
ATOM     88  C   UNL A   1      40.715  34.376  35.986  1.00  0.00     0.173 A 
ATOM     89  F   UNL A   1      39.324  31.300  34.642  1.00  0.00    -0.203 F 
ATOM     90  C   UNL A   1      38.529  32.693  36.360  1.00  0.00     0.198 A 
ATOM     91  C   UNL A   1      39.764  34.655  36.971  1.00  0.00     0.198 A 
ATOM     92  F   UNL A   1      41.792  35.168  35.888  1.00  0.00    -0.203 F 
ATOM     93  F   UNL A   1      37.513  31.844  36.572  1.00  0.00    -0.200 F 
ATOM     94  C   UNL A   1      38.696  33.794  37.183  1.00  0.00     0.200 A 
ATOM     95  F   UNL A   1      39.934  35.709  37.782  1.00  0.00    -0.200 F 
ATOM     96  F   UNL A   1      37.854  34.001  38.204  1.00  0.00    -0.200 F 
ENDBRANCH  62  86
BRANCH  74  97
ATOM     97  C   UNL A   1      43.796  26.724  34.638  1.00  0.00     0.064 A 
ATOM     98  C   UNL A   1      45.087  26.327  35.021  1.00  0.00     0.173 A 
ATOM     99  C   UNL A   1      42.759  25.816  34.979  1.00  0.00     0.173 A 
ATOM    100  F   UNL A   1      46.141  27.137  34.871  1.00  0.00    -0.203 F 
ATOM    101  C   UNL A   1      45.330  25.095  35.639  1.00  0.00     0.198 A 
ATOM    102  C   UNL A   1      42.999  24.617  35.649  1.00  0.00     0.198 A 
ATOM    103  F   UNL A   1      41.474  26.075  34.700  1.00  0.00    -0.203 F 
ATOM    104  F   UNL A   1      46.588  24.747  35.947  1.00  0.00    -0.200 F 
ATOM    105  C   UNL A   1      44.288  24.247  35.964  1.00  0.00     0.200 A 
ATOM    106  F   UNL A   1      41.969  23.836  36.005  1.00  0.00    -0.200 F 
ATOM    107  F   UNL A   1      44.522  23.093  36.601  1.00  0.00    -0.200 F 
ENDBRANCH  74  97
ENDBRANCH  48  49
ENDBRANCH  40  43
ENDBRANCH  38  39
ENDBRANCH  37  38
ENDBRANCH  36  37
ENDBRANCH  35  36
ENDBRANCH   1  35
TORSDOF 18
ENDMDL
