MODEL 1
REMARK VINA RESULT:     -11.8      0.000      0.000
REMARK SMILES CC(C)(Oc1ccc(Cl)cc1)C(=O)N1CCC[C@H](C(=O)NCCCCCCNC(=O)c2ccc(-c3c4nc(c(-c5c(F)c(F)c(F)c(F)c5F)c5ccc([nH]5)c(-c5c(F)c(F)c(F)c(F)c5F)c5nc(c(-c6c(F)c(F)c(F)c(F)c6F)c6ccc3[nH]6)C=C5)C=C4)cc2)C1
REMARK SMILES IDX 23 1 22 2 21 3 19 4 20 5 18 7 14 8 15 9 94 10 16 11 17 12
REMARK SMILES IDX 12 13 13 14 2 15 1 16 3 17 4 18 5 19 6 20 11 21 7 22 10 23
REMARK SMILES IDX 8 24 9 25 24 26 25 27 26 28 27 29 28 30 29 31 30 33 31 34
REMARK SMILES IDX 32 35 93 36 33 37 92 38 34 39 35 40 36 41 86 42 37 43 91 44
REMARK SMILES IDX 85 45 87 46 38 47 90 48 84 49 83 50 39 52 71 53 51 54 70 55
REMARK SMILES IDX 52 56 55 57 69 58 88 59 53 60 54 61 68 63 89 64 56 65 40 66
REMARK SMILES IDX 41 67 49 68 42 69 43 70 47 71 50 72 44 73 45 74 48 75 46 76
REMARK SMILES IDX 72 77 73 78 81 79 74 80 75 81 79 82 82 83 76 84 77 85 80 86
REMARK SMILES IDX 78 87 57 88 58 89 66 90 59 91 60 92 64 93 67 94 61 95 62 96
REMARK SMILES IDX 65 97 63 98
REMARK H PARENT 21 6 28 32 87 51 55 62
REMARK Flexibility Score: inf
ROOT
ATOM      1  C   UNL A   1      34.839  31.399  27.904  1.00  0.00     0.021 C 
ENDROOT
BRANCH   1   2
ATOM      2  C   UNL A   1      33.760  30.385  27.532  1.00  0.00     0.116 C 
BRANCH   2   3
ATOM      3  N   UNL A   1      33.854  29.924  26.166  1.00  0.00    -0.356 N 
ATOM      4  C   UNL A   1      33.455  28.766  25.584  1.00  0.00     0.224 C 
ATOM      5  O   UNL A   1      33.524  28.724  24.349  1.00  0.00    -0.275 OA
ATOM      6  H   UNL A   1      34.284  30.562  25.552  1.00  0.00     0.163 HD
BRANCH   4   7
ATOM      7  C   UNL A   1      32.954  27.531  26.345  1.00  0.00     0.098 C 
ATOM      8  N   UNL A   1      32.917  25.416  25.000  1.00  0.00    -0.338 N 
ATOM      9  C   UNL A   1      31.497  25.206  25.293  1.00  0.00     0.119 C 
ATOM     10  C   UNL A   1      33.652  26.218  25.971  1.00  0.00     0.133 C 
ATOM     11  C   UNL A   1      30.724  26.497  25.544  1.00  0.00     0.022 C 
ATOM     12  C   UNL A   1      31.434  27.442  26.504  1.00  0.00     0.017 C 
BRANCH   8  13
ATOM     13  C   UNL A   1      33.437  24.941  23.796  1.00  0.00     0.266 C 
ATOM     14  O   UNL A   1      33.366  25.662  22.790  1.00  0.00    -0.270 OA
BRANCH  13  15
ATOM     15  C   UNL A   1      33.909  23.436  23.662  1.00  0.00     0.181 C 
ATOM     16  C   UNL A   1      35.448  23.453  23.536  1.00  0.00     0.067 C 
ATOM     17  C   UNL A   1      33.277  22.967  22.336  1.00  0.00     0.067 C 
BRANCH  15  18
ATOM     18  O   UNL A   1      33.555  22.617  24.790  1.00  0.00    -0.478 OA
BRANCH  18  19
ATOM     19  C   UNL A   1      33.581  21.258  24.624  1.00  0.00     0.121 A 
ATOM     20  C   UNL A   1      32.459  20.545  24.203  1.00  0.00     0.048 A 
ATOM     21  C   UNL A   1      34.799  20.598  24.795  1.00  0.00     0.048 A 
ATOM     22  C   UNL A   1      32.528  19.156  24.049  1.00  0.00     0.024 A 
ATOM     23  C   UNL A   1      34.874  19.212  24.627  1.00  0.00     0.024 A 
ATOM     24  C   UNL A   1      33.733  18.494  24.271  1.00  0.00     0.041 A 
ATOM     25  Cl  UNL A   1      33.816  16.785  24.089  1.00  0.00    -0.084 Cl
ENDBRANCH  18  19
ENDBRANCH  15  18
ENDBRANCH  13  15
ENDBRANCH   8  13
ENDBRANCH   4   7
ENDBRANCH   2   3
ENDBRANCH   1   2
BRANCH   1  26
ATOM     26  C   UNL A   1      34.457  32.326  29.060  1.00  0.00     0.002 C 
BRANCH  26  27
ATOM     27  C   UNL A   1      34.586  33.829  28.775  1.00  0.00     0.002 C 
BRANCH  27  28
ATOM     28  C   UNL A   1      33.277  34.625  28.754  1.00  0.00     0.021 C 
BRANCH  28  29
ATOM     29  C   UNL A   1      33.367  36.048  29.298  1.00  0.00     0.116 C 
BRANCH  29  30
ATOM     30  N   UNL A   1      32.520  36.251  30.463  1.00  0.00    -0.352 N 
ATOM     31  C   UNL A   1      32.627  35.760  31.738  1.00  0.00     0.251 C 
ATOM     32  H   UNL A   1      31.744  36.837  30.311  1.00  0.00     0.163 HD
ATOM     33  O   UNL A   1      31.698  35.907  32.527  1.00  0.00    -0.269 OA
BRANCH  31  34
ATOM     34  C   UNL A   1      33.845  35.045  32.174  1.00  0.00     0.039 A 
ATOM     35  C   UNL A   1      33.714  33.747  32.679  1.00  0.00     0.014 A 
ATOM     36  C   UNL A   1      35.100  35.658  32.140  1.00  0.00     0.014 A 
ATOM     37  C   UNL A   1      34.845  33.046  33.099  1.00  0.00     0.010 A 
ATOM     38  C   UNL A   1      36.236  34.935  32.501  1.00  0.00     0.010 A 
ATOM     39  C   UNL A   1      36.120  33.624  32.987  1.00  0.00    -0.014 A 
BRANCH  39  40
ATOM     40  C   UNL A   1      37.338  32.869  33.370  1.00  0.00     0.031 A 
ATOM     41  C   UNL A   1      38.046  33.171  34.661  1.00  0.00     0.074 A 
ATOM     42  C   UNL A   1      37.840  31.949  32.523  1.00  0.00     0.049 A 
ATOM     43  N   UNL A   1      39.153  32.658  35.139  1.00  0.00    -0.248 NA
ATOM     44  C   UNL A   1      37.444  34.203  35.518  1.00  0.00     0.031 C 
ATOM     45  C   UNL A   1      37.270  31.602  31.221  1.00  0.00     0.029 A 
ATOM     46  N   UNL A   1      38.948  31.146  32.627  1.00  0.00    -0.354 N 
ATOM     47  C   UNL A   1      39.384  33.314  36.340  1.00  0.00     0.074 A 
ATOM     48  C   UNL A   1      38.332  34.294  36.498  1.00  0.00     0.031 C 
ATOM     49  C   UNL A   1      38.020  30.643  30.654  1.00  0.00     0.029 A 
ATOM     50  C   UNL A   1      39.141  30.334  31.536  1.00  0.00     0.049 A 
ATOM     51  H   UNL A   1      39.547  31.151  33.408  1.00  0.00     0.167 HD
ATOM     52  C   UNL A   1      40.375  33.102  37.240  1.00  0.00     0.037 A 
ATOM     53  C   UNL A   1      40.118  29.444  31.275  1.00  0.00     0.037 A 
ATOM     54  C   UNL A   1      41.407  32.109  37.092  1.00  0.00     0.049 A 
ATOM     55  C   UNL A   1      41.204  29.226  32.293  1.00  0.00     0.074 A 
ATOM     56  C   UNL A   1      42.418  31.774  37.976  1.00  0.00     0.029 A 
ATOM     57  N   UNL A   1      41.559  31.290  35.982  1.00  0.00    -0.354 N 
ATOM     58  N   UNL A   1      41.374  29.804  33.457  1.00  0.00    -0.248 NA
ATOM     59  C   UNL A   1      42.229  28.227  31.962  1.00  0.00     0.031 C 
ATOM     60  C   UNL A   1      43.207  30.781  37.383  1.00  0.00     0.029 A 
ATOM     61  C   UNL A   1      42.661  30.466  36.150  1.00  0.00     0.049 A 
ATOM     62  H   UNL A   1      40.972  31.294  35.191  1.00  0.00     0.167 HD
ATOM     63  C   UNL A   1      42.508  29.223  34.009  1.00  0.00     0.074 A 
ATOM     64  C   UNL A   1      42.975  28.235  33.058  1.00  0.00     0.031 C 
ATOM     65  C   UNL A   1      43.110  29.485  35.194  1.00  0.00     0.037 A 
BRANCH  52  66
ATOM     66  C   UNL A   1      40.389  33.961  38.472  1.00  0.00     0.064 A 
ATOM     67  C   UNL A   1      41.117  35.159  38.524  1.00  0.00     0.173 A 
ATOM     68  C   UNL A   1      39.635  33.603  39.599  1.00  0.00     0.173 A 
ATOM     69  F   UNL A   1      41.863  35.542  37.475  1.00  0.00    -0.203 F 
ATOM     70  C   UNL A   1      41.112  35.953  39.667  1.00  0.00     0.198 A 
ATOM     71  C   UNL A   1      39.609  34.413  40.732  1.00  0.00     0.198 A 
ATOM     72  F   UNL A   1      38.916  32.471  39.601  1.00  0.00    -0.203 F 
ATOM     73  F   UNL A   1      41.852  37.069  39.711  1.00  0.00    -0.200 F 
ATOM     74  C   UNL A   1      40.353  35.583  40.768  1.00  0.00     0.200 A 
ATOM     75  F   UNL A   1      38.865  34.061  41.790  1.00  0.00    -0.200 F 
ATOM     76  F   UNL A   1      40.344  36.351  41.866  1.00  0.00    -0.200 F 
ENDBRANCH  52  66
BRANCH  53  77
ATOM     77  C   UNL A   1      40.097  28.673  30.005  1.00  0.00     0.064 A 
ATOM     78  C   UNL A   1      40.694  29.186  28.846  1.00  0.00     0.173 A 
ATOM     79  C   UNL A   1      39.484  27.415  29.924  1.00  0.00     0.173 A 
ATOM     80  F   UNL A   1      41.274  30.394  28.869  1.00  0.00    -0.203 F 
ATOM     81  C   UNL A   1      40.662  28.477  27.646  1.00  0.00     0.198 A 
ATOM     82  C   UNL A   1      39.475  26.695  28.731  1.00  0.00     0.198 A 
ATOM     83  F   UNL A   1      38.901  26.879  31.007  1.00  0.00    -0.203 F 
ATOM     84  F   UNL A   1      41.202  29.009  26.541  1.00  0.00    -0.200 F 
ATOM     85  C   UNL A   1      40.057  27.230  27.592  1.00  0.00     0.200 A 
ATOM     86  F   UNL A   1      38.903  25.485  28.685  1.00  0.00    -0.200 F 
ATOM     87  F   UNL A   1      40.030  26.547  26.439  1.00  0.00    -0.200 F 
ENDBRANCH  53  77
BRANCH  65  88
ATOM     88  C   UNL A   1      44.322  28.672  35.542  1.00  0.00     0.064 A 
ATOM     89  C   UNL A   1      45.616  29.110  35.223  1.00  0.00     0.173 A 
ATOM     90  C   UNL A   1      44.190  27.458  36.231  1.00  0.00     0.173 A 
ATOM     91  F   UNL A   1      45.794  30.257  34.550  1.00  0.00    -0.203 F 
ATOM     92  C   UNL A   1      46.731  28.348  35.560  1.00  0.00     0.198 A 
ATOM     93  C   UNL A   1      45.308  26.712  36.591  1.00  0.00     0.198 A 
ATOM     94  F   UNL A   1      42.974  26.998  36.564  1.00  0.00    -0.203 F 
ATOM     95  F   UNL A   1      47.956  28.762  35.203  1.00  0.00    -0.200 F 
ATOM     96  C   UNL A   1      46.578  27.154  36.249  1.00  0.00     0.200 A 
ATOM     97  F   UNL A   1      45.158  25.565  37.268  1.00  0.00    -0.200 F 
ATOM     98  F   UNL A   1      47.653  26.425  36.576  1.00  0.00    -0.200 F 
ENDBRANCH  65  88
ENDBRANCH  39  40
ENDBRANCH  31  34
ENDBRANCH  29  30
ENDBRANCH  28  29
ENDBRANCH  27  28
ENDBRANCH  26  27
ENDBRANCH   1  26
TORSDOF 17
ENDMDL
MODEL 2
REMARK VINA RESULT:     -11.5      6.171     11.603
REMARK SMILES CC(C)(Oc1ccc(Cl)cc1)C(=O)N1CCC[C@H](C(=O)NCCCCCCNC(=O)c2ccc(-c3c4nc(c(-c5c(F)c(F)c(F)c(F)c5F)c5ccc([nH]5)c(-c5c(F)c(F)c(F)c(F)c5F)c5nc(c(-c6c(F)c(F)c(F)c(F)c6F)c6ccc3[nH]6)C=C5)C=C4)cc2)C1
REMARK SMILES IDX 23 1 22 2 21 3 19 4 20 5 18 7 14 8 15 9 94 10 16 11 17 12
REMARK SMILES IDX 12 13 13 14 2 15 1 16 3 17 4 18 5 19 6 20 11 21 7 22 10 23
REMARK SMILES IDX 8 24 9 25 24 26 25 27 26 28 27 29 28 30 29 31 30 33 31 34
REMARK SMILES IDX 32 35 93 36 33 37 92 38 34 39 35 40 36 41 86 42 37 43 91 44
REMARK SMILES IDX 85 45 87 46 38 47 90 48 84 49 83 50 39 52 71 53 51 54 70 55
REMARK SMILES IDX 52 56 55 57 69 58 88 59 53 60 54 61 68 63 89 64 56 65 40 66
REMARK SMILES IDX 41 67 49 68 42 69 43 70 47 71 50 72 44 73 45 74 48 75 46 76
REMARK SMILES IDX 72 77 73 78 81 79 74 80 75 81 79 82 82 83 76 84 77 85 80 86
REMARK SMILES IDX 78 87 57 88 58 89 66 90 59 91 60 92 64 93 67 94 61 95 62 96
REMARK SMILES IDX 65 97 63 98
REMARK H PARENT 21 6 28 32 87 51 55 62
REMARK Flexibility Score: inf
ROOT
ATOM      1  C   UNL A   1      38.495  23.574  26.389  1.00  0.00     0.021 C 
ENDROOT
BRANCH   1   2
ATOM      2  C   UNL A   1      37.241  23.733  25.534  1.00  0.00     0.116 C 
BRANCH   2   3
ATOM      3  N   UNL A   1      36.018  23.705  26.301  1.00  0.00    -0.356 N 
ATOM      4  C   UNL A   1      34.984  22.827  26.305  1.00  0.00     0.224 C 
ATOM      5  O   UNL A   1      34.141  22.980  27.197  1.00  0.00    -0.275 OA
ATOM      6  H   UNL A   1      35.917  24.456  26.931  1.00  0.00     0.163 HD
BRANCH   4   7
ATOM      7  C   UNL A   1      34.792  21.697  25.283  1.00  0.00     0.098 C 
ATOM      8  N   UNL A   1      33.406  22.313  23.288  1.00  0.00    -0.338 N 
ATOM      9  C   UNL A   1      32.491  21.194  23.528  1.00  0.00     0.119 C 
ATOM     10  C   UNL A   1      34.755  22.152  23.820  1.00  0.00     0.133 C 
ATOM     11  C   UNL A   1      32.391  20.786  24.994  1.00  0.00     0.022 C 
ATOM     12  C   UNL A   1      33.749  20.646  25.670  1.00  0.00     0.017 C 
BRANCH   8  13
ATOM     13  C   UNL A   1      32.918  23.468  22.679  1.00  0.00     0.266 C 
ATOM     14  O   UNL A   1      33.307  23.749  21.536  1.00  0.00    -0.270 OA
BRANCH  13  15
ATOM     15  C   UNL A   1      32.060  24.512  23.504  1.00  0.00     0.181 C 
ATOM     16  C   UNL A   1      30.588  24.051  23.427  1.00  0.00     0.067 C 
ATOM     17  C   UNL A   1      32.239  25.833  22.728  1.00  0.00     0.067 C 
BRANCH  15  18
ATOM     18  O   UNL A   1      32.436  24.603  24.889  1.00  0.00    -0.478 OA
BRANCH  18  19
ATOM     19  C   UNL A   1      32.536  25.851  25.442  1.00  0.00     0.121 A 
ATOM     20  C   UNL A   1      33.761  26.502  25.580  1.00  0.00     0.048 A 
ATOM     21  C   UNL A   1      31.355  26.514  25.786  1.00  0.00     0.048 A 
ATOM     22  C   UNL A   1      33.818  27.776  26.154  1.00  0.00     0.024 A 
ATOM     23  C   UNL A   1      31.409  27.794  26.345  1.00  0.00     0.024 A 
ATOM     24  C   UNL A   1      32.642  28.413  26.543  1.00  0.00     0.041 A 
ATOM     25  Cl  UNL A   1      32.713  29.978  27.255  1.00  0.00    -0.084 Cl
ENDBRANCH  18  19
ENDBRANCH  15  18
ENDBRANCH  13  15
ENDBRANCH   8  13
ENDBRANCH   4   7
ENDBRANCH   2   3
ENDBRANCH   1   2
BRANCH   1  26
ATOM     26  C   UNL A   1      39.219  22.240  26.199  1.00  0.00     0.002 C 
BRANCH  26  27
ATOM     27  C   UNL A   1      38.512  21.225  25.290  1.00  0.00     0.002 C 
BRANCH  27  28
ATOM     28  C   UNL A   1      39.037  19.787  25.349  1.00  0.00     0.021 C 
BRANCH  28  29
ATOM     29  C   UNL A   1      39.943  19.468  26.535  1.00  0.00     0.116 C 
BRANCH  29  30
ATOM     30  N   UNL A   1      41.202  18.866  26.127  1.00  0.00    -0.352 N 
ATOM     31  C   UNL A   1      42.412  19.442  25.836  1.00  0.00     0.251 C 
ATOM     32  H   UNL A   1      41.183  17.886  26.046  1.00  0.00     0.163 HD
ATOM     33  O   UNL A   1      43.302  18.766  25.329  1.00  0.00    -0.269 OA
BRANCH  31  34
ATOM     34  C   UNL A   1      42.655  20.873  26.116  1.00  0.00     0.039 A 
ATOM     35  C   UNL A   1      42.786  21.280  27.447  1.00  0.00     0.014 A 
ATOM     36  C   UNL A   1      42.700  21.819  25.089  1.00  0.00     0.014 A 
ATOM     37  C   UNL A   1      43.015  22.625  27.745  1.00  0.00     0.010 A 
ATOM     38  C   UNL A   1      42.991  23.150  25.382  1.00  0.00     0.010 A 
ATOM     39  C   UNL A   1      43.148  23.567  26.713  1.00  0.00    -0.014 A 
BRANCH  39  40
ATOM     40  C   UNL A   1      43.454  24.988  27.010  1.00  0.00     0.031 A 
ATOM     41  C   UNL A   1      44.821  25.546  26.731  1.00  0.00     0.074 A 
ATOM     42  C   UNL A   1      42.514  25.760  27.587  1.00  0.00     0.049 A 
ATOM     43  N   UNL A   1      45.293  26.743  26.975  1.00  0.00    -0.248 NA
ATOM     44  C   UNL A   1      45.796  24.631  26.118  1.00  0.00     0.031 C 
ATOM     45  C   UNL A   1      41.166  25.320  27.949  1.00  0.00     0.029 A 
ATOM     46  N   UNL A   1      42.551  27.075  27.980  1.00  0.00    -0.354 N 
ATOM     47  C   UNL A   1      46.618  26.719  26.560  1.00  0.00     0.074 A 
ATOM     48  C   UNL A   1      46.890  25.377  26.092  1.00  0.00     0.031 C 
ATOM     49  C   UNL A   1      40.499  26.350  28.494  1.00  0.00     0.029 A 
ATOM     50  C   UNL A   1      41.381  27.511  28.550  1.00  0.00     0.049 A 
ATOM     51  H   UNL A   1      43.341  27.651  27.863  1.00  0.00     0.167 HD
ATOM     52  C   UNL A   1      47.518  27.732  26.550  1.00  0.00     0.037 A 
ATOM     53  C   UNL A   1      41.058  28.713  29.066  1.00  0.00     0.037 A 
ATOM     54  C   UNL A   1      47.236  29.072  26.993  1.00  0.00     0.049 A 
ATOM     55  C   UNL A   1      42.076  29.820  29.040  1.00  0.00     0.074 A 
ATOM     56  C   UNL A   1      48.061  30.183  26.966  1.00  0.00     0.029 A 
ATOM     57  N   UNL A   1      46.032  29.482  27.547  1.00  0.00    -0.354 N 
ATOM     58  N   UNL A   1      43.304  29.805  28.583  1.00  0.00    -0.248 NA
ATOM     59  C   UNL A   1      41.659  31.114  29.597  1.00  0.00     0.031 C 
ATOM     60  C   UNL A   1      47.371  31.255  27.541  1.00  0.00     0.029 A 
ATOM     61  C   UNL A   1      46.100  30.825  27.885  1.00  0.00     0.049 A 
ATOM     62  H   UNL A   1      45.245  28.905  27.680  1.00  0.00     0.167 HD
ATOM     63  C   UNL A   1      43.798  31.088  28.772  1.00  0.00     0.074 A 
ATOM     64  C   UNL A   1      42.730  31.862  29.372  1.00  0.00     0.031 C 
ATOM     65  C   UNL A   1      45.026  31.580  28.478  1.00  0.00     0.037 A 
BRANCH  52  66
ATOM     66  C   UNL A   1      48.898  27.428  26.041  1.00  0.00     0.064 A 
ATOM     67  C   UNL A   1      49.942  27.079  26.911  1.00  0.00     0.173 A 
ATOM     68  C   UNL A   1      49.170  27.447  24.665  1.00  0.00     0.173 A 
ATOM     69  F   UNL A   1      49.737  27.055  28.237  1.00  0.00    -0.203 F 
ATOM     70  C   UNL A   1      51.214  26.788  26.424  1.00  0.00     0.198 A 
ATOM     71  C   UNL A   1      50.436  27.128  24.179  1.00  0.00     0.198 A 
ATOM     72  F   UNL A   1      48.206  27.768  23.789  1.00  0.00    -0.203 F 
ATOM     73  F   UNL A   1      52.208  26.503  27.277  1.00  0.00    -0.200 F 
ATOM     74  C   UNL A   1      51.458  26.807  25.059  1.00  0.00     0.200 A 
ATOM     75  F   UNL A   1      50.666  27.134  22.859  1.00  0.00    -0.200 F 
ATOM     76  F   UNL A   1      52.681  26.520  24.591  1.00  0.00    -0.200 F 
ENDBRANCH  52  66
BRANCH  53  77
ATOM     77  C   UNL A   1      39.701  28.938  29.627  1.00  0.00     0.064 A 
ATOM     78  C   UNL A   1      38.662  29.422  28.820  1.00  0.00     0.173 A 
ATOM     79  C   UNL A   1      39.414  28.674  30.973  1.00  0.00     0.173 A 
ATOM     80  F   UNL A   1      38.894  29.709  27.531  1.00  0.00    -0.203 F 
ATOM     81  C   UNL A   1      37.391  29.652  29.344  1.00  0.00     0.198 A 
ATOM     82  C   UNL A   1      38.137  28.880  31.490  1.00  0.00     0.198 A 
ATOM     83  F   UNL A   1      40.372  28.206  31.786  1.00  0.00    -0.203 F 
ATOM     84  F   UNL A   1      36.429  30.158  28.561  1.00  0.00    -0.200 F 
ATOM     85  C   UNL A   1      37.129  29.375  30.677  1.00  0.00     0.200 A 
ATOM     86  F   UNL A   1      37.882  28.598  32.775  1.00  0.00    -0.200 F 
ATOM     87  F   UNL A   1      35.905  29.595  31.179  1.00  0.00    -0.200 F 
ENDBRANCH  53  77
BRANCH  65  88
ATOM     88  C   UNL A   1      45.272  33.031  28.775  1.00  0.00     0.064 A 
ATOM     89  C   UNL A   1      45.838  33.446  29.989  1.00  0.00     0.173 A 
ATOM     90  C   UNL A   1      44.966  34.013  27.821  1.00  0.00     0.173 A 
ATOM     91  F   UNL A   1      46.132  32.547  30.940  1.00  0.00    -0.203 F 
ATOM     92  C   UNL A   1      46.066  34.795  30.246  1.00  0.00     0.198 A 
ATOM     93  C   UNL A   1      45.222  35.358  28.069  1.00  0.00     0.198 A 
ATOM     94  F   UNL A   1      44.428  33.666  26.641  1.00  0.00    -0.203 F 
ATOM     95  F   UNL A   1      46.564  35.175  31.432  1.00  0.00    -0.200 F 
ATOM     96  C   UNL A   1      45.765  35.749  29.285  1.00  0.00     0.200 A 
ATOM     97  F   UNL A   1      44.942  36.276  27.135  1.00  0.00    -0.200 F 
ATOM     98  F   UNL A   1      45.991  37.046  29.532  1.00  0.00    -0.200 F 
ENDBRANCH  65  88
ENDBRANCH  39  40
ENDBRANCH  31  34
ENDBRANCH  29  30
ENDBRANCH  28  29
ENDBRANCH  27  28
ENDBRANCH  26  27
ENDBRANCH   1  26
TORSDOF 17
ENDMDL
MODEL 3
REMARK VINA RESULT:     -11.4      6.770     12.402
REMARK SMILES CC(C)(Oc1ccc(Cl)cc1)C(=O)N1CCC[C@H](C(=O)NCCCCCCNC(=O)c2ccc(-c3c4nc(c(-c5c(F)c(F)c(F)c(F)c5F)c5ccc([nH]5)c(-c5c(F)c(F)c(F)c(F)c5F)c5nc(c(-c6c(F)c(F)c(F)c(F)c6F)c6ccc3[nH]6)C=C5)C=C4)cc2)C1
REMARK SMILES IDX 23 1 22 2 21 3 19 4 20 5 18 7 14 8 15 9 94 10 16 11 17 12
REMARK SMILES IDX 12 13 13 14 2 15 1 16 3 17 4 18 5 19 6 20 11 21 7 22 10 23
REMARK SMILES IDX 8 24 9 25 24 26 25 27 26 28 27 29 28 30 29 31 30 33 31 34
REMARK SMILES IDX 32 35 93 36 33 37 92 38 34 39 35 40 36 41 86 42 37 43 91 44
REMARK SMILES IDX 85 45 87 46 38 47 90 48 84 49 83 50 39 52 71 53 51 54 70 55
REMARK SMILES IDX 52 56 55 57 69 58 88 59 53 60 54 61 68 63 89 64 56 65 40 66
REMARK SMILES IDX 41 67 49 68 42 69 43 70 47 71 50 72 44 73 45 74 48 75 46 76
REMARK SMILES IDX 72 77 73 78 81 79 74 80 75 81 79 82 82 83 76 84 77 85 80 86
REMARK SMILES IDX 78 87 57 88 58 89 66 90 59 91 60 92 64 93 67 94 61 95 62 96
REMARK SMILES IDX 65 97 63 98
REMARK H PARENT 21 6 28 32 87 51 55 62
REMARK Flexibility Score: inf
ROOT
ATOM      1  C   UNL A   1      40.011  22.472  26.755  1.00  0.00     0.021 C 
ENDROOT
BRANCH   1   2
ATOM      2  C   UNL A   1      38.724  22.104  26.022  1.00  0.00     0.116 C 
BRANCH   2   3
ATOM      3  N   UNL A   1      37.695  23.111  26.131  1.00  0.00    -0.356 N 
ATOM      4  C   UNL A   1      36.458  23.190  25.579  1.00  0.00     0.224 C 
ATOM      5  O   UNL A   1      35.734  24.104  25.991  1.00  0.00    -0.275 OA
ATOM      6  H   UNL A   1      37.932  23.873  26.708  1.00  0.00     0.163 HD
BRANCH   4   7
ATOM      7  C   UNL A   1      35.926  22.250  24.488  1.00  0.00     0.098 C 
ATOM      8  N   UNL A   1      34.035  23.184  23.133  1.00  0.00    -0.338 N 
ATOM      9  C   UNL A   1      33.188  22.031  23.445  1.00  0.00     0.119 C 
ATOM     10  C   UNL A   1      35.474  22.950  23.201  1.00  0.00     0.133 C 
ATOM     11  C   UNL A   1      33.512  21.375  24.783  1.00  0.00     0.022 C 
ATOM     12  C   UNL A   1      35.003  21.136  24.988  1.00  0.00     0.017 C 
BRANCH   8  13
ATOM     13  C   UNL A   1      33.436  24.422  22.901  1.00  0.00     0.266 C 
ATOM     14  O   UNL A   1      33.955  25.191  22.080  1.00  0.00    -0.270 OA
BRANCH  13  15
ATOM     15  C   UNL A   1      32.248  24.925  23.819  1.00  0.00     0.181 C 
ATOM     16  C   UNL A   1      31.092  23.915  23.658  1.00  0.00     0.067 C 
ATOM     17  C   UNL A   1      31.852  26.282  23.200  1.00  0.00     0.067 C 
BRANCH  15  18
ATOM     18  O   UNL A   1      32.590  25.007  25.213  1.00  0.00    -0.478 OA
BRANCH  18  19
ATOM     19  C   UNL A   1      32.676  26.251  25.776  1.00  0.00     0.121 A 
ATOM     20  C   UNL A   1      31.626  26.805  26.508  1.00  0.00     0.048 A 
ATOM     21  C   UNL A   1      33.892  26.932  25.684  1.00  0.00     0.048 A 
ATOM     22  C   UNL A   1      31.755  28.081  27.064  1.00  0.00     0.024 A 
ATOM     23  C   UNL A   1      34.028  28.202  26.253  1.00  0.00     0.024 A 
ATOM     24  C   UNL A   1      32.952  28.779  26.927  1.00  0.00     0.041 A 
ATOM     25  Cl  UNL A   1      33.108  30.352  27.605  1.00  0.00    -0.084 Cl
ENDBRANCH  18  19
ENDBRANCH  15  18
ENDBRANCH  13  15
ENDBRANCH   8  13
ENDBRANCH   4   7
ENDBRANCH   2   3
ENDBRANCH   1   2
BRANCH   1  26
ATOM     26  C   UNL A   1      41.279  21.879  26.136  1.00  0.00     0.002 C 
BRANCH  26  27
ATOM     27  C   UNL A   1      41.817  20.611  26.813  1.00  0.00     0.002 C 
BRANCH  27  28
ATOM     28  C   UNL A   1      42.064  19.410  25.894  1.00  0.00     0.021 C 
BRANCH  28  29
ATOM     29  C   UNL A   1      43.377  18.668  26.124  1.00  0.00     0.116 C 
BRANCH  29  30
ATOM     30  N   UNL A   1      44.153  18.519  24.902  1.00  0.00    -0.352 N 
ATOM     31  C   UNL A   1      44.765  19.461  24.116  1.00  0.00     0.251 C 
ATOM     32  H   UNL A   1      44.255  17.592  24.590  1.00  0.00     0.163 HD
ATOM     33  O   UNL A   1      45.216  19.139  23.020  1.00  0.00    -0.269 OA
BRANCH  31  34
ATOM     34  C   UNL A   1      44.881  20.863  24.567  1.00  0.00     0.039 A 
ATOM     35  C   UNL A   1      45.507  21.122  25.791  1.00  0.00     0.014 A 
ATOM     36  C   UNL A   1      44.333  21.914  23.827  1.00  0.00     0.014 A 
ATOM     37  C   UNL A   1      45.632  22.436  26.246  1.00  0.00     0.010 A 
ATOM     38  C   UNL A   1      44.513  23.230  24.250  1.00  0.00     0.010 A 
ATOM     39  C   UNL A   1      45.161  23.503  25.465  1.00  0.00    -0.014 A 
BRANCH  39  40
ATOM     40  C   UNL A   1      45.342  24.910  25.904  1.00  0.00     0.031 A 
ATOM     41  C   UNL A   1      46.689  25.568  25.812  1.00  0.00     0.074 A 
ATOM     42  C   UNL A   1      44.300  25.573  26.442  1.00  0.00     0.049 A 
ATOM     43  N   UNL A   1      47.055  26.765  26.198  1.00  0.00    -0.248 NA
ATOM     44  C   UNL A   1      47.777  24.767  25.232  1.00  0.00     0.031 C 
ATOM     45  C   UNL A   1      42.956  25.026  26.629  1.00  0.00     0.029 A 
ATOM     46  N   UNL A   1      44.212  26.849  26.940  1.00  0.00    -0.354 N 
ATOM     47  C   UNL A   1      48.412  26.853  25.920  1.00  0.00     0.074 A 
ATOM     48  C   UNL A   1      48.817  25.575  25.377  1.00  0.00     0.031 C 
ATOM     49  C   UNL A   1      42.172  25.965  27.183  1.00  0.00     0.029 A 
ATOM     50  C   UNL A   1      42.965  27.166  27.421  1.00  0.00     0.049 A 
ATOM     51  H   UNL A   1      44.970  27.477  26.952  1.00  0.00     0.167 HD
ATOM     52  C   UNL A   1      49.240  27.914  26.084  1.00  0.00     0.037 A 
ATOM     53  C   UNL A   1      42.515  28.298  27.996  1.00  0.00     0.037 A 
ATOM     54  C   UNL A   1      48.828  29.192  26.601  1.00  0.00     0.049 A 
ATOM     55  C   UNL A   1      43.455  29.460  28.163  1.00  0.00     0.074 A 
ATOM     56  C   UNL A   1      49.576  30.347  26.747  1.00  0.00     0.029 A 
ATOM     57  N   UNL A   1      47.551  29.483  27.060  1.00  0.00    -0.354 N 
ATOM     58  N   UNL A   1      44.720  29.555  27.833  1.00  0.00    -0.248 NA
ATOM     59  C   UNL A   1      42.900  30.675  28.776  1.00  0.00     0.031 C 
ATOM     60  C   UNL A   1      48.763  31.325  27.333  1.00  0.00     0.029 A 
ATOM     61  C   UNL A   1      47.496  30.793  27.509  1.00  0.00     0.049 A 
ATOM     62  H   UNL A   1      46.795  28.851  27.065  1.00  0.00     0.167 HD
ATOM     63  C   UNL A   1      45.107  30.844  28.174  1.00  0.00     0.074 A 
ATOM     64  C   UNL A   1      43.937  31.500  28.722  1.00  0.00     0.031 C 
ATOM     65  C   UNL A   1      46.322  31.431  28.048  1.00  0.00     0.037 A 
BRANCH  52  66
ATOM     66  C   UNL A   1      50.680  27.736  25.695  1.00  0.00     0.064 A 
ATOM     67  C   UNL A   1      51.111  27.914  24.372  1.00  0.00     0.173 A 
ATOM     68  C   UNL A   1      51.646  27.425  26.663  1.00  0.00     0.173 A 
ATOM     69  F   UNL A   1      50.225  28.204  23.406  1.00  0.00    -0.203 F 
ATOM     70  C   UNL A   1      52.451  27.758  24.027  1.00  0.00     0.198 A 
ATOM     71  C   UNL A   1      52.990  27.298  26.320  1.00  0.00     0.198 A 
ATOM     72  F   UNL A   1      51.289  27.250  27.944  1.00  0.00    -0.203 F 
ATOM     73  F   UNL A   1      52.832  27.886  22.749  1.00  0.00    -0.200 F 
ATOM     74  C   UNL A   1      53.390  27.457  25.002  1.00  0.00     0.200 A 
ATOM     75  F   UNL A   1      53.898  27.018  27.266  1.00  0.00    -0.200 F 
ATOM     76  F   UNL A   1      54.681  27.313  24.670  1.00  0.00    -0.200 F 
ENDBRANCH  52  66
BRANCH  53  77
ATOM     77  C   UNL A   1      41.098  28.394  28.431  1.00  0.00     0.064 A 
ATOM     78  C   UNL A   1      40.710  27.972  29.710  1.00  0.00     0.173 A 
ATOM     79  C   UNL A   1      40.106  28.908  27.583  1.00  0.00     0.173 A 
ATOM     80  F   UNL A   1      41.619  27.454  30.549  1.00  0.00    -0.203 F 
ATOM     81  C   UNL A   1      39.379  28.042  30.118  1.00  0.00     0.198 A 
ATOM     82  C   UNL A   1      38.781  29.001  28.002  1.00  0.00     0.198 A 
ATOM     83  F   UNL A   1      40.427  29.328  26.351  1.00  0.00    -0.203 F 
ATOM     84  F   UNL A   1      39.029  27.590  31.330  1.00  0.00    -0.200 F 
ATOM     85  C   UNL A   1      38.417  28.562  29.265  1.00  0.00     0.200 A 
ATOM     86  F   UNL A   1      37.856  29.517  27.181  1.00  0.00    -0.200 F 
ATOM     87  F   UNL A   1      37.138  28.632  29.660  1.00  0.00    -0.200 F 
ENDBRANCH  53  77
BRANCH  65  88
ATOM     88  C   UNL A   1      46.441  32.862  28.483  1.00  0.00     0.064 A 
ATOM     89  C   UNL A   1      46.237  33.921  27.586  1.00  0.00     0.173 A 
ATOM     90  C   UNL A   1      46.728  33.177  29.819  1.00  0.00     0.173 A 
ATOM     91  F   UNL A   1      45.976  33.671  26.294  1.00  0.00    -0.203 F 
ATOM     92  C   UNL A   1      46.343  35.244  28.007  1.00  0.00     0.198 A 
ATOM     93  C   UNL A   1      46.806  34.501  30.243  1.00  0.00     0.198 A 
ATOM     94  F   UNL A   1      46.925  32.200  30.717  1.00  0.00    -0.203 F 
ATOM     95  F   UNL A   1      46.193  36.241  27.122  1.00  0.00    -0.200 F 
ATOM     96  C   UNL A   1      46.620  35.533  29.334  1.00  0.00     0.200 A 
ATOM     97  F   UNL A   1      47.061  34.778  31.529  1.00  0.00    -0.200 F 
ATOM     98  F   UNL A   1      46.716  36.807  29.738  1.00  0.00    -0.200 F 
ENDBRANCH  65  88
ENDBRANCH  39  40
ENDBRANCH  31  34
ENDBRANCH  29  30
ENDBRANCH  28  29
ENDBRANCH  27  28
ENDBRANCH  26  27
ENDBRANCH   1  26
TORSDOF 17
ENDMDL
