MODEL 1
REMARK VINA RESULT:     -12.2      0.000      0.000
REMARK SMILES CN(C(=O)N1Cc2nc[nH]c2C[C@@H]1C(=O)NCCCCCCNC(=O)c1ccc(-c2c3nc(c(-c4c(F)c(F)c(F)c(F)c4F)c4ccc([nH]4)c(-c4c(F)c(F)c(F)c(F)c4F)c4nc(c(-c5c(F)c(F)c(F)c(F)c5F)c5ccc2[nH]5)C=C4)C=C3)cc1)C1CC1
REMARK SMILES IDX 19 1 18 2 17 3 16 4 14 5 15 6 13 8 5 9 6 10 7 11 12 12 8 13
REMARK SMILES IDX 11 14 9 15 10 16 3 18 4 19 2 20 1 21 89 22 90 23 91 24 20 25
REMARK SMILES IDX 21 26 22 27 23 28 24 29 25 31 26 32 27 33 88 34 28 35 87 36
REMARK SMILES IDX 29 37 30 38 31 39 81 40 32 41 86 42 80 43 82 44 33 45 85 46
REMARK SMILES IDX 79 47 78 48 34 50 66 51 46 52 65 53 47 54 50 55 64 56 83 57
REMARK SMILES IDX 48 58 49 59 63 61 84 62 51 63 35 64 36 65 44 66 37 67 38 68
REMARK SMILES IDX 42 69 45 70 39 71 40 72 43 73 41 74 67 75 68 76 76 77 69 78
REMARK SMILES IDX 70 79 74 80 77 81 71 82 72 83 75 84 73 85 52 86 53 87 61 88
REMARK SMILES IDX 54 89 55 90 59 91 62 92 56 93 57 94 60 95 58 96
REMARK H PARENT 16 7 10 17 23 30 82 49 50 60
REMARK Flexibility Score: inf
ROOT
ATOM      1  C   UNL A   1      39.736  21.269  25.934  1.00  0.00     0.002 C 
ENDROOT
BRANCH   1   2
ATOM      2  C   UNL A   1      38.970  22.546  26.335  1.00  0.00     0.021 C 
BRANCH   2   3
ATOM      3  C   UNL A   1      37.616  22.947  25.696  1.00  0.00     0.116 C 
BRANCH   3   4
ATOM      4  N   UNL A   1      37.217  22.150  24.550  1.00  0.00    -0.354 N 
ATOM      5  C   UNL A   1      36.121  22.444  23.729  1.00  0.00     0.243 C 
ATOM      6  O   UNL A   1      36.189  23.130  22.715  1.00  0.00    -0.273 OA
ATOM      7  H   UNL A   1      37.750  21.351  24.336  1.00  0.00     0.163 HD
BRANCH   5   8
ATOM      8  C   UNL A   1      34.798  21.946  24.323  1.00  0.00     0.182 C 
ATOM      9  N   UNL A   1      33.581  22.410  23.628  1.00  0.00    -0.306 N 
ATOM     10  C   UNL A   1      32.691  21.246  23.305  1.00  0.00     0.180 C 
ATOM     11  C   UNL A   1      32.653  20.305  24.487  1.00  0.00     0.081 A 
ATOM     12  C   UNL A   1      34.411  21.616  25.801  1.00  0.00     0.091 C 
ATOM     13  N   UNL A   1      32.194  19.013  24.423  1.00  0.00    -0.240 NA
ATOM     14  C   UNL A   1      33.400  20.489  25.643  1.00  0.00     0.042 A 
ATOM     15  C   UNL A   1      32.572  18.456  25.554  1.00  0.00     0.197 A 
ATOM     16  N   UNL A   1      33.226  19.347  26.373  1.00  0.00    -0.348 N 
ATOM     17  H   UNL A   1      33.511  19.192  27.302  1.00  0.00     0.167 HD
BRANCH   9  18
ATOM     18  C   UNL A   1      33.101  23.691  23.423  1.00  0.00     0.321 C 
ATOM     19  O   UNL A   1      32.831  24.025  22.261  1.00  0.00    -0.248 OA
BRANCH  18  20
ATOM     20  N   UNL A   1      33.087  24.683  24.424  1.00  0.00    -0.325 N 
ATOM     21  C   UNL A   1      34.042  25.743  24.817  1.00  0.00     0.149 C 
BRANCH  20  22
ATOM     22  C   UNL A   1      31.822  24.809  25.166  1.00  0.00     0.086 C 
ATOM     23  C   UNL A   1      31.070  23.629  25.708  1.00  0.00     0.027 C 
ATOM     24  C   UNL A   1      31.666  24.628  26.653  1.00  0.00     0.027 C 
ENDBRANCH  20  22
ENDBRANCH  18  20
ENDBRANCH   9  18
ENDBRANCH   5   8
ENDBRANCH   3   4
ENDBRANCH   2   3
ENDBRANCH   1   2
BRANCH   1  25
ATOM     25  C   UNL A   1      40.867  20.757  26.830  1.00  0.00     0.002 C 
BRANCH  25  26
ATOM     26  C   UNL A   1      41.607  19.538  26.272  1.00  0.00     0.021 C 
BRANCH  26  27
ATOM     27  C   UNL A   1      43.075  19.444  26.700  1.00  0.00     0.116 C 
BRANCH  27  28
ATOM     28  N   UNL A   1      44.002  19.207  25.591  1.00  0.00    -0.352 N 
ATOM     29  C   UNL A   1      44.411  20.136  24.642  1.00  0.00     0.251 C 
ATOM     30  H   UNL A   1      44.373  18.299  25.510  1.00  0.00     0.163 HD
ATOM     31  O   UNL A   1      44.800  19.812  23.543  1.00  0.00    -0.269 OA
BRANCH  29  32
ATOM     32  C   UNL A   1      44.382  21.555  25.041  1.00  0.00     0.039 A 
ATOM     33  C   UNL A   1      43.381  22.418  24.592  1.00  0.00     0.014 A 
ATOM     34  C   UNL A   1      45.348  21.970  25.957  1.00  0.00     0.014 A 
ATOM     35  C   UNL A   1      43.302  23.690  25.153  1.00  0.00     0.010 A 
ATOM     36  C   UNL A   1      45.210  23.189  26.577  1.00  0.00     0.010 A 
ATOM     37  C   UNL A   1      44.201  24.059  26.169  1.00  0.00    -0.014 A 
BRANCH  37  38
ATOM     38  C   UNL A   1      43.992  25.295  26.922  1.00  0.00     0.031 A 
ATOM     39  C   UNL A   1      44.987  26.368  26.637  1.00  0.00     0.074 A 
ATOM     40  C   UNL A   1      42.885  25.536  27.656  1.00  0.00     0.049 A 
ATOM     41  N   UNL A   1      45.885  26.840  27.438  1.00  0.00    -0.248 NA
ATOM     42  C   UNL A   1      45.086  26.895  25.266  1.00  0.00     0.031 C 
ATOM     43  C   UNL A   1      41.680  24.705  27.778  1.00  0.00     0.029 A 
ATOM     44  N   UNL A   1      42.560  26.640  28.388  1.00  0.00    -0.354 N 
ATOM     45  C   UNL A   1      46.543  27.851  26.739  1.00  0.00     0.074 A 
ATOM     46  C   UNL A   1      46.122  27.735  25.369  1.00  0.00     0.031 C 
ATOM     47  C   UNL A   1      40.684  25.424  28.340  1.00  0.00     0.029 A 
ATOM     48  C   UNL A   1      41.229  26.693  28.785  1.00  0.00     0.049 A 
ATOM     49  H   UNL A   1      43.214  27.341  28.616  1.00  0.00     0.167 HD
ATOM     50  C   UNL A   1      47.197  28.845  27.405  1.00  0.00     0.037 A 
ATOM     51  C   UNL A   1      40.615  27.706  29.439  1.00  0.00     0.037 A 
ATOM     52  C   UNL A   1      47.325  28.519  28.801  1.00  0.00     0.049 A 
ATOM     53  C   UNL A   1      41.672  28.496  30.106  1.00  0.00     0.074 A 
ATOM     54  C   UNL A   1      48.062  27.632  29.553  1.00  0.00     0.029 A 
ATOM     55  N   UNL A   1      46.272  28.932  29.573  1.00  0.00    -0.354 N 
ATOM     56  N   UNL A   1      42.393  28.046  31.094  1.00  0.00    -0.248 NA
ATOM     57  C   UNL A   1      42.196  29.678  29.437  1.00  0.00     0.031 C 
ATOM     58  C   UNL A   1      47.242  27.311  30.677  1.00  0.00     0.029 A 
ATOM     59  C   UNL A   1      46.062  28.050  30.597  1.00  0.00     0.049 A 
ATOM     60  H   UNL A   1      45.744  29.747  29.415  1.00  0.00     0.167 HD
ATOM     61  C   UNL A   1      43.644  28.595  30.884  1.00  0.00     0.074 A 
ATOM     62  C   UNL A   1      43.418  29.715  29.977  1.00  0.00     0.031 C 
ATOM     63  C   UNL A   1      44.767  27.898  31.223  1.00  0.00     0.037 A 
BRANCH  50  64
ATOM     64  C   UNL A   1      47.313  30.286  26.949  1.00  0.00     0.064 A 
ATOM     65  C   UNL A   1      48.561  30.939  27.054  1.00  0.00     0.173 A 
ATOM     66  C   UNL A   1      46.204  31.131  26.739  1.00  0.00     0.173 A 
ATOM     67  F   UNL A   1      49.684  30.239  27.276  1.00  0.00    -0.203 F 
ATOM     68  C   UNL A   1      48.673  32.334  27.028  1.00  0.00     0.198 A 
ATOM     69  C   UNL A   1      46.327  32.518  26.663  1.00  0.00     0.198 A 
ATOM     70  F   UNL A   1      44.951  30.663  26.718  1.00  0.00    -0.203 F 
ATOM     71  F   UNL A   1      49.860  32.914  27.255  1.00  0.00    -0.200 F 
ATOM     72  C   UNL A   1      47.553  33.122  26.838  1.00  0.00     0.200 A 
ATOM     73  F   UNL A   1      45.226  33.268  26.504  1.00  0.00    -0.200 F 
ATOM     74  F   UNL A   1      47.647  34.458  26.873  1.00  0.00    -0.200 F 
ENDBRANCH  50  64
BRANCH  51  75
ATOM     75  C   UNL A   1      39.214  28.173  29.358  1.00  0.00     0.064 A 
ATOM     76  C   UNL A   1      38.429  28.326  30.513  1.00  0.00     0.173 A 
ATOM     77  C   UNL A   1      38.723  28.768  28.181  1.00  0.00     0.173 A 
ATOM     78  F   UNL A   1      38.844  27.819  31.683  1.00  0.00    -0.203 F 
ATOM     79  C   UNL A   1      37.244  29.068  30.500  1.00  0.00     0.198 A 
ATOM     80  C   UNL A   1      37.539  29.507  28.169  1.00  0.00     0.198 A 
ATOM     81  F   UNL A   1      39.439  28.728  27.047  1.00  0.00    -0.203 F 
ATOM     82  F   UNL A   1      36.559  29.254  31.638  1.00  0.00    -0.200 F 
ATOM     83  C   UNL A   1      36.809  29.672  29.332  1.00  0.00     0.200 A 
ATOM     84  F   UNL A   1      37.149  30.119  27.042  1.00  0.00    -0.200 F 
ATOM     85  F   UNL A   1      35.715  30.446  29.336  1.00  0.00    -0.200 F 
ENDBRANCH  51  75
BRANCH  63  86
ATOM     86  C   UNL A   1      44.599  26.772  32.201  1.00  0.00     0.064 A 
ATOM     87  C   UNL A   1      44.460  26.931  33.589  1.00  0.00     0.173 A 
ATOM     88  C   UNL A   1      44.491  25.473  31.686  1.00  0.00     0.173 A 
ATOM     89  F   UNL A   1      44.466  28.145  34.150  1.00  0.00    -0.203 F 
ATOM     90  C   UNL A   1      44.267  25.832  34.425  1.00  0.00     0.198 A 
ATOM     91  C   UNL A   1      44.260  24.383  32.517  1.00  0.00     0.198 A 
ATOM     92  F   UNL A   1      44.571  25.268  30.361  1.00  0.00    -0.203 F 
ATOM     93  F   UNL A   1      44.159  26.006  35.751  1.00  0.00    -0.200 F 
ATOM     94  C   UNL A   1      44.161  24.560  33.887  1.00  0.00     0.200 A 
ATOM     95  F   UNL A   1      44.114  23.162  31.986  1.00  0.00    -0.200 F 
ATOM     96  F   UNL A   1      43.941  23.507  34.686  1.00  0.00    -0.200 F 
ENDBRANCH  63  86
ENDBRANCH  37  38
ENDBRANCH  29  32
ENDBRANCH  27  28
ENDBRANCH  26  27
ENDBRANCH  25  26
ENDBRANCH   1  25
TORSDOF 16
ENDMDL
MODEL 2
REMARK VINA RESULT:     -11.9      2.929      8.593
REMARK SMILES CN(C(=O)N1Cc2nc[nH]c2C[C@@H]1C(=O)NCCCCCCNC(=O)c1ccc(-c2c3nc(c(-c4c(F)c(F)c(F)c(F)c4F)c4ccc([nH]4)c(-c4c(F)c(F)c(F)c(F)c4F)c4nc(c(-c5c(F)c(F)c(F)c(F)c5F)c5ccc2[nH]5)C=C4)C=C3)cc1)C1CC1
REMARK SMILES IDX 19 1 18 2 17 3 16 4 14 5 15 6 13 8 5 9 6 10 7 11 12 12 8 13
REMARK SMILES IDX 11 14 9 15 10 16 3 18 4 19 2 20 1 21 89 22 90 23 91 24 20 25
REMARK SMILES IDX 21 26 22 27 23 28 24 29 25 31 26 32 27 33 88 34 28 35 87 36
REMARK SMILES IDX 29 37 30 38 31 39 81 40 32 41 86 42 80 43 82 44 33 45 85 46
REMARK SMILES IDX 79 47 78 48 34 50 66 51 46 52 65 53 47 54 50 55 64 56 83 57
REMARK SMILES IDX 48 58 49 59 63 61 84 62 51 63 35 64 36 65 44 66 37 67 38 68
REMARK SMILES IDX 42 69 45 70 39 71 40 72 43 73 41 74 67 75 68 76 76 77 69 78
REMARK SMILES IDX 70 79 74 80 77 81 71 82 72 83 75 84 73 85 52 86 53 87 61 88
REMARK SMILES IDX 54 89 55 90 59 91 62 92 56 93 57 94 60 95 58 96
REMARK H PARENT 16 7 10 17 23 30 82 49 50 60
REMARK Flexibility Score: inf
ROOT
ATOM      1  C   UNL A   1      33.594  28.746  26.341  1.00  0.00     0.002 C 
ENDROOT
BRANCH   1   2
ATOM      2  C   UNL A   1      32.856  29.088  25.031  1.00  0.00     0.021 C 
BRANCH   2   3
ATOM      3  C   UNL A   1      32.573  28.036  23.928  1.00  0.00     0.116 C 
BRANCH   3   4
ATOM      4  N   UNL A   1      33.698  27.182  23.591  1.00  0.00    -0.354 N 
ATOM      5  C   UNL A   1      33.588  25.979  22.882  1.00  0.00     0.243 C 
ATOM      6  O   UNL A   1      33.679  25.892  21.663  1.00  0.00    -0.273 OA
ATOM      7  H   UNL A   1      34.595  27.466  23.879  1.00  0.00     0.163 HD
BRANCH   5   8
ATOM      8  C   UNL A   1      33.186  24.806  23.783  1.00  0.00     0.182 C 
ATOM      9  N   UNL A   1      34.265  24.263  24.631  1.00  0.00    -0.306 N 
ATOM     10  C   UNL A   1      33.814  24.181  26.060  1.00  0.00     0.180 C 
ATOM     11  C   UNL A   1      32.396  23.661  26.104  1.00  0.00     0.081 A 
ATOM     12  C   UNL A   1      32.133  23.672  23.561  1.00  0.00     0.091 C 
ATOM     13  N   UNL A   1      31.581  23.752  27.205  1.00  0.00    -0.240 NA
ATOM     14  C   UNL A   1      31.639  23.387  24.972  1.00  0.00     0.042 A 
ATOM     15  C   UNL A   1      30.377  23.448  26.769  1.00  0.00     0.197 A 
ATOM     16  N   UNL A   1      30.381  23.122  25.433  1.00  0.00    -0.348 N 
ATOM     17  H   UNL A   1      29.625  22.766  24.911  1.00  0.00     0.167 HD
BRANCH   9  18
ATOM     18  C   UNL A   1      35.474  23.687  24.281  1.00  0.00     0.321 C 
ATOM     19  O   UNL A   1      35.666  23.437  23.083  1.00  0.00    -0.248 OA
BRANCH  18  20
ATOM     20  N   UNL A   1      36.402  23.200  25.223  1.00  0.00    -0.325 N 
ATOM     21  C   UNL A   1      37.497  23.834  25.991  1.00  0.00     0.149 C 
BRANCH  20  22
ATOM     22  C   UNL A   1      36.186  21.811  25.657  1.00  0.00     0.086 C 
ATOM     23  C   UNL A   1      35.257  20.867  24.952  1.00  0.00     0.027 C 
ATOM     24  C   UNL A   1      36.730  20.589  24.964  1.00  0.00     0.027 C 
ENDBRANCH  20  22
ENDBRANCH  18  20
ENDBRANCH   9  18
ENDBRANCH   5   8
ENDBRANCH   3   4
ENDBRANCH   2   3
ENDBRANCH   1   2
BRANCH   1  25
ATOM     25  C   UNL A   1      34.515  29.789  26.981  1.00  0.00     0.002 C 
BRANCH  25  26
ATOM     26  C   UNL A   1      33.779  30.975  27.611  1.00  0.00     0.021 C 
BRANCH  26  27
ATOM     27  C   UNL A   1      34.673  32.183  27.907  1.00  0.00     0.116 C 
BRANCH  27  28
ATOM     28  N   UNL A   1      34.642  32.615  29.306  1.00  0.00    -0.352 N 
ATOM     29  C   UNL A   1      35.305  32.021  30.371  1.00  0.00     0.251 C 
ATOM     30  H   UNL A   1      34.096  33.408  29.511  1.00  0.00     0.163 HD
ATOM     31  O   UNL A   1      34.922  32.124  31.514  1.00  0.00    -0.269 OA
BRANCH  29  32
ATOM     32  C   UNL A   1      36.534  31.269  30.056  1.00  0.00     0.039 A 
ATOM     33  C   UNL A   1      37.752  31.918  29.846  1.00  0.00     0.014 A 
ATOM     34  C   UNL A   1      36.440  29.877  30.066  1.00  0.00     0.014 A 
ATOM     35  C   UNL A   1      38.906  31.145  29.741  1.00  0.00     0.010 A 
ATOM     36  C   UNL A   1      37.589  29.124  30.059  1.00  0.00     0.010 A 
ATOM     37  C   UNL A   1      38.822  29.748  29.880  1.00  0.00    -0.014 A 
BRANCH  37  38
ATOM     38  C   UNL A   1      40.039  28.947  30.000  1.00  0.00     0.031 A 
ATOM     39  C   UNL A   1      40.532  28.779  31.398  1.00  0.00     0.074 A 
ATOM     40  C   UNL A   1      40.566  28.243  28.977  1.00  0.00     0.049 A 
ATOM     41  N   UNL A   1      41.617  29.257  31.911  1.00  0.00    -0.248 NA
ATOM     42  C   UNL A   1      39.663  28.108  32.379  1.00  0.00     0.031 C 
ATOM     43  C   UNL A   1      40.017  28.059  27.627  1.00  0.00     0.029 A 
ATOM     44  N   UNL A   1      41.676  27.451  28.957  1.00  0.00    -0.354 N 
ATOM     45  C   UNL A   1      41.666  28.799  33.227  1.00  0.00     0.074 A 
ATOM     46  C   UNL A   1      40.373  28.234  33.505  1.00  0.00     0.031 C 
ATOM     47  C   UNL A   1      40.661  27.047  27.006  1.00  0.00     0.029 A 
ATOM     48  C   UNL A   1      41.780  26.639  27.833  1.00  0.00     0.049 A 
ATOM     49  H   UNL A   1      42.347  27.455  29.678  1.00  0.00     0.167 HD
ATOM     50  C   UNL A   1      42.854  28.715  33.891  1.00  0.00     0.037 A 
ATOM     51  C   UNL A   1      42.725  25.698  27.595  1.00  0.00     0.037 A 
ATOM     52  C   UNL A   1      43.889  29.402  33.164  1.00  0.00     0.049 A 
ATOM     53  C   UNL A   1      43.888  26.024  28.447  1.00  0.00     0.074 A 
ATOM     54  C   UNL A   1      44.217  30.712  32.897  1.00  0.00     0.029 A 
ATOM     55  N   UNL A   1      44.545  28.623  32.248  1.00  0.00    -0.354 N 
ATOM     56  N   UNL A   1      44.631  27.082  28.278  1.00  0.00    -0.248 NA
ATOM     57  C   UNL A   1      44.022  25.365  29.738  1.00  0.00     0.031 C 
ATOM     58  C   UNL A   1      44.842  30.696  31.614  1.00  0.00     0.029 A 
ATOM     59  C   UNL A   1      44.921  29.375  31.171  1.00  0.00     0.049 A 
ATOM     60  H   UNL A   1      44.721  27.661  32.353  1.00  0.00     0.167 HD
ATOM     61  C   UNL A   1      44.972  27.470  29.561  1.00  0.00     0.074 A 
ATOM     62  C   UNL A   1      44.730  26.293  30.389  1.00  0.00     0.031 C 
ATOM     63  C   UNL A   1      45.121  28.792  29.862  1.00  0.00     0.037 A 
BRANCH  50  64
ATOM     64  C   UNL A   1      43.219  27.661  34.918  1.00  0.00     0.064 A 
ATOM     65  C   UNL A   1      43.571  28.070  36.223  1.00  0.00     0.173 A 
ATOM     66  C   UNL A   1      43.559  26.334  34.587  1.00  0.00     0.173 A 
ATOM     67  F   UNL A   1      43.316  29.319  36.641  1.00  0.00    -0.203 F 
ATOM     68  C   UNL A   1      44.277  27.235  37.097  1.00  0.00     0.198 A 
ATOM     69  C   UNL A   1      44.219  25.488  35.480  1.00  0.00     0.198 A 
ATOM     70  F   UNL A   1      43.378  25.840  33.357  1.00  0.00    -0.203 F 
ATOM     71  F   UNL A   1      44.697  27.708  38.279  1.00  0.00    -0.200 F 
ATOM     72  C   UNL A   1      44.605  25.946  36.721  1.00  0.00     0.200 A 
ATOM     73  F   UNL A   1      44.551  24.249  35.088  1.00  0.00    -0.200 F 
ATOM     74  F   UNL A   1      45.333  25.165  37.530  1.00  0.00    -0.200 F 
ENDBRANCH  50  64
BRANCH  51  75
ATOM     75  C   UNL A   1      42.622  24.423  26.854  1.00  0.00     0.064 A 
ATOM     76  C   UNL A   1      43.184  24.275  25.575  1.00  0.00     0.173 A 
ATOM     77  C   UNL A   1      42.241  23.239  27.513  1.00  0.00     0.173 A 
ATOM     78  F   UNL A   1      43.607  25.352  24.895  1.00  0.00    -0.203 F 
ATOM     79  C   UNL A   1      43.394  23.014  25.008  1.00  0.00     0.198 A 
ATOM     80  C   UNL A   1      42.449  21.981  26.945  1.00  0.00     0.198 A 
ATOM     81  F   UNL A   1      41.756  23.281  28.764  1.00  0.00    -0.203 F 
ATOM     82  F   UNL A   1      44.000  22.909  23.817  1.00  0.00    -0.200 F 
ATOM     83  C   UNL A   1      43.041  21.868  25.700  1.00  0.00     0.200 A 
ATOM     84  F   UNL A   1      42.139  20.878  27.641  1.00  0.00    -0.200 F 
ATOM     85  F   UNL A   1      43.310  20.659  25.190  1.00  0.00    -0.200 F 
ENDBRANCH  51  75
BRANCH  63  86
ATOM     86  C   UNL A   1      45.344  29.731  28.713  1.00  0.00     0.064 A 
ATOM     87  C   UNL A   1      44.327  30.415  28.028  1.00  0.00     0.173 A 
ATOM     88  C   UNL A   1      46.668  30.012  28.349  1.00  0.00     0.173 A 
ATOM     89  F   UNL A   1      43.042  30.266  28.372  1.00  0.00    -0.203 F 
ATOM     90  C   UNL A   1      44.622  31.303  26.996  1.00  0.00     0.198 A 
ATOM     91  C   UNL A   1      46.963  30.927  27.346  1.00  0.00     0.198 A 
ATOM     92  F   UNL A   1      47.683  29.422  29.001  1.00  0.00    -0.203 F 
ATOM     93  F   UNL A   1      43.633  31.927  26.340  1.00  0.00    -0.200 F 
ATOM     94  C   UNL A   1      45.941  31.563  26.660  1.00  0.00     0.200 A 
ATOM     95  F   UNL A   1      48.240  31.208  27.057  1.00  0.00    -0.200 F 
ATOM     96  F   UNL A   1      46.228  32.443  25.691  1.00  0.00    -0.200 F 
ENDBRANCH  63  86
ENDBRANCH  37  38
ENDBRANCH  29  32
ENDBRANCH  27  28
ENDBRANCH  26  27
ENDBRANCH  25  26
ENDBRANCH   1  25
TORSDOF 16
ENDMDL
MODEL 3
REMARK VINA RESULT:     -11.8      3.248      5.181
REMARK SMILES CN(C(=O)N1Cc2nc[nH]c2C[C@@H]1C(=O)NCCCCCCNC(=O)c1ccc(-c2c3nc(c(-c4c(F)c(F)c(F)c(F)c4F)c4ccc([nH]4)c(-c4c(F)c(F)c(F)c(F)c4F)c4nc(c(-c5c(F)c(F)c(F)c(F)c5F)c5ccc2[nH]5)C=C4)C=C3)cc1)C1CC1
REMARK SMILES IDX 19 1 18 2 17 3 16 4 14 5 15 6 13 8 5 9 6 10 7 11 12 12 8 13
REMARK SMILES IDX 11 14 9 15 10 16 3 18 4 19 2 20 1 21 89 22 90 23 91 24 20 25
REMARK SMILES IDX 21 26 22 27 23 28 24 29 25 31 26 32 27 33 88 34 28 35 87 36
REMARK SMILES IDX 29 37 30 38 31 39 81 40 32 41 86 42 80 43 82 44 33 45 85 46
REMARK SMILES IDX 79 47 78 48 34 50 66 51 46 52 65 53 47 54 50 55 64 56 83 57
REMARK SMILES IDX 48 58 49 59 63 61 84 62 51 63 35 64 36 65 44 66 37 67 38 68
REMARK SMILES IDX 42 69 45 70 39 71 40 72 43 73 41 74 67 75 68 76 76 77 69 78
REMARK SMILES IDX 70 79 74 80 77 81 71 82 72 83 75 84 73 85 52 86 53 87 61 88
REMARK SMILES IDX 54 89 55 90 59 91 62 92 56 93 57 94 60 95 58 96
REMARK H PARENT 16 7 10 17 23 30 82 49 50 60
REMARK Flexibility Score: inf
ROOT
ATOM      1  C   UNL A   1      35.079  23.827  24.069  1.00  0.00     0.002 C 
ENDROOT
BRANCH   1   2
ATOM      2  C   UNL A   1      34.121  23.161  23.062  1.00  0.00     0.021 C 
BRANCH   2   3
ATOM      3  C   UNL A   1      32.608  23.495  22.996  1.00  0.00     0.116 C 
BRANCH   3   4
ATOM      4  N   UNL A   1      32.232  24.436  21.956  1.00  0.00    -0.354 N 
ATOM      5  C   UNL A   1      32.541  25.802  21.982  1.00  0.00     0.243 C 
ATOM      6  O   UNL A   1      33.553  26.285  21.487  1.00  0.00    -0.273 OA
ATOM      7  H   UNL A   1      31.727  24.093  21.184  1.00  0.00     0.163 HD
BRANCH   5   8
ATOM      8  C   UNL A   1      31.552  26.607  22.832  1.00  0.00     0.182 C 
ATOM      9  N   UNL A   1      32.132  27.755  23.557  1.00  0.00    -0.306 N 
ATOM     10  C   UNL A   1      31.332  28.997  23.291  1.00  0.00     0.180 C 
ATOM     11  C   UNL A   1      29.859  28.658  23.336  1.00  0.00     0.081 A 
ATOM     12  C   UNL A   1      30.272  26.149  23.605  1.00  0.00     0.091 C 
ATOM     13  N   UNL A   1      28.871  29.472  22.842  1.00  0.00    -0.240 NA
ATOM     14  C   UNL A   1      29.369  27.371  23.520  1.00  0.00     0.042 A 
ATOM     15  C   UNL A   1      27.788  28.725  22.817  1.00  0.00     0.197 A 
ATOM     16  N   UNL A   1      28.022  27.464  23.315  1.00  0.00    -0.348 N 
ATOM     17  H   UNL A   1      27.350  26.766  23.490  1.00  0.00     0.167 HD
BRANCH   9  18
ATOM     18  C   UNL A   1      33.123  27.797  24.522  1.00  0.00     0.321 C 
ATOM     19  O   UNL A   1      34.202  28.321  24.215  1.00  0.00    -0.248 OA
BRANCH  18  20
ATOM     20  N   UNL A   1      33.037  27.113  25.750  1.00  0.00    -0.325 N 
ATOM     21  C   UNL A   1      33.224  25.698  26.141  1.00  0.00     0.149 C 
BRANCH  20  22
ATOM     22  C   UNL A   1      32.855  27.968  26.934  1.00  0.00     0.086 C 
ATOM     23  C   UNL A   1      32.200  29.317  26.878  1.00  0.00     0.027 C 
ATOM     24  C   UNL A   1      31.547  28.206  27.642  1.00  0.00     0.027 C 
ENDBRANCH  20  22
ENDBRANCH  18  20
ENDBRANCH   9  18
ENDBRANCH   5   8
ENDBRANCH   3   4
ENDBRANCH   2   3
ENDBRANCH   1   2
BRANCH   1  25
ATOM     25  C   UNL A   1      36.523  23.328  24.178  1.00  0.00     0.002 C 
BRANCH  25  26
ATOM     26  C   UNL A   1      36.927  22.876  25.584  1.00  0.00     0.021 C 
BRANCH  26  27
ATOM     27  C   UNL A   1      38.186  23.561  26.126  1.00  0.00     0.116 C 
BRANCH  27  28
ATOM     28  N   UNL A   1      39.311  22.648  26.343  1.00  0.00    -0.352 N 
ATOM     29  C   UNL A   1      40.656  22.989  26.392  1.00  0.00     0.251 C 
ATOM     30  H   UNL A   1      39.091  21.697  26.468  1.00  0.00     0.163 HD
ATOM     31  O   UNL A   1      41.536  22.199  26.137  1.00  0.00    -0.269 OA
BRANCH  29  32
ATOM     32  C   UNL A   1      40.981  24.368  26.803  1.00  0.00     0.039 A 
ATOM     33  C   UNL A   1      40.781  25.450  25.945  1.00  0.00     0.014 A 
ATOM     34  C   UNL A   1      41.410  24.547  28.118  1.00  0.00     0.014 A 
ATOM     35  C   UNL A   1      40.927  26.738  26.456  1.00  0.00     0.010 A 
ATOM     36  C   UNL A   1      41.459  25.816  28.644  1.00  0.00     0.010 A 
ATOM     37  C   UNL A   1      41.235  26.914  27.816  1.00  0.00    -0.014 A 
BRANCH  37  38
ATOM     38  C   UNL A   1      41.168  28.245  28.418  1.00  0.00     0.031 A 
ATOM     39  C   UNL A   1      42.268  29.165  28.006  1.00  0.00     0.074 A 
ATOM     40  C   UNL A   1      40.103  28.688  29.119  1.00  0.00     0.049 A 
ATOM     41  N   UNL A   1      43.221  29.630  28.744  1.00  0.00    -0.248 NA
ATOM     42  C   UNL A   1      42.403  29.514  26.582  1.00  0.00     0.031 C 
ATOM     43  C   UNL A   1      38.819  28.010  29.339  1.00  0.00     0.029 A 
ATOM     44  N   UNL A   1      39.907  29.899  29.715  1.00  0.00    -0.354 N 
ATOM     45  C   UNL A   1      43.973  30.475  27.930  1.00  0.00     0.074 A 
ATOM     46  C   UNL A   1      43.523  30.244  26.584  1.00  0.00     0.031 C 
ATOM     47  C   UNL A   1      37.912  28.893  29.812  1.00  0.00     0.029 A 
ATOM     48  C   UNL A   1      38.594  30.139  30.103  1.00  0.00     0.049 A 
ATOM     49  H   UNL A   1      40.634  30.548  29.857  1.00  0.00     0.167 HD
ATOM     50  C   UNL A   1      44.737  31.466  28.473  1.00  0.00     0.037 A 
ATOM     51  C   UNL A   1      38.100  31.283  30.633  1.00  0.00     0.037 A 
ATOM     52  C   UNL A   1      44.849  31.294  29.898  1.00  0.00     0.049 A 
ATOM     53  C   UNL A   1      39.243  32.029  31.201  1.00  0.00     0.074 A 
ATOM     54  C   UNL A   1      45.498  30.429  30.750  1.00  0.00     0.029 A 
ATOM     55  N   UNL A   1      43.856  31.905  30.617  1.00  0.00    -0.354 N 
ATOM     56  N   UNL A   1      39.925  31.623  32.235  1.00  0.00    -0.248 NA
ATOM     57  C   UNL A   1      39.881  33.060  30.396  1.00  0.00     0.031 C 
ATOM     58  C   UNL A   1      44.664  30.331  31.904  1.00  0.00     0.029 A 
ATOM     59  C   UNL A   1      43.568  31.178  31.738  1.00  0.00     0.049 A 
ATOM     60  H   UNL A   1      43.415  32.748  30.363  1.00  0.00     0.167 HD
ATOM     61  C   UNL A   1      41.225  32.008  31.960  1.00  0.00     0.074 A 
ATOM     62  C   UNL A   1      41.107  33.031  30.927  1.00  0.00     0.031 C 
ATOM     63  C   UNL A   1      42.272  31.240  32.378  1.00  0.00     0.037 A 
BRANCH  50  64
ATOM     64  C   UNL A   1      44.999  32.822  27.849  1.00  0.00     0.064 A 
ATOM     65  C   UNL A   1      46.325  33.179  27.518  1.00  0.00     0.173 A 
ATOM     66  C   UNL A   1      44.075  33.887  27.879  1.00  0.00     0.173 A 
ATOM     67  F   UNL A   1      47.294  32.252  27.480  1.00  0.00    -0.203 F 
ATOM     68  C   UNL A   1      46.705  34.510  27.309  1.00  0.00     0.198 A 
ATOM     69  C   UNL A   1      44.449  35.206  27.620  1.00  0.00     0.198 A 
ATOM     70  F   UNL A   1      42.808  33.715  28.272  1.00  0.00    -0.203 F 
ATOM     71  F   UNL A   1      47.997  34.814  27.119  1.00  0.00    -0.200 F 
ATOM     72  C   UNL A   1      45.766  35.523  27.367  1.00  0.00     0.200 A 
ATOM     73  F   UNL A   1      43.529  36.178  27.706  1.00  0.00    -0.200 F 
ATOM     74  F   UNL A   1      46.136  36.803  27.228  1.00  0.00    -0.200 F 
ENDBRANCH  50  64
BRANCH  51  75
ATOM     75  C   UNL A   1      36.755  31.883  30.498  1.00  0.00     0.064 A 
ATOM     76  C   UNL A   1      35.911  32.037  31.611  1.00  0.00     0.173 A 
ATOM     77  C   UNL A   1      36.400  32.594  29.337  1.00  0.00     0.173 A 
ATOM     78  F   UNL A   1      36.199  31.422  32.767  1.00  0.00    -0.203 F 
ATOM     79  C   UNL A   1      34.801  32.887  31.576  1.00  0.00     0.198 A 
ATOM     80  C   UNL A   1      35.291  33.441  29.303  1.00  0.00     0.198 A 
ATOM     81  F   UNL A   1      37.184  32.558  28.249  1.00  0.00    -0.203 F 
ATOM     82  F   UNL A   1      34.060  33.065  32.680  1.00  0.00    -0.200 F 
ATOM     83  C   UNL A   1      34.502  33.601  30.428  1.00  0.00     0.200 A 
ATOM     84  F   UNL A   1      35.033  34.156  28.199  1.00  0.00    -0.200 F 
ATOM     85  F   UNL A   1      33.484  34.472  30.418  1.00  0.00    -0.200 F 
ENDBRANCH  51  75
BRANCH  63  86
ATOM     86  C   UNL A   1      42.000  30.261  33.483  1.00  0.00     0.064 A 
ATOM     87  C   UNL A   1      41.638  28.917  33.292  1.00  0.00     0.173 A 
ATOM     88  C   UNL A   1      42.201  30.694  34.800  1.00  0.00     0.173 A 
ATOM     89  F   UNL A   1      41.509  28.405  32.063  1.00  0.00    -0.203 F 
ATOM     90  C   UNL A   1      41.442  28.062  34.375  1.00  0.00     0.198 A 
ATOM     91  C   UNL A   1      42.044  29.829  35.877  1.00  0.00     0.198 A 
ATOM     92  F   UNL A   1      42.593  31.955  35.040  1.00  0.00    -0.203 F 
ATOM     93  F   UNL A   1      41.074  26.789  34.170  1.00  0.00    -0.200 F 
ATOM     94  C   UNL A   1      41.652  28.518  35.667  1.00  0.00     0.200 A 
ATOM     95  F   UNL A   1      42.291  30.264  37.120  1.00  0.00    -0.200 F 
ATOM     96  F   UNL A   1      41.498  27.687  36.707  1.00  0.00    -0.200 F 
ENDBRANCH  63  86
ENDBRANCH  37  38
ENDBRANCH  29  32
ENDBRANCH  27  28
ENDBRANCH  26  27
ENDBRANCH  25  26
ENDBRANCH   1  25
TORSDOF 16
ENDMDL
