MODEL 1
REMARK VINA RESULT:     -13.3      0.000      0.000
REMARK SMILES CS(=O)(=O)c1ccc(-n2nc(C(F)(F)F)cc2-c2ccc(CC(=O)NCCCCCCNC(=O)c3ccc(-c4c5nc(c(-c6c(F)c(F)c(F)c(F)c6F)c6ccc([nH]6)c(-c6c(F)c(F)c(F)c(F)c6F)c6nc(c(-c7c(F)c(F)c(F)c(F)c7F)c7ccc4[nH]7)C=C6)C=C5)cc3)cc2)cc1
REMARK SMILES IDX 27 1 26 2 25 3 23 4 24 5 22 7 21 8 18 9 19 10 99 11 20 12
REMARK SMILES IDX 98 13 17 14 9 15 10 16 11 17 16 18 8 19 5 20 6 21 101 22
REMARK SMILES IDX 7 23 100 24 2 25 1 26 3 27 4 28 12 29 13 30 14 31 15 32
REMARK SMILES IDX 28 33 29 34 30 35 31 36 32 37 33 38 34 40 35 41 36 42 97 43
REMARK SMILES IDX 37 44 96 45 38 46 39 47 40 48 90 49 41 50 95 51 89 52 91 53
REMARK SMILES IDX 42 54 94 55 88 56 87 57 43 59 75 60 55 61 74 62 56 63 59 64
REMARK SMILES IDX 73 65 92 66 57 67 58 68 72 70 93 71 60 72 44 73 45 74 53 75
REMARK SMILES IDX 46 76 47 77 51 78 54 79 48 80 49 81 52 82 50 83 76 84 77 85
REMARK SMILES IDX 85 86 78 87 79 88 83 89 86 90 80 91 81 92 84 93 82 94 61 95
REMARK SMILES IDX 62 96 70 97 63 98 64 99 68 100 71 101 65 102 66 103 69 104
REMARK SMILES IDX 67 105
REMARK H PARENT 25 6 32 39 91 58 59 69
REMARK Flexibility Score: inf
ROOT
ATOM      1  C   UNL A   1      34.235  20.633  25.482  1.00  0.00     0.021 C 
ENDROOT
BRANCH   1   2
ATOM      2  C   UNL A   1      32.990  20.925  24.643  1.00  0.00     0.116 C 
BRANCH   2   3
ATOM      3  N   UNL A   1      31.817  21.086  25.478  1.00  0.00    -0.356 N 
ATOM      4  C   UNL A   1      30.938  22.128  25.539  1.00  0.00     0.224 C 
ATOM      5  O   UNL A   1      30.050  22.101  26.394  1.00  0.00    -0.275 OA
ATOM      6  H   UNL A   1      31.628  20.339  26.090  1.00  0.00     0.163 HD
BRANCH   4   7
ATOM      7  C   UNL A   1      31.025  23.263  24.531  1.00  0.00     0.135 C 
BRANCH   7   8
ATOM      8  C   UNL A   1      31.614  24.540  25.079  1.00  0.00    -0.039 A 
ATOM      9  C   UNL A   1      32.634  27.000  26.005  1.00  0.00     0.000 A 
ATOM     10  C   UNL A   1      33.370  26.208  25.110  1.00  0.00     0.010 A 
ATOM     11  C   UNL A   1      31.415  26.515  26.486  1.00  0.00     0.010 A 
ATOM     12  C   UNL A   1      32.860  24.997  24.639  1.00  0.00     0.005 A 
ATOM     13  C   UNL A   1      30.919  25.289  26.039  1.00  0.00     0.005 A 
BRANCH   9  14
ATOM     14  C   UNL A   1      33.131  28.306  26.445  1.00  0.00     0.075 A 
ATOM     15  N   UNL A   1      32.655  29.540  26.016  1.00  0.00    -0.233 N 
ATOM     16  N   UNL A   1      33.456  30.562  26.405  1.00  0.00    -0.163 NA
ATOM     17  C   UNL A   1      34.360  30.001  27.230  1.00  0.00     0.167 A 
ATOM     18  C   UNL A   1      34.200  28.596  27.271  1.00  0.00     0.064 A 
BRANCH  15  19
ATOM     19  C   UNL A   1      31.499  29.791  25.237  1.00  0.00     0.065 A 
ATOM     20  C   UNL A   1      29.443  30.473  23.496  1.00  0.00     0.067 A 
ATOM     21  C   UNL A   1      30.098  29.245  23.353  1.00  0.00     0.022 A 
ATOM     22  C   UNL A   1      29.775  31.341  24.539  1.00  0.00     0.022 A 
ATOM     23  C   UNL A   1      31.139  28.906  24.213  1.00  0.00     0.030 A 
ATOM     24  C   UNL A   1      30.792  30.985  25.431  1.00  0.00     0.030 A 
BRANCH  20  25
ATOM     25  S   UNL A   1      28.238  30.877  22.256  1.00  0.00     0.175 S 
ATOM     26  C   UNL A   1      28.430  32.589  21.855  1.00  0.00     0.163 C 
ATOM     27  O   UNL A   1      26.942  30.708  22.887  1.00  0.00    -0.224 OA
ATOM     28  O   UNL A   1      28.602  30.112  21.080  1.00  0.00    -0.224 OA
ENDBRANCH  20  25
ENDBRANCH  15  19
BRANCH  17  29
ATOM     29  C   UNL A   1      35.394  30.802  27.973  1.00  0.00     0.435 C 
ATOM     30  F   UNL A   1      35.701  30.278  29.187  1.00  0.00    -0.164 F 
ATOM     31  F   UNL A   1      36.561  30.893  27.277  1.00  0.00    -0.164 F 
ATOM     32  F   UNL A   1      34.981  32.082  28.193  1.00  0.00    -0.164 F 
ENDBRANCH  17  29
ENDBRANCH   9  14
ENDBRANCH   7   8
ENDBRANCH   4   7
ENDBRANCH   2   3
ENDBRANCH   1   2
BRANCH   1  33
ATOM     33  C   UNL A   1      34.438  21.599  26.658  1.00  0.00     0.002 C 
BRANCH  33  34
ATOM     34  C   UNL A   1      35.135  22.924  26.316  1.00  0.00     0.002 C 
BRANCH  34  35
ATOM     35  C   UNL A   1      36.027  22.910  25.068  1.00  0.00     0.021 C 
BRANCH  35  36
ATOM     36  C   UNL A   1      37.460  23.353  25.333  1.00  0.00     0.116 C 
BRANCH  36  37
ATOM     37  N   UNL A   1      38.239  22.318  26.004  1.00  0.00    -0.352 N 
ATOM     38  C   UNL A   1      39.430  22.443  26.688  1.00  0.00     0.251 C 
ATOM     39  H   UNL A   1      37.864  21.408  25.962  1.00  0.00     0.163 HD
ATOM     40  O   UNL A   1      40.149  21.474  26.868  1.00  0.00    -0.269 OA
BRANCH  38  41
ATOM     41  C   UNL A   1      39.833  23.769  27.192  1.00  0.00     0.039 A 
ATOM     42  C   UNL A   1      38.948  24.847  27.115  1.00  0.00     0.014 A 
ATOM     43  C   UNL A   1      41.109  23.934  27.730  1.00  0.00     0.014 A 
ATOM     44  C   UNL A   1      39.326  26.073  27.656  1.00  0.00     0.010 A 
ATOM     45  C   UNL A   1      41.441  25.111  28.362  1.00  0.00     0.010 A 
ATOM     46  C   UNL A   1      40.567  26.193  28.300  1.00  0.00    -0.014 A 
BRANCH  46  47
ATOM     47  C   UNL A   1      40.889  27.409  29.045  1.00  0.00     0.031 A 
ATOM     48  C   UNL A   1      42.095  28.137  28.550  1.00  0.00     0.074 A 
ATOM     49  C   UNL A   1      40.049  27.964  29.945  1.00  0.00     0.049 A 
ATOM     50  N   UNL A   1      43.172  28.426  29.203  1.00  0.00    -0.248 NA
ATOM     51  C   UNL A   1      42.157  28.494  27.122  1.00  0.00     0.031 C 
ATOM     52  C   UNL A   1      38.692  27.539  30.300  1.00  0.00     0.029 A 
ATOM     53  N   UNL A   1      40.193  29.117  30.656  1.00  0.00    -0.354 N 
ATOM     54  C   UNL A   1      43.983  29.146  28.326  1.00  0.00     0.074 A 
ATOM     55  C   UNL A   1      43.378  29.023  27.026  1.00  0.00     0.031 C 
ATOM     56  C   UNL A   1      38.064  28.539  30.956  1.00  0.00     0.029 A 
ATOM     57  C   UNL A   1      39.011  29.612  31.199  1.00  0.00     0.049 A 
ATOM     58  H   UNL A   1      41.062  29.564  30.774  1.00  0.00     0.167 HD
ATOM     59  C   UNL A   1      44.971  29.963  28.790  1.00  0.00     0.037 A 
ATOM     60  C   UNL A   1      38.826  30.832  31.766  1.00  0.00     0.037 A 
ATOM     61  C   UNL A   1      45.305  29.639  30.154  1.00  0.00     0.049 A 
ATOM     62  C   UNL A   1      40.172  31.359  32.111  1.00  0.00     0.074 A 
ATOM     63  C   UNL A   1      45.763  28.502  30.793  1.00  0.00     0.029 A 
ATOM     64  N   UNL A   1      44.822  30.451  31.150  1.00  0.00    -0.354 N 
ATOM     65  N   UNL A   1      40.925  30.872  33.058  1.00  0.00    -0.248 NA
ATOM     66  C   UNL A   1      40.864  32.148  31.104  1.00  0.00     0.031 C 
ATOM     67  C   UNL A   1      45.066  28.476  32.037  1.00  0.00     0.029 A 
ATOM     68  C   UNL A   1      44.294  29.634  32.115  1.00  0.00     0.049 A 
ATOM     69  H   UNL A   1      44.850  31.436  31.168  1.00  0.00     0.167 HD
ATOM     70  C   UNL A   1      42.205  30.904  32.532  1.00  0.00     0.074 A 
ATOM     71  C   UNL A   1      42.121  31.782  31.367  1.00  0.00     0.031 C 
ATOM     72  C   UNL A   1      43.144  29.987  32.910  1.00  0.00     0.037 A 
BRANCH  59  73
ATOM     73  C   UNL A   1      45.379  31.277  28.160  1.00  0.00     0.064 A 
ATOM     74  C   UNL A   1      44.380  32.227  27.855  1.00  0.00     0.173 A 
ATOM     75  C   UNL A   1      46.636  31.513  27.565  1.00  0.00     0.173 A 
ATOM     76  F   UNL A   1      43.144  32.109  28.362  1.00  0.00    -0.203 F 
ATOM     77  C   UNL A   1      44.595  33.262  26.941  1.00  0.00     0.198 A 
ATOM     78  C   UNL A   1      46.862  32.581  26.694  1.00  0.00     0.198 A 
ATOM     79  F   UNL A   1      47.666  30.672  27.706  1.00  0.00    -0.203 F 
ATOM     80  F   UNL A   1      43.575  34.050  26.576  1.00  0.00    -0.200 F 
ATOM     81  C   UNL A   1      45.833  33.431  26.352  1.00  0.00     0.200 A 
ATOM     82  F   UNL A   1      48.068  32.721  26.126  1.00  0.00    -0.200 F 
ATOM     83  F   UNL A   1      46.025  34.379  25.426  1.00  0.00    -0.200 F 
ENDBRANCH  59  73
BRANCH  60  84
ATOM     84  C   UNL A   1      37.613  31.688  31.833  1.00  0.00     0.064 A 
ATOM     85  C   UNL A   1      36.974  31.924  33.064  1.00  0.00     0.173 A 
ATOM     86  C   UNL A   1      37.207  32.504  30.760  1.00  0.00     0.173 A 
ATOM     87  F   UNL A   1      37.302  31.204  34.147  1.00  0.00    -0.203 F 
ATOM     88  C   UNL A   1      36.032  32.946  33.225  1.00  0.00     0.198 A 
ATOM     89  C   UNL A   1      36.249  33.510  30.918  1.00  0.00     0.198 A 
ATOM     90  F   UNL A   1      37.779  32.393  29.554  1.00  0.00    -0.203 F 
ATOM     91  F   UNL A   1      35.498  33.179  34.432  1.00  0.00    -0.200 F 
ATOM     92  C   UNL A   1      35.682  33.749  32.155  1.00  0.00     0.200 A 
ATOM     93  F   UNL A   1      35.896  34.271  29.874  1.00  0.00    -0.200 F 
ATOM     94  F   UNL A   1      34.818  34.760  32.318  1.00  0.00    -0.200 F 
ENDBRANCH  60  84
BRANCH  72  95
ATOM     95  C   UNL A   1      42.855  29.119  34.102  1.00  0.00     0.064 A 
ATOM     96  C   UNL A   1      42.053  27.964  34.069  1.00  0.00     0.173 A 
ATOM     97  C   UNL A   1      43.546  29.387  35.293  1.00  0.00     0.173 A 
ATOM     98  F   UNL A   1      41.442  27.575  32.944  1.00  0.00    -0.203 F 
ATOM     99  C   UNL A   1      41.918  27.147  35.190  1.00  0.00     0.198 A 
ATOM    100  C   UNL A   1      43.443  28.546  36.396  1.00  0.00     0.198 A 
ATOM    101  F   UNL A   1      44.369  30.446  35.368  1.00  0.00    -0.203 F 
ATOM    102  F   UNL A   1      41.134  26.058  35.139  1.00  0.00    -0.200 F 
ATOM    103  C   UNL A   1      42.620  27.433  36.349  1.00  0.00     0.200 A 
ATOM    104  F   UNL A   1      44.165  28.800  37.495  1.00  0.00    -0.200 F 
ATOM    105  F   UNL A   1      42.525  26.623  37.413  1.00  0.00    -0.200 F 
ENDBRANCH  72  95
ENDBRANCH  46  47
ENDBRANCH  38  41
ENDBRANCH  36  37
ENDBRANCH  35  36
ENDBRANCH  34  35
ENDBRANCH  33  34
ENDBRANCH   1  33
TORSDOF 18
ENDMDL
MODEL 2
REMARK VINA RESULT:     -13.2      4.961      9.557
REMARK SMILES CS(=O)(=O)c1ccc(-n2nc(C(F)(F)F)cc2-c2ccc(CC(=O)NCCCCCCNC(=O)c3ccc(-c4c5nc(c(-c6c(F)c(F)c(F)c(F)c6F)c6ccc([nH]6)c(-c6c(F)c(F)c(F)c(F)c6F)c6nc(c(-c7c(F)c(F)c(F)c(F)c7F)c7ccc4[nH]7)C=C6)C=C5)cc3)cc2)cc1
REMARK SMILES IDX 27 1 26 2 25 3 23 4 24 5 22 7 21 8 18 9 19 10 99 11 20 12
REMARK SMILES IDX 98 13 17 14 9 15 10 16 11 17 16 18 8 19 5 20 6 21 101 22
REMARK SMILES IDX 7 23 100 24 2 25 1 26 3 27 4 28 12 29 13 30 14 31 15 32
REMARK SMILES IDX 28 33 29 34 30 35 31 36 32 37 33 38 34 40 35 41 36 42 97 43
REMARK SMILES IDX 37 44 96 45 38 46 39 47 40 48 90 49 41 50 95 51 89 52 91 53
REMARK SMILES IDX 42 54 94 55 88 56 87 57 43 59 75 60 55 61 74 62 56 63 59 64
REMARK SMILES IDX 73 65 92 66 57 67 58 68 72 70 93 71 60 72 44 73 45 74 53 75
REMARK SMILES IDX 46 76 47 77 51 78 54 79 48 80 49 81 52 82 50 83 76 84 77 85
REMARK SMILES IDX 85 86 78 87 79 88 83 89 86 90 80 91 81 92 84 93 82 94 61 95
REMARK SMILES IDX 62 96 70 97 63 98 64 99 68 100 71 101 65 102 66 103 69 104
REMARK SMILES IDX 67 105
REMARK H PARENT 25 6 32 39 91 58 59 69
REMARK Flexibility Score: inf
ROOT
ATOM      1  C   UNL A   1      41.905  27.756  34.495  1.00  0.00     0.021 C 
ENDROOT
BRANCH   1   2
ATOM      2  C   UNL A   1      40.775  28.155  33.544  1.00  0.00     0.116 C 
BRANCH   2   3
ATOM      3  N   UNL A   1      40.043  29.300  34.047  1.00  0.00    -0.356 N 
ATOM      4  C   UNL A   1      39.747  30.476  33.421  1.00  0.00     0.224 C 
ATOM      5  O   UNL A   1      39.186  31.362  34.069  1.00  0.00    -0.275 OA
ATOM      6  H   UNL A   1      39.713  29.218  34.971  1.00  0.00     0.163 HD
BRANCH   4   7
ATOM      7  C   UNL A   1      40.054  30.657  31.944  1.00  0.00     0.135 C 
BRANCH   7   8
ATOM      8  C   UNL A   1      38.834  30.723  31.057  1.00  0.00    -0.039 A 
ATOM      9  C   UNL A   1      36.601  30.722  29.336  1.00  0.00     0.000 A 
ATOM     10  C   UNL A   1      37.723  31.517  29.057  1.00  0.00     0.010 A 
ATOM     11  C   UNL A   1      36.580  29.982  30.521  1.00  0.00     0.010 A 
ATOM     12  C   UNL A   1      38.835  31.508  29.900  1.00  0.00     0.005 A 
ATOM     13  C   UNL A   1      37.680  29.996  31.380  1.00  0.00     0.005 A 
BRANCH   9  14
ATOM     14  C   UNL A   1      35.461  30.671  28.417  1.00  0.00     0.075 A 
ATOM     15  N   UNL A   1      34.397  31.565  28.396  1.00  0.00    -0.233 N 
ATOM     16  N   UNL A   1      33.382  31.136  27.607  1.00  0.00    -0.163 NA
ATOM     17  C   UNL A   1      33.862  30.043  26.986  1.00  0.00     0.167 A 
ATOM     18  C   UNL A   1      35.150  29.713  27.472  1.00  0.00     0.064 A 
BRANCH  15  19
ATOM     19  C   UNL A   1      34.287  32.786  29.105  1.00  0.00     0.065 A 
ATOM     20  C   UNL A   1      33.729  35.100  30.540  1.00  0.00     0.067 A 
ATOM     21  C   UNL A   1      34.262  33.985  31.197  1.00  0.00     0.022 A 
ATOM     22  C   UNL A   1      33.522  35.083  29.159  1.00  0.00     0.022 A 
ATOM     23  C   UNL A   1      34.528  32.819  30.484  1.00  0.00     0.030 A 
ATOM     24  C   UNL A   1      33.828  33.926  28.434  1.00  0.00     0.030 A 
BRANCH  20  25
ATOM     25  S   UNL A   1      33.280  36.481  31.562  1.00  0.00     0.175 S 
ATOM     26  C   UNL A   1      31.846  36.022  32.491  1.00  0.00     0.163 C 
ATOM     27  O   UNL A   1      32.901  37.546  30.652  1.00  0.00    -0.224 OA
ATOM     28  O   UNL A   1      34.370  36.654  32.503  1.00  0.00    -0.224 OA
ENDBRANCH  20  25
ENDBRANCH  15  19
BRANCH  17  29
ATOM     29  C   UNL A   1      33.089  29.297  25.933  1.00  0.00     0.435 C 
ATOM     30  F   UNL A   1      33.347  29.734  24.674  1.00  0.00    -0.164 F 
ATOM     31  F   UNL A   1      33.366  27.964  25.951  1.00  0.00    -0.164 F 
ATOM     32  F   UNL A   1      31.744  29.409  26.118  1.00  0.00    -0.164 F 
ENDBRANCH  17  29
ENDBRANCH   9  14
ENDBRANCH   7   8
ENDBRANCH   4   7
ENDBRANCH   2   3
ENDBRANCH   1   2
BRANCH   1  33
ATOM     33  C   UNL A   1      42.154  26.244  34.572  1.00  0.00     0.002 C 
BRANCH  33  34
ATOM     34  C   UNL A   1      41.187  25.457  35.471  1.00  0.00     0.002 C 
BRANCH  34  35
ATOM     35  C   UNL A   1      41.757  24.977  36.812  1.00  0.00     0.021 C 
BRANCH  35  36
ATOM     36  C   UNL A   1      42.976  25.764  37.276  1.00  0.00     0.116 C 
BRANCH  36  37
ATOM     37  N   UNL A   1      44.029  24.893  37.787  1.00  0.00    -0.352 N 
ATOM     38  C   UNL A   1      44.877  24.063  37.085  1.00  0.00     0.251 C 
ATOM     39  H   UNL A   1      44.150  24.899  38.764  1.00  0.00     0.163 HD
ATOM     40  O   UNL A   1      45.436  23.131  37.639  1.00  0.00    -0.269 OA
BRANCH  38  41
ATOM     41  C   UNL A   1      45.093  24.306  35.646  1.00  0.00     0.039 A 
ATOM     42  C   UNL A   1      44.707  23.345  34.707  1.00  0.00     0.014 A 
ATOM     43  C   UNL A   1      45.698  25.495  35.239  1.00  0.00     0.014 A 
ATOM     44  C   UNL A   1      44.861  23.623  33.352  1.00  0.00     0.010 A 
ATOM     45  C   UNL A   1      45.749  25.817  33.902  1.00  0.00     0.010 A 
ATOM     46  C   UNL A   1      45.363  24.873  32.954  1.00  0.00    -0.014 A 
BRANCH  46  47
ATOM     47  C   UNL A   1      45.339  25.253  31.543  1.00  0.00     0.031 A 
ATOM     48  C   UNL A   1      46.421  26.200  31.139  1.00  0.00     0.074 A 
ATOM     49  C   UNL A   1      44.567  24.631  30.626  1.00  0.00     0.049 A 
ATOM     50  N   UNL A   1      46.295  27.376  30.619  1.00  0.00    -0.248 NA
ATOM     51  C   UNL A   1      47.815  25.840  31.452  1.00  0.00     0.031 C 
ATOM     52  C   UNL A   1      43.693  23.471  30.816  1.00  0.00     0.029 A 
ATOM     53  N   UNL A   1      44.496  24.839  29.282  1.00  0.00    -0.354 N 
ATOM     54  C   UNL A   1      47.588  27.843  30.382  1.00  0.00     0.074 A 
ATOM     55  C   UNL A   1      48.475  26.928  31.050  1.00  0.00     0.031 C 
ATOM     56  C   UNL A   1      43.381  22.941  29.613  1.00  0.00     0.029 A 
ATOM     57  C   UNL A   1      43.905  23.800  28.568  1.00  0.00     0.049 A 
ATOM     58  H   UNL A   1      44.835  25.656  28.851  1.00  0.00     0.167 HD
ATOM     59  C   UNL A   1      47.824  28.828  29.470  1.00  0.00     0.037 A 
ATOM     60  C   UNL A   1      43.891  23.647  27.218  1.00  0.00     0.037 A 
ATOM     61  C   UNL A   1      46.613  29.547  29.165  1.00  0.00     0.049 A 
ATOM     62  C   UNL A   1      44.207  24.973  26.628  1.00  0.00     0.074 A 
ATOM     63  C   UNL A   1      45.708  30.275  29.914  1.00  0.00     0.029 A 
ATOM     64  N   UNL A   1      45.971  29.266  27.985  1.00  0.00    -0.354 N 
ATOM     65  N   UNL A   1      43.403  25.999  26.665  1.00  0.00    -0.248 NA
ATOM     66  C   UNL A   1      45.608  25.284  26.383  1.00  0.00     0.031 C 
ATOM     67  C   UNL A   1      44.432  29.943  29.370  1.00  0.00     0.029 A 
ATOM     68  C   UNL A   1      44.642  29.103  28.278  1.00  0.00     0.049 A 
ATOM     69  H   UNL A   1      46.387  29.194  27.095  1.00  0.00     0.167 HD
ATOM     70  C   UNL A   1      44.234  27.081  26.902  1.00  0.00     0.074 A 
ATOM     71  C   UNL A   1      45.584  26.598  26.626  1.00  0.00     0.031 C 
ATOM     72  C   UNL A   1      43.784  28.178  27.581  1.00  0.00     0.037 A 
BRANCH  59  73
ATOM     73  C   UNL A   1      49.045  28.913  28.579  1.00  0.00     0.064 A 
ATOM     74  C   UNL A   1      49.732  30.142  28.478  1.00  0.00     0.173 A 
ATOM     75  C   UNL A   1      49.378  27.955  27.598  1.00  0.00     0.173 A 
ATOM     76  F   UNL A   1      49.501  31.131  29.355  1.00  0.00    -0.203 F 
ATOM     77  C   UNL A   1      50.596  30.425  27.416  1.00  0.00     0.198 A 
ATOM     78  C   UNL A   1      50.283  28.223  26.570  1.00  0.00     0.198 A 
ATOM     79  F   UNL A   1      48.771  26.766  27.520  1.00  0.00    -0.203 F 
ATOM     80  F   UNL A   1      51.110  31.655  27.287  1.00  0.00    -0.200 F 
ATOM     81  C   UNL A   1      50.861  29.468  26.456  1.00  0.00     0.200 A 
ATOM     82  F   UNL A   1      50.519  27.284  25.643  1.00  0.00    -0.200 F 
ATOM     83  F   UNL A   1      51.634  29.756  25.401  1.00  0.00    -0.200 F 
ENDBRANCH  59  73
BRANCH  60  84
ATOM     84  C   UNL A   1      43.855  22.414  26.390  1.00  0.00     0.064 A 
ATOM     85  C   UNL A   1      45.044  21.862  25.880  1.00  0.00     0.173 A 
ATOM     86  C   UNL A   1      42.708  21.601  26.299  1.00  0.00     0.173 A 
ATOM     87  F   UNL A   1      46.191  22.557  25.933  1.00  0.00    -0.203 F 
ATOM     88  C   UNL A   1      45.096  20.562  25.366  1.00  0.00     0.198 A 
ATOM     89  C   UNL A   1      42.758  20.311  25.763  1.00  0.00     0.198 A 
ATOM     90  F   UNL A   1      41.531  22.011  26.791  1.00  0.00    -0.203 F 
ATOM     91  F   UNL A   1      46.265  20.052  24.952  1.00  0.00    -0.200 F 
ATOM     92  C   UNL A   1      43.955  19.782  25.322  1.00  0.00     0.200 A 
ATOM     93  F   UNL A   1      41.647  19.566  25.702  1.00  0.00    -0.200 F 
ATOM     94  F   UNL A   1      44.012  18.520  24.876  1.00  0.00    -0.200 F 
ENDBRANCH  60  84
BRANCH  72  95
ATOM     95  C   UNL A   1      42.307  28.310  27.825  1.00  0.00     0.064 A 
ATOM     96  C   UNL A   1      41.393  28.847  26.901  1.00  0.00     0.173 A 
ATOM     97  C   UNL A   1      41.779  27.725  28.985  1.00  0.00     0.173 A 
ATOM     98  F   UNL A   1      41.801  29.330  25.722  1.00  0.00    -0.203 F 
ATOM     99  C   UNL A   1      40.022  28.837  27.153  1.00  0.00     0.198 A 
ATOM    100  C   UNL A   1      40.408  27.679  29.214  1.00  0.00     0.198 A 
ATOM    101  F   UNL A   1      42.598  27.149  29.880  1.00  0.00    -0.203 F 
ATOM    102  F   UNL A   1      39.171  29.371  26.263  1.00  0.00    -0.200 F 
ATOM    103  C   UNL A   1      39.530  28.245  28.304  1.00  0.00     0.200 A 
ATOM    104  F   UNL A   1      39.936  27.059  30.303  1.00  0.00    -0.200 F 
ATOM    105  F   UNL A   1      38.209  28.197  28.526  1.00  0.00    -0.200 F 
ENDBRANCH  72  95
ENDBRANCH  46  47
ENDBRANCH  38  41
ENDBRANCH  36  37
ENDBRANCH  35  36
ENDBRANCH  34  35
ENDBRANCH  33  34
ENDBRANCH   1  33
TORSDOF 18
ENDMDL
MODEL 3
REMARK VINA RESULT:     -12.8      2.514      3.453
REMARK SMILES CS(=O)(=O)c1ccc(-n2nc(C(F)(F)F)cc2-c2ccc(CC(=O)NCCCCCCNC(=O)c3ccc(-c4c5nc(c(-c6c(F)c(F)c(F)c(F)c6F)c6ccc([nH]6)c(-c6c(F)c(F)c(F)c(F)c6F)c6nc(c(-c7c(F)c(F)c(F)c(F)c7F)c7ccc4[nH]7)C=C6)C=C5)cc3)cc2)cc1
REMARK SMILES IDX 27 1 26 2 25 3 23 4 24 5 22 7 21 8 18 9 19 10 99 11 20 12
REMARK SMILES IDX 98 13 17 14 9 15 10 16 11 17 16 18 8 19 5 20 6 21 101 22
REMARK SMILES IDX 7 23 100 24 2 25 1 26 3 27 4 28 12 29 13 30 14 31 15 32
REMARK SMILES IDX 28 33 29 34 30 35 31 36 32 37 33 38 34 40 35 41 36 42 97 43
REMARK SMILES IDX 37 44 96 45 38 46 39 47 40 48 90 49 41 50 95 51 89 52 91 53
REMARK SMILES IDX 42 54 94 55 88 56 87 57 43 59 75 60 55 61 74 62 56 63 59 64
REMARK SMILES IDX 73 65 92 66 57 67 58 68 72 70 93 71 60 72 44 73 45 74 53 75
REMARK SMILES IDX 46 76 47 77 51 78 54 79 48 80 49 81 52 82 50 83 76 84 77 85
REMARK SMILES IDX 85 86 78 87 79 88 83 89 86 90 80 91 81 92 84 93 82 94 61 95
REMARK SMILES IDX 62 96 70 97 63 98 64 99 68 100 71 101 65 102 66 103 69 104
REMARK SMILES IDX 67 105
REMARK H PARENT 25 6 32 39 91 58 59 69
REMARK Flexibility Score: inf
ROOT
ATOM      1  C   UNL A   1      33.989  21.069  26.259  1.00  0.00     0.021 C 
ENDROOT
BRANCH   1   2
ATOM      2  C   UNL A   1      33.721  22.385  26.990  1.00  0.00     0.116 C 
BRANCH   2   3
ATOM      3  N   UNL A   1      32.384  22.414  27.549  1.00  0.00    -0.356 N 
ATOM      4  C   UNL A   1      31.200  22.708  26.937  1.00  0.00     0.224 C 
ATOM      5  O   UNL A   1      30.179  22.762  27.626  1.00  0.00    -0.275 OA
ATOM      6  H   UNL A   1      32.321  22.192  28.506  1.00  0.00     0.163 HD
BRANCH   4   7
ATOM      7  C   UNL A   1      31.144  22.903  25.431  1.00  0.00     0.135 C 
BRANCH   7   8
ATOM      8  C   UNL A   1      30.962  24.336  24.994  1.00  0.00    -0.039 A 
ATOM      9  C   UNL A   1      30.475  26.991  24.178  1.00  0.00     0.000 A 
ATOM     10  C   UNL A   1      30.845  26.009  23.246  1.00  0.00     0.010 A 
ATOM     11  C   UNL A   1      30.420  26.647  25.531  1.00  0.00     0.010 A 
ATOM     12  C   UNL A   1      31.072  24.691  23.646  1.00  0.00     0.005 A 
ATOM     13  C   UNL A   1      30.677  25.335  25.936  1.00  0.00     0.005 A 
BRANCH   9  14
ATOM     14  C   UNL A   1      30.164  28.358  23.754  1.00  0.00     0.075 A 
ATOM     15  N   UNL A   1      30.700  29.518  24.302  1.00  0.00    -0.233 N 
ATOM     16  N   UNL A   1      30.054  30.632  23.876  1.00  0.00    -0.163 NA
ATOM     17  C   UNL A   1      29.209  30.201  22.922  1.00  0.00     0.167 A 
ATOM     18  C   UNL A   1      29.238  28.789  22.824  1.00  0.00     0.064 A 
BRANCH  15  19
ATOM     19  C   UNL A   1      31.770  29.618  25.224  1.00  0.00     0.065 A 
ATOM     20  C   UNL A   1      33.982  30.086  26.839  1.00  0.00     0.067 A 
ATOM     21  C   UNL A   1      32.739  30.626  27.188  1.00  0.00     0.022 A 
ATOM     22  C   UNL A   1      34.115  29.268  25.714  1.00  0.00     0.022 A 
ATOM     23  C   UNL A   1      31.632  30.407  26.373  1.00  0.00     0.030 A 
ATOM     24  C   UNL A   1      32.994  29.012  24.917  1.00  0.00     0.030 A 
BRANCH  20  25
ATOM     25  S   UNL A   1      35.362  30.552  27.856  1.00  0.00     0.175 S 
ATOM     26  C   UNL A   1      36.790  29.704  27.249  1.00  0.00     0.163 C 
ATOM     27  O   UNL A   1      35.069  30.044  29.184  1.00  0.00    -0.224 OA
ATOM     28  O   UNL A   1      35.568  31.969  27.627  1.00  0.00    -0.224 OA
ENDBRANCH  20  25
ENDBRANCH  15  19
BRANCH  17  29
ATOM     29  C   UNL A   1      28.356  31.133  22.106  1.00  0.00     0.435 C 
ATOM     30  F   UNL A   1      27.875  30.560  20.973  1.00  0.00    -0.164 F 
ATOM     31  F   UNL A   1      27.278  31.580  22.808  1.00  0.00    -0.164 F 
ATOM     32  F   UNL A   1      29.045  32.243  21.719  1.00  0.00    -0.164 F 
ENDBRANCH  17  29
ENDBRANCH   9  14
ENDBRANCH   7   8
ENDBRANCH   4   7
ENDBRANCH   2   3
ENDBRANCH   1   2
BRANCH   1  33
ATOM     33  C   UNL A   1      34.503  21.243  24.823  1.00  0.00     0.002 C 
BRANCH  33  34
ATOM     34  C   UNL A   1      34.944  22.665  24.445  1.00  0.00     0.002 C 
BRANCH  34  35
ATOM     35  C   UNL A   1      36.459  22.905  24.388  1.00  0.00     0.021 C 
BRANCH  35  36
ATOM     36  C   UNL A   1      37.092  23.153  25.751  1.00  0.00     0.116 C 
BRANCH  36  37
ATOM     37  N   UNL A   1      38.044  22.109  26.112  1.00  0.00    -0.352 N 
ATOM     38  C   UNL A   1      39.372  22.237  26.459  1.00  0.00     0.251 C 
ATOM     39  H   UNL A   1      37.691  21.189  26.105  1.00  0.00     0.163 HD
ATOM     40  O   UNL A   1      40.134  21.287  26.369  1.00  0.00    -0.269 OA
BRANCH  38  41
ATOM     41  C   UNL A   1      39.869  23.542  26.933  1.00  0.00     0.039 A 
ATOM     42  C   UNL A   1      39.247  24.722  26.516  1.00  0.00     0.014 A 
ATOM     43  C   UNL A   1      40.971  23.583  27.786  1.00  0.00     0.014 A 
ATOM     44  C   UNL A   1      39.691  25.938  27.027  1.00  0.00     0.010 A 
ATOM     45  C   UNL A   1      41.340  24.771  28.376  1.00  0.00     0.010 A 
ATOM     46  C   UNL A   1      40.725  25.954  27.976  1.00  0.00    -0.014 A 
BRANCH  46  47
ATOM     47  C   UNL A   1      41.062  27.198  28.668  1.00  0.00     0.031 A 
ATOM     48  C   UNL A   1      42.248  27.914  28.110  1.00  0.00     0.074 A 
ATOM     49  C   UNL A   1      40.247  27.780  29.573  1.00  0.00     0.049 A 
ATOM     50  N   UNL A   1      43.343  28.232  28.719  1.00  0.00    -0.248 NA
ATOM     51  C   UNL A   1      42.263  28.221  26.669  1.00  0.00     0.031 C 
ATOM     52  C   UNL A   1      38.905  27.360  29.984  1.00  0.00     0.029 A 
ATOM     53  N   UNL A   1      40.405  28.958  30.238  1.00  0.00    -0.354 N 
ATOM     54  C   UNL A   1      44.122  28.924  27.792  1.00  0.00     0.074 A 
ATOM     55  C   UNL A   1      43.478  28.753  26.517  1.00  0.00     0.031 C 
ATOM     56  C   UNL A   1      38.290  28.379  30.624  1.00  0.00     0.029 A 
ATOM     57  C   UNL A   1      39.238  29.465  30.800  1.00  0.00     0.049 A 
ATOM     58  H   UNL A   1      41.275  29.413  30.314  1.00  0.00     0.167 HD
ATOM     59  C   UNL A   1      45.118  29.762  28.196  1.00  0.00     0.037 A 
ATOM     60  C   UNL A   1      39.062  30.704  31.329  1.00  0.00     0.037 A 
ATOM     61  C   UNL A   1      45.496  29.489  29.560  1.00  0.00     0.049 A 
ATOM     62  C   UNL A   1      40.414  31.249  31.613  1.00  0.00     0.074 A 
ATOM     63  C   UNL A   1      45.981  28.378  30.224  1.00  0.00     0.029 A 
ATOM     64  N   UNL A   1      45.039  30.333  30.541  1.00  0.00    -0.354 N 
ATOM     65  N   UNL A   1      41.199  30.801  32.553  1.00  0.00    -0.248 NA
ATOM     66  C   UNL A   1      41.070  32.006  30.558  1.00  0.00     0.031 C 
ATOM     67  C   UNL A   1      45.322  28.392  31.489  1.00  0.00     0.029 A 
ATOM     68  C   UNL A   1      44.546  29.548  31.550  1.00  0.00     0.049 A 
ATOM     69  H   UNL A   1      45.061  31.318  30.524  1.00  0.00     0.167 HD
ATOM     70  C   UNL A   1      42.463  30.820  31.987  1.00  0.00     0.074 A 
ATOM     71  C   UNL A   1      42.338  31.657  30.795  1.00  0.00     0.031 C 
ATOM     72  C   UNL A   1      43.419  29.922  32.368  1.00  0.00     0.037 A 
BRANCH  59  73
ATOM     73  C   UNL A   1      45.498  31.056  27.509  1.00  0.00     0.064 A 
ATOM     74  C   UNL A   1      46.845  31.263  27.139  1.00  0.00     0.173 A 
ATOM     75  C   UNL A   1      44.684  32.207  27.482  1.00  0.00     0.173 A 
ATOM     76  F   UNL A   1      47.717  30.243  27.127  1.00  0.00    -0.203 F 
ATOM     77  C   UNL A   1      47.355  32.537  26.875  1.00  0.00     0.198 A 
ATOM     78  C   UNL A   1      45.185  33.470  27.164  1.00  0.00     0.198 A 
ATOM     79  F   UNL A   1      43.402  32.189  27.863  1.00  0.00    -0.203 F 
ATOM     80  F   UNL A   1      48.669  32.698  26.671  1.00  0.00    -0.200 F 
ATOM     81  C   UNL A   1      46.526  33.641  26.899  1.00  0.00     0.200 A 
ATOM     82  F   UNL A   1      44.366  34.531  27.202  1.00  0.00    -0.200 F 
ATOM     83  F   UNL A   1      47.023  34.871  26.713  1.00  0.00    -0.200 F 
ENDBRANCH  59  73
BRANCH  60  84
ATOM     84  C   UNL A   1      37.846  31.555  31.404  1.00  0.00     0.064 A 
ATOM     85  C   UNL A   1      37.132  31.675  32.610  1.00  0.00     0.173 A 
ATOM     86  C   UNL A   1      37.506  32.473  30.391  1.00  0.00     0.173 A 
ATOM     87  F   UNL A   1      37.394  30.852  33.637  1.00  0.00    -0.203 F 
ATOM     88  C   UNL A   1      36.182  32.681  32.811  1.00  0.00     0.198 A 
ATOM     89  C   UNL A   1      36.539  33.463  30.586  1.00  0.00     0.198 A 
ATOM     90  F   UNL A   1      38.152  32.476  29.217  1.00  0.00    -0.203 F 
ATOM     91  F   UNL A   1      35.573  32.799  33.999  1.00  0.00    -0.200 F 
ATOM     92  C   UNL A   1      35.897  33.584  31.803  1.00  0.00     0.200 A 
ATOM     93  F   UNL A   1      36.250  34.323  29.601  1.00  0.00    -0.200 F 
ATOM     94  F   UNL A   1      35.023  34.579  32.009  1.00  0.00    -0.200 F 
ENDBRANCH  60  84
BRANCH  72  95
ATOM     95  C   UNL A   1      43.172  29.096  33.598  1.00  0.00     0.064 A 
ATOM     96  C   UNL A   1      42.414  27.911  33.621  1.00  0.00     0.173 A 
ATOM     97  C   UNL A   1      43.863  29.439  34.769  1.00  0.00     0.173 A 
ATOM     98  F   UNL A   1      41.808  27.453  32.519  1.00  0.00    -0.203 F 
ATOM     99  C   UNL A   1      42.319  27.138  34.777  1.00  0.00     0.198 A 
ATOM    100  C   UNL A   1      43.800  28.643  35.908  1.00  0.00     0.198 A 
ATOM    101  F   UNL A   1      44.645  30.530  34.792  1.00  0.00    -0.203 F 
ATOM    102  F   UNL A   1      41.575  26.020  34.779  1.00  0.00    -0.200 F 
ATOM    103  C   UNL A   1      43.019  27.499  35.916  1.00  0.00     0.200 A 
ATOM    104  F   UNL A   1      44.520  28.970  36.989  1.00  0.00    -0.200 F 
ATOM    105  F   UNL A   1      42.963  26.732  37.014  1.00  0.00    -0.200 F 
ENDBRANCH  72  95
ENDBRANCH  46  47
ENDBRANCH  38  41
ENDBRANCH  36  37
ENDBRANCH  35  36
ENDBRANCH  34  35
ENDBRANCH  33  34
ENDBRANCH   1  33
TORSDOF 18
ENDMDL
