MODEL 1
REMARK VINA RESULT:     -11.9      0.000      0.000
REMARK SMILES CCOc1ccc(-c2nc(C(=O)NCCCCCCNC(=O)c3ccc(-c4c5nc(c(-c6c(F)c(F)c(F)c(F)c6F)c6ccc([nH]6)c(-c6c(F)c(F)c(F)c(F)c6F)c6nc(c(-c7c(F)c(F)c(F)c(F)c7F)c7ccc4[nH]7)C=C6)C=C5)cc3)cc(=O)[nH]2)cc1
REMARK SMILES IDX 16 1 15 2 14 3 13 4 11 5 12 6 10 8 8 9 9 10 89 11 87 12
REMARK SMILES IDX 86 14 88 15 7 16 4 17 5 18 91 19 6 20 90 21 3 22 2 23 1 24
REMARK SMILES IDX 17 25 18 26 19 27 20 28 21 29 22 31 23 32 24 33 85 34 25 35
REMARK SMILES IDX 84 36 26 37 27 38 28 39 78 40 29 41 83 42 77 43 79 44 30 45
REMARK SMILES IDX 82 46 76 47 75 48 31 50 63 51 43 52 62 53 44 54 47 55 61 56
REMARK SMILES IDX 80 57 45 58 46 59 60 61 81 62 48 63 32 64 33 65 41 66 34 67
REMARK SMILES IDX 35 68 39 69 42 70 36 71 37 72 40 73 38 74 64 75 65 76 73 77
REMARK SMILES IDX 66 78 67 79 71 80 74 81 68 82 69 83 72 84 70 85 49 86 50 87
REMARK SMILES IDX 58 88 51 89 52 90 56 91 59 92 53 93 54 94 57 95 55 96
REMARK H PARENT 13 7 89 13 20 30 79 49 47 60
REMARK Flexibility Score: inf
ROOT
ATOM      1  C   UNL A   1      34.111  26.102  24.839  1.00  0.00     0.002 C 
ENDROOT
BRANCH   1   2
ATOM      2  C   UNL A   1      34.610  24.657  24.883  1.00  0.00     0.021 C 
BRANCH   2   3
ATOM      3  C   UNL A   1      34.567  23.888  23.569  1.00  0.00     0.116 C 
BRANCH   3   4
ATOM      4  N   UNL A   1      34.128  22.516  23.717  1.00  0.00    -0.351 N 
ATOM      5  C   UNL A   1      32.989  21.965  24.229  1.00  0.00     0.270 C 
ATOM      6  O   UNL A   1      32.922  20.732  24.226  1.00  0.00    -0.268 OA
ATOM      7  H   UNL A   1      34.775  21.853  23.384  1.00  0.00     0.163 HD
BRANCH   5   8
ATOM      8  C   UNL A   1      31.864  22.792  24.822  1.00  0.00     0.136 A 
ATOM      9  C   UNL A   1      30.582  24.682  24.607  1.00  0.00     0.141 A 
ATOM     10  N   UNL A   1      31.436  23.874  24.071  1.00  0.00    -0.225 NA
ATOM     11  N   UNL A   1      29.974  24.432  25.807  1.00  0.00    -0.306 N 
ATOM     12  C   UNL A   1      30.308  23.359  26.569  1.00  0.00     0.251 A 
ATOM     13  H   UNL A   1      29.275  25.047  26.128  1.00  0.00     0.171 HD
ATOM     14  C   UNL A   1      31.438  22.570  26.073  1.00  0.00     0.105 A 
ATOM     15  O   UNL A   1      29.723  23.057  27.597  1.00  0.00    -0.269 OA
BRANCH   9  16
ATOM     16  C   UNL A   1      30.218  25.959  23.955  1.00  0.00     0.018 A 
ATOM     17  C   UNL A   1      29.493  28.291  22.620  1.00  0.00     0.119 A 
ATOM     18  C   UNL A   1      30.737  27.719  22.370  1.00  0.00     0.047 A 
ATOM     19  C   UNL A   1      28.591  27.677  23.491  1.00  0.00     0.047 A 
ATOM     20  C   UNL A   1      31.105  26.552  23.041  1.00  0.00     0.016 A 
ATOM     21  C   UNL A   1      28.955  26.512  24.166  1.00  0.00     0.016 A 
BRANCH  17  22
ATOM     22  O   UNL A   1      29.130  29.390  21.895  1.00  0.00    -0.494 OA
BRANCH  22  23
ATOM     23  C   UNL A   1      27.806  29.842  22.203  1.00  0.00     0.226 C 
ATOM     24  C   UNL A   1      27.833  31.164  22.955  1.00  0.00     0.049 C 
ENDBRANCH  22  23
ENDBRANCH  17  22
ENDBRANCH   9  16
ENDBRANCH   5   8
ENDBRANCH   3   4
ENDBRANCH   2   3
ENDBRANCH   1   2
BRANCH   1  25
ATOM     25  C   UNL A   1      33.500  26.645  26.134  1.00  0.00     0.002 C 
BRANCH  25  26
ATOM     26  C   UNL A   1      32.749  27.973  26.019  1.00  0.00     0.021 C 
BRANCH  26  27
ATOM     27  C   UNL A   1      33.572  29.147  25.503  1.00  0.00     0.116 C 
BRANCH  27  28
ATOM     28  N   UNL A   1      33.081  30.424  25.987  1.00  0.00    -0.352 N 
ATOM     29  C   UNL A   1      33.513  31.182  27.045  1.00  0.00     0.251 C 
ATOM     30  H   UNL A   1      32.327  30.802  25.479  1.00  0.00     0.163 HD
ATOM     31  O   UNL A   1      32.853  32.151  27.412  1.00  0.00    -0.269 OA
BRANCH  29  32
ATOM     32  C   UNL A   1      34.762  30.833  27.757  1.00  0.00     0.039 A 
ATOM     33  C   UNL A   1      34.801  29.651  28.499  1.00  0.00     0.014 A 
ATOM     34  C   UNL A   1      35.875  31.679  27.733  1.00  0.00     0.014 A 
ATOM     35  C   UNL A   1      35.961  29.303  29.191  1.00  0.00     0.010 A 
ATOM     36  C   UNL A   1      37.061  31.288  28.351  1.00  0.00     0.010 A 
ATOM     37  C   UNL A   1      37.110  30.109  29.107  1.00  0.00    -0.014 A 
BRANCH  37  38
ATOM     38  C   UNL A   1      38.350  29.746  29.838  1.00  0.00     0.031 A 
ATOM     39  C   UNL A   1      38.614  30.310  31.208  1.00  0.00     0.074 A 
ATOM     40  C   UNL A   1      39.251  28.929  29.259  1.00  0.00     0.049 A 
ATOM     41  N   UNL A   1      39.639  30.120  32.001  1.00  0.00    -0.248 NA
ATOM     42  C   UNL A   1      37.604  31.233  31.749  1.00  0.00     0.031 C 
ATOM     43  C   UNL A   1      39.130  28.351  27.920  1.00  0.00     0.029 A 
ATOM     44  N   UNL A   1      40.447  28.441  29.725  1.00  0.00    -0.354 N 
ATOM     45  C   UNL A   1      39.398  30.901  33.124  1.00  0.00     0.074 A 
ATOM     46  C   UNL A   1      38.169  31.622  32.881  1.00  0.00     0.031 C 
ATOM     47  C   UNL A   1      40.186  27.556  27.688  1.00  0.00     0.029 A 
ATOM     48  C   UNL A   1      41.078  27.600  28.843  1.00  0.00     0.049 A 
ATOM     49  H   UNL A   1      40.816  28.673  30.607  1.00  0.00     0.167 HD
ATOM     50  C   UNL A   1      40.120  30.988  34.268  1.00  0.00     0.037 A 
ATOM     51  C   UNL A   1      42.244  26.937  28.956  1.00  0.00     0.037 A 
ATOM     52  C   UNL A   1      41.337  30.258  34.509  1.00  0.00     0.049 A 
ATOM     53  C   UNL A   1      43.041  27.069  30.226  1.00  0.00     0.074 A 
ATOM     54  C   UNL A   1      42.124  30.240  35.648  1.00  0.00     0.029 A 
ATOM     55  N   UNL A   1      41.949  29.418  33.589  1.00  0.00    -0.354 N 
ATOM     56  N   UNL A   1      42.770  27.757  31.309  1.00  0.00    -0.248 NA
ATOM     57  C   UNL A   1      44.304  26.323  30.291  1.00  0.00     0.031 C 
ATOM     58  C   UNL A   1      43.241  29.436  35.396  1.00  0.00     0.029 A 
ATOM     59  C   UNL A   1      43.117  28.897  34.125  1.00  0.00     0.049 A 
ATOM     60  H   UNL A   1      41.606  29.221  32.688  1.00  0.00     0.167 HD
ATOM     61  C   UNL A   1      43.805  27.495  32.197  1.00  0.00     0.074 A 
ATOM     62  C   UNL A   1      44.702  26.573  31.530  1.00  0.00     0.031 C 
ATOM     63  C   UNL A   1      43.994  27.972  33.453  1.00  0.00     0.037 A 
BRANCH  50  64
ATOM     64  C   UNL A   1      39.609  31.907  35.341  1.00  0.00     0.064 A 
ATOM     65  C   UNL A   1      38.694  31.472  36.315  1.00  0.00     0.173 A 
ATOM     66  C   UNL A   1      40.050  33.238  35.412  1.00  0.00     0.173 A 
ATOM     67  F   UNL A   1      38.231  30.212  36.290  1.00  0.00    -0.203 F 
ATOM     68  C   UNL A   1      38.211  32.342  37.288  1.00  0.00     0.198 A 
ATOM     69  C   UNL A   1      39.593  34.095  36.410  1.00  0.00     0.198 A 
ATOM     70  F   UNL A   1      40.929  33.708  34.513  1.00  0.00    -0.203 F 
ATOM     71  F   UNL A   1      37.289  31.919  38.165  1.00  0.00    -0.200 F 
ATOM     72  C   UNL A   1      38.665  33.651  37.339  1.00  0.00     0.200 A 
ATOM     73  F   UNL A   1      40.046  35.356  36.467  1.00  0.00    -0.200 F 
ATOM     74  F   UNL A   1      38.202  34.487  38.278  1.00  0.00    -0.200 F 
ENDBRANCH  50  64
BRANCH  51  75
ATOM     75  C   UNL A   1      42.713  26.056  27.852  1.00  0.00     0.064 A 
ATOM     76  C   UNL A   1      43.595  26.538  26.873  1.00  0.00     0.173 A 
ATOM     77  C   UNL A   1      42.284  24.725  27.743  1.00  0.00     0.173 A 
ATOM     78  F   UNL A   1      44.019  27.809  26.923  1.00  0.00    -0.203 F 
ATOM     79  C   UNL A   1      44.008  25.733  25.815  1.00  0.00     0.198 A 
ATOM     80  C   UNL A   1      42.723  23.911  26.702  1.00  0.00     0.198 A 
ATOM     81  F   UNL A   1      41.446  24.213  28.656  1.00  0.00    -0.203 F 
ATOM     82  F   UNL A   1      44.806  26.236  24.864  1.00  0.00    -0.200 F 
ATOM     83  C   UNL A   1      43.575  24.417  25.732  1.00  0.00     0.200 A 
ATOM     84  F   UNL A   1      42.317  22.636  26.635  1.00  0.00    -0.200 F 
ATOM     85  F   UNL A   1      43.974  23.641  24.715  1.00  0.00    -0.200 F 
ENDBRANCH  51  75
BRANCH  63  86
ATOM     86  C   UNL A   1      45.191  27.464  34.208  1.00  0.00     0.064 A 
ATOM     87  C   UNL A   1      46.432  28.116  34.161  1.00  0.00     0.173 A 
ATOM     88  C   UNL A   1      45.085  26.314  35.007  1.00  0.00     0.173 A 
ATOM     89  F   UNL A   1      46.592  29.210  33.402  1.00  0.00    -0.203 F 
ATOM     90  C   UNL A   1      47.531  27.615  34.853  1.00  0.00     0.198 A 
ATOM     91  C   UNL A   1      46.175  25.839  35.730  1.00  0.00     0.198 A 
ATOM     92  F   UNL A   1      43.919  25.657  35.098  1.00  0.00    -0.203 F 
ATOM     93  F   UNL A   1      48.723  28.217  34.741  1.00  0.00    -0.200 F 
ATOM     94  C   UNL A   1      47.400  26.482  35.643  1.00  0.00     0.200 A 
ATOM     95  F   UNL A   1      46.041  24.754  36.506  1.00  0.00    -0.200 F 
ATOM     96  F   UNL A   1      48.459  26.003  36.312  1.00  0.00    -0.200 F 
ENDBRANCH  63  86
ENDBRANCH  37  38
ENDBRANCH  29  32
ENDBRANCH  27  28
ENDBRANCH  26  27
ENDBRANCH  25  26
ENDBRANCH   1  25
TORSDOF 16
ENDMDL
MODEL 2
REMARK VINA RESULT:     -11.6      0.579      7.344
REMARK SMILES CCOc1ccc(-c2nc(C(=O)NCCCCCCNC(=O)c3ccc(-c4c5nc(c(-c6c(F)c(F)c(F)c(F)c6F)c6ccc([nH]6)c(-c6c(F)c(F)c(F)c(F)c6F)c6nc(c(-c7c(F)c(F)c(F)c(F)c7F)c7ccc4[nH]7)C=C6)C=C5)cc3)cc(=O)[nH]2)cc1
REMARK SMILES IDX 16 1 15 2 14 3 13 4 11 5 12 6 10 8 8 9 9 10 89 11 87 12
REMARK SMILES IDX 86 14 88 15 7 16 4 17 5 18 91 19 6 20 90 21 3 22 2 23 1 24
REMARK SMILES IDX 17 25 18 26 19 27 20 28 21 29 22 31 23 32 24 33 85 34 25 35
REMARK SMILES IDX 84 36 26 37 27 38 28 39 78 40 29 41 83 42 77 43 79 44 30 45
REMARK SMILES IDX 82 46 76 47 75 48 31 50 63 51 43 52 62 53 44 54 47 55 61 56
REMARK SMILES IDX 80 57 45 58 46 59 60 61 81 62 48 63 32 64 33 65 41 66 34 67
REMARK SMILES IDX 35 68 39 69 42 70 36 71 37 72 40 73 38 74 64 75 65 76 73 77
REMARK SMILES IDX 66 78 67 79 71 80 74 81 68 82 69 83 72 84 70 85 49 86 50 87
REMARK SMILES IDX 58 88 51 89 52 90 56 91 59 92 53 93 54 94 57 95 55 96
REMARK H PARENT 13 7 89 13 20 30 79 49 47 60
REMARK Flexibility Score: inf
ROOT
ATOM      1  C   UNL A   1      34.179  26.186  24.983  1.00  0.00     0.002 C 
ENDROOT
BRANCH   1   2
ATOM      2  C   UNL A   1      34.692  24.746  25.039  1.00  0.00     0.021 C 
BRANCH   2   3
ATOM      3  C   UNL A   1      34.643  23.960  23.735  1.00  0.00     0.116 C 
BRANCH   3   4
ATOM      4  N   UNL A   1      34.227  22.584  23.904  1.00  0.00    -0.351 N 
ATOM      5  C   UNL A   1      33.082  22.023  24.392  1.00  0.00     0.270 C 
ATOM      6  O   UNL A   1      33.039  20.789  24.420  1.00  0.00    -0.268 OA
ATOM      7  H   UNL A   1      34.898  21.927  23.612  1.00  0.00     0.163 HD
BRANCH   5   8
ATOM      8  C   UNL A   1      31.921  22.842  24.924  1.00  0.00     0.136 A 
ATOM      9  C   UNL A   1      30.624  24.711  24.628  1.00  0.00     0.141 A 
ATOM     10  N   UNL A   1      31.512  23.907  24.141  1.00  0.00    -0.225 NA
ATOM     11  N   UNL A   1      29.967  24.467  25.803  1.00  0.00    -0.306 N 
ATOM     12  C   UNL A   1      30.281  23.408  26.594  1.00  0.00     0.251 A 
ATOM     13  H   UNL A   1      29.246  25.076  26.085  1.00  0.00     0.171 HD
ATOM     14  C   UNL A   1      31.443  22.630  26.158  1.00  0.00     0.105 A 
ATOM     15  O   UNL A   1      29.655  23.111  27.598  1.00  0.00    -0.269 OA
BRANCH   9  16
ATOM     16  C   UNL A   1      30.272  25.974  23.943  1.00  0.00     0.018 A 
ATOM     17  C   UNL A   1      29.565  28.278  22.552  1.00  0.00     0.119 A 
ATOM     18  C   UNL A   1      30.791  27.670  22.292  1.00  0.00     0.047 A 
ATOM     19  C   UNL A   1      28.672  27.712  23.462  1.00  0.00     0.047 A 
ATOM     20  C   UNL A   1      31.149  26.518  22.991  1.00  0.00     0.016 A 
ATOM     21  C   UNL A   1      29.026  26.561  24.166  1.00  0.00     0.016 A 
BRANCH  17  22
ATOM     22  O   UNL A   1      29.209  29.361  21.800  1.00  0.00    -0.494 OA
BRANCH  22  23
ATOM     23  C   UNL A   1      27.913  29.866  22.139  1.00  0.00     0.226 C 
ATOM     24  C   UNL A   1      28.011  31.105  23.016  1.00  0.00     0.049 C 
ENDBRANCH  22  23
ENDBRANCH  17  22
ENDBRANCH   9  16
ENDBRANCH   5   8
ENDBRANCH   3   4
ENDBRANCH   2   3
ENDBRANCH   1   2
BRANCH   1  25
ATOM     25  C   UNL A   1      33.396  26.673  26.206  1.00  0.00     0.002 C 
BRANCH  25  26
ATOM     26  C   UNL A   1      32.652  28.000  26.045  1.00  0.00     0.021 C 
BRANCH  26  27
ATOM     27  C   UNL A   1      33.481  29.152  25.493  1.00  0.00     0.116 C 
BRANCH  27  28
ATOM     28  N   UNL A   1      32.963  30.448  25.889  1.00  0.00    -0.352 N 
ATOM     29  C   UNL A   1      33.347  31.264  26.922  1.00  0.00     0.251 C 
ATOM     30  H   UNL A   1      32.228  30.793  25.332  1.00  0.00     0.163 HD
ATOM     31  O   UNL A   1      32.667  32.245  27.212  1.00  0.00    -0.269 OA
BRANCH  29  32
ATOM     32  C   UNL A   1      34.568  30.964  27.701  1.00  0.00     0.039 A 
ATOM     33  C   UNL A   1      34.663  29.730  28.348  1.00  0.00     0.014 A 
ATOM     34  C   UNL A   1      35.598  31.900  27.832  1.00  0.00     0.014 A 
ATOM     35  C   UNL A   1      35.798  29.424  29.099  1.00  0.00     0.010 A 
ATOM     36  C   UNL A   1      36.767  31.562  28.509  1.00  0.00     0.010 A 
ATOM     37  C   UNL A   1      36.870  30.330  29.171  1.00  0.00    -0.014 A 
BRANCH  37  38
ATOM     38  C   UNL A   1      38.083  30.013  29.966  1.00  0.00     0.031 A 
ATOM     39  C   UNL A   1      39.143  29.107  29.401  1.00  0.00     0.074 A 
ATOM     40  C   UNL A   1      38.220  30.520  31.206  1.00  0.00     0.049 A 
ATOM     41  N   UNL A   1      40.267  28.705  29.941  1.00  0.00    -0.248 NA
ATOM     42  C   UNL A   1      38.895  28.555  28.059  1.00  0.00     0.031 C 
ATOM     43  C   UNL A   1      37.244  31.376  31.881  1.00  0.00     0.029 A 
ATOM     44  N   UNL A   1      39.236  30.389  32.120  1.00  0.00    -0.354 N 
ATOM     45  C   UNL A   1      40.851  27.854  29.011  1.00  0.00     0.074 A 
ATOM     46  C   UNL A   1      39.927  27.740  27.905  1.00  0.00     0.031 C 
ATOM     47  C   UNL A   1      37.725  31.728  33.084  1.00  0.00     0.029 A 
ATOM     48  C   UNL A   1      39.023  31.090  33.282  1.00  0.00     0.049 A 
ATOM     49  H   UNL A   1      40.040  29.846  31.958  1.00  0.00     0.167 HD
ATOM     50  C   UNL A   1      42.061  27.246  29.060  1.00  0.00     0.037 A 
ATOM     51  C   UNL A   1      39.791  31.204  34.381  1.00  0.00     0.037 A 
ATOM     52  C   UNL A   1      42.982  27.373  30.159  1.00  0.00     0.049 A 
ATOM     53  C   UNL A   1      41.120  30.499  34.422  1.00  0.00     0.074 A 
ATOM     54  C   UNL A   1      44.251  26.834  30.291  1.00  0.00     0.029 A 
ATOM     55  N   UNL A   1      42.730  28.088  31.322  1.00  0.00    -0.354 N 
ATOM     56  N   UNL A   1      41.693  29.752  33.509  1.00  0.00    -0.248 NA
ATOM     57  C   UNL A   1      41.914  30.661  35.647  1.00  0.00     0.031 C 
ATOM     58  C   UNL A   1      44.741  27.174  31.557  1.00  0.00     0.029 A 
ATOM     59  C   UNL A   1      43.808  27.983  32.187  1.00  0.00     0.049 A 
ATOM     60  H   UNL A   1      41.906  28.594  31.506  1.00  0.00     0.167 HD
ATOM     61  C   UNL A   1      42.928  29.390  34.031  1.00  0.00     0.074 A 
ATOM     62  C   UNL A   1      43.026  30.012  35.336  1.00  0.00     0.031 C 
ATOM     63  C   UNL A   1      43.895  28.616  33.479  1.00  0.00     0.037 A 
BRANCH  50  64
ATOM     64  C   UNL A   1      42.453  26.387  27.890  1.00  0.00     0.064 A 
ATOM     65  C   UNL A   1      42.021  25.056  27.773  1.00  0.00     0.173 A 
ATOM     66  C   UNL A   1      43.257  26.903  26.862  1.00  0.00     0.173 A 
ATOM     67  F   UNL A   1      41.258  24.507  28.731  1.00  0.00    -0.203 F 
ATOM     68  C   UNL A   1      42.413  24.264  26.697  1.00  0.00     0.198 A 
ATOM     69  C   UNL A   1      43.615  26.120  25.768  1.00  0.00     0.198 A 
ATOM     70  F   UNL A   1      43.695  28.171  26.917  1.00  0.00    -0.203 F 
ATOM     71  F   UNL A   1      42.040  22.978  26.642  1.00  0.00    -0.200 F 
ATOM     72  C   UNL A   1      43.204  24.799  25.692  1.00  0.00     0.200 A 
ATOM     73  F   UNL A   1      44.368  26.643  24.789  1.00  0.00    -0.200 F 
ATOM     74  F   UNL A   1      43.577  24.037  24.654  1.00  0.00    -0.200 F 
ENDBRANCH  50  64
BRANCH  51  75
ATOM     75  C   UNL A   1      39.344  32.051  35.520  1.00  0.00     0.064 A 
ATOM     76  C   UNL A   1      38.533  31.521  36.535  1.00  0.00     0.173 A 
ATOM     77  C   UNL A   1      39.703  33.403  35.614  1.00  0.00     0.173 A 
ATOM     78  F   UNL A   1      38.147  30.238  36.480  1.00  0.00    -0.203 F 
ATOM     79  C   UNL A   1      38.078  32.316  37.583  1.00  0.00     0.198 A 
ATOM     80  C   UNL A   1      39.274  34.190  36.681  1.00  0.00     0.198 A 
ATOM     81  F   UNL A   1      40.483  33.958  34.674  1.00  0.00    -0.203 F 
ATOM     82  F   UNL A   1      37.259  31.797  38.508  1.00  0.00    -0.200 F 
ATOM     83  C   UNL A   1      38.452  33.650  37.658  1.00  0.00     0.200 A 
ATOM     84  F   UNL A   1      39.652  35.473  36.759  1.00  0.00    -0.200 F 
ATOM     85  F   UNL A   1      38.016  34.415  38.668  1.00  0.00    -0.200 F 
ENDBRANCH  51  75
BRANCH  63  86
ATOM     86  C   UNL A   1      45.166  28.440  34.262  1.00  0.00     0.064 A 
ATOM     87  C   UNL A   1      45.364  27.352  35.125  1.00  0.00     0.173 A 
ATOM     88  C   UNL A   1      46.211  29.369  34.130  1.00  0.00     0.173 A 
ATOM     89  F   UNL A   1      44.394  26.442  35.299  1.00  0.00    -0.203 F 
ATOM     90  C   UNL A   1      46.543  27.222  35.855  1.00  0.00     0.198 A 
ATOM     91  C   UNL A   1      47.403  29.215  34.832  1.00  0.00     0.198 A 
ATOM     92  F   UNL A   1      46.080  30.424  33.311  1.00  0.00    -0.203 F 
ATOM     93  F   UNL A   1      46.683  26.209  36.722  1.00  0.00    -0.200 F 
ATOM     94  C   UNL A   1      47.563  28.148  35.702  1.00  0.00     0.200 A 
ATOM     95  F   UNL A   1      48.395  30.102  34.669  1.00  0.00    -0.200 F 
ATOM     96  F   UNL A   1      48.699  28.019  36.404  1.00  0.00    -0.200 F 
ENDBRANCH  63  86
ENDBRANCH  37  38
ENDBRANCH  29  32
ENDBRANCH  27  28
ENDBRANCH  26  27
ENDBRANCH  25  26
ENDBRANCH   1  25
TORSDOF 16
ENDMDL
MODEL 3
REMARK VINA RESULT:     -11.6      1.991      3.226
REMARK SMILES CCOc1ccc(-c2nc(C(=O)NCCCCCCNC(=O)c3ccc(-c4c5nc(c(-c6c(F)c(F)c(F)c(F)c6F)c6ccc([nH]6)c(-c6c(F)c(F)c(F)c(F)c6F)c6nc(c(-c7c(F)c(F)c(F)c(F)c7F)c7ccc4[nH]7)C=C6)C=C5)cc3)cc(=O)[nH]2)cc1
REMARK SMILES IDX 16 1 15 2 14 3 13 4 11 5 12 6 10 8 8 9 9 10 89 11 87 12
REMARK SMILES IDX 86 14 88 15 7 16 4 17 5 18 91 19 6 20 90 21 3 22 2 23 1 24
REMARK SMILES IDX 17 25 18 26 19 27 20 28 21 29 22 31 23 32 24 33 85 34 25 35
REMARK SMILES IDX 84 36 26 37 27 38 28 39 78 40 29 41 83 42 77 43 79 44 30 45
REMARK SMILES IDX 82 46 76 47 75 48 31 50 63 51 43 52 62 53 44 54 47 55 61 56
REMARK SMILES IDX 80 57 45 58 46 59 60 61 81 62 48 63 32 64 33 65 41 66 34 67
REMARK SMILES IDX 35 68 39 69 42 70 36 71 37 72 40 73 38 74 64 75 65 76 73 77
REMARK SMILES IDX 66 78 67 79 71 80 74 81 68 82 69 83 72 84 70 85 49 86 50 87
REMARK SMILES IDX 58 88 51 89 52 90 56 91 59 92 53 93 54 94 57 95 55 96
REMARK H PARENT 13 7 89 13 20 30 79 49 47 60
REMARK Flexibility Score: inf
ROOT
ATOM      1  C   UNL A   1      34.043  25.773  24.405  1.00  0.00     0.002 C 
ENDROOT
BRANCH   1   2
ATOM      2  C   UNL A   1      34.498  24.322  24.243  1.00  0.00     0.021 C 
BRANCH   2   3
ATOM      3  C   UNL A   1      34.091  23.627  22.950  1.00  0.00     0.116 C 
BRANCH   3   4
ATOM      4  N   UNL A   1      33.531  22.307  23.154  1.00  0.00    -0.351 N 
ATOM      5  C   UNL A   1      32.416  21.873  23.811  1.00  0.00     0.270 C 
ATOM      6  O   UNL A   1      32.218  20.655  23.817  1.00  0.00    -0.268 OA
ATOM      7  H   UNL A   1      34.056  21.584  22.741  1.00  0.00     0.163 HD
BRANCH   5   8
ATOM      8  C   UNL A   1      31.472  22.807  24.545  1.00  0.00     0.136 A 
ATOM      9  C   UNL A   1      30.318  24.788  24.462  1.00  0.00     0.141 A 
ATOM     10  N   UNL A   1      31.007  23.896  23.828  1.00  0.00    -0.225 NA
ATOM     11  N   UNL A   1      29.903  24.624  25.756  1.00  0.00    -0.306 N 
ATOM     12  C   UNL A   1      30.278  23.550  26.498  1.00  0.00     0.251 A 
ATOM     13  H   UNL A   1      29.316  25.303  26.160  1.00  0.00     0.171 HD
ATOM     14  C   UNL A   1      31.246  22.658  25.856  1.00  0.00     0.105 A 
ATOM     15  O   UNL A   1      29.852  23.328  27.620  1.00  0.00    -0.269 OA
BRANCH   9  16
ATOM     16  C   UNL A   1      29.948  26.070  23.824  1.00  0.00     0.018 A 
ATOM     17  C   UNL A   1      29.283  28.545  22.741  1.00  0.00     0.119 A 
ATOM     18  C   UNL A   1      28.341  27.856  23.501  1.00  0.00     0.047 A 
ATOM     19  C   UNL A   1      30.567  28.030  22.564  1.00  0.00     0.047 A 
ATOM     20  C   UNL A   1      28.671  26.613  24.042  1.00  0.00     0.016 A 
ATOM     21  C   UNL A   1      30.901  26.787  23.101  1.00  0.00     0.016 A 
BRANCH  17  22
ATOM     22  O   UNL A   1      28.958  29.792  22.287  1.00  0.00    -0.494 OA
BRANCH  22  23
ATOM     23  C   UNL A   1      28.945  30.773  23.331  1.00  0.00     0.226 C 
ATOM     24  C   UNL A   1      27.653  31.575  23.323  1.00  0.00     0.049 C 
ENDBRANCH  22  23
ENDBRANCH  17  22
ENDBRANCH   9  16
ENDBRANCH   5   8
ENDBRANCH   3   4
ENDBRANCH   2   3
ENDBRANCH   1   2
BRANCH   1  25
ATOM     25  C   UNL A   1      33.458  26.150  25.769  1.00  0.00     0.002 C 
BRANCH  25  26
ATOM     26  C   UNL A   1      33.035  27.610  25.941  1.00  0.00     0.021 C 
BRANCH  26  27
ATOM     27  C   UNL A   1      33.450  28.260  27.255  1.00  0.00     0.116 C 
BRANCH  27  28
ATOM     28  N   UNL A   1      33.437  29.710  27.185  1.00  0.00    -0.352 N 
ATOM     29  C   UNL A   1      34.363  30.615  27.637  1.00  0.00     0.251 C 
ATOM     30  H   UNL A   1      32.646  30.101  26.748  1.00  0.00     0.163 HD
ATOM     31  O   UNL A   1      34.092  31.812  27.651  1.00  0.00    -0.269 OA
BRANCH  29  32
ATOM     32  C   UNL A   1      35.684  30.157  28.121  1.00  0.00     0.039 A 
ATOM     33  C   UNL A   1      36.758  30.151  27.228  1.00  0.00     0.014 A 
ATOM     34  C   UNL A   1      35.862  29.697  29.429  1.00  0.00     0.014 A 
ATOM     35  C   UNL A   1      38.013  29.713  27.654  1.00  0.00     0.010 A 
ATOM     36  C   UNL A   1      37.132  29.343  29.877  1.00  0.00     0.010 A 
ATOM     37  C   UNL A   1      38.216  29.323  28.989  1.00  0.00    -0.014 A 
BRANCH  37  38
ATOM     38  C   UNL A   1      39.548  28.858  29.452  1.00  0.00     0.031 A 
ATOM     39  C   UNL A   1      40.326  29.667  30.453  1.00  0.00     0.074 A 
ATOM     40  C   UNL A   1      40.069  27.720  28.953  1.00  0.00     0.049 A 
ATOM     41  N   UNL A   1      41.506  29.434  30.973  1.00  0.00    -0.248 NA
ATOM     42  C   UNL A   1      39.710  30.922  30.913  1.00  0.00     0.031 C 
ATOM     43  C   UNL A   1      39.431  26.870  27.947  1.00  0.00     0.029 A 
ATOM     44  N   UNL A   1      41.254  27.082  29.225  1.00  0.00    -0.354 N 
ATOM     45  C   UNL A   1      41.770  30.511  31.811  1.00  0.00     0.074 A 
ATOM     46  C   UNL A   1      40.664  31.432  31.676  1.00  0.00     0.031 C 
ATOM     47  C   UNL A   1      40.211  25.802  27.716  1.00  0.00     0.029 A 
ATOM     48  C   UNL A   1      41.421  25.913  28.526  1.00  0.00     0.049 A 
ATOM     49  H   UNL A   1      41.919  27.431  29.861  1.00  0.00     0.167 HD
ATOM     50  C   UNL A   1      42.825  30.701  32.640  1.00  0.00     0.037 A 
ATOM     51  C   UNL A   1      42.436  25.028  28.540  1.00  0.00     0.037 A 
ATOM     52  C   UNL A   1      43.918  29.774  32.779  1.00  0.00     0.049 A 
ATOM     53  C   UNL A   1      43.608  25.275  29.451  1.00  0.00     0.074 A 
ATOM     54  C   UNL A   1      45.014  29.850  33.621  1.00  0.00     0.029 A 
ATOM     55  N   UNL A   1      44.055  28.601  32.051  1.00  0.00    -0.354 N 
ATOM     56  N   UNL A   1      43.816  26.262  30.289  1.00  0.00    -0.248 NA
ATOM     57  C   UNL A   1      44.685  24.276  29.424  1.00  0.00     0.031 C 
ATOM     58  C   UNL A   1      45.843  28.753  33.360  1.00  0.00     0.029 A 
ATOM     59  C   UNL A   1      45.230  27.957  32.405  1.00  0.00     0.049 A 
ATOM     60  H   UNL A   1      43.413  28.274  31.380  1.00  0.00     0.167 HD
ATOM     61  C   UNL A   1      45.023  25.983  30.917  1.00  0.00     0.074 A 
ATOM     62  C   UNL A   1      45.494  24.726  30.372  1.00  0.00     0.031 C 
ATOM     63  C   UNL A   1      45.681  26.701  31.861  1.00  0.00     0.037 A 
BRANCH  50  64
ATOM     64  C   UNL A   1      42.844  31.962  33.458  1.00  0.00     0.064 A 
ATOM     65  C   UNL A   1      43.430  33.146  32.977  1.00  0.00     0.173 A 
ATOM     66  C   UNL A   1      42.256  31.998  34.731  1.00  0.00     0.173 A 
ATOM     67  F   UNL A   1      44.016  33.167  31.770  1.00  0.00    -0.203 F 
ATOM     68  C   UNL A   1      43.463  34.299  33.756  1.00  0.00     0.198 A 
ATOM     69  C   UNL A   1      42.257  33.165  35.492  1.00  0.00     0.198 A 
ATOM     70  F   UNL A   1      41.676  30.900  35.240  1.00  0.00    -0.203 F 
ATOM     71  F   UNL A   1      44.086  35.396  33.300  1.00  0.00    -0.200 F 
ATOM     72  C   UNL A   1      42.871  34.310  35.009  1.00  0.00     0.200 A 
ATOM     73  F   UNL A   1      41.671  33.177  36.697  1.00  0.00    -0.200 F 
ATOM     74  F   UNL A   1      42.900  35.423  35.757  1.00  0.00    -0.200 F 
ENDBRANCH  50  64
BRANCH  51  75
ATOM     75  C   UNL A   1      42.374  23.807  27.694  1.00  0.00     0.064 A 
ATOM     76  C   UNL A   1      41.913  22.591  28.219  1.00  0.00     0.173 A 
ATOM     77  C   UNL A   1      42.782  23.823  26.352  1.00  0.00     0.173 A 
ATOM     78  F   UNL A   1      41.528  22.519  29.502  1.00  0.00    -0.203 F 
ATOM     79  C   UNL A   1      41.889  21.433  27.444  1.00  0.00     0.198 A 
ATOM     80  C   UNL A   1      42.727  22.673  25.569  1.00  0.00     0.198 A 
ATOM     81  F   UNL A   1      43.225  24.962  25.798  1.00  0.00    -0.203 F 
ATOM     82  F   UNL A   1      41.497  20.274  27.989  1.00  0.00    -0.200 F 
ATOM     83  C   UNL A   1      42.292  21.476  26.118  1.00  0.00     0.200 A 
ATOM     84  F   UNL A   1      43.100  22.722  24.283  1.00  0.00    -0.200 F 
ATOM     85  F   UNL A   1      42.267  20.363  25.372  1.00  0.00    -0.200 F 
ENDBRANCH  51  75
BRANCH  63  86
ATOM     86  C   UNL A   1      46.956  26.117  32.403  1.00  0.00     0.064 A 
ATOM     87  C   UNL A   1      46.967  25.248  33.504  1.00  0.00     0.173 A 
ATOM     88  C   UNL A   1      48.185  26.421  31.797  1.00  0.00     0.173 A 
ATOM     89  F   UNL A   1      45.822  24.935  34.130  1.00  0.00    -0.203 F 
ATOM     90  C   UNL A   1      48.163  24.736  34.001  1.00  0.00     0.198 A 
ATOM     91  C   UNL A   1      49.375  25.876  32.271  1.00  0.00     0.198 A 
ATOM     92  F   UNL A   1      48.233  27.239  30.734  1.00  0.00    -0.203 F 
ATOM     93  F   UNL A   1      48.155  23.959  35.093  1.00  0.00    -0.200 F 
ATOM     94  C   UNL A   1      49.364  25.044  33.380  1.00  0.00     0.200 A 
ATOM     95  F   UNL A   1      50.532  26.161  31.659  1.00  0.00    -0.200 F 
ATOM     96  F   UNL A   1      50.514  24.547  33.858  1.00  0.00    -0.200 F 
ENDBRANCH  63  86
ENDBRANCH  37  38
ENDBRANCH  29  32
ENDBRANCH  27  28
ENDBRANCH  26  27
ENDBRANCH  25  26
ENDBRANCH   1  25
TORSDOF 16
ENDMDL
