MODEL 1
REMARK VINA RESULT:     -11.4      0.000      0.000
REMARK SMILES CC(C)[C@H](NC(=O)[C@H](C)NC(=O)CNC(=O)OCc1ccccc1)C(=O)NCCCCCCNC(=O)c1ccc(-c2c3nc(c(-c4c(F)c(F)c(F)c(F)c4F)c4ccc([nH]4)c(-c4c(F)c(F)c(F)c(F)c4F)c4nc(c(-c5c(F)c(F)c(F)c(F)c5F)c5ccc2[nH]5)C=C4)C=C3)cc1
REMARK SMILES IDX 25 1 26 2 27 3 4 5 2 6 1 7 3 8 5 9 6 10 7 12 8 13 9 14 10 15
REMARK SMILES IDX 11 16 12 18 13 19 14 20 15 21 16 23 17 24 18 25 19 26 20 27
REMARK SMILES IDX 24 28 21 29 23 30 22 31 28 32 29 33 30 34 31 35 32 36 33 37
REMARK SMILES IDX 34 38 35 39 36 41 37 42 38 43 99 44 39 45 98 46 40 47 41 48
REMARK SMILES IDX 42 49 92 50 43 51 97 52 91 53 93 54 44 55 96 56 90 57 89 58
REMARK SMILES IDX 45 60 77 61 57 62 76 63 58 64 61 65 75 66 94 67 59 68 60 69
REMARK SMILES IDX 74 71 95 72 62 73 46 74 47 75 55 76 48 77 49 78 53 79 56 80
REMARK SMILES IDX 50 81 51 82 54 83 52 84 78 85 79 86 87 87 80 88 81 89 85 90
REMARK SMILES IDX 88 91 82 92 83 93 86 94 84 95 63 96 64 97 72 98 65 99 66 100
REMARK SMILES IDX 70 101 73 102 67 103 68 104 71 105 69 106
REMARK H PARENT 27 4 5 11 10 17 14 22 34 40 93 59 61 70
REMARK Flexibility Score: inf
ROOT
ATOM      1  C   UNL A   1      36.612  23.079  23.982  1.00  0.00     0.242 C 
ATOM      2  O   UNL A   1      36.866  23.314  22.797  1.00  0.00    -0.273 OA
ATOM      3  N   UNL A   1      37.647  22.621  24.744  1.00  0.00    -0.354 N 
ATOM      4  H   UNL A   1      38.269  21.993  24.312  1.00  0.00     0.163 HD
ENDROOT
BRANCH   1   5
ATOM      5  C   UNL A   1      35.164  23.255  24.538  1.00  0.00     0.173 C 
BRANCH   5   6
ATOM      6  C   UNL A   1      34.970  24.135  25.781  1.00  0.00     0.015 C 
ATOM      7  C   UNL A   1      34.295  25.488  25.590  1.00  0.00     0.010 C 
ATOM      8  C   UNL A   1      34.270  23.361  26.908  1.00  0.00     0.010 C 
ENDBRANCH   5   6
BRANCH   5   9
ATOM      9  N   UNL A   1      34.293  22.062  24.546  1.00  0.00    -0.342 N 
ATOM     10  C   UNL A   1      33.319  21.485  23.803  1.00  0.00     0.242 C 
ATOM     11  H   UNL A   1      34.480  21.514  25.342  1.00  0.00     0.164 HD
ATOM     12  O   UNL A   1      33.012  20.362  24.238  1.00  0.00    -0.273 OA
BRANCH  10  13
ATOM     13  C   UNL A   1      32.428  22.145  22.678  1.00  0.00     0.168 C 
ATOM     14  C   UNL A   1      31.623  21.018  21.998  1.00  0.00     0.041 C 
BRANCH  13  15
ATOM     15  N   UNL A   1      33.001  22.957  21.601  1.00  0.00    -0.343 N 
ATOM     16  C   UNL A   1      32.973  24.295  21.322  1.00  0.00     0.240 C 
ATOM     17  H   UNL A   1      33.510  22.431  20.942  1.00  0.00     0.164 HD
ATOM     18  O   UNL A   1      33.249  24.629  20.165  1.00  0.00    -0.273 OA
BRANCH  16  19
ATOM     19  C   UNL A   1      32.604  25.365  22.358  1.00  0.00     0.219 C 
BRANCH  19  20
ATOM     20  N   UNL A   1      33.529  26.476  22.341  1.00  0.00    -0.312 N 
ATOM     21  C   UNL A   1      33.257  27.808  22.457  1.00  0.00     0.407 C 
ATOM     22  H   UNL A   1      34.478  26.241  22.230  1.00  0.00     0.167 HD
ATOM     23  O   UNL A   1      34.186  28.589  22.623  1.00  0.00    -0.225 OA
BRANCH  21  24
ATOM     24  O   UNL A   1      31.955  28.117  22.328  1.00  0.00    -0.445 OA
BRANCH  24  25
ATOM     25  C   UNL A   1      31.009  28.381  23.410  1.00  0.00     0.270 C 
BRANCH  25  26
ATOM     26  C   UNL A   1      31.311  28.359  24.899  1.00  0.00    -0.011 A 
ATOM     27  C   UNL A   1      31.728  29.473  25.635  1.00  0.00     0.007 A 
ATOM     28  C   UNL A   1      31.020  27.183  25.616  1.00  0.00     0.007 A 
ATOM     29  C   UNL A   1      31.980  29.378  27.007  1.00  0.00     0.000 A 
ATOM     30  C   UNL A   1      31.237  27.097  26.995  1.00  0.00     0.000 A 
ATOM     31  C   UNL A   1      31.744  28.189  27.687  1.00  0.00     0.000 A 
ENDBRANCH  25  26
ENDBRANCH  24  25
ENDBRANCH  21  24
ENDBRANCH  19  20
ENDBRANCH  16  19
ENDBRANCH  13  15
ENDBRANCH  10  13
ENDBRANCH   5   9
ENDBRANCH   1   5
BRANCH   3  32
ATOM     32  C   UNL A   1      37.921  22.961  26.111  1.00  0.00     0.116 C 
BRANCH  32  33
ATOM     33  C   UNL A   1      39.380  23.003  26.540  1.00  0.00     0.021 C 
BRANCH  33  34
ATOM     34  C   UNL A   1      40.062  21.635  26.412  1.00  0.00     0.002 C 
BRANCH  34  35
ATOM     35  C   UNL A   1      41.153  21.355  27.453  1.00  0.00     0.002 C 
BRANCH  35  36
ATOM     36  C   UNL A   1      42.047  20.163  27.194  1.00  0.00     0.021 C 
BRANCH  36  37
ATOM     37  C   UNL A   1      41.978  19.660  25.765  1.00  0.00     0.116 C 
BRANCH  37  38
ATOM     38  N   UNL A   1      43.150  18.895  25.333  1.00  0.00    -0.352 N 
ATOM     39  C   UNL A   1      44.408  19.334  24.976  1.00  0.00     0.251 C 
ATOM     40  H   UNL A   1      43.020  17.920  25.289  1.00  0.00     0.163 HD
ATOM     41  O   UNL A   1      45.285  18.563  24.608  1.00  0.00    -0.269 OA
BRANCH  39  42
ATOM     42  C   UNL A   1      44.679  20.777  25.023  1.00  0.00     0.039 A 
ATOM     43  C   UNL A   1      44.174  21.627  24.036  1.00  0.00     0.014 A 
ATOM     44  C   UNL A   1      45.337  21.285  26.136  1.00  0.00     0.014 A 
ATOM     45  C   UNL A   1      44.242  23.008  24.229  1.00  0.00     0.010 A 
ATOM     46  C   UNL A   1      45.226  22.630  26.412  1.00  0.00     0.010 A 
ATOM     47  C   UNL A   1      44.721  23.515  25.445  1.00  0.00    -0.014 A 
BRANCH  47  48
ATOM     48  C   UNL A   1      44.826  24.960  25.759  1.00  0.00     0.031 A 
ATOM     49  C   UNL A   1      46.179  25.607  25.611  1.00  0.00     0.074 A 
ATOM     50  C   UNL A   1      43.799  25.627  26.315  1.00  0.00     0.049 A 
ATOM     51  N   UNL A   1      46.632  26.720  26.120  1.00  0.00    -0.248 NA
ATOM     52  C   UNL A   1      47.191  24.835  24.863  1.00  0.00     0.031 C 
ATOM     53  C   UNL A   1      42.455  25.095  26.549  1.00  0.00     0.029 A 
ATOM     54  N   UNL A   1      43.743  26.901  26.820  1.00  0.00    -0.354 N 
ATOM     55  C   UNL A   1      47.987  26.739  25.813  1.00  0.00     0.074 A 
ATOM     56  C   UNL A   1      48.300  25.489  25.164  1.00  0.00     0.031 C 
ATOM     57  C   UNL A   1      41.701  26.043  27.127  1.00  0.00     0.029 A 
ATOM     58  C   UNL A   1      42.523  27.226  27.363  1.00  0.00     0.049 A 
ATOM     59  H   UNL A   1      44.505  27.525  26.796  1.00  0.00     0.167 HD
ATOM     60  C   UNL A   1      48.883  27.732  26.019  1.00  0.00     0.037 A 
ATOM     61  C   UNL A   1      42.131  28.349  27.995  1.00  0.00     0.037 A 
ATOM     62  C   UNL A   1      48.529  29.000  26.592  1.00  0.00     0.049 A 
ATOM     63  C   UNL A   1      43.134  29.459  28.184  1.00  0.00     0.074 A 
ATOM     64  C   UNL A   1      49.320  30.116  26.775  1.00  0.00     0.029 A 
ATOM     65  N   UNL A   1      47.260  29.320  27.059  1.00  0.00    -0.354 N 
ATOM     66  N   UNL A   1      44.404  29.494  27.853  1.00  0.00    -0.248 NA
ATOM     67  C   UNL A   1      42.651  30.685  28.832  1.00  0.00     0.031 C 
ATOM     68  C   UNL A   1      48.543  31.099  27.395  1.00  0.00     0.029 A 
ATOM     69  C   UNL A   1      47.250  30.616  27.538  1.00  0.00     0.049 A 
ATOM     70  H   UNL A   1      46.485  28.714  27.048  1.00  0.00     0.167 HD
ATOM     71  C   UNL A   1      44.857  30.757  28.208  1.00  0.00     0.074 A 
ATOM     72  C   UNL A   1      43.727  31.459  28.780  1.00  0.00     0.031 C 
ATOM     73  C   UNL A   1      46.095  31.294  28.071  1.00  0.00     0.037 A 
BRANCH  60  74
ATOM     74  C   UNL A   1      50.305  27.487  25.601  1.00  0.00     0.064 A 
ATOM     75  C   UNL A   1      51.299  27.124  26.525  1.00  0.00     0.173 A 
ATOM     76  C   UNL A   1      50.683  27.615  24.256  1.00  0.00     0.173 A 
ATOM     77  F   UNL A   1      50.999  27.001  27.827  1.00  0.00    -0.203 F 
ATOM     78  C   UNL A   1      52.622  26.947  26.127  1.00  0.00     0.198 A 
ATOM     79  C   UNL A   1      51.999  27.394  23.854  1.00  0.00     0.198 A 
ATOM     80  F   UNL A   1      49.778  27.957  23.327  1.00  0.00    -0.203 F 
ATOM     81  F   UNL A   1      53.563  26.679  27.043  1.00  0.00    -0.200 F 
ATOM     82  C   UNL A   1      52.968  27.073  24.792  1.00  0.00     0.200 A 
ATOM     83  F   UNL A   1      52.329  27.500  22.560  1.00  0.00    -0.200 F 
ATOM     84  F   UNL A   1      54.240  26.897  24.409  1.00  0.00    -0.200 F 
ENDBRANCH  60  74
BRANCH  61  85
ATOM     85  C   UNL A   1      40.724  28.497  28.455  1.00  0.00     0.064 A 
ATOM     86  C   UNL A   1      39.743  29.012  27.594  1.00  0.00     0.173 A 
ATOM     87  C   UNL A   1      40.326  28.136  29.751  1.00  0.00     0.173 A 
ATOM     88  F   UNL A   1      40.076  29.388  26.350  1.00  0.00    -0.203 F 
ATOM     89  C   UNL A   1      38.427  29.183  28.018  1.00  0.00     0.198 A 
ATOM     90  C   UNL A   1      39.001  28.278  30.164  1.00  0.00     0.198 A 
ATOM     91  F   UNL A   1      41.220  27.630  30.613  1.00  0.00    -0.203 F 
ATOM     92  F   UNL A   1      37.524  29.725  27.189  1.00  0.00    -0.200 F 
ATOM     93  C   UNL A   1      38.055  28.812  29.300  1.00  0.00     0.200 A 
ATOM     94  F   UNL A   1      38.643  27.903  31.398  1.00  0.00    -0.200 F 
ATOM     95  F   UNL A   1      36.789  28.975  29.707  1.00  0.00    -0.200 F 
ENDBRANCH  61  85
BRANCH  73  96
ATOM     96  C   UNL A   1      46.279  32.727  28.473  1.00  0.00     0.064 A 
ATOM     97  C   UNL A   1      46.096  33.781  27.569  1.00  0.00     0.173 A 
ATOM     98  C   UNL A   1      46.564  33.046  29.811  1.00  0.00     0.173 A 
ATOM     99  F   UNL A   1      45.835  33.526  26.278  1.00  0.00    -0.203 F 
ATOM    100  C   UNL A   1      46.208  35.105  27.985  1.00  0.00     0.198 A 
ATOM    101  C   UNL A   1      46.639  34.369  30.230  1.00  0.00     0.198 A 
ATOM    102  F   UNL A   1      46.736  32.072  30.717  1.00  0.00    -0.203 F 
ATOM    103  F   UNL A   1      46.069  36.097  27.096  1.00  0.00    -0.200 F 
ATOM    104  C   UNL A   1      46.467  35.397  29.316  1.00  0.00     0.200 A 
ATOM    105  F   UNL A   1      46.868  34.649  31.521  1.00  0.00    -0.200 F 
ATOM    106  F   UNL A   1      46.553  36.673  29.718  1.00  0.00    -0.200 F 
ENDBRANCH  73  96
ENDBRANCH  47  48
ENDBRANCH  39  42
ENDBRANCH  37  38
ENDBRANCH  36  37
ENDBRANCH  35  36
ENDBRANCH  34  35
ENDBRANCH  33  34
ENDBRANCH  32  33
ENDBRANCH   3  32
TORSDOF 22
ENDMDL
MODEL 2
REMARK VINA RESULT:     -11.3      1.411      2.288
REMARK SMILES CC(C)[C@H](NC(=O)[C@H](C)NC(=O)CNC(=O)OCc1ccccc1)C(=O)NCCCCCCNC(=O)c1ccc(-c2c3nc(c(-c4c(F)c(F)c(F)c(F)c4F)c4ccc([nH]4)c(-c4c(F)c(F)c(F)c(F)c4F)c4nc(c(-c5c(F)c(F)c(F)c(F)c5F)c5ccc2[nH]5)C=C4)C=C3)cc1
REMARK SMILES IDX 25 1 26 2 27 3 4 5 2 6 1 7 3 8 5 9 6 10 7 12 8 13 9 14 10 15
REMARK SMILES IDX 11 16 12 18 13 19 14 20 15 21 16 23 17 24 18 25 19 26 20 27
REMARK SMILES IDX 24 28 21 29 23 30 22 31 28 32 29 33 30 34 31 35 32 36 33 37
REMARK SMILES IDX 34 38 35 39 36 41 37 42 38 43 99 44 39 45 98 46 40 47 41 48
REMARK SMILES IDX 42 49 92 50 43 51 97 52 91 53 93 54 44 55 96 56 90 57 89 58
REMARK SMILES IDX 45 60 77 61 57 62 76 63 58 64 61 65 75 66 94 67 59 68 60 69
REMARK SMILES IDX 74 71 95 72 62 73 46 74 47 75 55 76 48 77 49 78 53 79 56 80
REMARK SMILES IDX 50 81 51 82 54 83 52 84 78 85 79 86 87 87 80 88 81 89 85 90
REMARK SMILES IDX 88 91 82 92 83 93 86 94 84 95 63 96 64 97 72 98 65 99 66 100
REMARK SMILES IDX 70 101 73 102 67 103 68 104 71 105 69 106
REMARK H PARENT 27 4 5 11 10 17 14 22 34 40 93 59 61 70
REMARK Flexibility Score: inf
ROOT
ATOM      1  C   UNL A   1      36.642  22.661  23.960  1.00  0.00     0.242 C 
ATOM      2  O   UNL A   1      36.784  23.214  22.865  1.00  0.00    -0.273 OA
ATOM      3  N   UNL A   1      37.787  22.324  24.621  1.00  0.00    -0.354 N 
ATOM      4  H   UNL A   1      38.532  21.989  24.072  1.00  0.00     0.163 HD
ENDROOT
BRANCH   1   5
ATOM      5  C   UNL A   1      35.219  22.332  24.511  1.00  0.00     0.173 C 
BRANCH   5   6
ATOM      6  C   UNL A   1      34.597  23.300  25.528  1.00  0.00     0.015 C 
ATOM      7  C   UNL A   1      34.618  22.891  26.996  1.00  0.00     0.010 C 
ATOM      8  C   UNL A   1      35.174  24.716  25.376  1.00  0.00     0.010 C 
ENDBRANCH   5   6
BRANCH   5   9
ATOM      9  N   UNL A   1      34.923  20.918  24.819  1.00  0.00    -0.342 N 
ATOM     10  C   UNL A   1      33.970  19.985  24.588  1.00  0.00     0.242 C 
ATOM     11  H   UNL A   1      35.648  20.532  25.363  1.00  0.00     0.164 HD
ATOM     12  O   UNL A   1      34.313  18.864  24.999  1.00  0.00    -0.273 OA
BRANCH  10  13
ATOM     13  C   UNL A   1      32.479  20.208  24.113  1.00  0.00     0.168 C 
ATOM     14  C   UNL A   1      32.205  19.223  22.958  1.00  0.00     0.041 C 
BRANCH  13  15
ATOM     15  N   UNL A   1      31.984  21.515  23.674  1.00  0.00    -0.343 N 
ATOM     16  C   UNL A   1      31.277  22.506  24.297  1.00  0.00     0.240 C 
ATOM     17  H   UNL A   1      32.205  21.722  22.737  1.00  0.00     0.164 HD
ATOM     18  O   UNL A   1      30.711  23.328  23.569  1.00  0.00    -0.273 OA
BRANCH  16  19
ATOM     19  C   UNL A   1      31.150  22.620  25.821  1.00  0.00     0.219 C 
BRANCH  19  20
ATOM     20  N   UNL A   1      30.129  23.566  26.209  1.00  0.00    -0.312 N 
ATOM     21  C   UNL A   1      30.238  24.917  26.364  1.00  0.00     0.407 C 
ATOM     22  H   UNL A   1      29.238  23.186  26.386  1.00  0.00     0.167 HD
ATOM     23  O   UNL A   1      29.217  25.581  26.501  1.00  0.00    -0.225 OA
BRANCH  21  24
ATOM     24  O   UNL A   1      31.505  25.367  26.389  1.00  0.00    -0.445 OA
BRANCH  24  25
ATOM     25  C   UNL A   1      32.044  26.502  25.642  1.00  0.00     0.270 C 
BRANCH  25  26
ATOM     26  C   UNL A   1      32.613  27.781  26.230  1.00  0.00    -0.011 A 
ATOM     27  C   UNL A   1      33.969  27.985  26.510  1.00  0.00     0.007 A 
ATOM     28  C   UNL A   1      31.752  28.885  26.374  1.00  0.00     0.007 A 
ATOM     29  C   UNL A   1      34.422  29.194  27.045  1.00  0.00     0.000 A 
ATOM     30  C   UNL A   1      32.210  30.108  26.874  1.00  0.00     0.000 A 
ATOM     31  C   UNL A   1      33.543  30.253  27.236  1.00  0.00     0.000 A 
ENDBRANCH  25  26
ENDBRANCH  24  25
ENDBRANCH  21  24
ENDBRANCH  19  20
ENDBRANCH  16  19
ENDBRANCH  13  15
ENDBRANCH  10  13
ENDBRANCH   5   9
ENDBRANCH   1   5
BRANCH   3  32
ATOM     32  C   UNL A   1      38.018  22.407  26.035  1.00  0.00     0.116 C 
BRANCH  32  33
ATOM     33  C   UNL A   1      39.407  22.829  26.491  1.00  0.00     0.021 C 
BRANCH  33  34
ATOM     34  C   UNL A   1      40.471  21.775  26.162  1.00  0.00     0.002 C 
BRANCH  34  35
ATOM     35  C   UNL A   1      41.402  21.409  27.325  1.00  0.00     0.002 C 
BRANCH  35  36
ATOM     36  C   UNL A   1      42.253  20.171  27.149  1.00  0.00     0.021 C 
BRANCH  36  37
ATOM     37  C   UNL A   1      42.135  19.554  25.769  1.00  0.00     0.116 C 
BRANCH  37  38
ATOM     38  N   UNL A   1      43.317  18.806  25.335  1.00  0.00    -0.352 N 
ATOM     39  C   UNL A   1      44.562  19.265  24.960  1.00  0.00     0.251 C 
ATOM     40  H   UNL A   1      43.206  17.828  25.305  1.00  0.00     0.163 HD
ATOM     41  O   UNL A   1      45.450  18.506  24.592  1.00  0.00    -0.269 OA
BRANCH  39  42
ATOM     42  C   UNL A   1      44.806  20.713  24.985  1.00  0.00     0.039 A 
ATOM     43  C   UNL A   1      44.204  21.551  24.043  1.00  0.00     0.014 A 
ATOM     44  C   UNL A   1      45.541  21.235  26.041  1.00  0.00     0.014 A 
ATOM     45  C   UNL A   1      44.258  22.933  24.231  1.00  0.00     0.010 A 
ATOM     46  C   UNL A   1      45.425  22.579  26.325  1.00  0.00     0.010 A 
ATOM     47  C   UNL A   1      44.824  23.451  25.404  1.00  0.00    -0.014 A 
BRANCH  47  48
ATOM     48  C   UNL A   1      44.923  24.898  25.709  1.00  0.00     0.031 A 
ATOM     49  C   UNL A   1      46.273  25.551  25.550  1.00  0.00     0.074 A 
ATOM     50  C   UNL A   1      43.895  25.564  26.266  1.00  0.00     0.049 A 
ATOM     51  N   UNL A   1      46.722  26.670  26.052  1.00  0.00    -0.248 NA
ATOM     52  C   UNL A   1      47.285  24.780  24.802  1.00  0.00     0.031 C 
ATOM     53  C   UNL A   1      42.556  25.027  26.509  1.00  0.00     0.029 A 
ATOM     54  N   UNL A   1      43.836  26.841  26.764  1.00  0.00    -0.354 N 
ATOM     55  C   UNL A   1      48.076  26.693  25.738  1.00  0.00     0.074 A 
ATOM     56  C   UNL A   1      48.392  25.441  25.095  1.00  0.00     0.031 C 
ATOM     57  C   UNL A   1      41.800  25.975  27.086  1.00  0.00     0.029 A 
ATOM     58  C   UNL A   1      42.617  27.163  27.311  1.00  0.00     0.049 A 
ATOM     59  H   UNL A   1      44.595  27.468  26.733  1.00  0.00     0.167 HD
ATOM     60  C   UNL A   1      48.968  27.691  25.933  1.00  0.00     0.037 A 
ATOM     61  C   UNL A   1      42.223  28.288  27.938  1.00  0.00     0.037 A 
ATOM     62  C   UNL A   1      48.611  28.961  26.502  1.00  0.00     0.049 A 
ATOM     63  C   UNL A   1      43.221  29.403  28.116  1.00  0.00     0.074 A 
ATOM     64  C   UNL A   1      49.398  30.082  26.675  1.00  0.00     0.029 A 
ATOM     65  N   UNL A   1      47.343  29.277  26.972  1.00  0.00    -0.354 N 
ATOM     66  N   UNL A   1      44.489  29.443  27.779  1.00  0.00    -0.248 NA
ATOM     67  C   UNL A   1      42.736  30.631  28.759  1.00  0.00     0.031 C 
ATOM     68  C   UNL A   1      48.619  31.064  27.293  1.00  0.00     0.029 A 
ATOM     69  C   UNL A   1      47.329  30.576  27.444  1.00  0.00     0.049 A 
ATOM     70  H   UNL A   1      46.570  28.668  26.969  1.00  0.00     0.167 HD
ATOM     71  C   UNL A   1      44.938  30.710  28.124  1.00  0.00     0.074 A 
ATOM     72  C   UNL A   1      43.807  31.410  28.698  1.00  0.00     0.031 C 
ATOM     73  C   UNL A   1      46.174  31.252  27.978  1.00  0.00     0.037 A 
BRANCH  60  74
ATOM     74  C   UNL A   1      50.390  27.451  25.510  1.00  0.00     0.064 A 
ATOM     75  C   UNL A   1      51.380  27.057  26.425  1.00  0.00     0.173 A 
ATOM     76  C   UNL A   1      50.770  27.614  24.170  1.00  0.00     0.173 A 
ATOM     77  F   UNL A   1      51.078  26.899  27.723  1.00  0.00    -0.203 F 
ATOM     78  C   UNL A   1      52.703  26.885  26.024  1.00  0.00     0.198 A 
ATOM     79  C   UNL A   1      52.084  27.397  23.764  1.00  0.00     0.198 A 
ATOM     80  F   UNL A   1      49.867  27.986  23.250  1.00  0.00    -0.203 F 
ATOM     81  F   UNL A   1      53.642  26.587  26.932  1.00  0.00    -0.200 F 
ATOM     82  C   UNL A   1      53.052  27.046  24.693  1.00  0.00     0.200 A 
ATOM     83  F   UNL A   1      52.417  27.537  22.473  1.00  0.00    -0.200 F 
ATOM     84  F   UNL A   1      54.323  26.874  24.306  1.00  0.00    -0.200 F 
ENDBRANCH  60  74
BRANCH  61  85
ATOM     85  C   UNL A   1      40.818  28.432  28.404  1.00  0.00     0.064 A 
ATOM     86  C   UNL A   1      40.454  28.045  29.703  1.00  0.00     0.173 A 
ATOM     87  C   UNL A   1      39.811  28.952  27.576  1.00  0.00     0.173 A 
ATOM     88  F   UNL A   1      41.376  27.526  30.528  1.00  0.00    -0.203 F 
ATOM     89  C   UNL A   1      39.138  28.148  30.147  1.00  0.00     0.198 A 
ATOM     90  C   UNL A   1      38.500  29.084  28.032  1.00  0.00     0.198 A 
ATOM     91  F   UNL A   1      40.103  29.347  26.329  1.00  0.00    -0.203 F 
ATOM     92  F   UNL A   1      38.812  27.722  31.375  1.00  0.00    -0.200 F 
ATOM     93  C   UNL A   1      38.161  28.672  29.313  1.00  0.00     0.200 A 
ATOM     94  F   UNL A   1      37.563  29.607  27.230  1.00  0.00    -0.200 F 
ATOM     95  F   UNL A   1      36.896  28.773  29.741  1.00  0.00    -0.200 F 
ENDBRANCH  61  85
BRANCH  73  96
ATOM     96  C   UNL A   1      46.352  32.688  28.372  1.00  0.00     0.064 A 
ATOM     97  C   UNL A   1      46.760  33.060  29.659  1.00  0.00     0.173 A 
ATOM     98  C   UNL A   1      46.190  33.701  27.412  1.00  0.00     0.173 A 
ATOM     99  F   UNL A   1      46.916  32.129  30.613  1.00  0.00    -0.203 F 
ATOM    100  C   UNL A   1      46.983  34.396  29.979  1.00  0.00     0.198 A 
ATOM    101  C   UNL A   1      46.447  35.031  27.725  1.00  0.00     0.198 A 
ATOM    102  F   UNL A   1      45.812  33.394  26.162  1.00  0.00    -0.203 F 
ATOM    103  F   UNL A   1      47.333  34.734  31.226  1.00  0.00    -0.200 F 
ATOM    104  C   UNL A   1      46.838  35.378  29.009  1.00  0.00     0.200 A 
ATOM    105  F   UNL A   1      46.329  35.974  26.780  1.00  0.00    -0.200 F 
ATOM    106  F   UNL A   1      47.074  36.662  29.313  1.00  0.00    -0.200 F 
ENDBRANCH  73  96
ENDBRANCH  47  48
ENDBRANCH  39  42
ENDBRANCH  37  38
ENDBRANCH  36  37
ENDBRANCH  35  36
ENDBRANCH  34  35
ENDBRANCH  33  34
ENDBRANCH  32  33
ENDBRANCH   3  32
TORSDOF 22
ENDMDL
MODEL 3
REMARK VINA RESULT:     -10.6      1.933      4.253
REMARK SMILES CC(C)[C@H](NC(=O)[C@H](C)NC(=O)CNC(=O)OCc1ccccc1)C(=O)NCCCCCCNC(=O)c1ccc(-c2c3nc(c(-c4c(F)c(F)c(F)c(F)c4F)c4ccc([nH]4)c(-c4c(F)c(F)c(F)c(F)c4F)c4nc(c(-c5c(F)c(F)c(F)c(F)c5F)c5ccc2[nH]5)C=C4)C=C3)cc1
REMARK SMILES IDX 25 1 26 2 27 3 4 5 2 6 1 7 3 8 5 9 6 10 7 12 8 13 9 14 10 15
REMARK SMILES IDX 11 16 12 18 13 19 14 20 15 21 16 23 17 24 18 25 19 26 20 27
REMARK SMILES IDX 24 28 21 29 23 30 22 31 28 32 29 33 30 34 31 35 32 36 33 37
REMARK SMILES IDX 34 38 35 39 36 41 37 42 38 43 99 44 39 45 98 46 40 47 41 48
REMARK SMILES IDX 42 49 92 50 43 51 97 52 91 53 93 54 44 55 96 56 90 57 89 58
REMARK SMILES IDX 45 60 77 61 57 62 76 63 58 64 61 65 75 66 94 67 59 68 60 69
REMARK SMILES IDX 74 71 95 72 62 73 46 74 47 75 55 76 48 77 49 78 53 79 56 80
REMARK SMILES IDX 50 81 51 82 54 83 52 84 78 85 79 86 87 87 80 88 81 89 85 90
REMARK SMILES IDX 88 91 82 92 83 93 86 94 84 95 63 96 64 97 72 98 65 99 66 100
REMARK SMILES IDX 70 101 73 102 67 103 68 104 71 105 69 106
REMARK H PARENT 27 4 5 11 10 17 14 22 34 40 93 59 61 70
REMARK Flexibility Score: inf
ROOT
ATOM      1  C   UNL A   1      34.991  24.032  24.333  1.00  0.00     0.242 C 
ATOM      2  O   UNL A   1      34.959  24.030  23.099  1.00  0.00    -0.273 OA
ATOM      3  N   UNL A   1      36.000  23.319  24.913  1.00  0.00    -0.354 N 
ATOM      4  H   UNL A   1      36.242  22.467  24.484  1.00  0.00     0.163 HD
ENDROOT
BRANCH   1   5
ATOM      5  C   UNL A   1      33.895  24.773  25.160  1.00  0.00     0.173 C 
BRANCH   5   6
ATOM      6  C   UNL A   1      34.030  26.292  25.340  1.00  0.00     0.015 C 
ATOM      7  C   UNL A   1      33.844  27.169  24.108  1.00  0.00     0.010 C 
ATOM      8  C   UNL A   1      33.132  26.800  26.479  1.00  0.00     0.010 C 
ENDBRANCH   5   6
BRANCH   5   9
ATOM      9  N   UNL A   1      33.394  24.100  26.376  1.00  0.00    -0.342 N 
ATOM     10  C   UNL A   1      32.232  23.658  26.911  1.00  0.00     0.242 C 
ATOM     11  H   UNL A   1      34.141  23.913  26.990  1.00  0.00     0.164 HD
ATOM     12  O   UNL A   1      32.420  23.020  27.960  1.00  0.00    -0.273 OA
BRANCH  10  13
ATOM     13  C   UNL A   1      30.756  24.052  26.505  1.00  0.00     0.168 C 
ATOM     14  C   UNL A   1      29.815  22.950  27.034  1.00  0.00     0.041 C 
BRANCH  13  15
ATOM     15  N   UNL A   1      30.367  24.302  25.115  1.00  0.00    -0.343 N 
ATOM     16  C   UNL A   1      30.811  23.818  23.917  1.00  0.00     0.240 C 
ATOM     17  H   UNL A   1      29.634  24.954  25.026  1.00  0.00     0.164 HD
ATOM     18  O   UNL A   1      30.526  24.474  22.910  1.00  0.00    -0.273 OA
BRANCH  16  19
ATOM     19  C   UNL A   1      31.642  22.536  23.782  1.00  0.00     0.219 C 
BRANCH  19  20
ATOM     20  N   UNL A   1      31.768  22.115  22.404  1.00  0.00    -0.312 N 
ATOM     21  C   UNL A   1      31.884  20.848  21.911  1.00  0.00     0.407 C 
ATOM     22  H   UNL A   1      31.772  22.837  21.735  1.00  0.00     0.167 HD
ATOM     23  O   UNL A   1      31.777  20.671  20.703  1.00  0.00    -0.225 OA
BRANCH  21  24
ATOM     24  O   UNL A   1      32.153  19.917  22.844  1.00  0.00    -0.445 OA
BRANCH  24  25
ATOM     25  C   UNL A   1      32.336  18.485  22.620  1.00  0.00     0.270 C 
BRANCH  25  26
ATOM     26  C   UNL A   1      32.980  17.497  23.577  1.00  0.00    -0.011 A 
ATOM     27  C   UNL A   1      34.238  16.916  23.381  1.00  0.00     0.007 A 
ATOM     28  C   UNL A   1      32.341  17.253  24.808  1.00  0.00     0.007 A 
ATOM     29  C   UNL A   1      34.772  16.018  24.311  1.00  0.00     0.000 A 
ATOM     30  C   UNL A   1      32.890  16.385  25.755  1.00  0.00     0.000 A 
ATOM     31  C   UNL A   1      34.096  15.745  25.494  1.00  0.00     0.000 A 
ENDBRANCH  25  26
ENDBRANCH  24  25
ENDBRANCH  21  24
ENDBRANCH  19  20
ENDBRANCH  16  19
ENDBRANCH  13  15
ENDBRANCH  10  13
ENDBRANCH   5   9
ENDBRANCH   1   5
BRANCH   3  32
ATOM     32  C   UNL A   1      36.745  23.684  26.084  1.00  0.00     0.116 C 
BRANCH  32  33
ATOM     33  C   UNL A   1      38.263  23.671  25.977  1.00  0.00     0.021 C 
BRANCH  33  34
ATOM     34  C   UNL A   1      38.844  22.261  26.136  1.00  0.00     0.002 C 
BRANCH  34  35
ATOM     35  C   UNL A   1      40.045  22.159  27.084  1.00  0.00     0.002 C 
BRANCH  35  36
ATOM     36  C   UNL A   1      40.633  20.780  27.286  1.00  0.00     0.021 C 
BRANCH  36  37
ATOM     37  C   UNL A   1      40.585  19.918  26.040  1.00  0.00     0.116 C 
BRANCH  37  38
ATOM     38  N   UNL A   1      41.739  19.032  25.869  1.00  0.00    -0.352 N 
ATOM     39  C   UNL A   1      43.075  19.341  25.726  1.00  0.00     0.251 C 
ATOM     40  H   UNL A   1      41.528  18.070  25.852  1.00  0.00     0.163 HD
ATOM     41  O   UNL A   1      43.928  18.477  25.564  1.00  0.00    -0.269 OA
BRANCH  39  42
ATOM     42  C   UNL A   1      43.467  20.756  25.748  1.00  0.00     0.039 A 
ATOM     43  C   UNL A   1      43.265  21.566  24.628  1.00  0.00     0.014 A 
ATOM     44  C   UNL A   1      43.921  21.292  26.946  1.00  0.00     0.014 A 
ATOM     45  C   UNL A   1      43.423  22.947  24.751  1.00  0.00     0.010 A 
ATOM     46  C   UNL A   1      43.884  22.659  27.113  1.00  0.00     0.010 A 
ATOM     47  C   UNL A   1      43.681  23.506  26.011  1.00  0.00    -0.014 A 
BRANCH  47  48
ATOM     48  C   UNL A   1      43.855  24.957  26.257  1.00  0.00     0.031 A 
ATOM     49  C   UNL A   1      45.226  25.541  26.029  1.00  0.00     0.074 A 
ATOM     50  C   UNL A   1      42.877  25.689  26.822  1.00  0.00     0.049 A 
ATOM     51  N   UNL A   1      45.742  26.656  26.471  1.00  0.00    -0.248 NA
ATOM     52  C   UNL A   1      46.176  24.697  25.278  1.00  0.00     0.031 C 
ATOM     53  C   UNL A   1      41.525  25.223  27.129  1.00  0.00     0.029 A 
ATOM     54  N   UNL A   1      42.892  26.985  27.272  1.00  0.00    -0.354 N 
ATOM     55  C   UNL A   1      47.083  26.606  26.113  1.00  0.00     0.074 A 
ATOM     56  C   UNL A   1      47.321  25.318  25.508  1.00  0.00     0.031 C 
ATOM     57  C   UNL A   1      40.832  26.225  27.693  1.00  0.00     0.029 A 
ATOM     58  C   UNL A   1      41.708  27.382  27.845  1.00  0.00     0.049 A 
ATOM     59  H   UNL A   1      43.676  27.575  27.191  1.00  0.00     0.167 HD
ATOM     60  C   UNL A   1      48.025  27.569  26.240  1.00  0.00     0.037 A 
ATOM     61  C   UNL A   1      41.386  28.546  28.441  1.00  0.00     0.037 A 
ATOM     62  C   UNL A   1      47.744  28.874  26.770  1.00  0.00     0.049 A 
ATOM     63  C   UNL A   1      42.439  29.621  28.543  1.00  0.00     0.074 A 
ATOM     64  C   UNL A   1      48.585  29.963  26.874  1.00  0.00     0.029 A 
ATOM     65  N   UNL A   1      46.509  29.265  27.270  1.00  0.00    -0.354 N 
ATOM     66  N   UNL A   1      43.695  29.590  28.163  1.00  0.00    -0.248 NA
ATOM     67  C   UNL A   1      42.031  30.892  29.154  1.00  0.00     0.031 C 
ATOM     68  C   UNL A   1      47.873  31.002  27.479  1.00  0.00     0.029 A 
ATOM     69  C   UNL A   1      46.568  30.579  27.691  1.00  0.00     0.049 A 
ATOM     70  H   UNL A   1      45.710  28.691  27.315  1.00  0.00     0.167 HD
ATOM     71  C   UNL A   1      44.211  30.847  28.445  1.00  0.00     0.074 A 
ATOM     72  C   UNL A   1      43.133  31.618  29.028  1.00  0.00     0.031 C 
ATOM     73  C   UNL A   1      45.463  31.327  28.237  1.00  0.00     0.037 A 
BRANCH  60  74
ATOM     74  C   UNL A   1      49.419  27.249  25.780  1.00  0.00     0.064 A 
ATOM     75  C   UNL A   1      49.808  27.388  24.438  1.00  0.00     0.173 A 
ATOM     76  C   UNL A   1      50.383  26.797  26.694  1.00  0.00     0.173 A 
ATOM     77  F   UNL A   1      48.925  27.802  23.517  1.00  0.00    -0.203 F 
ATOM     78  C   UNL A   1      51.092  27.042  24.021  1.00  0.00     0.198 A 
ATOM     79  C   UNL A   1      51.679  26.495  26.281  1.00  0.00     0.198 A 
ATOM     80  F   UNL A   1      50.071  26.647  27.990  1.00  0.00    -0.203 F 
ATOM     81  F   UNL A   1      51.412  27.110  22.721  1.00  0.00    -0.200 F 
ATOM     82  C   UNL A   1      52.028  26.605  24.944  1.00  0.00     0.200 A 
ATOM     83  F   UNL A   1      52.588  26.087  27.178  1.00  0.00    -0.200 F 
ATOM     84  F   UNL A   1      53.264  26.277  24.543  1.00  0.00    -0.200 F 
ENDBRANCH  60  74
BRANCH  61  85
ATOM     85  C   UNL A   1      40.006  28.771  28.948  1.00  0.00     0.064 A 
ATOM     86  C   UNL A   1      39.679  28.478  30.280  1.00  0.00     0.173 A 
ATOM     87  C   UNL A   1      38.988  29.277  28.126  1.00  0.00     0.173 A 
ATOM     88  F   UNL A   1      40.612  27.976  31.102  1.00  0.00    -0.203 F 
ATOM     89  C   UNL A   1      38.384  28.657  30.764  1.00  0.00     0.198 A 
ATOM     90  C   UNL A   1      37.700  29.487  28.619  1.00  0.00     0.198 A 
ATOM     91  F   UNL A   1      39.246  29.584  26.846  1.00  0.00    -0.203 F 
ATOM     92  F   UNL A   1      38.091  28.320  32.027  1.00  0.00    -0.200 F 
ATOM     93  C   UNL A   1      37.396  29.167  29.935  1.00  0.00     0.200 A 
ATOM     94  F   UNL A   1      36.753  29.994  27.820  1.00  0.00    -0.200 F 
ATOM     95  F   UNL A   1      36.152  29.341  30.400  1.00  0.00    -0.200 F 
ENDBRANCH  61  85
BRANCH  73  96
ATOM     96  C   UNL A   1      45.719  32.767  28.569  1.00  0.00     0.064 A 
ATOM     97  C   UNL A   1      46.218  33.164  29.816  1.00  0.00     0.173 A 
ATOM     98  C   UNL A   1      45.535  33.753  27.586  1.00  0.00     0.173 A 
ATOM     99  F   UNL A   1      46.399  32.259  30.790  1.00  0.00    -0.203 F 
ATOM    100  C   UNL A   1      46.510  34.500  30.074  1.00  0.00     0.198 A 
ATOM    101  C   UNL A   1      45.861  35.081  27.836  1.00  0.00     0.198 A 
ATOM    102  F   UNL A   1      45.070  33.421  26.373  1.00  0.00    -0.203 F 
ATOM    103  F   UNL A   1      46.949  34.865  31.286  1.00  0.00    -0.200 F 
ATOM    104  C   UNL A   1      46.342  35.454  29.082  1.00  0.00     0.200 A 
ATOM    105  F   UNL A   1      45.719  35.998  26.869  1.00  0.00    -0.200 F 
ATOM    106  F   UNL A   1      46.644  36.737  29.327  1.00  0.00    -0.200 F 
ENDBRANCH  73  96
ENDBRANCH  47  48
ENDBRANCH  39  42
ENDBRANCH  37  38
ENDBRANCH  36  37
ENDBRANCH  35  36
ENDBRANCH  34  35
ENDBRANCH  33  34
ENDBRANCH  32  33
ENDBRANCH   3  32
TORSDOF 22
ENDMDL
