MODEL 1
REMARK VINA RESULT:     -10.1      0.000      0.000
REMARK SMILES Cc1ccccc1C(=O)Nc1cc(NC(=O)c2ccccc2C)cc(C(=O)NCCCCCCNC(=O)c2ccc(-c3c4nc(c(-c5c(F)c(F)c(F)c(F)c5F)c5ccc([nH]5)c(-c5c(F)c(F)c(F)c(F)c5F)c5nc(c(-c6c(F)c(F)c(F)c(F)c6F)c6ccc3[nH]6)C=C5)C=C4)cc2)c1
REMARK SMILES IDX 31 1 30 2 29 3 28 4 26 5 27 6 25 8 11 9 12 10 101 11 13 12
REMARK SMILES IDX 24 13 10 14 8 15 9 16 7 18 1 19 2 20 3 21 4 22 6 23 5 24
REMARK SMILES IDX 14 25 15 26 16 28 17 29 18 30 22 31 19 32 21 33 23 34 20 35
REMARK SMILES IDX 32 36 33 37 34 38 35 39 36 40 37 42 38 43 39 44 100 45 40 46
REMARK SMILES IDX 99 47 41 48 42 49 43 50 93 51 44 52 98 53 92 54 94 55 45 56
REMARK SMILES IDX 97 57 91 58 90 59 46 61 78 62 58 63 77 64 59 65 62 66 76 67
REMARK SMILES IDX 95 68 60 69 61 70 75 72 96 73 63 74 47 75 48 76 56 77 49 78
REMARK SMILES IDX 50 79 54 80 57 81 51 82 52 83 55 84 53 85 79 86 80 87 88 88
REMARK SMILES IDX 81 89 82 90 86 91 89 92 83 93 84 94 87 95 85 96 64 97 65 98
REMARK SMILES IDX 73 99 66 100 67 101 71 102 74 103 68 104 69 105 72 106
REMARK SMILES IDX 70 107
REMARK H PARENT 28 7 10 17 14 27 35 41 94 60 62 71
REMARK Flexibility Score: inf
ROOT
ATOM      1  C   UNL A   1      41.325  34.665  29.443  1.00  0.00     0.002 C 
ENDROOT
BRANCH   1   2
ATOM      2  C   UNL A   1      42.243  34.757  30.659  1.00  0.00     0.021 C 
BRANCH   2   3
ATOM      3  C   UNL A   1      42.272  33.580  31.624  1.00  0.00     0.116 C 
BRANCH   3   4
ATOM      4  N   UNL A   1      42.146  33.901  33.030  1.00  0.00    -0.352 N 
ATOM      5  C   UNL A   1      41.130  33.643  33.927  1.00  0.00     0.251 C 
ATOM      6  O   UNL A   1      41.288  34.009  35.092  1.00  0.00    -0.269 OA
ATOM      7  H   UNL A   1      42.915  34.386  33.409  1.00  0.00     0.163 HD
BRANCH   5   8
ATOM      8  C   UNL A   1      39.849  32.959  33.557  1.00  0.00     0.043 A 
ATOM      9  C   UNL A   1      37.550  33.155  32.827  1.00  0.00     0.044 A 
ATOM     10  C   UNL A   1      37.403  31.769  32.850  1.00  0.00     0.052 A 
ATOM     11  C   UNL A   1      38.809  33.734  33.024  1.00  0.00     0.040 A 
ATOM     12  C   UNL A   1      38.438  30.986  33.335  1.00  0.00     0.044 A 
ATOM     13  C   UNL A   1      39.586  31.613  33.818  1.00  0.00     0.040 A 
BRANCH   9  14
ATOM     14  N   UNL A   1      36.440  34.009  32.786  1.00  0.00    -0.322 N 
ATOM     15  C   UNL A   1      35.590  34.286  31.727  1.00  0.00     0.255 C 
ATOM     16  O   UNL A   1      34.728  35.153  31.882  1.00  0.00    -0.269 OA
ATOM     17  H   UNL A   1      36.234  34.477  33.627  1.00  0.00     0.170 HD
BRANCH  15  18
ATOM     18  C   UNL A   1      35.643  33.567  30.408  1.00  0.00     0.043 A 
ATOM     19  C   UNL A   1      37.891  34.511  29.529  1.00  0.00     0.045 C 
ATOM     20  C   UNL A   1      36.610  33.737  29.392  1.00  0.00    -0.038 A 
ATOM     21  C   UNL A   1      36.430  33.074  28.160  1.00  0.00     0.004 A 
ATOM     22  C   UNL A   1      35.406  32.148  27.981  1.00  0.00     0.000 A 
ATOM     23  C   UNL A   1      34.646  32.590  30.226  1.00  0.00     0.014 A 
ATOM     24  C   UNL A   1      34.541  31.871  29.032  1.00  0.00     0.001 A 
ENDBRANCH  15  18
ENDBRANCH   9  14
BRANCH  12  25
ATOM     25  N   UNL A   1      38.397  29.589  33.446  1.00  0.00    -0.322 N 
ATOM     26  C   UNL A   1      38.349  28.596  32.496  1.00  0.00     0.255 C 
ATOM     27  H   UNL A   1      38.401  29.258  34.373  1.00  0.00     0.170 HD
ATOM     28  O   UNL A   1      38.162  27.435  32.859  1.00  0.00    -0.269 OA
BRANCH  26  29
ATOM     29  C   UNL A   1      38.567  28.873  31.058  1.00  0.00     0.043 A 
ATOM     30  C   UNL A   1      37.402  28.998  30.286  1.00  0.00     0.014 A 
ATOM     31  C   UNL A   1      39.837  28.979  30.454  1.00  0.00    -0.038 A 
ATOM     32  C   UNL A   1      37.487  29.308  28.930  1.00  0.00     0.001 A 
ATOM     33  C   UNL A   1      39.897  29.332  29.095  1.00  0.00     0.004 A 
ATOM     34  C   UNL A   1      41.138  28.751  31.172  1.00  0.00     0.045 C 
ATOM     35  C   UNL A   1      38.734  29.498  28.342  1.00  0.00     0.000 A 
ENDBRANCH  26  29
ENDBRANCH  12  25
ENDBRANCH   5   8
ENDBRANCH   3   4
ENDBRANCH   2   3
ENDBRANCH   1   2
BRANCH   1  36
ATOM     36  C   UNL A   1      41.380  35.794  28.404  1.00  0.00     0.002 C 
BRANCH  36  37
ATOM     37  C   UNL A   1      42.576  36.743  28.447  1.00  0.00     0.021 C 
BRANCH  37  38
ATOM     38  C   UNL A   1      43.567  36.619  27.297  1.00  0.00     0.116 C 
BRANCH  38  39
ATOM     39  N   UNL A   1      43.110  35.819  26.164  1.00  0.00    -0.352 N 
ATOM     40  C   UNL A   1      43.521  34.550  25.753  1.00  0.00     0.251 C 
ATOM     41  H   UNL A   1      42.411  36.236  25.610  1.00  0.00     0.163 HD
ATOM     42  O   UNL A   1      43.040  34.017  24.782  1.00  0.00    -0.269 OA
BRANCH  40  43
ATOM     43  C   UNL A   1      44.450  33.797  26.640  1.00  0.00     0.039 A 
ATOM     44  C   UNL A   1      45.532  33.165  26.019  1.00  0.00     0.014 A 
ATOM     45  C   UNL A   1      44.037  33.414  27.908  1.00  0.00     0.014 A 
ATOM     46  C   UNL A   1      45.955  31.935  26.506  1.00  0.00     0.010 A 
ATOM     47  C   UNL A   1      44.362  32.143  28.326  1.00  0.00     0.010 A 
ATOM     48  C   UNL A   1      45.253  31.376  27.570  1.00  0.00    -0.014 A 
BRANCH  48  49
ATOM     49  C   UNL A   1      45.369  29.980  27.947  1.00  0.00     0.031 A 
ATOM     50  C   UNL A   1      44.194  29.115  27.770  1.00  0.00     0.074 A 
ATOM     51  C   UNL A   1      46.530  29.480  28.426  1.00  0.00     0.049 A 
ATOM     52  N   UNL A   1      43.934  28.109  28.528  1.00  0.00    -0.248 NA
ATOM     53  C   UNL A   1      43.175  29.361  26.757  1.00  0.00     0.031 C 
ATOM     54  C   UNL A   1      46.873  28.072  28.606  1.00  0.00     0.029 A 
ATOM     55  N   UNL A   1      47.615  30.171  28.983  1.00  0.00    -0.354 N 
ATOM     56  C   UNL A   1      42.892  27.422  27.954  1.00  0.00     0.074 A 
ATOM     57  C   UNL A   1      42.392  28.291  26.913  1.00  0.00     0.031 C 
ATOM     58  C   UNL A   1      47.926  27.976  29.432  1.00  0.00     0.029 A 
ATOM     59  C   UNL A   1      48.217  29.305  29.932  1.00  0.00     0.049 A 
ATOM     60  H   UNL A   1      47.905  31.085  28.758  1.00  0.00     0.167 HD
ATOM     61  C   UNL A   1      42.673  26.130  28.327  1.00  0.00     0.037 A 
ATOM     62  C   UNL A   1      48.308  29.651  31.253  1.00  0.00     0.037 A 
ATOM     63  C   UNL A   1      43.652  25.705  29.329  1.00  0.00     0.049 A 
ATOM     64  C   UNL A   1      47.459  28.798  32.169  1.00  0.00     0.074 A 
ATOM     65  C   UNL A   1      44.859  25.031  29.240  1.00  0.00     0.029 A 
ATOM     66  N   UNL A   1      43.637  26.287  30.585  1.00  0.00    -0.354 N 
ATOM     67  N   UNL A   1      46.691  27.823  31.774  1.00  0.00    -0.248 NA
ATOM     68  C   UNL A   1      47.299  29.099  33.589  1.00  0.00     0.031 C 
ATOM     69  C   UNL A   1      45.552  25.190  30.471  1.00  0.00     0.029 A 
ATOM     70  C   UNL A   1      44.760  25.944  31.318  1.00  0.00     0.049 A 
ATOM     71  H   UNL A   1      42.918  26.872  30.917  1.00  0.00     0.167 HD
ATOM     72  C   UNL A   1      45.885  27.431  32.812  1.00  0.00     0.074 A 
ATOM     73  C   UNL A   1      46.283  28.287  33.916  1.00  0.00     0.031 C 
ATOM     74  C   UNL A   1      44.922  26.468  32.668  1.00  0.00     0.037 A 
BRANCH  61  75
ATOM     75  C   UNL A   1      41.784  25.175  27.568  1.00  0.00     0.064 A 
ATOM     76  C   UNL A   1      40.382  25.226  27.725  1.00  0.00     0.173 A 
ATOM     77  C   UNL A   1      42.244  24.161  26.705  1.00  0.00     0.173 A 
ATOM     78  F   UNL A   1      39.791  26.202  28.427  1.00  0.00    -0.203 F 
ATOM     79  C   UNL A   1      39.528  24.271  27.171  1.00  0.00     0.198 A 
ATOM     80  C   UNL A   1      41.394  23.175  26.189  1.00  0.00     0.198 A 
ATOM     81  F   UNL A   1      43.519  24.119  26.297  1.00  0.00    -0.203 F 
ATOM     82  F   UNL A   1      38.207  24.367  27.373  1.00  0.00    -0.200 F 
ATOM     83  C   UNL A   1      40.037  23.224  26.433  1.00  0.00     0.200 A 
ATOM     84  F   UNL A   1      41.903  22.176  25.453  1.00  0.00    -0.200 F 
ATOM     85  F   UNL A   1      39.222  22.281  25.941  1.00  0.00    -0.200 F 
ENDBRANCH  61  75
BRANCH  62  86
ATOM     86  C   UNL A   1      48.492  31.120  31.427  1.00  0.00     0.064 A 
ATOM     87  C   UNL A   1      49.790  31.618  31.222  1.00  0.00     0.173 A 
ATOM     88  C   UNL A   1      47.409  31.977  31.197  1.00  0.00     0.173 A 
ATOM     89  F   UNL A   1      50.858  30.853  31.500  1.00  0.00    -0.203 F 
ATOM     90  C   UNL A   1      49.978  32.805  30.526  1.00  0.00     0.198 A 
ATOM     91  C   UNL A   1      47.607  33.184  30.540  1.00  0.00     0.198 A 
ATOM     92  F   UNL A   1      46.155  31.583  31.457  1.00  0.00    -0.203 F 
ATOM     93  F   UNL A   1      51.209  33.153  30.124  1.00  0.00    -0.200 F 
ATOM     94  C   UNL A   1      48.882  33.555  30.133  1.00  0.00     0.200 A 
ATOM     95  F   UNL A   1      46.548  33.929  30.196  1.00  0.00    -0.200 F 
ATOM     96  F   UNL A   1      49.050  34.602  29.317  1.00  0.00    -0.200 F 
ENDBRANCH  62  86
BRANCH  74  97
ATOM     97  C   UNL A   1      44.036  25.963  33.788  1.00  0.00     0.064 A 
ATOM     98  C   UNL A   1      43.041  26.745  34.398  1.00  0.00     0.173 A 
ATOM     99  C   UNL A   1      44.215  24.681  34.363  1.00  0.00     0.173 A 
ATOM    100  F   UNL A   1      42.902  28.045  34.105  1.00  0.00    -0.203 F 
ATOM    101  C   UNL A   1      42.189  26.234  35.380  1.00  0.00     0.198 A 
ATOM    102  C   UNL A   1      43.405  24.194  35.386  1.00  0.00     0.198 A 
ATOM    103  F   UNL A   1      45.180  23.844  33.961  1.00  0.00    -0.203 F 
ATOM    104  F   UNL A   1      41.197  26.999  35.857  1.00  0.00    -0.200 F 
ATOM    105  C   UNL A   1      42.366  24.956  35.870  1.00  0.00     0.200 A 
ATOM    106  F   UNL A   1      43.641  22.976  35.894  1.00  0.00    -0.200 F 
ATOM    107  F   UNL A   1      41.557  24.470  36.820  1.00  0.00    -0.200 F 
ENDBRANCH  74  97
ENDBRANCH  48  49
ENDBRANCH  40  43
ENDBRANCH  38  39
ENDBRANCH  37  38
ENDBRANCH  36  37
ENDBRANCH   1  36
TORSDOF 17
ENDMDL
MODEL 2
REMARK VINA RESULT:     -10.0      5.745     10.756
REMARK SMILES Cc1ccccc1C(=O)Nc1cc(NC(=O)c2ccccc2C)cc(C(=O)NCCCCCCNC(=O)c2ccc(-c3c4nc(c(-c5c(F)c(F)c(F)c(F)c5F)c5ccc([nH]5)c(-c5c(F)c(F)c(F)c(F)c5F)c5nc(c(-c6c(F)c(F)c(F)c(F)c6F)c6ccc3[nH]6)C=C5)C=C4)cc2)c1
REMARK SMILES IDX 31 1 30 2 29 3 28 4 26 5 27 6 25 8 11 9 12 10 101 11 13 12
REMARK SMILES IDX 24 13 10 14 8 15 9 16 7 18 1 19 2 20 3 21 4 22 6 23 5 24
REMARK SMILES IDX 14 25 15 26 16 28 17 29 18 30 22 31 19 32 21 33 23 34 20 35
REMARK SMILES IDX 32 36 33 37 34 38 35 39 36 40 37 42 38 43 39 44 100 45 40 46
REMARK SMILES IDX 99 47 41 48 42 49 43 50 93 51 44 52 98 53 92 54 94 55 45 56
REMARK SMILES IDX 97 57 91 58 90 59 46 61 78 62 58 63 77 64 59 65 62 66 76 67
REMARK SMILES IDX 95 68 60 69 61 70 75 72 96 73 63 74 47 75 48 76 56 77 49 78
REMARK SMILES IDX 50 79 54 80 57 81 51 82 52 83 55 84 53 85 79 86 80 87 88 88
REMARK SMILES IDX 81 89 82 90 86 91 89 92 83 93 84 94 87 95 85 96 64 97 65 98
REMARK SMILES IDX 73 99 66 100 67 101 71 102 74 103 68 104 69 105 72 106
REMARK SMILES IDX 70 107
REMARK H PARENT 28 7 10 17 14 27 35 41 94 60 62 71
REMARK Flexibility Score: inf
ROOT
ATOM      1  C   UNL A   1      39.403  24.479  26.423  1.00  0.00     0.002 C 
ENDROOT
BRANCH   1   2
ATOM      2  C   UNL A   1      37.989  24.355  26.981  1.00  0.00     0.021 C 
BRANCH   2   3
ATOM      3  C   UNL A   1      36.949  23.629  26.139  1.00  0.00     0.116 C 
BRANCH   3   4
ATOM      4  N   UNL A   1      37.244  22.253  25.801  1.00  0.00    -0.352 N 
ATOM      5  C   UNL A   1      36.419  21.232  25.376  1.00  0.00     0.251 C 
ATOM      6  O   UNL A   1      36.938  20.142  25.129  1.00  0.00    -0.269 OA
ATOM      7  H   UNL A   1      38.193  22.005  25.889  1.00  0.00     0.163 HD
BRANCH   5   8
ATOM      8  C   UNL A   1      34.937  21.372  25.217  1.00  0.00     0.043 A 
ATOM      9  C   UNL A   1      32.895  20.581  24.187  1.00  0.00     0.044 A 
ATOM     10  C   UNL A   1      32.156  21.558  24.851  1.00  0.00     0.052 A 
ATOM     11  C   UNL A   1      34.247  20.389  24.492  1.00  0.00     0.040 A 
ATOM     12  C   UNL A   1      32.818  22.513  25.605  1.00  0.00     0.044 A 
ATOM     13  C   UNL A   1      34.212  22.485  25.650  1.00  0.00     0.040 A 
BRANCH   9  14
ATOM     14  N   UNL A   1      32.372  19.889  23.086  1.00  0.00    -0.322 N 
ATOM     15  C   UNL A   1      32.336  18.524  22.849  1.00  0.00     0.255 C 
ATOM     16  O   UNL A   1      31.915  18.131  21.759  1.00  0.00    -0.269 OA
ATOM     17  H   UNL A   1      31.973  20.451  22.382  1.00  0.00     0.170 HD
BRANCH  15  18
ATOM     18  C   UNL A   1      32.755  17.494  23.859  1.00  0.00     0.043 A 
ATOM     19  C   UNL A   1      34.819  16.535  22.619  1.00  0.00     0.045 C 
ATOM     20  C   UNL A   1      33.794  16.547  23.719  1.00  0.00    -0.038 A 
ATOM     21  C   UNL A   1      33.964  15.564  24.717  1.00  0.00     0.004 A 
ATOM     22  C   UNL A   1      33.229  15.602  25.898  1.00  0.00     0.000 A 
ATOM     23  C   UNL A   1      32.059  17.545  25.082  1.00  0.00     0.014 A 
ATOM     24  C   UNL A   1      32.308  16.621  26.100  1.00  0.00     0.001 A 
ENDBRANCH  15  18
ENDBRANCH   9  14
BRANCH  12  25
ATOM     25  N   UNL A   1      32.194  23.567  26.286  1.00  0.00    -0.322 N 
ATOM     26  C   UNL A   1      32.043  24.897  25.972  1.00  0.00     0.255 C 
ATOM     27  H   UNL A   1      31.791  23.309  27.146  1.00  0.00     0.170 HD
ATOM     28  O   UNL A   1      31.581  25.659  26.821  1.00  0.00    -0.269 OA
BRANCH  26  29
ATOM     29  C   UNL A   1      32.371  25.430  24.631  1.00  0.00     0.043 A 
ATOM     30  C   UNL A   1      33.497  26.264  24.573  1.00  0.00     0.014 A 
ATOM     31  C   UNL A   1      31.614  25.175  23.469  1.00  0.00    -0.038 A 
ATOM     32  C   UNL A   1      33.928  26.783  23.353  1.00  0.00     0.001 A 
ATOM     33  C   UNL A   1      32.090  25.674  22.244  1.00  0.00     0.004 A 
ATOM     34  C   UNL A   1      30.333  24.389  23.448  1.00  0.00     0.045 C 
ATOM     35  C   UNL A   1      33.237  26.467  22.187  1.00  0.00     0.000 A 
ENDBRANCH  26  29
ENDBRANCH  12  25
ENDBRANCH   5   8
ENDBRANCH   3   4
ENDBRANCH   2   3
ENDBRANCH   1   2
BRANCH   1  36
ATOM     36  C   UNL A   1      40.398  23.343  26.702  1.00  0.00     0.002 C 
BRANCH  36  37
ATOM     37  C   UNL A   1      41.828  23.508  26.191  1.00  0.00     0.021 C 
BRANCH  37  38
ATOM     38  C   UNL A   1      42.796  22.388  26.549  1.00  0.00     0.116 C 
BRANCH  38  39
ATOM     39  N   UNL A   1      43.512  21.800  25.421  1.00  0.00    -0.352 N 
ATOM     40  C   UNL A   1      44.712  22.197  24.828  1.00  0.00     0.251 C 
ATOM     41  H   UNL A   1      43.087  21.007  25.020  1.00  0.00     0.163 HD
ATOM     42  O   UNL A   1      45.179  21.598  23.890  1.00  0.00    -0.269 OA
BRANCH  40  43
ATOM     43  C   UNL A   1      45.489  23.282  25.488  1.00  0.00     0.039 A 
ATOM     44  C   UNL A   1      45.912  23.039  26.799  1.00  0.00     0.014 A 
ATOM     45  C   UNL A   1      45.432  24.575  24.989  1.00  0.00     0.014 A 
ATOM     46  C   UNL A   1      45.926  24.094  27.702  1.00  0.00     0.010 A 
ATOM     47  C   UNL A   1      45.322  25.604  25.898  1.00  0.00     0.010 A 
ATOM     48  C   UNL A   1      45.481  25.338  27.261  1.00  0.00    -0.014 A 
BRANCH  48  49
ATOM     49  C   UNL A   1      45.130  26.417  28.165  1.00  0.00     0.031 A 
ATOM     50  C   UNL A   1      43.720  26.824  28.241  1.00  0.00     0.074 A 
ATOM     51  C   UNL A   1      46.066  27.018  28.934  1.00  0.00     0.049 A 
ATOM     52  N   UNL A   1      43.343  28.028  28.495  1.00  0.00    -0.248 NA
ATOM     53  C   UNL A   1      42.616  25.912  27.968  1.00  0.00     0.031 C 
ATOM     54  C   UNL A   1      45.834  27.925  30.053  1.00  0.00     0.029 A 
ATOM     55  N   UNL A   1      47.458  27.028  28.766  1.00  0.00    -0.354 N 
ATOM     56  C   UNL A   1      41.983  27.998  28.689  1.00  0.00     0.074 A 
ATOM     57  C   UNL A   1      41.565  26.685  28.254  1.00  0.00     0.031 C 
ATOM     58  C   UNL A   1      46.965  28.597  30.319  1.00  0.00     0.029 A 
ATOM     59  C   UNL A   1      47.931  28.257  29.294  1.00  0.00     0.049 A 
ATOM     60  H   UNL A   1      48.004  26.316  28.360  1.00  0.00     0.167 HD
ATOM     61  C   UNL A   1      41.390  29.038  29.341  1.00  0.00     0.037 A 
ATOM     62  C   UNL A   1      48.602  29.156  28.510  1.00  0.00     0.037 A 
ATOM     63  C   UNL A   1      42.383  30.042  29.727  1.00  0.00     0.049 A 
ATOM     64  C   UNL A   1      47.845  30.443  28.270  1.00  0.00     0.074 A 
ATOM     65  C   UNL A   1      43.092  30.266  30.897  1.00  0.00     0.029 A 
ATOM     66  N   UNL A   1      43.040  30.764  28.745  1.00  0.00    -0.354 N 
ATOM     67  N   UNL A   1      46.658  30.704  28.739  1.00  0.00    -0.248 NA
ATOM     68  C   UNL A   1      48.319  31.465  27.340  1.00  0.00     0.031 C 
ATOM     69  C   UNL A   1      44.162  31.155  30.608  1.00  0.00     0.029 A 
ATOM     70  C   UNL A   1      44.095  31.491  29.268  1.00  0.00     0.049 A 
ATOM     71  H   UNL A   1      42.788  30.760  27.793  1.00  0.00     0.167 HD
ATOM     72  C   UNL A   1      46.170  31.835  28.134  1.00  0.00     0.074 A 
ATOM     73  C   UNL A   1      47.237  32.251  27.241  1.00  0.00     0.031 C 
ATOM     74  C   UNL A   1      44.909  32.310  28.380  1.00  0.00     0.037 A 
BRANCH  61  75
ATOM     75  C   UNL A   1      39.985  28.994  29.892  1.00  0.00     0.064 A 
ATOM     76  C   UNL A   1      38.877  29.161  29.034  1.00  0.00     0.173 A 
ATOM     77  C   UNL A   1      39.659  28.833  31.253  1.00  0.00     0.173 A 
ATOM     78  F   UNL A   1      39.022  29.217  27.704  1.00  0.00    -0.203 F 
ATOM     79  C   UNL A   1      37.570  29.284  29.510  1.00  0.00     0.198 A 
ATOM     80  C   UNL A   1      38.357  29.005  31.735  1.00  0.00     0.198 A 
ATOM     81  F   UNL A   1      40.582  28.459  32.150  1.00  0.00    -0.203 F 
ATOM     82  F   UNL A   1      36.563  29.460  28.644  1.00  0.00    -0.200 F 
ATOM     83  C   UNL A   1      37.313  29.243  30.864  1.00  0.00     0.200 A 
ATOM     84  F   UNL A   1      38.121  28.937  33.054  1.00  0.00    -0.200 F 
ATOM     85  F   UNL A   1      36.066  29.408  31.324  1.00  0.00    -0.200 F 
ENDBRANCH  61  75
BRANCH  62  86
ATOM     86  C   UNL A   1      49.425  28.474  27.470  1.00  0.00     0.064 A 
ATOM     87  C   UNL A   1      50.688  28.009  27.876  1.00  0.00     0.173 A 
ATOM     88  C   UNL A   1      48.784  27.818  26.412  1.00  0.00     0.173 A 
ATOM     89  F   UNL A   1      51.368  28.654  28.837  1.00  0.00    -0.203 F 
ATOM     90  C   UNL A   1      51.139  26.765  27.454  1.00  0.00     0.198 A 
ATOM     91  C   UNL A   1      49.264  26.595  25.963  1.00  0.00     0.198 A 
ATOM     92  F   UNL A   1      47.619  28.271  25.929  1.00  0.00    -0.203 F 
ATOM     93  F   UNL A   1      52.223  26.222  28.026  1.00  0.00    -0.200 F 
ATOM     94  C   UNL A   1      50.394  26.034  26.544  1.00  0.00     0.200 A 
ATOM     95  F   UNL A   1      48.563  25.907  25.052  1.00  0.00    -0.200 F 
ATOM     96  F   UNL A   1      50.733  24.769  26.269  1.00  0.00    -0.200 F 
ENDBRANCH  62  86
BRANCH  74  97
ATOM     97  C   UNL A   1      44.335  33.576  27.779  1.00  0.00     0.064 A 
ATOM     98  C   UNL A   1      43.884  33.664  26.451  1.00  0.00     0.173 A 
ATOM     99  C   UNL A   1      44.297  34.795  28.498  1.00  0.00     0.173 A 
ATOM    100  F   UNL A   1      44.056  32.653  25.589  1.00  0.00    -0.203 F 
ATOM    101  C   UNL A   1      43.292  34.823  25.940  1.00  0.00     0.198 A 
ATOM    102  C   UNL A   1      43.765  35.968  27.968  1.00  0.00     0.198 A 
ATOM    103  F   UNL A   1      44.774  34.906  29.744  1.00  0.00    -0.203 F 
ATOM    104  F   UNL A   1      42.794  34.817  24.696  1.00  0.00    -0.200 F 
ATOM    105  C   UNL A   1      43.226  35.973  26.700  1.00  0.00     0.200 A 
ATOM    106  F   UNL A   1      43.775  37.091  28.700  1.00  0.00    -0.200 F 
ATOM    107  F   UNL A   1      42.670  37.087  26.207  1.00  0.00    -0.200 F 
ENDBRANCH  74  97
ENDBRANCH  48  49
ENDBRANCH  40  43
ENDBRANCH  38  39
ENDBRANCH  37  38
ENDBRANCH  36  37
ENDBRANCH   1  36
TORSDOF 17
ENDMDL
MODEL 3
REMARK VINA RESULT:      -9.7      5.331     10.575
REMARK SMILES Cc1ccccc1C(=O)Nc1cc(NC(=O)c2ccccc2C)cc(C(=O)NCCCCCCNC(=O)c2ccc(-c3c4nc(c(-c5c(F)c(F)c(F)c(F)c5F)c5ccc([nH]5)c(-c5c(F)c(F)c(F)c(F)c5F)c5nc(c(-c6c(F)c(F)c(F)c(F)c6F)c6ccc3[nH]6)C=C5)C=C4)cc2)c1
REMARK SMILES IDX 31 1 30 2 29 3 28 4 26 5 27 6 25 8 11 9 12 10 101 11 13 12
REMARK SMILES IDX 24 13 10 14 8 15 9 16 7 18 1 19 2 20 3 21 4 22 6 23 5 24
REMARK SMILES IDX 14 25 15 26 16 28 17 29 18 30 22 31 19 32 21 33 23 34 20 35
REMARK SMILES IDX 32 36 33 37 34 38 35 39 36 40 37 42 38 43 39 44 100 45 40 46
REMARK SMILES IDX 99 47 41 48 42 49 43 50 93 51 44 52 98 53 92 54 94 55 45 56
REMARK SMILES IDX 97 57 91 58 90 59 46 61 78 62 58 63 77 64 59 65 62 66 76 67
REMARK SMILES IDX 95 68 60 69 61 70 75 72 96 73 63 74 47 75 48 76 56 77 49 78
REMARK SMILES IDX 50 79 54 80 57 81 51 82 52 83 55 84 53 85 79 86 80 87 88 88
REMARK SMILES IDX 81 89 82 90 86 91 89 92 83 93 84 94 87 95 85 96 64 97 65 98
REMARK SMILES IDX 73 99 66 100 67 101 71 102 74 103 68 104 69 105 72 106
REMARK SMILES IDX 70 107
REMARK H PARENT 28 7 10 17 14 27 35 41 94 60 62 71
REMARK Flexibility Score: inf
ROOT
ATOM      1  C   UNL A   1      41.046  21.149  27.716  1.00  0.00     0.002 C 
ENDROOT
BRANCH   1   2
ATOM      2  C   UNL A   1      40.518  20.460  26.460  1.00  0.00     0.021 C 
BRANCH   2   3
ATOM      3  C   UNL A   1      39.357  21.109  25.722  1.00  0.00     0.116 C 
BRANCH   3   4
ATOM      4  N   UNL A   1      39.053  22.478  26.082  1.00  0.00    -0.352 N 
ATOM      5  C   UNL A   1      37.878  23.195  25.992  1.00  0.00     0.251 C 
ATOM      6  O   UNL A   1      37.884  24.359  26.397  1.00  0.00    -0.269 OA
ATOM      7  H   UNL A   1      39.814  22.982  26.452  1.00  0.00     0.163 HD
BRANCH   5   8
ATOM      8  C   UNL A   1      36.609  22.642  25.418  1.00  0.00     0.043 A 
ATOM      9  C   UNL A   1      34.974  22.673  23.635  1.00  0.00     0.044 A 
ATOM     10  C   UNL A   1      34.237  21.672  24.264  1.00  0.00     0.052 A 
ATOM     11  C   UNL A   1      36.231  23.041  24.128  1.00  0.00     0.040 A 
ATOM     12  C   UNL A   1      34.621  21.237  25.522  1.00  0.00     0.044 A 
ATOM     13  C   UNL A   1      35.718  21.842  26.136  1.00  0.00     0.040 A 
BRANCH   9  14
ATOM     14  N   UNL A   1      34.420  23.458  22.614  1.00  0.00    -0.322 N 
ATOM     15  C   UNL A   1      33.515  24.504  22.709  1.00  0.00     0.255 C 
ATOM     16  O   UNL A   1      33.080  24.996  21.666  1.00  0.00    -0.269 OA
ATOM     17  H   UNL A   1      34.715  23.236  21.701  1.00  0.00     0.170 HD
BRANCH  15  18
ATOM     18  C   UNL A   1      33.058  25.091  24.015  1.00  0.00     0.043 A 
ATOM     19  C   UNL A   1      31.024  23.547  24.456  1.00  0.00     0.045 C 
ATOM     20  C   UNL A   1      31.901  24.734  24.742  1.00  0.00    -0.038 A 
ATOM     21  C   UNL A   1      31.553  25.484  25.886  1.00  0.00     0.004 A 
ATOM     22  C   UNL A   1      32.402  26.465  26.390  1.00  0.00     0.000 A 
ATOM     23  C   UNL A   1      33.926  26.050  24.569  1.00  0.00     0.014 A 
ATOM     24  C   UNL A   1      33.612  26.716  25.757  1.00  0.00     0.001 A 
ENDBRANCH  15  18
ENDBRANCH   9  14
BRANCH  12  25
ATOM     25  N   UNL A   1      33.942  20.268  26.273  1.00  0.00    -0.322 N 
ATOM     26  C   UNL A   1      33.158  19.203  25.898  1.00  0.00     0.255 C 
ATOM     27  H   UNL A   1      34.044  20.369  27.247  1.00  0.00     0.170 HD
ATOM     28  O   UNL A   1      32.542  18.584  26.766  1.00  0.00    -0.269 OA
BRANCH  26  29
ATOM     29  C   UNL A   1      33.073  18.746  24.493  1.00  0.00     0.043 A 
ATOM     30  C   UNL A   1      32.119  19.405  23.702  1.00  0.00     0.014 A 
ATOM     31  C   UNL A   1      33.849  17.703  23.949  1.00  0.00    -0.038 A 
ATOM     32  C   UNL A   1      31.986  19.092  22.351  1.00  0.00     0.001 A 
ATOM     33  C   UNL A   1      33.727  17.432  22.575  1.00  0.00     0.004 A 
ATOM     34  C   UNL A   1      34.814  16.865  24.739  1.00  0.00     0.045 C 
ATOM     35  C   UNL A   1      32.807  18.122  21.784  1.00  0.00     0.000 A 
ENDBRANCH  26  29
ENDBRANCH  12  25
ENDBRANCH   5   8
ENDBRANCH   3   4
ENDBRANCH   2   3
ENDBRANCH   1   2
BRANCH   1  36
ATOM     36  C   UNL A   1      42.443  21.783  27.664  1.00  0.00     0.002 C 
BRANCH  36  37
ATOM     37  C   UNL A   1      43.179  21.777  26.326  1.00  0.00     0.021 C 
BRANCH  37  38
ATOM     38  C   UNL A   1      43.514  23.143  25.744  1.00  0.00     0.116 C 
BRANCH  38  39
ATOM     39  N   UNL A   1      42.365  23.944  25.330  1.00  0.00    -0.352 N 
ATOM     40  C   UNL A   1      41.851  25.112  25.895  1.00  0.00     0.251 C 
ATOM     41  H   UNL A   1      41.884  23.611  24.539  1.00  0.00     0.163 HD
ATOM     42  O   UNL A   1      40.881  25.661  25.429  1.00  0.00    -0.269 OA
BRANCH  40  43
ATOM     43  C   UNL A   1      42.628  25.759  26.988  1.00  0.00     0.039 A 
ATOM     44  C   UNL A   1      42.292  25.392  28.295  1.00  0.00     0.014 A 
ATOM     45  C   UNL A   1      43.330  26.930  26.737  1.00  0.00     0.014 A 
ATOM     46  C   UNL A   1      42.340  26.357  29.292  1.00  0.00     0.010 A 
ATOM     47  C   UNL A   1      43.264  27.926  27.685  1.00  0.00     0.010 A 
ATOM     48  C   UNL A   1      42.686  27.656  28.929  1.00  0.00    -0.014 A 
BRANCH  48  49
ATOM     49  C   UNL A   1      42.450  28.805  29.783  1.00  0.00     0.031 A 
ATOM     50  C   UNL A   1      41.193  29.546  29.614  1.00  0.00     0.074 A 
ATOM     51  C   UNL A   1      43.349  29.171  30.725  1.00  0.00     0.049 A 
ATOM     52  N   UNL A   1      41.081  30.810  29.828  1.00  0.00    -0.248 NA
ATOM     53  C   UNL A   1      39.968  28.927  29.121  1.00  0.00     0.031 C 
ATOM     54  C   UNL A   1      43.145  30.128  31.809  1.00  0.00     0.029 A 
ATOM     55  N   UNL A   1      44.708  28.837  30.813  1.00  0.00    -0.354 N 
ATOM     56  C   UNL A   1      39.743  31.118  29.773  1.00  0.00     0.074 A 
ATOM     57  C   UNL A   1      39.104  29.939  29.234  1.00  0.00     0.031 C 
ATOM     58  C   UNL A   1      44.338  30.507  32.293  1.00  0.00     0.029 A 
ATOM     59  C   UNL A   1      45.362  29.922  31.450  1.00  0.00     0.049 A 
ATOM     60  H   UNL A   1      45.128  28.006  30.492  1.00  0.00     0.167 HD
ATOM     61  C   UNL A   1      39.314  32.283  30.335  1.00  0.00     0.037 A 
ATOM     62  C   UNL A   1      46.363  30.615  30.826  1.00  0.00     0.037 A 
ATOM     63  C   UNL A   1      40.434  33.020  30.921  1.00  0.00     0.049 A 
ATOM     64  C   UNL A   1      46.000  32.044  30.487  1.00  0.00     0.074 A 
ATOM     65  C   UNL A   1      40.951  33.084  32.205  1.00  0.00     0.029 A 
ATOM     66  N   UNL A   1      41.415  33.541  30.094  1.00  0.00    -0.354 N 
ATOM     67  N   UNL A   1      44.848  32.596  30.741  1.00  0.00    -0.248 NA
ATOM     68  C   UNL A   1      46.871  32.901  29.687  1.00  0.00     0.031 C 
ATOM     69  C   UNL A   1      42.241  33.679  32.139  1.00  0.00     0.029 A 
ATOM     70  C   UNL A   1      42.503  33.996  30.819  1.00  0.00     0.049 A 
ATOM     71  H   UNL A   1      41.348  33.581  29.113  1.00  0.00     0.167 HD
ATOM     72  C   UNL A   1      44.770  33.801  30.089  1.00  0.00     0.074 A 
ATOM     73  C   UNL A   1      46.050  33.926  29.415  1.00  0.00     0.031 C 
ATOM     74  C   UNL A   1      43.640  34.574  30.115  1.00  0.00     0.037 A 
BRANCH  61  75
ATOM     75  C   UNL A   1      37.865  32.595  30.621  1.00  0.00     0.064 A 
ATOM     76  C   UNL A   1      37.124  33.411  29.741  1.00  0.00     0.173 A 
ATOM     77  C   UNL A   1      37.158  32.159  31.758  1.00  0.00     0.173 A 
ATOM     78  F   UNL A   1      37.625  33.812  28.566  1.00  0.00    -0.203 F 
ATOM     79  C   UNL A   1      35.833  33.856  30.036  1.00  0.00     0.198 A 
ATOM     80  C   UNL A   1      35.884  32.643  32.078  1.00  0.00     0.198 A 
ATOM     81  F   UNL A   1      37.657  31.217  32.570  1.00  0.00    -0.203 F 
ATOM     82  F   UNL A   1      35.190  34.646  29.165  1.00  0.00    -0.200 F 
ATOM     83  C   UNL A   1      35.227  33.503  31.222  1.00  0.00     0.200 A 
ATOM     84  F   UNL A   1      35.298  32.269  33.225  1.00  0.00    -0.200 F 
ATOM     85  F   UNL A   1      34.008  33.968  31.526  1.00  0.00    -0.200 F 
ENDBRANCH  61  75
BRANCH  62  86
ATOM     86  C   UNL A   1      47.170  29.734  29.933  1.00  0.00     0.064 A 
ATOM     87  C   UNL A   1      46.890  29.811  28.558  1.00  0.00     0.173 A 
ATOM     88  C   UNL A   1      48.458  29.355  30.328  1.00  0.00     0.173 A 
ATOM     89  F   UNL A   1      45.648  30.100  28.137  1.00  0.00    -0.203 F 
ATOM     90  C   UNL A   1      47.928  29.814  27.636  1.00  0.00     0.198 A 
ATOM     91  C   UNL A   1      49.486  29.316  29.394  1.00  0.00     0.198 A 
ATOM     92  F   UNL A   1      48.757  29.183  31.623  1.00  0.00    -0.203 F 
ATOM     93  F   UNL A   1      47.681  30.126  26.356  1.00  0.00    -0.200 F 
ATOM     94  C   UNL A   1      49.232  29.627  28.065  1.00  0.00     0.200 A 
ATOM     95  F   UNL A   1      50.741  29.094  29.806  1.00  0.00    -0.200 F 
ATOM     96  F   UNL A   1      50.246  29.801  27.210  1.00  0.00    -0.200 F 
ENDBRANCH  62  86
BRANCH  74  97
ATOM     97  C   UNL A   1      43.512  35.932  29.455  1.00  0.00     0.064 A 
ATOM     98  C   UNL A   1      43.782  37.140  30.118  1.00  0.00     0.173 A 
ATOM     99  C   UNL A   1      43.022  36.079  28.135  1.00  0.00     0.173 A 
ATOM    100  F   UNL A   1      44.048  37.169  31.431  1.00  0.00    -0.203 F 
ATOM    101  C   UNL A   1      43.728  38.376  29.468  1.00  0.00     0.198 A 
ATOM    102  C   UNL A   1      42.907  37.317  27.506  1.00  0.00     0.198 A 
ATOM    103  F   UNL A   1      42.631  35.033  27.396  1.00  0.00    -0.203 F 
ATOM    104  F   UNL A   1      44.087  39.486  30.127  1.00  0.00    -0.200 F 
ATOM    105  C   UNL A   1      43.296  38.464  28.160  1.00  0.00     0.200 A 
ATOM    106  F   UNL A   1      42.419  37.383  26.260  1.00  0.00    -0.200 F 
ATOM    107  F   UNL A   1      43.232  39.649  27.540  1.00  0.00    -0.200 F 
ENDBRANCH  74  97
ENDBRANCH  48  49
ENDBRANCH  40  43
ENDBRANCH  38  39
ENDBRANCH  37  38
ENDBRANCH  36  37
ENDBRANCH   1  36
TORSDOF 17
ENDMDL
