MODEL 1
REMARK VINA RESULT:     -12.3      0.000      0.000
REMARK SMILES C[C@@](COc1ccccc1)(NC(=O)CN1CSCC1=O)C(=O)NCCCCCCNC(=O)c1ccc(-c2c3nc(c(-c4c(F)c(F)c(F)c(F)c4F)c4ccc([nH]4)c(-c4c(F)c(F)c(F)c(F)c4F)c4nc(c(-c5c(F)c(F)c(F)c(F)c5F)c5ccc2[nH]5)C=C4)C=C3)cc1
REMARK SMILES IDX 26 1 25 2 24 3 23 4 21 5 22 6 2 8 1 9 3 10 4 11 5 12 6 13
REMARK SMILES IDX 10 14 7 15 9 16 8 17 11 18 12 19 13 21 14 22 15 23 16 24
REMARK SMILES IDX 19 25 17 26 18 27 20 28 27 29 28 30 29 31 30 32 31 33 32 35
REMARK SMILES IDX 33 36 34 37 95 38 35 39 94 40 36 41 37 42 38 43 88 44 39 45
REMARK SMILES IDX 93 46 87 47 89 48 40 49 92 50 86 51 85 52 41 54 73 55 53 56
REMARK SMILES IDX 72 57 54 58 57 59 71 60 90 61 55 62 56 63 70 65 91 66 58 67
REMARK SMILES IDX 42 68 43 69 51 70 44 71 45 72 49 73 52 74 46 75 47 76 50 77
REMARK SMILES IDX 48 78 74 79 75 80 83 81 76 82 77 83 81 84 84 85 78 86 79 87
REMARK SMILES IDX 82 88 80 89 59 90 60 91 68 92 61 93 62 94 66 95 69 96 63 97
REMARK SMILES IDX 64 98 67 99 65 100
REMARK H PARENT 23 7 11 20 30 34 89 53 57 64
REMARK Flexibility Score: inf
ROOT
ATOM      1  C   UNL A   1      32.392  29.641  27.162  1.00  0.00     0.002 C 
ENDROOT
BRANCH   1   2
ATOM      2  C   UNL A   1      31.528  28.388  27.349  1.00  0.00     0.021 C 
BRANCH   2   3
ATOM      3  C   UNL A   1      31.843  27.229  26.405  1.00  0.00     0.116 C 
BRANCH   3   4
ATOM      4  N   UNL A   1      30.773  26.906  25.479  1.00  0.00    -0.354 N 
ATOM      5  C   UNL A   1      30.730  26.888  24.117  1.00  0.00     0.249 C 
ATOM      6  O   UNL A   1      29.833  26.213  23.600  1.00  0.00    -0.272 OA
ATOM      7  H   UNL A   1      29.926  26.656  25.913  1.00  0.00     0.163 HD
BRANCH   5   8
ATOM      8  C   UNL A   1      31.863  27.489  23.252  1.00  0.00     0.150 C 
ATOM      9  C   UNL A   1      33.172  27.553  24.072  1.00  0.00     0.049 C 
BRANCH   8  10
ATOM     10  C   UNL A   1      31.365  28.943  22.948  1.00  0.00     0.267 C 
BRANCH  10  11
ATOM     11  O   UNL A   1      30.198  29.276  23.730  1.00  0.00    -0.491 OA
BRANCH  11  12
ATOM     12  C   UNL A   1      29.448  30.235  23.114  1.00  0.00     0.119 A 
ATOM     13  C   UNL A   1      29.086  31.401  23.785  1.00  0.00     0.046 A 
ATOM     14  C   UNL A   1      29.033  30.007  21.805  1.00  0.00     0.046 A 
ATOM     15  C   UNL A   1      28.364  32.383  23.107  1.00  0.00     0.004 A 
ATOM     16  C   UNL A   1      28.333  30.997  21.122  1.00  0.00     0.004 A 
ATOM     17  C   UNL A   1      28.007  32.189  21.771  1.00  0.00     0.000 A 
ENDBRANCH  11  12
ENDBRANCH  10  11
ENDBRANCH   8  10
BRANCH   8  18
ATOM     18  N   UNL A   1      32.128  26.793  21.965  1.00  0.00    -0.338 N 
ATOM     19  C   UNL A   1      32.590  25.545  21.679  1.00  0.00     0.240 C 
ATOM     20  H   UNL A   1      31.933  27.339  21.169  1.00  0.00     0.164 HD
ATOM     21  O   UNL A   1      33.138  25.376  20.587  1.00  0.00    -0.273 OA
BRANCH  19  22
ATOM     22  C   UNL A   1      32.372  24.358  22.620  1.00  0.00     0.220 C 
BRANCH  22  23
ATOM     23  N   UNL A   1      33.318  24.203  23.701  1.00  0.00    -0.323 N 
ATOM     24  C   UNL A   1      34.716  24.047  23.413  1.00  0.00     0.190 C 
ATOM     25  C   UNL A   1      32.898  23.958  24.995  1.00  0.00     0.233 C 
ATOM     26  S   UNL A   1      35.556  23.794  24.982  1.00  0.00    -0.130 SA
ATOM     27  C   UNL A   1      34.047  23.951  25.969  1.00  0.00     0.171 C 
ATOM     28  O   UNL A   1      31.727  23.807  25.324  1.00  0.00    -0.274 OA
ENDBRANCH  22  23
ENDBRANCH  19  22
ENDBRANCH   8  18
ENDBRANCH   5   8
ENDBRANCH   3   4
ENDBRANCH   2   3
ENDBRANCH   1   2
BRANCH   1  29
ATOM     29  C   UNL A   1      31.804  30.697  26.225  1.00  0.00     0.002 C 
BRANCH  29  30
ATOM     30  C   UNL A   1      31.513  32.043  26.882  1.00  0.00     0.021 C 
BRANCH  30  31
ATOM     31  C   UNL A   1      32.753  32.814  27.314  1.00  0.00     0.116 C 
BRANCH  31  32
ATOM     32  N   UNL A   1      32.458  34.204  27.615  1.00  0.00    -0.352 N 
ATOM     33  C   UNL A   1      32.993  34.999  28.598  1.00  0.00     0.251 C 
ATOM     34  H   UNL A   1      31.785  34.633  27.038  1.00  0.00     0.163 HD
ATOM     35  O   UNL A   1      32.504  36.090  28.857  1.00  0.00    -0.269 OA
BRANCH  33  36
ATOM     36  C   UNL A   1      34.156  34.506  29.366  1.00  0.00     0.039 A 
ATOM     37  C   UNL A   1      33.939  33.906  30.606  1.00  0.00     0.014 A 
ATOM     38  C   UNL A   1      35.449  34.611  28.845  1.00  0.00     0.014 A 
ATOM     39  C   UNL A   1      35.017  33.352  31.299  1.00  0.00     0.010 A 
ATOM     40  C   UNL A   1      36.509  33.993  29.500  1.00  0.00     0.010 A 
ATOM     41  C   UNL A   1      36.304  33.358  30.734  1.00  0.00    -0.014 A 
BRANCH  41  42
ATOM     42  C   UNL A   1      37.441  32.691  31.418  1.00  0.00     0.031 A 
ATOM     43  C   UNL A   1      38.143  31.533  30.768  1.00  0.00     0.074 A 
ATOM     44  C   UNL A   1      37.802  33.094  32.652  1.00  0.00     0.049 A 
ATOM     45  N   UNL A   1      39.124  30.795  31.227  1.00  0.00    -0.248 NA
ATOM     46  C   UNL A   1      37.664  31.131  29.437  1.00  0.00     0.031 C 
ATOM     47  C   UNL A   1      37.163  34.173  33.407  1.00  0.00     0.029 A 
ATOM     48  N   UNL A   1      38.787  32.638  33.492  1.00  0.00    -0.354 N 
ATOM     49  C   UNL A   1      39.369  29.842  30.248  1.00  0.00     0.074 A 
ATOM     50  C   UNL A   1      38.400  30.056  29.196  1.00  0.00     0.031 C 
ATOM     51  C   UNL A   1      37.787  34.312  34.588  1.00  0.00     0.029 A 
ATOM     52  C   UNL A   1      38.841  33.307  34.691  1.00  0.00     0.049 A 
ATOM     53  H   UNL A   1      39.397  31.902  33.257  1.00  0.00     0.167 HD
ATOM     54  C   UNL A   1      40.331  28.889  30.221  1.00  0.00     0.037 A 
ATOM     55  C   UNL A   1      39.644  33.124  35.756  1.00  0.00     0.037 A 
ATOM     56  C   UNL A   1      41.305  28.692  31.264  1.00  0.00     0.049 A 
ATOM     57  C   UNL A   1      40.696  32.048  35.706  1.00  0.00     0.074 A 
ATOM     58  C   UNL A   1      42.362  27.800  31.300  1.00  0.00     0.029 A 
ATOM     59  N   UNL A   1      41.333  29.391  32.462  1.00  0.00    -0.354 N 
ATOM     60  N   UNL A   1      40.972  31.206  34.740  1.00  0.00    -0.248 NA
ATOM     61  C   UNL A   1      41.550  31.903  36.892  1.00  0.00     0.031 C 
ATOM     62  C   UNL A   1      42.992  27.918  32.542  1.00  0.00     0.029 A 
ATOM     63  C   UNL A   1      42.369  28.928  33.257  1.00  0.00     0.049 A 
ATOM     64  H   UNL A   1      40.709  30.112  32.710  1.00  0.00     0.167 HD
ATOM     65  C   UNL A   1      42.045  30.448  35.190  1.00  0.00     0.074 A 
ATOM     66  C   UNL A   1      42.381  30.945  36.508  1.00  0.00     0.031 C 
ATOM     67  C   UNL A   1      42.691  29.430  34.569  1.00  0.00     0.037 A 
BRANCH  54  68
ATOM     68  C   UNL A   1      40.378  27.982  29.024  1.00  0.00     0.064 A 
ATOM     69  C   UNL A   1      39.662  26.775  28.981  1.00  0.00     0.173 A 
ATOM     70  C   UNL A   1      41.120  28.343  27.888  1.00  0.00     0.173 A 
ATOM     71  F   UNL A   1      38.945  26.379  30.044  1.00  0.00    -0.203 F 
ATOM     72  C   UNL A   1      39.711  25.951  27.861  1.00  0.00     0.198 A 
ATOM     73  C   UNL A   1      41.140  27.531  26.756  1.00  0.00     0.198 A 
ATOM     74  F   UNL A   1      41.818  29.488  27.871  1.00  0.00    -0.203 F 
ATOM     75  F   UNL A   1      39.060  24.779  27.865  1.00  0.00    -0.200 F 
ATOM     76  C   UNL A   1      40.443  26.333  26.747  1.00  0.00     0.200 A 
ATOM     77  F   UNL A   1      41.835  27.910  25.675  1.00  0.00    -0.200 F 
ATOM     78  F   UNL A   1      40.482  25.542  25.665  1.00  0.00    -0.200 F 
ENDBRANCH  54  68
BRANCH  55  79
ATOM     79  C   UNL A   1      39.493  33.990  36.956  1.00  0.00     0.064 A 
ATOM     80  C   UNL A   1      40.100  35.252  37.015  1.00  0.00     0.173 A 
ATOM     81  C   UNL A   1      38.745  33.573  38.065  1.00  0.00     0.173 A 
ATOM     82  F   UNL A   1      40.843  35.688  35.986  1.00  0.00    -0.203 F 
ATOM     83  C   UNL A   1      39.980  36.056  38.147  1.00  0.00     0.198 A 
ATOM     84  C   UNL A   1      38.600  34.390  39.185  1.00  0.00     0.198 A 
ATOM     85  F   UNL A   1      38.140  32.375  38.058  1.00  0.00    -0.203 F 
ATOM     86  F   UNL A   1      40.609  37.238  38.197  1.00  0.00    -0.200 F 
ATOM     87  C   UNL A   1      39.225  35.628  39.228  1.00  0.00     0.200 A 
ATOM     88  F   UNL A   1      37.855  33.979  40.220  1.00  0.00    -0.200 F 
ATOM     89  F   UNL A   1      39.105  36.403  40.314  1.00  0.00    -0.200 F 
ENDBRANCH  55  79
BRANCH  67  90
ATOM     90  C   UNL A   1      43.844  28.800  35.298  1.00  0.00     0.064 A 
ATOM     91  C   UNL A   1      43.660  27.719  36.173  1.00  0.00     0.173 A 
ATOM     92  C   UNL A   1      45.152  29.260  35.089  1.00  0.00     0.173 A 
ATOM     93  F   UNL A   1      42.427  27.252  36.420  1.00  0.00    -0.203 F 
ATOM     94  C   UNL A   1      44.741  27.142  36.835  1.00  0.00     0.198 A 
ATOM     95  C   UNL A   1      46.235  28.658  35.725  1.00  0.00     0.198 A 
ATOM     96  F   UNL A   1      45.385  30.286  34.256  1.00  0.00    -0.203 F 
ATOM     97  F   UNL A   1      44.536  26.146  37.707  1.00  0.00    -0.200 F 
ATOM     98  C   UNL A   1      46.027  27.607  36.604  1.00  0.00     0.200 A 
ATOM     99  F   UNL A   1      47.478  29.098  35.489  1.00  0.00    -0.200 F 
ATOM    100  F   UNL A   1      47.067  27.044  37.234  1.00  0.00    -0.200 F 
ENDBRANCH  67  90
ENDBRANCH  41  42
ENDBRANCH  33  36
ENDBRANCH  31  32
ENDBRANCH  30  31
ENDBRANCH  29  30
ENDBRANCH   1  29
TORSDOF 19
ENDMDL
MODEL 2
REMARK VINA RESULT:     -12.2      0.755      2.116
REMARK SMILES C[C@@](COc1ccccc1)(NC(=O)CN1CSCC1=O)C(=O)NCCCCCCNC(=O)c1ccc(-c2c3nc(c(-c4c(F)c(F)c(F)c(F)c4F)c4ccc([nH]4)c(-c4c(F)c(F)c(F)c(F)c4F)c4nc(c(-c5c(F)c(F)c(F)c(F)c5F)c5ccc2[nH]5)C=C4)C=C3)cc1
REMARK SMILES IDX 26 1 25 2 24 3 23 4 21 5 22 6 2 8 1 9 3 10 4 11 5 12 6 13
REMARK SMILES IDX 10 14 7 15 9 16 8 17 11 18 12 19 13 21 14 22 15 23 16 24
REMARK SMILES IDX 19 25 17 26 18 27 20 28 27 29 28 30 29 31 30 32 31 33 32 35
REMARK SMILES IDX 33 36 34 37 95 38 35 39 94 40 36 41 37 42 38 43 88 44 39 45
REMARK SMILES IDX 93 46 87 47 89 48 40 49 92 50 86 51 85 52 41 54 73 55 53 56
REMARK SMILES IDX 72 57 54 58 57 59 71 60 90 61 55 62 56 63 70 65 91 66 58 67
REMARK SMILES IDX 42 68 43 69 51 70 44 71 45 72 49 73 52 74 46 75 47 76 50 77
REMARK SMILES IDX 48 78 74 79 75 80 83 81 76 82 77 83 81 84 84 85 78 86 79 87
REMARK SMILES IDX 82 88 80 89 59 90 60 91 68 92 61 93 62 94 66 95 69 96 63 97
REMARK SMILES IDX 64 98 67 99 65 100
REMARK H PARENT 23 7 11 20 30 34 89 53 57 64
REMARK Flexibility Score: inf
ROOT
ATOM      1  C   UNL A   1      32.270  29.667  27.129  1.00  0.00     0.002 C 
ENDROOT
BRANCH   1   2
ATOM      2  C   UNL A   1      33.546  28.947  26.678  1.00  0.00     0.021 C 
BRANCH   2   3
ATOM      3  C   UNL A   1      33.353  27.898  25.585  1.00  0.00     0.116 C 
BRANCH   3   4
ATOM      4  N   UNL A   1      32.050  27.259  25.593  1.00  0.00    -0.354 N 
ATOM      5  C   UNL A   1      31.216  26.891  24.580  1.00  0.00     0.249 C 
ATOM      6  O   UNL A   1      30.367  26.033  24.846  1.00  0.00    -0.272 OA
ATOM      7  H   UNL A   1      31.706  27.056  26.493  1.00  0.00     0.163 HD
BRANCH   5   8
ATOM      8  C   UNL A   1      31.446  27.347  23.121  1.00  0.00     0.150 C 
ATOM      9  C   UNL A   1      32.484  28.493  23.086  1.00  0.00     0.049 C 
BRANCH   8  10
ATOM     10  C   UNL A   1      30.047  27.896  22.679  1.00  0.00     0.267 C 
BRANCH  10  11
ATOM     11  O   UNL A   1      30.181  28.997  21.754  1.00  0.00    -0.491 OA
BRANCH  11  12
ATOM     12  C   UNL A   1      29.448  30.075  22.161  1.00  0.00     0.119 A 
ATOM     13  C   UNL A   1      29.404  30.444  23.503  1.00  0.00     0.046 A 
ATOM     14  C   UNL A   1      28.727  30.780  21.202  1.00  0.00     0.046 A 
ATOM     15  C   UNL A   1      28.688  31.581  23.875  1.00  0.00     0.004 A 
ATOM     16  C   UNL A   1      28.033  31.929  21.571  1.00  0.00     0.004 A 
ATOM     17  C   UNL A   1      28.021  32.334  22.906  1.00  0.00     0.000 A 
ENDBRANCH  11  12
ENDBRANCH  10  11
ENDBRANCH   8  10
BRANCH   8  18
ATOM     18  N   UNL A   1      31.866  26.282  22.172  1.00  0.00    -0.338 N 
ATOM     19  C   UNL A   1      33.044  25.621  22.002  1.00  0.00     0.240 C 
ATOM     20  H   UNL A   1      31.157  26.001  21.549  1.00  0.00     0.164 HD
ATOM     21  O   UNL A   1      33.268  25.131  20.892  1.00  0.00    -0.273 OA
BRANCH  19  22
ATOM     22  C   UNL A   1      34.031  25.402  23.151  1.00  0.00     0.220 C 
BRANCH  22  23
ATOM     23  N   UNL A   1      34.001  24.111  23.797  1.00  0.00    -0.323 N 
ATOM     24  C   UNL A   1      33.118  23.884  24.906  1.00  0.00     0.190 C 
ATOM     25  C   UNL A   1      34.967  23.155  23.538  1.00  0.00     0.233 C 
ATOM     26  S   UNL A   1      33.425  22.213  25.495  1.00  0.00    -0.130 SA
ATOM     27  C   UNL A   1      34.668  21.851  24.231  1.00  0.00     0.171 C 
ATOM     28  O   UNL A   1      35.929  23.328  22.800  1.00  0.00    -0.274 OA
ENDBRANCH  22  23
ENDBRANCH  19  22
ENDBRANCH   8  18
ENDBRANCH   5   8
ENDBRANCH   3   4
ENDBRANCH   2   3
ENDBRANCH   1   2
BRANCH   1  29
ATOM     29  C   UNL A   1      31.752  30.731  26.159  1.00  0.00     0.002 C 
BRANCH  29  30
ATOM     30  C   UNL A   1      31.464  32.088  26.795  1.00  0.00     0.021 C 
BRANCH  30  31
ATOM     31  C   UNL A   1      32.696  32.806  27.331  1.00  0.00     0.116 C 
BRANCH  31  32
ATOM     32  N   UNL A   1      32.432  34.204  27.624  1.00  0.00    -0.352 N 
ATOM     33  C   UNL A   1      32.992  34.995  28.596  1.00  0.00     0.251 C 
ATOM     34  H   UNL A   1      31.763  34.642  27.050  1.00  0.00     0.163 HD
ATOM     35  O   UNL A   1      32.528  36.098  28.851  1.00  0.00    -0.269 OA
BRANCH  33  36
ATOM     36  C   UNL A   1      34.151  34.484  29.358  1.00  0.00     0.039 A 
ATOM     37  C   UNL A   1      33.931  33.880  30.596  1.00  0.00     0.014 A 
ATOM     38  C   UNL A   1      35.444  34.575  28.833  1.00  0.00     0.014 A 
ATOM     39  C   UNL A   1      35.004  33.310  31.283  1.00  0.00     0.010 A 
ATOM     40  C   UNL A   1      36.499  33.941  29.482  1.00  0.00     0.010 A 
ATOM     41  C   UNL A   1      36.289  33.302  30.714  1.00  0.00    -0.014 A 
BRANCH  41  42
ATOM     42  C   UNL A   1      37.420  32.618  31.390  1.00  0.00     0.031 A 
ATOM     43  C   UNL A   1      38.113  31.462  30.727  1.00  0.00     0.074 A 
ATOM     44  C   UNL A   1      37.782  33.004  32.630  1.00  0.00     0.049 A 
ATOM     45  N   UNL A   1      39.087  30.711  31.179  1.00  0.00    -0.248 NA
ATOM     46  C   UNL A   1      37.633  31.080  29.391  1.00  0.00     0.031 C 
ATOM     47  C   UNL A   1      37.152  34.079  33.398  1.00  0.00     0.029 A 
ATOM     48  N   UNL A   1      38.763  32.530  33.465  1.00  0.00    -0.354 N 
ATOM     49  C   UNL A   1      39.326  29.768  30.189  1.00  0.00     0.074 A 
ATOM     50  C   UNL A   1      38.360  30.002  29.138  1.00  0.00     0.031 C 
ATOM     51  C   UNL A   1      37.775  34.198  34.581  1.00  0.00     0.029 A 
ATOM     52  C   UNL A   1      38.822  33.184  34.672  1.00  0.00     0.049 A 
ATOM     53  H   UNL A   1      39.367  31.791  33.222  1.00  0.00     0.167 HD
ATOM     54  C   UNL A   1      40.280  28.807  30.151  1.00  0.00     0.037 A 
ATOM     55  C   UNL A   1      39.621  32.981  35.736  1.00  0.00     0.037 A 
ATOM     56  C   UNL A   1      41.251  28.589  31.193  1.00  0.00     0.049 A 
ATOM     57  C   UNL A   1      40.664  31.898  35.674  1.00  0.00     0.074 A 
ATOM     58  C   UNL A   1      42.300  27.689  31.219  1.00  0.00     0.029 A 
ATOM     59  N   UNL A   1      41.283  29.275  32.399  1.00  0.00    -0.354 N 
ATOM     60  N   UNL A   1      40.935  31.064  34.698  1.00  0.00    -0.248 NA
ATOM     61  C   UNL A   1      41.517  31.731  36.859  1.00  0.00     0.031 C 
ATOM     62  C   UNL A   1      42.931  27.787  32.463  1.00  0.00     0.029 A 
ATOM     63  C   UNL A   1      42.314  28.793  33.190  1.00  0.00     0.049 A 
ATOM     64  H   UNL A   1      40.665  29.997  32.655  1.00  0.00     0.167 HD
ATOM     65  C   UNL A   1      42.001  30.292  35.140  1.00  0.00     0.074 A 
ATOM     66  C   UNL A   1      42.340  30.770  36.465  1.00  0.00     0.031 C 
ATOM     67  C   UNL A   1      42.639  29.277  34.507  1.00  0.00     0.037 A 
BRANCH  54  68
ATOM     68  C   UNL A   1      40.321  27.914  28.943  1.00  0.00     0.064 A 
ATOM     69  C   UNL A   1      41.073  28.245  27.805  1.00  0.00     0.173 A 
ATOM     70  C   UNL A   1      39.631  26.692  28.939  1.00  0.00     0.173 A 
ATOM     71  F   UNL A   1      41.744  29.405  27.754  1.00  0.00    -0.203 F 
ATOM     72  C   UNL A   1      41.107  27.402  26.698  1.00  0.00     0.198 A 
ATOM     73  C   UNL A   1      39.693  25.836  27.842  1.00  0.00     0.198 A 
ATOM     74  F   UNL A   1      38.902  26.323  30.003  1.00  0.00    -0.203 F 
ATOM     75  F   UNL A   1      41.789  27.765  25.603  1.00  0.00    -0.200 F 
ATOM     76  C   UNL A   1      40.424  26.195  26.720  1.00  0.00     0.200 A 
ATOM     77  F   UNL A   1      39.046  24.664  27.872  1.00  0.00    -0.200 F 
ATOM     78  F   UNL A   1      40.464  25.381  25.656  1.00  0.00    -0.200 F 
ENDBRANCH  54  68
BRANCH  55  79
ATOM     79  C   UNL A   1      39.477  33.833  36.946  1.00  0.00     0.064 A 
ATOM     80  C   UNL A   1      38.722  33.403  38.046  1.00  0.00     0.173 A 
ATOM     81  C   UNL A   1      40.086  35.093  37.027  1.00  0.00     0.173 A 
ATOM     82  F   UNL A   1      38.102  32.214  38.009  1.00  0.00    -0.203 F 
ATOM     83  C   UNL A   1      38.565  34.209  39.171  1.00  0.00     0.198 A 
ATOM     84  C   UNL A   1      39.956  35.885  38.165  1.00  0.00     0.198 A 
ATOM     85  F   UNL A   1      40.824  35.550  36.003  1.00  0.00    -0.203 F 
ATOM     86  F   UNL A   1      37.799  33.794  40.189  1.00  0.00    -0.200 F 
ATOM     87  C   UNL A   1      39.188  35.447  39.234  1.00  0.00     0.200 A 
ATOM     88  F   UNL A   1      40.573  37.073  38.227  1.00  0.00    -0.200 F 
ATOM     89  F   UNL A   1      39.042  36.219  40.318  1.00  0.00    -0.200 F 
ENDBRANCH  55  79
BRANCH  67  90
ATOM     90  C   UNL A   1      43.786  28.628  35.230  1.00  0.00     0.064 A 
ATOM     91  C   UNL A   1      45.103  29.091  35.088  1.00  0.00     0.173 A 
ATOM     92  C   UNL A   1      43.558  27.555  36.104  1.00  0.00     0.173 A 
ATOM     93  F   UNL A   1      45.376  30.104  34.252  1.00  0.00    -0.203 F 
ATOM     94  C   UNL A   1      46.152  28.483  35.772  1.00  0.00     0.198 A 
ATOM     95  C   UNL A   1      44.605  26.972  36.813  1.00  0.00     0.198 A 
ATOM     96  F   UNL A   1      42.317  27.078  36.283  1.00  0.00    -0.203 F 
ATOM     97  F   UNL A   1      47.409  28.907  35.580  1.00  0.00    -0.200 F 
ATOM     98  C   UNL A   1      45.902  27.431  36.639  1.00  0.00     0.200 A 
ATOM     99  F   UNL A   1      44.359  25.965  37.662  1.00  0.00    -0.200 F 
ATOM    100  F   UNL A   1      46.912  26.853  37.303  1.00  0.00    -0.200 F 
ENDBRANCH  67  90
ENDBRANCH  41  42
ENDBRANCH  33  36
ENDBRANCH  31  32
ENDBRANCH  30  31
ENDBRANCH  29  30
ENDBRANCH   1  29
TORSDOF 19
ENDMDL
MODEL 3
REMARK VINA RESULT:     -12.2      0.935      7.309
REMARK SMILES C[C@@](COc1ccccc1)(NC(=O)CN1CSCC1=O)C(=O)NCCCCCCNC(=O)c1ccc(-c2c3nc(c(-c4c(F)c(F)c(F)c(F)c4F)c4ccc([nH]4)c(-c4c(F)c(F)c(F)c(F)c4F)c4nc(c(-c5c(F)c(F)c(F)c(F)c5F)c5ccc2[nH]5)C=C4)C=C3)cc1
REMARK SMILES IDX 26 1 25 2 24 3 23 4 21 5 22 6 2 8 1 9 3 10 4 11 5 12 6 13
REMARK SMILES IDX 10 14 7 15 9 16 8 17 11 18 12 19 13 21 14 22 15 23 16 24
REMARK SMILES IDX 19 25 17 26 18 27 20 28 27 29 28 30 29 31 30 32 31 33 32 35
REMARK SMILES IDX 33 36 34 37 95 38 35 39 94 40 36 41 37 42 38 43 88 44 39 45
REMARK SMILES IDX 93 46 87 47 89 48 40 49 92 50 86 51 85 52 41 54 73 55 53 56
REMARK SMILES IDX 72 57 54 58 57 59 71 60 90 61 55 62 56 63 70 65 91 66 58 67
REMARK SMILES IDX 42 68 43 69 51 70 44 71 45 72 49 73 52 74 46 75 47 76 50 77
REMARK SMILES IDX 48 78 74 79 75 80 83 81 76 82 77 83 81 84 84 85 78 86 79 87
REMARK SMILES IDX 82 88 80 89 59 90 60 91 68 92 61 93 62 94 66 95 69 96 63 97
REMARK SMILES IDX 64 98 67 99 65 100
REMARK H PARENT 23 7 11 20 30 34 89 53 57 64
REMARK Flexibility Score: inf
ROOT
ATOM      1  C   UNL A   1      31.983  29.615  27.169  1.00  0.00     0.002 C 
ENDROOT
BRANCH   1   2
ATOM      2  C   UNL A   1      33.309  28.885  26.924  1.00  0.00     0.021 C 
BRANCH   2   3
ATOM      3  C   UNL A   1      33.333  27.964  25.706  1.00  0.00     0.116 C 
BRANCH   3   4
ATOM      4  N   UNL A   1      32.210  27.048  25.627  1.00  0.00    -0.354 N 
ATOM      5  C   UNL A   1      31.428  26.662  24.580  1.00  0.00     0.249 C 
ATOM      6  O   UNL A   1      30.810  25.600  24.712  1.00  0.00    -0.272 OA
ATOM      7  H   UNL A   1      31.968  26.631  26.486  1.00  0.00     0.163 HD
BRANCH   5   8
ATOM      8  C   UNL A   1      31.472  27.384  23.213  1.00  0.00     0.150 C 
ATOM      9  C   UNL A   1      32.480  28.556  23.271  1.00  0.00     0.049 C 
BRANCH   8  10
ATOM     10  C   UNL A   1      30.022  27.952  23.046  1.00  0.00     0.267 C 
BRANCH  10  11
ATOM     11  O   UNL A   1      29.915  28.792  21.877  1.00  0.00    -0.491 OA
BRANCH  11  12
ATOM     12  C   UNL A   1      29.337  29.991  22.183  1.00  0.00     0.119 A 
ATOM     13  C   UNL A   1      29.310  30.458  23.495  1.00  0.00     0.046 A 
ATOM     14  C   UNL A   1      28.755  30.723  21.153  1.00  0.00     0.046 A 
ATOM     15  C   UNL A   1      28.760  31.711  23.762  1.00  0.00     0.004 A 
ATOM     16  C   UNL A   1      28.227  31.983  21.417  1.00  0.00     0.004 A 
ATOM     17  C   UNL A   1      28.238  32.481  22.720  1.00  0.00     0.000 A 
ENDBRANCH  11  12
ENDBRANCH  10  11
ENDBRANCH   8  10
BRANCH   8  18
ATOM     18  N   UNL A   1      31.790  26.526  22.042  1.00  0.00    -0.338 N 
ATOM     19  C   UNL A   1      32.907  25.829  21.695  1.00  0.00     0.240 C 
ATOM     20  H   UNL A   1      31.053  26.447  21.394  1.00  0.00     0.164 HD
ATOM     21  O   UNL A   1      33.076  25.581  20.498  1.00  0.00    -0.273 OA
BRANCH  19  22
ATOM     22  C   UNL A   1      33.886  25.285  22.738  1.00  0.00     0.220 C 
BRANCH  22  23
ATOM     23  N   UNL A   1      33.572  24.000  23.317  1.00  0.00    -0.323 N 
ATOM     24  C   UNL A   1      32.809  23.043  22.566  1.00  0.00     0.190 C 
ATOM     25  C   UNL A   1      33.773  23.748  24.662  1.00  0.00     0.233 C 
ATOM     26  S   UNL A   1      32.543  21.621  23.633  1.00  0.00    -0.130 SA
ATOM     27  C   UNL A   1      33.486  22.311  25.014  1.00  0.00     0.171 C 
ATOM     28  O   UNL A   1      34.177  24.578  25.467  1.00  0.00    -0.274 OA
ENDBRANCH  22  23
ENDBRANCH  19  22
ENDBRANCH   8  18
ENDBRANCH   5   8
ENDBRANCH   3   4
ENDBRANCH   2   3
ENDBRANCH   1   2
BRANCH   1  29
ATOM     29  C   UNL A   1      31.667  30.730  26.170  1.00  0.00     0.002 C 
BRANCH  29  30
ATOM     30  C   UNL A   1      31.440  32.104  26.797  1.00  0.00     0.021 C 
BRANCH  30  31
ATOM     31  C   UNL A   1      32.716  32.821  27.217  1.00  0.00     0.116 C 
BRANCH  31  32
ATOM     32  N   UNL A   1      32.468  34.197  27.608  1.00  0.00    -0.352 N 
ATOM     33  C   UNL A   1      33.047  34.916  28.625  1.00  0.00     0.251 C 
ATOM     34  H   UNL A   1      31.796  34.679  27.074  1.00  0.00     0.163 HD
ATOM     35  O   UNL A   1      32.595  36.003  28.961  1.00  0.00    -0.269 OA
BRANCH  33  36
ATOM     36  C   UNL A   1      34.211  34.346  29.335  1.00  0.00     0.039 A 
ATOM     37  C   UNL A   1      33.991  33.541  30.454  1.00  0.00     0.014 A 
ATOM     38  C   UNL A   1      35.511  34.580  28.876  1.00  0.00     0.014 A 
ATOM     39  C   UNL A   1      35.074  32.920  31.078  1.00  0.00     0.010 A 
ATOM     40  C   UNL A   1      36.579  33.901  29.451  1.00  0.00     0.010 A 
ATOM     41  C   UNL A   1      36.372  33.065  30.558  1.00  0.00    -0.014 A 
BRANCH  41  42
ATOM     42  C   UNL A   1      37.519  32.336  31.156  1.00  0.00     0.031 A 
ATOM     43  C   UNL A   1      38.026  32.707  32.520  1.00  0.00     0.074 A 
ATOM     44  C   UNL A   1      38.141  31.377  30.441  1.00  0.00     0.049 A 
ATOM     45  N   UNL A   1      39.042  32.219  33.187  1.00  0.00    -0.248 NA
ATOM     46  C   UNL A   1      37.316  33.789  33.218  1.00  0.00     0.031 C 
ATOM     47  C   UNL A   1      37.774  30.963  29.086  1.00  0.00     0.029 A 
ATOM     48  N   UNL A   1      39.217  30.584  30.751  1.00  0.00    -0.354 N 
ATOM     49  C   UNL A   1      39.096  32.938  34.373  1.00  0.00     0.074 A 
ATOM     50  C   UNL A   1      38.049  33.935  34.312  1.00  0.00     0.031 C 
ATOM     51  C   UNL A   1      38.595  29.977  28.690  1.00  0.00     0.029 A 
ATOM     52  C   UNL A   1      39.570  29.717  29.745  1.00  0.00     0.049 A 
ATOM     53  H   UNL A   1      39.691  30.631  31.612  1.00  0.00     0.167 HD
ATOM     54  C   UNL A   1      39.930  32.767  35.427  1.00  0.00     0.037 A 
ATOM     55  C   UNL A   1      40.573  28.822  29.676  1.00  0.00     0.037 A 
ATOM     56  C   UNL A   1      40.959  31.762  35.489  1.00  0.00     0.049 A 
ATOM     57  C   UNL A   1      41.494  28.662  30.856  1.00  0.00     0.074 A 
ATOM     58  C   UNL A   1      41.810  31.462  36.539  1.00  0.00     0.029 A 
ATOM     59  N   UNL A   1      41.284  30.898  34.454  1.00  0.00    -0.354 N 
ATOM     60  N   UNL A   1      41.484  29.292  32.006  1.00  0.00    -0.248 NA
ATOM     61  C   UNL A   1      42.563  27.661  30.730  1.00  0.00     0.031 C 
ATOM     62  C   UNL A   1      42.688  30.460  36.117  1.00  0.00     0.029 A 
ATOM     63  C   UNL A   1      42.345  30.088  34.827  1.00  0.00     0.049 A 
ATOM     64  H   UNL A   1      40.828  30.864  33.582  1.00  0.00     0.167 HD
ATOM     65  C   UNL A   1      42.525  28.750  32.747  1.00  0.00     0.074 A 
ATOM     66  C   UNL A   1      43.133  27.725  31.924  1.00  0.00     0.031 C 
ATOM     67  C   UNL A   1      42.942  29.074  33.996  1.00  0.00     0.037 A 
BRANCH  54  68
ATOM     68  C   UNL A   1      39.766  33.690  36.601  1.00  0.00     0.064 A 
ATOM     69  C   UNL A   1      40.430  34.925  36.670  1.00  0.00     0.173 A 
ATOM     70  C   UNL A   1      38.901  33.354  37.655  1.00  0.00     0.173 A 
ATOM     71  F   UNL A   1      41.275  35.291  35.694  1.00  0.00    -0.203 F 
ATOM     72  C   UNL A   1      40.260  35.771  37.761  1.00  0.00     0.198 A 
ATOM     73  C   UNL A   1      38.708  34.218  38.729  1.00  0.00     0.198 A 
ATOM     74  F   UNL A   1      38.236  32.189  37.637  1.00  0.00    -0.203 F 
ATOM     75  F   UNL A   1      40.946  36.921  37.828  1.00  0.00    -0.200 F 
ATOM     76  C   UNL A   1      39.394  35.421  38.786  1.00  0.00     0.200 A 
ATOM     77  F   UNL A   1      37.859  33.885  39.710  1.00  0.00    -0.200 F 
ATOM     78  F   UNL A   1      39.225  36.242  39.833  1.00  0.00    -0.200 F 
ENDBRANCH  54  68
BRANCH  55  79
ATOM     79  C   UNL A   1      40.749  27.997  28.452  1.00  0.00     0.064 A 
ATOM     80  C   UNL A   1      40.138  26.741  28.333  1.00  0.00     0.173 A 
ATOM     81  C   UNL A   1      41.533  28.444  27.379  1.00  0.00     0.173 A 
ATOM     82  F   UNL A   1      39.394  26.261  29.341  1.00  0.00    -0.203 F 
ATOM     83  C   UNL A   1      40.320  25.956  27.197  1.00  0.00     0.198 A 
ATOM     84  C   UNL A   1      41.689  27.672  26.230  1.00  0.00     0.198 A 
ATOM     85  F   UNL A   1      42.136  29.641  27.439  1.00  0.00    -0.203 F 
ATOM     86  F   UNL A   1      39.762  24.739  27.130  1.00  0.00    -0.200 F 
ATOM     87  C   UNL A   1      41.090  26.424  26.143  1.00  0.00     0.200 A 
ATOM     88  F   UNL A   1      42.420  28.136  25.207  1.00  0.00    -0.200 F 
ATOM     89  F   UNL A   1      41.260  25.671  25.049  1.00  0.00    -0.200 F 
ENDBRANCH  55  79
BRANCH  67  90
ATOM     90  C   UNL A   1      44.097  28.295  34.560  1.00  0.00     0.064 A 
ATOM     91  C   UNL A   1      45.420  28.748  34.439  1.00  0.00     0.173 A 
ATOM     92  C   UNL A   1      43.874  27.100  35.261  1.00  0.00     0.173 A 
ATOM     93  F   UNL A   1      45.689  29.876  33.765  1.00  0.00    -0.203 F 
ATOM     94  C   UNL A   1      46.477  28.017  34.975  1.00  0.00     0.198 A 
ATOM     95  C   UNL A   1      44.931  26.391  35.824  1.00  0.00     0.198 A 
ATOM     96  F   UNL A   1      42.628  26.626  35.411  1.00  0.00    -0.203 F 
ATOM     97  F   UNL A   1      47.737  28.442  34.802  1.00  0.00    -0.200 F 
ATOM     98  C   UNL A   1      46.231  26.845  35.673  1.00  0.00     0.200 A 
ATOM     99  F   UNL A   1      44.690  25.266  36.512  1.00  0.00    -0.200 F 
ATOM    100  F   UNL A   1      47.250  26.148  36.195  1.00  0.00    -0.200 F 
ENDBRANCH  67  90
ENDBRANCH  41  42
ENDBRANCH  33  36
ENDBRANCH  31  32
ENDBRANCH  30  31
ENDBRANCH  29  30
ENDBRANCH   1  29
TORSDOF 19
ENDMDL
