MODEL 1
REMARK VINA RESULT:     -11.3      0.000      0.000
REMARK SMILES CCNC(=O)NC(=O)[C@@H](C)[N@H+](C)CC(=O)NCCCCCCNC(=O)c1ccc(-c2c3nc(c(-c4c(F)c(F)c(F)c(F)c4F)c4ccc([nH]4)c(-c4c(F)c(F)c(F)c(F)c4F)c4nc(c(-c5c(F)c(F)c(F)c(F)c5F)c5ccc2[nH]5)C=C4)C=C3)cc1
REMARK SMILES IDX 18 1 17 2 16 3 14 4 15 5 13 7 11 8 12 9 9 11 10 12 7 13 3 14
REMARK SMILES IDX 4 15 5 17 6 18 8 20 2 21 1 22 19 23 20 24 21 25 22 26 23 27
REMARK SMILES IDX 24 28 25 30 26 31 27 32 88 33 28 34 87 35 29 36 30 37 31 38
REMARK SMILES IDX 81 39 32 40 86 41 80 42 82 43 33 44 85 45 79 46 78 47 34 49
REMARK SMILES IDX 66 50 46 51 65 52 47 53 50 54 64 55 83 56 48 57 49 58 63 60
REMARK SMILES IDX 84 61 51 62 35 63 36 64 44 65 37 66 38 67 42 68 45 69 39 70
REMARK SMILES IDX 40 71 43 72 41 73 67 74 68 75 76 76 69 77 70 78 74 79 77 80
REMARK SMILES IDX 71 81 72 82 75 83 73 84 52 85 53 86 61 87 54 88 55 89 59 90
REMARK SMILES IDX 62 91 56 92 57 93 60 94 58 95
REMARK H PARENT 16 6 11 10 3 16 6 19 23 29 82 48 50 59
REMARK Flexibility Score: inf
ROOT
ATOM      1  C   UNL A   1      32.608  28.414  26.706  1.00  0.00     0.021 C 
ENDROOT
BRANCH   1   2
ATOM      2  C   UNL A   1      33.946  28.127  26.021  1.00  0.00     0.116 C 
BRANCH   2   3
ATOM      3  N   UNL A   1      33.845  27.828  24.612  1.00  0.00    -0.351 N 
ATOM      4  C   UNL A   1      33.651  26.642  23.963  1.00  0.00     0.275 C 
ATOM      5  O   UNL A   1      33.334  26.720  22.771  1.00  0.00    -0.269 OA
ATOM      6  H   UNL A   1      33.929  28.609  24.020  1.00  0.00     0.163 HD
BRANCH   4   7
ATOM      7  C   UNL A   1      33.760  25.260  24.656  1.00  0.00     0.363 C 
BRANCH   7   8
ATOM      8  N   UNL A   1      33.661  24.142  23.685  1.00  0.00    -0.320 N 
ATOM      9  C   UNL A   1      34.923  23.364  23.689  1.00  0.00     0.333 C 
ATOM     10  H   UNL A   1      33.474  24.609  22.798  1.00  0.00     0.348 HD
BRANCH   8  11
ATOM     11  C   UNL A   1      32.542  23.173  23.902  1.00  0.00     0.271 C 
ATOM     12  C   UNL A   1      32.366  22.179  22.740  1.00  0.00     0.086 C 
BRANCH  11  13
ATOM     13  C   UNL A   1      31.170  23.656  24.373  1.00  0.00     0.285 C 
ATOM     14  N   UNL A   1      31.714  22.588  27.498  1.00  0.00    -0.338 N 
ATOM     15  C   UNL A   1      30.614  22.985  26.860  1.00  0.00     0.321 C 
ATOM     16  H   UNL A   1      31.533  22.076  28.319  1.00  0.00     0.165 HD
ATOM     17  O   UNL A   1      29.531  22.857  27.439  1.00  0.00    -0.248 OA
ATOM     18  N   UNL A   1      30.588  23.546  25.615  1.00  0.00    -0.273 N 
ATOM     19  H   UNL A   1      29.800  24.134  25.599  1.00  0.00     0.175 HD
ATOM     20  O   UNL A   1      30.474  24.273  23.543  1.00  0.00    -0.268 OA
BRANCH  14  21
ATOM     21  C   UNL A   1      33.112  22.761  27.223  1.00  0.00     0.114 C 
ATOM     22  C   UNL A   1      33.835  21.442  27.054  1.00  0.00     0.027 C 
ENDBRANCH  14  21
ENDBRANCH  11  13
ENDBRANCH   8  11
ENDBRANCH   7   8
ENDBRANCH   4   7
ENDBRANCH   2   3
ENDBRANCH   1   2
BRANCH   1  23
ATOM     23  C   UNL A   1      32.356  29.869  27.121  1.00  0.00     0.002 C 
BRANCH  23  24
ATOM     24  C   UNL A   1      31.553  30.729  26.141  1.00  0.00     0.002 C 
BRANCH  24  25
ATOM     25  C   UNL A   1      31.409  32.206  26.510  1.00  0.00     0.021 C 
BRANCH  25  26
ATOM     26  C   UNL A   1      32.576  32.796  27.292  1.00  0.00     0.116 C 
BRANCH  26  27
ATOM     27  N   UNL A   1      32.372  34.197  27.616  1.00  0.00    -0.352 N 
ATOM     28  C   UNL A   1      32.973  34.962  28.585  1.00  0.00     0.251 C 
ATOM     29  H   UNL A   1      31.708  34.666  27.059  1.00  0.00     0.163 HD
ATOM     30  O   UNL A   1      32.542  36.078  28.852  1.00  0.00    -0.269 OA
BRANCH  28  31
ATOM     31  C   UNL A   1      34.135  34.426  29.328  1.00  0.00     0.039 A 
ATOM     32  C   UNL A   1      33.925  33.822  30.570  1.00  0.00     0.014 A 
ATOM     33  C   UNL A   1      35.427  34.519  28.803  1.00  0.00     0.014 A 
ATOM     34  C   UNL A   1      35.004  33.259  31.257  1.00  0.00     0.010 A 
ATOM     35  C   UNL A   1      36.486  33.887  29.448  1.00  0.00     0.010 A 
ATOM     36  C   UNL A   1      36.288  33.255  30.686  1.00  0.00    -0.014 A 
BRANCH  36  37
ATOM     37  C   UNL A   1      37.432  32.602  31.373  1.00  0.00     0.031 A 
ATOM     38  C   UNL A   1      38.144  31.447  30.724  1.00  0.00     0.074 A 
ATOM     39  C   UNL A   1      37.790  33.008  32.607  1.00  0.00     0.049 A 
ATOM     40  N   UNL A   1      39.123  30.711  31.186  1.00  0.00    -0.248 NA
ATOM     41  C   UNL A   1      37.674  31.044  29.388  1.00  0.00     0.031 C 
ATOM     42  C   UNL A   1      37.142  34.079  33.365  1.00  0.00     0.029 A 
ATOM     43  N   UNL A   1      38.779  32.560  33.447  1.00  0.00    -0.354 N 
ATOM     44  C   UNL A   1      39.370  29.753  30.211  1.00  0.00     0.074 A 
ATOM     45  C   UNL A   1      38.408  29.966  29.154  1.00  0.00     0.031 C 
ATOM     46  C   UNL A   1      37.760  34.217  34.549  1.00  0.00     0.029 A 
ATOM     47  C   UNL A   1      38.822  33.221  34.652  1.00  0.00     0.049 A 
ATOM     48  H   UNL A   1      39.399  31.832  33.210  1.00  0.00     0.167 HD
ATOM     49  C   UNL A   1      40.330  28.796  30.192  1.00  0.00     0.037 A 
ATOM     50  C   UNL A   1      39.620  33.037  35.720  1.00  0.00     0.037 A 
ATOM     51  C   UNL A   1      41.308  28.611  31.231  1.00  0.00     0.049 A 
ATOM     52  C   UNL A   1      40.685  31.973  35.666  1.00  0.00     0.074 A 
ATOM     53  C   UNL A   1      42.370  27.726  31.266  1.00  0.00     0.029 A 
ATOM     54  N   UNL A   1      41.338  29.321  32.423  1.00  0.00    -0.354 N 
ATOM     55  N   UNL A   1      40.966  31.133  34.700  1.00  0.00    -0.248 NA
ATOM     56  C   UNL A   1      41.550  31.840  36.846  1.00  0.00     0.031 C 
ATOM     57  C   UNL A   1      43.009  27.857  32.504  1.00  0.00     0.029 A 
ATOM     58  C   UNL A   1      42.384  28.871  33.213  1.00  0.00     0.049 A 
ATOM     59  H   UNL A   1      40.711  30.039  32.670  1.00  0.00     0.167 HD
ATOM     60  C   UNL A   1      42.056  30.394  35.142  1.00  0.00     0.074 A 
ATOM     61  C   UNL A   1      42.396  30.898  36.456  1.00  0.00     0.031 C 
ATOM     62  C   UNL A   1      42.716  29.389  34.516  1.00  0.00     0.037 A 
BRANCH  49  63
ATOM     63  C   UNL A   1      40.374  27.871  29.010  1.00  0.00     0.064 A 
ATOM     64  C   UNL A   1      39.631  26.681  28.974  1.00  0.00     0.173 A 
ATOM     65  C   UNL A   1      41.126  28.208  27.874  1.00  0.00     0.173 A 
ATOM     66  F   UNL A   1      38.903  26.306  30.036  1.00  0.00    -0.203 F 
ATOM     67  C   UNL A   1      39.659  25.852  27.854  1.00  0.00     0.198 A 
ATOM     68  C   UNL A   1      41.126  27.394  26.744  1.00  0.00     0.198 A 
ATOM     69  F   UNL A   1      41.851  29.336  27.853  1.00  0.00    -0.203 F 
ATOM     70  F   UNL A   1      38.977  24.699  27.860  1.00  0.00    -0.200 F 
ATOM     71  C   UNL A   1      40.398  26.213  26.738  1.00  0.00     0.200 A 
ATOM     72  F   UNL A   1      41.829  27.752  25.662  1.00  0.00    -0.200 F 
ATOM     73  F   UNL A   1      40.413  25.421  25.656  1.00  0.00    -0.200 F 
ENDBRANCH  49  63
BRANCH  50  74
ATOM     74  C   UNL A   1      39.452  33.884  36.933  1.00  0.00     0.064 A 
ATOM     75  C   UNL A   1      38.725  33.427  38.040  1.00  0.00     0.173 A 
ATOM     76  C   UNL A   1      40.000  35.173  37.001  1.00  0.00     0.173 A 
ATOM     77  F   UNL A   1      38.165  32.209  38.017  1.00  0.00    -0.203 F 
ATOM     78  C   UNL A   1      38.525  34.238  39.156  1.00  0.00     0.198 A 
ATOM     79  C   UNL A   1      39.828  35.971  38.130  1.00  0.00     0.198 A 
ATOM     80  F   UNL A   1      40.711  35.657  35.972  1.00  0.00    -0.203 F 
ATOM     81  F   UNL A   1      37.776  33.798  40.177  1.00  0.00    -0.200 F 
ATOM     82  C   UNL A   1      39.082  35.507  39.202  1.00  0.00     0.200 A 
ATOM     83  F   UNL A   1      40.383  37.190  38.178  1.00  0.00    -0.200 F 
ATOM     84  F   UNL A   1      38.891  36.287  40.275  1.00  0.00    -0.200 F 
ENDBRANCH  50  74
BRANCH  62  85
ATOM     85  C   UNL A   1      43.898  28.791  35.223  1.00  0.00     0.064 A 
ATOM     86  C   UNL A   1      45.197  29.290  35.044  1.00  0.00     0.173 A 
ATOM     87  C   UNL A   1      43.721  27.730  36.124  1.00  0.00     0.173 A 
ATOM     88  F   UNL A   1      45.422  30.294  34.184  1.00  0.00    -0.203 F 
ATOM     89  C   UNL A   1      46.277  28.732  35.722  1.00  0.00     0.198 A 
ATOM     90  C   UNL A   1      44.799  27.197  36.826  1.00  0.00     0.198 A 
ATOM     91  F   UNL A   1      42.498  27.220  36.338  1.00  0.00    -0.203 F 
ATOM     92  F   UNL A   1      47.516  29.191  35.497  1.00  0.00    -0.200 F 
ATOM     93  C   UNL A   1      46.076  27.692  36.617  1.00  0.00     0.200 A 
ATOM     94  F   UNL A   1      44.599  26.204  37.704  1.00  0.00    -0.200 F 
ATOM     95  F   UNL A   1      47.116  27.162  37.276  1.00  0.00    -0.200 F 
ENDBRANCH  62  85
ENDBRANCH  36  37
ENDBRANCH  28  31
ENDBRANCH  26  27
ENDBRANCH  25  26
ENDBRANCH  24  25
ENDBRANCH  23  24
ENDBRANCH   1  23
TORSDOF 17
ENDMDL
MODEL 2
REMARK VINA RESULT:     -11.2      1.119      1.725
REMARK SMILES CCNC(=O)NC(=O)[C@@H](C)[N@H+](C)CC(=O)NCCCCCCNC(=O)c1ccc(-c2c3nc(c(-c4c(F)c(F)c(F)c(F)c4F)c4ccc([nH]4)c(-c4c(F)c(F)c(F)c(F)c4F)c4nc(c(-c5c(F)c(F)c(F)c(F)c5F)c5ccc2[nH]5)C=C4)C=C3)cc1
REMARK SMILES IDX 18 1 17 2 16 3 14 4 15 5 13 7 11 8 12 9 9 11 10 12 7 13 3 14
REMARK SMILES IDX 4 15 5 17 6 18 8 20 2 21 1 22 19 23 20 24 21 25 22 26 23 27
REMARK SMILES IDX 24 28 25 30 26 31 27 32 88 33 28 34 87 35 29 36 30 37 31 38
REMARK SMILES IDX 81 39 32 40 86 41 80 42 82 43 33 44 85 45 79 46 78 47 34 49
REMARK SMILES IDX 66 50 46 51 65 52 47 53 50 54 64 55 83 56 48 57 49 58 63 60
REMARK SMILES IDX 84 61 51 62 35 63 36 64 44 65 37 66 38 67 42 68 45 69 39 70
REMARK SMILES IDX 40 71 43 72 41 73 67 74 68 75 76 76 69 77 70 78 74 79 77 80
REMARK SMILES IDX 71 81 72 82 75 83 73 84 52 85 53 86 61 87 54 88 55 89 59 90
REMARK SMILES IDX 62 91 56 92 57 93 60 94 58 95
REMARK H PARENT 16 6 11 10 3 16 6 19 23 29 82 48 50 59
REMARK Flexibility Score: inf
ROOT
ATOM      1  C   UNL A   1      33.099  28.873  27.191  1.00  0.00     0.021 C 
ENDROOT
BRANCH   1   2
ATOM      2  C   UNL A   1      33.263  27.556  26.426  1.00  0.00     0.116 C 
BRANCH   2   3
ATOM      3  N   UNL A   1      32.089  26.715  26.425  1.00  0.00    -0.351 N 
ATOM      4  C   UNL A   1      31.966  25.355  26.428  1.00  0.00     0.275 C 
ATOM      5  O   UNL A   1      30.845  24.911  26.701  1.00  0.00    -0.269 OA
ATOM      6  H   UNL A   1      31.235  27.203  26.422  1.00  0.00     0.163 HD
BRANCH   4   7
ATOM      7  C   UNL A   1      33.147  24.388  26.163  1.00  0.00     0.363 C 
BRANCH   7   8
ATOM      8  N   UNL A   1      33.602  24.439  24.752  1.00  0.00    -0.320 N 
ATOM      9  C   UNL A   1      35.079  24.552  24.706  1.00  0.00     0.333 C 
ATOM     10  H   UNL A   1      33.120  25.254  24.373  1.00  0.00     0.348 HD
BRANCH   8  11
ATOM     11  C   UNL A   1      33.219  23.278  23.890  1.00  0.00     0.271 C 
ATOM     12  C   UNL A   1      33.155  23.628  22.392  1.00  0.00     0.086 C 
BRANCH  11  13
ATOM     13  C   UNL A   1      32.031  22.389  24.258  1.00  0.00     0.285 C 
ATOM     14  N   UNL A   1      34.025  19.986  25.463  1.00  0.00    -0.338 N 
ATOM     15  C   UNL A   1      32.731  20.009  25.146  1.00  0.00     0.321 C 
ATOM     16  H   UNL A   1      34.399  19.078  25.534  1.00  0.00     0.165 HD
ATOM     17  O   UNL A   1      32.109  18.942  25.174  1.00  0.00    -0.248 OA
ATOM     18  N   UNL A   1      32.025  21.128  24.809  1.00  0.00    -0.273 N 
ATOM     19  H   UNL A   1      31.096  20.955  25.083  1.00  0.00     0.175 HD
ATOM     20  O   UNL A   1      30.893  22.865  24.077  1.00  0.00    -0.268 OA
BRANCH  14  21
ATOM     21  C   UNL A   1      34.979  21.025  25.721  1.00  0.00     0.114 C 
ATOM     22  C   UNL A   1      36.329  20.739  25.097  1.00  0.00     0.027 C 
ENDBRANCH  14  21
ENDBRANCH  11  13
ENDBRANCH   8  11
ENDBRANCH   7   8
ENDBRANCH   4   7
ENDBRANCH   2   3
ENDBRANCH   1   2
BRANCH   1  23
ATOM     23  C   UNL A   1      32.980  30.142  26.338  1.00  0.00     0.002 C 
BRANCH  23  24
ATOM     24  C   UNL A   1      31.573  30.725  26.174  1.00  0.00     0.002 C 
BRANCH  24  25
ATOM     25  C   UNL A   1      31.405  32.190  26.577  1.00  0.00     0.021 C 
BRANCH  25  26
ATOM     26  C   UNL A   1      32.597  32.805  27.299  1.00  0.00     0.116 C 
BRANCH  26  27
ATOM     27  N   UNL A   1      32.387  34.207  27.616  1.00  0.00    -0.352 N 
ATOM     28  C   UNL A   1      32.983  34.978  28.584  1.00  0.00     0.251 C 
ATOM     29  H   UNL A   1      31.723  34.672  27.056  1.00  0.00     0.163 HD
ATOM     30  O   UNL A   1      32.548  36.093  28.845  1.00  0.00    -0.269 OA
BRANCH  28  31
ATOM     31  C   UNL A   1      34.145  34.449  29.333  1.00  0.00     0.039 A 
ATOM     32  C   UNL A   1      33.927  33.794  30.547  1.00  0.00     0.014 A 
ATOM     33  C   UNL A   1      35.444  34.599  28.840  1.00  0.00     0.014 A 
ATOM     34  C   UNL A   1      35.008  33.238  31.237  1.00  0.00     0.010 A 
ATOM     35  C   UNL A   1      36.508  33.975  29.485  1.00  0.00     0.010 A 
ATOM     36  C   UNL A   1      36.302  33.292  30.694  1.00  0.00    -0.014 A 
BRANCH  36  37
ATOM     37  C   UNL A   1      37.451  32.649  31.382  1.00  0.00     0.031 A 
ATOM     38  C   UNL A   1      38.161  31.488  30.742  1.00  0.00     0.074 A 
ATOM     39  C   UNL A   1      37.814  33.068  32.610  1.00  0.00     0.049 A 
ATOM     40  N   UNL A   1      39.144  30.758  31.207  1.00  0.00    -0.248 NA
ATOM     41  C   UNL A   1      37.686  31.070  29.413  1.00  0.00     0.031 C 
ATOM     42  C   UNL A   1      37.169  34.145  33.360  1.00  0.00     0.029 A 
ATOM     43  N   UNL A   1      38.808  32.629  33.451  1.00  0.00    -0.354 N 
ATOM     44  C   UNL A   1      39.388  29.790  30.241  1.00  0.00     0.074 A 
ATOM     45  C   UNL A   1      38.420  29.991  29.186  1.00  0.00     0.031 C 
ATOM     46  C   UNL A   1      37.792  34.297  34.540  1.00  0.00     0.029 A 
ATOM     47  C   UNL A   1      38.856  33.303  34.648  1.00  0.00     0.049 A 
ATOM     48  H   UNL A   1      39.428  31.900  33.218  1.00  0.00     0.167 HD
ATOM     49  C   UNL A   1      40.349  28.835  30.227  1.00  0.00     0.037 A 
ATOM     50  C   UNL A   1      39.660  33.132  35.714  1.00  0.00     0.037 A 
ATOM     51  C   UNL A   1      41.332  28.662  31.263  1.00  0.00     0.049 A 
ATOM     52  C   UNL A   1      40.727  32.069  35.666  1.00  0.00     0.074 A 
ATOM     53  C   UNL A   1      42.396  27.778  31.302  1.00  0.00     0.029 A 
ATOM     54  N   UNL A   1      41.367  29.384  32.447  1.00  0.00    -0.354 N 
ATOM     55  N   UNL A   1      41.004  31.219  34.707  1.00  0.00    -0.248 NA
ATOM     56  C   UNL A   1      41.598  31.949  36.843  1.00  0.00     0.031 C 
ATOM     57  C   UNL A   1      43.040  27.924  32.535  1.00  0.00     0.029 A 
ATOM     58  C   UNL A   1      42.418  28.943  33.236  1.00  0.00     0.049 A 
ATOM     59  H   UNL A   1      40.741  30.103  32.690  1.00  0.00     0.167 HD
ATOM     60  C   UNL A   1      42.097  30.486  35.151  1.00  0.00     0.074 A 
ATOM     61  C   UNL A   1      42.443  31.004  36.458  1.00  0.00     0.031 C 
ATOM     62  C   UNL A   1      42.755  29.476  34.532  1.00  0.00     0.037 A 
BRANCH  49  63
ATOM     63  C   UNL A   1      40.388  27.897  29.054  1.00  0.00     0.064 A 
ATOM     64  C   UNL A   1      39.638  26.711  29.029  1.00  0.00     0.173 A 
ATOM     65  C   UNL A   1      41.144  28.217  27.916  1.00  0.00     0.173 A 
ATOM     66  F   UNL A   1      38.906  26.352  30.094  1.00  0.00    -0.203 F 
ATOM     67  C   UNL A   1      39.662  25.871  27.918  1.00  0.00     0.198 A 
ATOM     68  C   UNL A   1      41.140  27.392  26.795  1.00  0.00     0.198 A 
ATOM     69  F   UNL A   1      41.877  29.341  27.884  1.00  0.00    -0.203 F 
ATOM     70  F   UNL A   1      38.972  24.722  27.935  1.00  0.00    -0.200 F 
ATOM     71  C   UNL A   1      40.405  26.216  26.800  1.00  0.00     0.200 A 
ATOM     72  F   UNL A   1      41.847  27.735  25.709  1.00  0.00    -0.200 F 
ATOM     73  F   UNL A   1      40.415  25.413  25.726  1.00  0.00    -0.200 F 
ENDBRANCH  49  63
BRANCH  50  74
ATOM     74  C   UNL A   1      39.497  33.991  36.918  1.00  0.00     0.064 A 
ATOM     75  C   UNL A   1      40.095  35.257  36.991  1.00  0.00     0.173 A 
ATOM     76  C   UNL A   1      38.757  33.556  38.027  1.00  0.00     0.173 A 
ATOM     77  F   UNL A   1      40.829  35.711  35.966  1.00  0.00    -0.203 F 
ATOM     78  C   UNL A   1      39.984  36.042  38.138  1.00  0.00     0.198 A 
ATOM     79  C   UNL A   1      38.618  34.355  39.160  1.00  0.00     0.198 A 
ATOM     80  F   UNL A   1      38.158  32.356  38.008  1.00  0.00    -0.203 F 
ATOM     81  F   UNL A   1      40.613  37.223  38.203  1.00  0.00    -0.200 F 
ATOM     82  C   UNL A   1      39.241  35.592  39.219  1.00  0.00     0.200 A 
ATOM     83  F   UNL A   1      37.885  33.924  40.195  1.00  0.00    -0.200 F 
ATOM     84  F   UNL A   1      39.133  36.347  40.321  1.00  0.00    -0.200 F 
ENDBRANCH  50  74
BRANCH  62  85
ATOM     85  C   UNL A   1      43.942  28.887  35.240  1.00  0.00     0.064 A 
ATOM     86  C   UNL A   1      45.243  29.366  35.025  1.00  0.00     0.173 A 
ATOM     87  C   UNL A   1      43.767  27.857  36.177  1.00  0.00     0.173 A 
ATOM     88  F   UNL A   1      45.465  30.339  34.130  1.00  0.00    -0.203 F 
ATOM     89  C   UNL A   1      46.328  28.816  35.704  1.00  0.00     0.198 A 
ATOM     90  C   UNL A   1      44.850  27.334  36.878  1.00  0.00     0.198 A 
ATOM     91  F   UNL A   1      42.543  27.368  36.426  1.00  0.00    -0.203 F 
ATOM     92  F   UNL A   1      47.567  29.254  35.445  1.00  0.00    -0.200 F 
ATOM     93  C   UNL A   1      46.130  27.808  36.635  1.00  0.00     0.200 A 
ATOM     94  F   UNL A   1      44.654  26.371  37.790  1.00  0.00    -0.200 F 
ATOM     95  F   UNL A   1      47.174  27.287  37.293  1.00  0.00    -0.200 F 
ENDBRANCH  62  85
ENDBRANCH  36  37
ENDBRANCH  28  31
ENDBRANCH  26  27
ENDBRANCH  25  26
ENDBRANCH  24  25
ENDBRANCH  23  24
ENDBRANCH   1  23
TORSDOF 17
ENDMDL
MODEL 3
REMARK VINA RESULT:     -11.2      1.157      7.549
REMARK SMILES CCNC(=O)NC(=O)[C@@H](C)[N@H+](C)CC(=O)NCCCCCCNC(=O)c1ccc(-c2c3nc(c(-c4c(F)c(F)c(F)c(F)c4F)c4ccc([nH]4)c(-c4c(F)c(F)c(F)c(F)c4F)c4nc(c(-c5c(F)c(F)c(F)c(F)c5F)c5ccc2[nH]5)C=C4)C=C3)cc1
REMARK SMILES IDX 18 1 17 2 16 3 14 4 15 5 13 7 11 8 12 9 9 11 10 12 7 13 3 14
REMARK SMILES IDX 4 15 5 17 6 18 8 20 2 21 1 22 19 23 20 24 21 25 22 26 23 27
REMARK SMILES IDX 24 28 25 30 26 31 27 32 88 33 28 34 87 35 29 36 30 37 31 38
REMARK SMILES IDX 81 39 32 40 86 41 80 42 82 43 33 44 85 45 79 46 78 47 34 49
REMARK SMILES IDX 66 50 46 51 65 52 47 53 50 54 64 55 83 56 48 57 49 58 63 60
REMARK SMILES IDX 84 61 51 62 35 63 36 64 44 65 37 66 38 67 42 68 45 69 39 70
REMARK SMILES IDX 40 71 43 72 41 73 67 74 68 75 76 76 69 77 70 78 74 79 77 80
REMARK SMILES IDX 71 81 72 82 75 83 73 84 52 85 53 86 61 87 54 88 55 89 59 90
REMARK SMILES IDX 62 91 56 92 57 93 60 94 58 95
REMARK H PARENT 16 6 11 10 3 16 6 19 23 29 82 48 50 59
REMARK Flexibility Score: inf
ROOT
ATOM      1  C   UNL A   1      33.000  28.686  27.154  1.00  0.00     0.021 C 
ENDROOT
BRANCH   1   2
ATOM      2  C   UNL A   1      34.125  28.255  26.210  1.00  0.00     0.116 C 
BRANCH   2   3
ATOM      3  N   UNL A   1      33.997  28.751  24.860  1.00  0.00    -0.351 N 
ATOM      4  C   UNL A   1      33.597  28.126  23.713  1.00  0.00     0.275 C 
ATOM      5  O   UNL A   1      33.323  28.862  22.760  1.00  0.00    -0.269 OA
ATOM      6  H   UNL A   1      34.235  29.699  24.747  1.00  0.00     0.163 HD
BRANCH   4   7
ATOM      7  C   UNL A   1      33.435  26.590  23.589  1.00  0.00     0.363 C 
BRANCH   7   8
ATOM      8  N   UNL A   1      32.041  26.204  23.258  1.00  0.00    -0.320 N 
ATOM      9  C   UNL A   1      31.957  25.803  21.834  1.00  0.00     0.333 C 
ATOM     10  H   UNL A   1      31.500  27.040  23.477  1.00  0.00     0.348 HD
BRANCH   8  11
ATOM     11  C   UNL A   1      31.452  25.091  24.067  1.00  0.00     0.271 C 
ATOM     12  C   UNL A   1      30.527  24.170  23.251  1.00  0.00     0.086 C 
BRANCH  11  13
ATOM     13  C   UNL A   1      30.823  25.367  25.433  1.00  0.00     0.285 C 
ATOM     14  N   UNL A   1      31.002  22.144  26.320  1.00  0.00    -0.338 N 
ATOM     15  C   UNL A   1      30.349  23.186  26.834  1.00  0.00     0.321 C 
ATOM     16  H   UNL A   1      30.657  21.273  26.621  1.00  0.00     0.165 HD
ATOM     17  O   UNL A   1      29.550  22.973  27.752  1.00  0.00    -0.248 OA
ATOM     18  N   UNL A   1      30.507  24.484  26.440  1.00  0.00    -0.273 N 
ATOM     19  H   UNL A   1      30.305  25.033  27.231  1.00  0.00     0.175 HD
ATOM     20  O   UNL A   1      30.584  26.557  25.714  1.00  0.00    -0.268 OA
BRANCH  14  21
ATOM     21  C   UNL A   1      32.108  22.044  25.413  1.00  0.00     0.114 C 
ATOM     22  C   UNL A   1      32.214  20.674  24.779  1.00  0.00     0.027 C 
ENDBRANCH  14  21
ENDBRANCH  11  13
ENDBRANCH   8  11
ENDBRANCH   7   8
ENDBRANCH   4   7
ENDBRANCH   2   3
ENDBRANCH   1   2
BRANCH   1  23
ATOM     23  C   UNL A   1      32.783  30.197  27.307  1.00  0.00     0.002 C 
BRANCH  23  24
ATOM     24  C   UNL A   1      31.509  30.770  26.681  1.00  0.00     0.002 C 
BRANCH  24  25
ATOM     25  C   UNL A   1      31.382  32.294  26.696  1.00  0.00     0.021 C 
BRANCH  25  26
ATOM     26  C   UNL A   1      32.691  33.050  26.884  1.00  0.00     0.116 C 
BRANCH  26  27
ATOM     27  N   UNL A   1      32.513  34.284  27.630  1.00  0.00    -0.352 N 
ATOM     28  C   UNL A   1      33.137  34.702  28.781  1.00  0.00     0.251 C 
ATOM     29  H   UNL A   1      31.851  34.911  27.258  1.00  0.00     0.163 HD
ATOM     30  O   UNL A   1      32.727  35.684  29.388  1.00  0.00    -0.269 OA
BRANCH  28  31
ATOM     31  C   UNL A   1      34.298  33.946  29.302  1.00  0.00     0.039 A 
ATOM     32  C   UNL A   1      35.587  34.382  28.986  1.00  0.00     0.014 A 
ATOM     33  C   UNL A   1      34.117  32.812  30.098  1.00  0.00     0.014 A 
ATOM     34  C   UNL A   1      36.693  33.715  29.519  1.00  0.00     0.010 A 
ATOM     35  C   UNL A   1      35.215  32.198  30.693  1.00  0.00     0.010 A 
ATOM     36  C   UNL A   1      36.517  32.639  30.404  1.00  0.00    -0.014 A 
BRANCH  36  37
ATOM     37  C   UNL A   1      37.680  31.960  31.031  1.00  0.00     0.031 A 
ATOM     38  C   UNL A   1      38.142  32.366  32.404  1.00  0.00     0.074 A 
ATOM     39  C   UNL A   1      38.359  31.024  30.339  1.00  0.00     0.049 A 
ATOM     40  N   UNL A   1      39.169  31.935  33.093  1.00  0.00    -0.248 NA
ATOM     41  C   UNL A   1      37.366  33.416  33.082  1.00  0.00     0.031 C 
ATOM     42  C   UNL A   1      38.045  30.585  28.979  1.00  0.00     0.029 A 
ATOM     43  N   UNL A   1      39.464  30.282  30.680  1.00  0.00    -0.354 N 
ATOM     44  C   UNL A   1      39.170  32.673  34.271  1.00  0.00     0.074 A 
ATOM     45  C   UNL A   1      38.076  33.613  34.183  1.00  0.00     0.031 C 
ATOM     46  C   UNL A   1      38.922  29.638  28.607  1.00  0.00     0.029 A 
ATOM     47  C   UNL A   1      39.885  29.431  29.686  1.00  0.00     0.049 A 
ATOM     48  H   UNL A   1      39.912  30.352  31.554  1.00  0.00     0.167 HD
ATOM     49  C   UNL A   1      39.998  32.558  35.338  1.00  0.00     0.037 A 
ATOM     50  C   UNL A   1      40.933  28.587  29.645  1.00  0.00     0.037 A 
ATOM     51  C   UNL A   1      41.064  31.596  35.434  1.00  0.00     0.049 A 
ATOM     52  C   UNL A   1      41.830  28.473  30.849  1.00  0.00     0.074 A 
ATOM     53  C   UNL A   1      41.904  31.346  36.504  1.00  0.00     0.029 A 
ATOM     54  N   UNL A   1      41.441  30.730  34.418  1.00  0.00    -0.354 N 
ATOM     55  N   UNL A   1      41.766  29.113  31.992  1.00  0.00    -0.248 NA
ATOM     56  C   UNL A   1      42.938  27.512  30.763  1.00  0.00     0.031 C 
ATOM     57  C   UNL A   1      42.828  30.371  36.117  1.00  0.00     0.029 A 
ATOM     58  C   UNL A   1      42.522  29.966  34.828  1.00  0.00     0.049 A 
ATOM     59  H   UNL A   1      41.005  30.667  33.538  1.00  0.00     0.167 HD
ATOM     60  C   UNL A   1      42.802  28.612  32.769  1.00  0.00     0.074 A 
ATOM     61  C   UNL A   1      43.468  27.602  31.974  1.00  0.00     0.031 C 
ATOM     62  C   UNL A   1      43.169  28.957  34.027  1.00  0.00     0.037 A 
BRANCH  49  63
ATOM     63  C   UNL A   1      39.789  33.497  36.492  1.00  0.00     0.064 A 
ATOM     64  C   UNL A   1      40.402  34.758  36.541  1.00  0.00     0.173 A 
ATOM     65  C   UNL A   1      38.917  33.151  37.536  1.00  0.00     0.173 A 
ATOM     66  F   UNL A   1      41.253  35.134  35.575  1.00  0.00    -0.203 F 
ATOM     67  C   UNL A   1      40.168  35.627  37.605  1.00  0.00     0.198 A 
ATOM     68  C   UNL A   1      38.660  34.036  38.580  1.00  0.00     0.198 A 
ATOM     69  F   UNL A   1      38.299  31.960  37.536  1.00  0.00    -0.203 F 
ATOM     70  F   UNL A   1      40.800  36.808  37.653  1.00  0.00    -0.200 F 
ATOM     71  C   UNL A   1      39.291  35.270  38.617  1.00  0.00     0.200 A 
ATOM     72  F   UNL A   1      37.801  33.694  39.550  1.00  0.00    -0.200 F 
ATOM     73  F   UNL A   1      39.057  36.113  39.633  1.00  0.00    -0.200 F 
ENDBRANCH  49  63
BRANCH  50  74
ATOM     74  C   UNL A   1      41.192  27.775  28.425  1.00  0.00     0.064 A 
ATOM     75  C   UNL A   1      42.020  28.251  27.400  1.00  0.00     0.173 A 
ATOM     76  C   UNL A   1      40.601  26.515  28.251  1.00  0.00     0.173 A 
ATOM     77  F   UNL A   1      42.594  29.458  27.509  1.00  0.00    -0.203 F 
ATOM     78  C   UNL A   1      42.224  27.513  26.235  1.00  0.00     0.198 A 
ATOM     79  C   UNL A   1      40.831  25.762  27.101  1.00  0.00     0.198 A 
ATOM     80  F   UNL A   1      39.805  26.008  29.204  1.00  0.00    -0.203 F 
ATOM     81  F   UNL A   1      42.974  28.017  25.246  1.00  0.00    -0.200 F 
ATOM     82  C   UNL A   1      41.633  26.267  26.090  1.00  0.00     0.200 A 
ATOM     83  F   UNL A   1      40.272  24.551  26.973  1.00  0.00    -0.200 F 
ATOM     84  F   UNL A   1      41.829  25.556  24.971  1.00  0.00    -0.200 F 
ENDBRANCH  50  74
BRANCH  62  85
ATOM     85  C   UNL A   1      44.319  28.211  34.643  1.00  0.00     0.064 A 
ATOM     86  C   UNL A   1      45.637  28.682  34.554  1.00  0.00     0.173 A 
ATOM     87  C   UNL A   1      44.089  27.031  35.366  1.00  0.00     0.173 A 
ATOM     88  F   UNL A   1      45.911  29.798  33.862  1.00  0.00    -0.203 F 
ATOM     89  C   UNL A   1      46.686  27.983  35.145  1.00  0.00     0.198 A 
ATOM     90  C   UNL A   1      45.137  26.354  35.984  1.00  0.00     0.198 A 
ATOM     91  F   UNL A   1      42.846  26.542  35.488  1.00  0.00    -0.203 F 
ATOM     92  F   UNL A   1      47.944  28.423  35.004  1.00  0.00    -0.200 F 
ATOM     93  C   UNL A   1      46.435  26.826  35.866  1.00  0.00     0.200 A 
ATOM     94  F   UNL A   1      44.889  25.245  36.696  1.00  0.00    -0.200 F 
ATOM     95  F   UNL A   1      47.445  26.160  36.442  1.00  0.00    -0.200 F 
ENDBRANCH  62  85
ENDBRANCH  36  37
ENDBRANCH  28  31
ENDBRANCH  26  27
ENDBRANCH  25  26
ENDBRANCH  24  25
ENDBRANCH  23  24
ENDBRANCH   1  23
TORSDOF 17
ENDMDL
