MODEL 1
REMARK VINA RESULT:     -11.6      0.000      0.000
REMARK SMILES O=C(NCCCCCCNC(=O)c1ccc(-n2cc(CSc3nc4ccccc4c(=O)n3-c3ccccc3)nn2)cc1)c1ccc(-c2c3nc(c(-c4c(F)c(F)c(F)c(F)c4F)c4ccc([nH]4)c(-c4c(F)c(F)c(F)c(F)c4F)c4nc(c(-c5c(F)c(F)c(F)c(F)c5F)c5ccc2[nH]5)C=C4)C=C3)cc1
REMARK SMILES IDX 8 1 7 2 6 3 5 4 4 5 3 6 1 7 2 8 43 10 44 11 105 12 45 13
REMARK SMILES IDX 104 14 46 15 47 16 48 17 98 18 49 19 103 20 97 21 99 22
REMARK SMILES IDX 50 23 102 24 96 25 95 26 51 28 83 29 63 30 82 31 64 32 67 33
REMARK SMILES IDX 81 34 100 35 65 36 66 37 80 39 101 40 68 41 52 42 53 43
REMARK SMILES IDX 61 44 54 45 55 46 59 47 62 48 56 49 57 50 60 51 58 52 84 53
REMARK SMILES IDX 85 54 93 55 86 56 87 57 91 58 94 59 88 60 89 61 92 62 90 63
REMARK SMILES IDX 69 64 70 65 78 66 71 67 72 68 76 69 79 70 73 71 74 72 77 73
REMARK SMILES IDX 75 74 9 75 10 76 11 77 12 79 13 80 14 81 42 82 15 83 41 84
REMARK SMILES IDX 16 85 17 86 18 87 40 88 19 89 39 90 20 91 21 92 22 93 23 94
REMARK SMILES IDX 32 95 24 96 30 97 25 98 29 99 31 100 26 101 28 102 27 103
REMARK SMILES IDX 33 104 34 105 38 106 35 107 37 108 36 109
REMARK H PARENT 3 9 99 27 67 38 10 78
REMARK Flexibility Score: inf
ROOT
ATOM      1  C   UNL A   1      32.265  25.205  25.199  1.00  0.00     0.021 C 
ENDROOT
BRANCH   1   2
ATOM      2  C   UNL A   1      33.485  25.547  26.060  1.00  0.00     0.002 C 
BRANCH   2   3
ATOM      3  C   UNL A   1      34.288  26.779  25.626  1.00  0.00     0.002 C 
BRANCH   3   4
ATOM      4  C   UNL A   1      33.861  28.120  26.236  1.00  0.00     0.021 C 
BRANCH   4   5
ATOM      5  C   UNL A   1      34.963  28.884  26.967  1.00  0.00     0.116 C 
BRANCH   5   6
ATOM      6  N   UNL A   1      34.679  30.288  27.177  1.00  0.00    -0.352 N 
ATOM      7  O   UNL A   1      34.784  32.424  27.714  1.00  0.00    -0.269 OA
ATOM      8  C   UNL A   1      35.221  31.291  27.931  1.00  0.00     0.251 C 
ATOM      9  H   UNL A   1      33.907  30.596  26.648  1.00  0.00     0.163 HD
BRANCH   8  10
ATOM     10  C   UNL A   1      36.225  31.120  29.019  1.00  0.00     0.039 A 
ATOM     11  C   UNL A   1      36.169  30.194  30.060  1.00  0.00     0.014 A 
ATOM     12  C   UNL A   1      37.328  31.998  28.969  1.00  0.00     0.014 A 
ATOM     13  C   UNL A   1      37.150  30.196  31.057  1.00  0.00     0.010 A 
ATOM     14  C   UNL A   1      38.308  32.005  29.958  1.00  0.00     0.010 A 
ATOM     15  C   UNL A   1      38.206  31.118  31.021  1.00  0.00    -0.014 A 
BRANCH  15  16
ATOM     16  C   UNL A   1      39.296  30.974  31.989  1.00  0.00     0.031 A 
ATOM     17  C   UNL A   1      39.210  31.941  33.120  1.00  0.00     0.074 A 
ATOM     18  C   UNL A   1      40.237  30.004  31.984  1.00  0.00     0.049 A 
ATOM     19  N   UNL A   1      40.017  32.915  33.381  1.00  0.00    -0.248 NA
ATOM     20  C   UNL A   1      38.025  31.897  33.989  1.00  0.00     0.031 C 
ATOM     21  C   UNL A   1      40.301  28.812  31.140  1.00  0.00     0.029 A 
ATOM     22  N   UNL A   1      41.318  29.847  32.811  1.00  0.00    -0.354 N 
ATOM     23  C   UNL A   1      39.543  33.510  34.548  1.00  0.00     0.074 A 
ATOM     24  C   UNL A   1      38.244  32.939  34.794  1.00  0.00     0.031 C 
ATOM     25  C   UNL A   1      41.234  27.961  31.630  1.00  0.00     0.029 A 
ATOM     26  C   UNL A   1      41.929  28.598  32.737  1.00  0.00     0.049 A 
ATOM     27  H   UNL A   1      41.639  30.561  33.409  1.00  0.00     0.167 HD
ATOM     28  C   UNL A   1      40.364  34.260  35.334  1.00  0.00     0.037 A 
ATOM     29  C   UNL A   1      42.911  28.114  33.544  1.00  0.00     0.037 A 
ATOM     30  C   UNL A   1      41.551  34.647  34.617  1.00  0.00     0.049 A 
ATOM     31  C   UNL A   1      43.568  29.270  34.194  1.00  0.00     0.074 A 
ATOM     32  C   UNL A   1      41.820  35.407  33.497  1.00  0.00     0.029 A 
ATOM     33  N   UNL A   1      42.689  33.924  34.863  1.00  0.00    -0.354 N 
ATOM     34  N   UNL A   1      44.324  30.126  33.569  1.00  0.00    -0.248 NA
ATOM     35  C   UNL A   1      43.059  29.707  35.483  1.00  0.00     0.031 C 
ATOM     36  C   UNL A   1      42.924  34.760  32.866  1.00  0.00     0.029 A 
ATOM     37  C   UNL A   1      43.307  33.684  33.667  1.00  0.00     0.049 A 
ATOM     38  H   UNL A   1      43.005  33.628  35.747  1.00  0.00     0.167 HD
ATOM     39  C   UNL A   1      44.002  31.345  34.139  1.00  0.00     0.074 A 
ATOM     40  C   UNL A   1      43.315  31.013  35.384  1.00  0.00     0.031 C 
ATOM     41  C   UNL A   1      44.072  32.491  33.401  1.00  0.00     0.037 A 
BRANCH  28  42
ATOM     42  C   UNL A   1      40.312  34.302  36.845  1.00  0.00     0.064 A 
ATOM     43  C   UNL A   1      40.212  35.555  37.489  1.00  0.00     0.173 A 
ATOM     44  C   UNL A   1      40.689  33.225  37.674  1.00  0.00     0.173 A 
ATOM     45  F   UNL A   1      39.877  36.656  36.798  1.00  0.00    -0.203 F 
ATOM     46  C   UNL A   1      40.563  35.728  38.831  1.00  0.00     0.198 A 
ATOM     47  C   UNL A   1      40.987  33.392  39.026  1.00  0.00     0.198 A 
ATOM     48  F   UNL A   1      40.900  31.995  37.193  1.00  0.00    -0.203 F 
ATOM     49  F   UNL A   1      40.592  36.959  39.358  1.00  0.00    -0.200 F 
ATOM     50  C   UNL A   1      40.959  34.647  39.596  1.00  0.00     0.200 A 
ATOM     51  F   UNL A   1      41.390  32.335  39.746  1.00  0.00    -0.200 F 
ATOM     52  F   UNL A   1      41.364  34.820  40.860  1.00  0.00    -0.200 F 
ENDBRANCH  28  42
BRANCH  29  53
ATOM     53  C   UNL A   1      43.174  26.729  34.016  1.00  0.00     0.064 A 
ATOM     54  C   UNL A   1      42.326  26.101  34.948  1.00  0.00     0.173 A 
ATOM     55  C   UNL A   1      44.068  25.889  33.326  1.00  0.00     0.173 A 
ATOM     56  F   UNL A   1      41.411  26.816  35.620  1.00  0.00    -0.203 F 
ATOM     57  C   UNL A   1      42.343  24.714  35.146  1.00  0.00     0.198 A 
ATOM     58  C   UNL A   1      44.088  24.507  33.529  1.00  0.00     0.198 A 
ATOM     59  F   UNL A   1      44.865  26.379  32.367  1.00  0.00    -0.203 F 
ATOM     60  F   UNL A   1      41.467  24.147  35.988  1.00  0.00    -0.200 F 
ATOM     61  C   UNL A   1      43.215  23.918  34.425  1.00  0.00     0.200 A 
ATOM     62  F   UNL A   1      44.909  23.741  32.796  1.00  0.00    -0.200 F 
ATOM     63  F   UNL A   1      43.184  22.584  34.560  1.00  0.00    -0.200 F 
ENDBRANCH  29  53
BRANCH  41  64
ATOM     64  C   UNL A   1      44.833  32.442  32.106  1.00  0.00     0.064 A 
ATOM     65  C   UNL A   1      46.223  32.609  31.986  1.00  0.00     0.173 A 
ATOM     66  C   UNL A   1      44.121  32.098  30.949  1.00  0.00     0.173 A 
ATOM     67  F   UNL A   1      46.990  32.842  33.059  1.00  0.00    -0.203 F 
ATOM     68  C   UNL A   1      46.858  32.482  30.751  1.00  0.00     0.198 A 
ATOM     69  C   UNL A   1      44.763  31.930  29.727  1.00  0.00     0.198 A 
ATOM     70  F   UNL A   1      42.798  31.878  31.013  1.00  0.00    -0.203 F 
ATOM     71  F   UNL A   1      48.184  32.663  30.654  1.00  0.00    -0.200 F 
ATOM     72  C   UNL A   1      46.129  32.135  29.625  1.00  0.00     0.200 A 
ATOM     73  F   UNL A   1      44.061  31.543  28.654  1.00  0.00    -0.200 F 
ATOM     74  F   UNL A   1      46.746  31.970  28.447  1.00  0.00    -0.200 F 
ENDBRANCH  41  64
ENDBRANCH  15  16
ENDBRANCH   8  10
ENDBRANCH   5   6
ENDBRANCH   4   5
ENDBRANCH   3   4
ENDBRANCH   2   3
ENDBRANCH   1   2
BRANCH   1  75
ATOM     75  C   UNL A   1      31.762  23.769  25.329  1.00  0.00     0.116 C 
BRANCH  75  76
ATOM     76  N   UNL A   1      31.606  23.115  24.042  1.00  0.00    -0.352 N 
ATOM     77  C   UNL A   1      32.544  22.458  23.279  1.00  0.00     0.251 C 
ATOM     78  H   UNL A   1      30.700  23.146  23.659  1.00  0.00     0.163 HD
ATOM     79  O   UNL A   1      32.275  22.076  22.151  1.00  0.00    -0.269 OA
BRANCH  77  80
ATOM     80  C   UNL A   1      33.900  22.239  23.828  1.00  0.00     0.039 A 
ATOM     81  C   UNL A   1      34.921  23.117  23.462  1.00  0.00     0.016 A 
ATOM     82  C   UNL A   1      34.158  21.168  24.689  1.00  0.00     0.016 A 
ATOM     83  C   UNL A   1      36.195  22.969  24.015  1.00  0.00     0.029 A 
ATOM     84  C   UNL A   1      35.435  21.007  25.231  1.00  0.00     0.029 A 
ATOM     85  C   UNL A   1      36.457  21.910  24.895  1.00  0.00     0.066 A 
BRANCH  85  86
ATOM     86  N   UNL A   1      37.772  21.730  25.386  1.00  0.00    -0.220 N 
ATOM     87  C   UNL A   1      38.544  22.632  26.074  1.00  0.00     0.141 A 
ATOM     88  N   UNL A   1      38.461  20.572  25.250  1.00  0.00    -0.062 NA
ATOM     89  C   UNL A   1      39.659  21.927  26.473  1.00  0.00     0.093 A 
ATOM     90  N   UNL A   1      39.614  20.688  25.900  1.00  0.00    -0.134 NA
BRANCH  89  91
ATOM     91  C   UNL A   1      40.838  22.409  27.220  1.00  0.00     0.138 C 
BRANCH  91  92
ATOM     92  S   UNL A   1      42.132  23.383  26.441  1.00  0.00    -0.081 SA
BRANCH  92  93
ATOM     93  C   UNL A   1      41.854  25.100  26.588  1.00  0.00     0.176 A 
ATOM     94  N   UNL A   1      40.715  25.350  27.166  1.00  0.00    -0.223 NA
ATOM     95  N   UNL A   1      42.721  26.119  26.213  1.00  0.00    -0.255 N 
ATOM     96  C   UNL A   1      40.307  26.679  27.312  1.00  0.00     0.079 A 
ATOM     97  C   UNL A   1      42.086  27.302  25.791  1.00  0.00     0.266 A 
ATOM     98  C   UNL A   1      39.281  27.024  28.194  1.00  0.00     0.029 A 
ATOM     99  C   UNL A   1      40.853  27.665  26.506  1.00  0.00     0.066 A 
ATOM    100  O   UNL A   1      42.471  28.046  24.891  1.00  0.00    -0.268 OA
ATOM    101  C   UNL A   1      38.761  28.323  28.202  1.00  0.00     0.002 A 
ATOM    102  C   UNL A   1      40.307  28.953  26.459  1.00  0.00     0.016 A 
ATOM    103  C   UNL A   1      39.245  29.276  27.304  1.00  0.00     0.001 A 
BRANCH  95 104
ATOM    104  C   UNL A   1      44.176  26.096  26.225  1.00  0.00     0.051 A 
ATOM    105  C   UNL A   1      44.880  25.473  25.172  1.00  0.00     0.027 A 
ATOM    106  C   UNL A   1      44.982  26.708  27.191  1.00  0.00     0.027 A 
ATOM    107  C   UNL A   1      46.270  25.305  25.187  1.00  0.00     0.002 A 
ATOM    108  C   UNL A   1      46.366  26.482  27.259  1.00  0.00     0.002 A 
ATOM    109  C   UNL A   1      47.007  25.754  26.269  1.00  0.00     0.000 A 
ENDBRANCH  95 104
ENDBRANCH  92  93
ENDBRANCH  91  92
ENDBRANCH  89  91
ENDBRANCH  85  86
ENDBRANCH  77  80
ENDBRANCH  75  76
ENDBRANCH   1  75
TORSDOF 18
ENDMDL
MODEL 2
REMARK VINA RESULT:     -11.6      3.519      8.323
REMARK SMILES O=C(NCCCCCCNC(=O)c1ccc(-n2cc(CSc3nc4ccccc4c(=O)n3-c3ccccc3)nn2)cc1)c1ccc(-c2c3nc(c(-c4c(F)c(F)c(F)c(F)c4F)c4ccc([nH]4)c(-c4c(F)c(F)c(F)c(F)c4F)c4nc(c(-c5c(F)c(F)c(F)c(F)c5F)c5ccc2[nH]5)C=C4)C=C3)cc1
REMARK SMILES IDX 8 1 7 2 6 3 5 4 4 5 3 6 1 7 2 8 43 10 44 11 105 12 45 13
REMARK SMILES IDX 104 14 46 15 47 16 48 17 98 18 49 19 103 20 97 21 99 22
REMARK SMILES IDX 50 23 102 24 96 25 95 26 51 28 83 29 63 30 82 31 64 32 67 33
REMARK SMILES IDX 81 34 100 35 65 36 66 37 80 39 101 40 68 41 52 42 53 43
REMARK SMILES IDX 61 44 54 45 55 46 59 47 62 48 56 49 57 50 60 51 58 52 84 53
REMARK SMILES IDX 85 54 93 55 86 56 87 57 91 58 94 59 88 60 89 61 92 62 90 63
REMARK SMILES IDX 69 64 70 65 78 66 71 67 72 68 76 69 79 70 73 71 74 72 77 73
REMARK SMILES IDX 75 74 9 75 10 76 11 77 12 79 13 80 14 81 42 82 15 83 41 84
REMARK SMILES IDX 16 85 17 86 18 87 40 88 19 89 39 90 20 91 21 92 22 93 23 94
REMARK SMILES IDX 32 95 24 96 30 97 25 98 29 99 31 100 26 101 28 102 27 103
REMARK SMILES IDX 33 104 34 105 38 106 35 107 37 108 36 109
REMARK H PARENT 3 9 99 27 67 38 10 78
REMARK Flexibility Score: inf
ROOT
ATOM      1  C   UNL A   1      34.059  35.326  31.438  1.00  0.00     0.021 C 
ENDROOT
BRANCH   1   2
ATOM      2  C   UNL A   1      35.208  35.405  32.448  1.00  0.00     0.002 C 
BRANCH   2   3
ATOM      3  C   UNL A   1      34.840  35.108  33.907  1.00  0.00     0.002 C 
BRANCH   3   4
ATOM      4  C   UNL A   1      35.912  34.408  34.751  1.00  0.00     0.021 C 
BRANCH   4   5
ATOM      5  C   UNL A   1      36.402  33.069  34.204  1.00  0.00     0.116 C 
BRANCH   5   6
ATOM      6  N   UNL A   1      35.629  32.561  33.090  1.00  0.00    -0.352 N 
ATOM      7  O   UNL A   1      34.825  31.344  31.436  1.00  0.00    -0.269 OA
ATOM      8  C   UNL A   1      35.808  31.595  32.139  1.00  0.00     0.251 C 
ATOM      9  H   UNL A   1      34.765  33.022  32.994  1.00  0.00     0.163 HD
BRANCH   8  10
ATOM     10  C   UNL A   1      37.086  30.888  31.843  1.00  0.00     0.039 A 
ATOM     11  C   UNL A   1      38.344  31.472  31.707  1.00  0.00     0.014 A 
ATOM     12  C   UNL A   1      36.981  29.490  31.683  1.00  0.00     0.014 A 
ATOM     13  C   UNL A   1      39.448  30.690  31.354  1.00  0.00     0.010 A 
ATOM     14  C   UNL A   1      38.077  28.706  31.331  1.00  0.00     0.010 A 
ATOM     15  C   UNL A   1      39.312  29.311  31.141  1.00  0.00    -0.014 A 
BRANCH  15  16
ATOM     16  C   UNL A   1      40.520  28.510  30.938  1.00  0.00     0.031 A 
ATOM     17  C   UNL A   1      41.291  28.279  32.193  1.00  0.00     0.074 A 
ATOM     18  C   UNL A   1      40.887  27.905  29.787  1.00  0.00     0.049 A 
ATOM     19  N   UNL A   1      42.463  28.735  32.489  1.00  0.00    -0.248 NA
ATOM     20  C   UNL A   1      40.633  27.562  33.296  1.00  0.00     0.031 C 
ATOM     21  C   UNL A   1      40.115  27.772  28.552  1.00  0.00     0.029 A 
ATOM     22  N   UNL A   1      42.029  27.202  29.507  1.00  0.00    -0.354 N 
ATOM     23  C   UNL A   1      42.772  28.225  33.748  1.00  0.00     0.074 A 
ATOM     24  C   UNL A   1      41.559  27.635  34.254  1.00  0.00     0.031 C 
ATOM     25  C   UNL A   1      40.715  26.868  27.740  1.00  0.00     0.029 A 
ATOM     26  C   UNL A   1      41.980  26.460  28.329  1.00  0.00     0.049 A 
ATOM     27  H   UNL A   1      42.822  27.220  30.091  1.00  0.00     0.167 HD
ATOM     28  C   UNL A   1      44.064  28.137  34.169  1.00  0.00     0.037 A 
ATOM     29  C   UNL A   1      42.896  25.556  27.888  1.00  0.00     0.037 A 
ATOM     30  C   UNL A   1      44.926  28.962  33.362  1.00  0.00     0.049 A 
ATOM     31  C   UNL A   1      44.170  25.832  28.588  1.00  0.00     0.074 A 
ATOM     32  C   UNL A   1      45.033  30.313  33.102  1.00  0.00     0.029 A 
ATOM     33  N   UNL A   1      45.654  28.332  32.387  1.00  0.00    -0.354 N 
ATOM     34  N   UNL A   1      44.909  26.882  28.373  1.00  0.00    -0.248 NA
ATOM     35  C   UNL A   1      44.431  25.126  29.831  1.00  0.00     0.031 C 
ATOM     36  C   UNL A   1      45.427  30.397  31.734  1.00  0.00     0.029 A 
ATOM     37  C   UNL A   1      45.600  29.098  31.255  1.00  0.00     0.049 A 
ATOM     38  H   UNL A   1      46.131  27.476  32.483  1.00  0.00     0.167 HD
ATOM     39  C   UNL A   1      45.375  27.235  29.627  1.00  0.00     0.074 A 
ATOM     40  C   UNL A   1      45.151  26.057  30.460  1.00  0.00     0.031 C 
ATOM     41  C   UNL A   1      45.628  28.542  29.925  1.00  0.00     0.037 A 
BRANCH  28  42
ATOM     42  C   UNL A   1      44.621  27.016  35.018  1.00  0.00     0.064 A 
ATOM     43  C   UNL A   1      44.375  25.681  34.631  1.00  0.00     0.173 A 
ATOM     44  C   UNL A   1      45.080  27.187  36.341  1.00  0.00     0.173 A 
ATOM     45  F   UNL A   1      43.920  25.397  33.400  1.00  0.00    -0.203 F 
ATOM     46  C   UNL A   1      44.482  24.617  35.531  1.00  0.00     0.198 A 
ATOM     47  C   UNL A   1      45.237  26.116  37.221  1.00  0.00     0.198 A 
ATOM     48  F   UNL A   1      45.281  28.396  36.876  1.00  0.00    -0.203 F 
ATOM     49  F   UNL A   1      44.098  23.388  35.158  1.00  0.00    -0.200 F 
ATOM     50  C   UNL A   1      44.904  24.837  36.828  1.00  0.00     0.200 A 
ATOM     51  F   UNL A   1      45.627  26.353  38.482  1.00  0.00    -0.200 F 
ATOM     52  F   UNL A   1      44.940  23.832  37.713  1.00  0.00    -0.200 F 
ENDBRANCH  28  42
BRANCH  29  53
ATOM     53  C   UNL A   1      42.715  24.303  27.109  1.00  0.00     0.064 A 
ATOM     54  C   UNL A   1      43.166  24.198  25.779  1.00  0.00     0.173 A 
ATOM     55  C   UNL A   1      42.391  23.094  27.752  1.00  0.00     0.173 A 
ATOM     56  F   UNL A   1      43.540  25.295  25.103  1.00  0.00    -0.203 F 
ATOM     57  C   UNL A   1      43.322  22.958  25.148  1.00  0.00     0.198 A 
ATOM     58  C   UNL A   1      42.542  21.858  27.119  1.00  0.00     0.198 A 
ATOM     59  F   UNL A   1      42.023  23.082  29.040  1.00  0.00    -0.203 F 
ATOM     60  F   UNL A   1      43.825  22.897  23.906  1.00  0.00    -0.200 F 
ATOM     61  C   UNL A   1      43.022  21.788  25.824  1.00  0.00     0.200 A 
ATOM     62  F   UNL A   1      42.287  20.730  27.797  1.00  0.00    -0.200 F 
ATOM     63  F   UNL A   1      43.239  20.598  25.247  1.00  0.00    -0.200 F 
ENDBRANCH  29  53
BRANCH  41  64
ATOM     64  C   UNL A   1      45.734  29.512  28.782  1.00  0.00     0.064 A 
ATOM     65  C   UNL A   1      44.644  30.164  28.181  1.00  0.00     0.173 A 
ATOM     66  C   UNL A   1      47.019  29.875  28.358  1.00  0.00     0.173 A 
ATOM     67  F   UNL A   1      43.389  29.948  28.596  1.00  0.00    -0.203 F 
ATOM     68  C   UNL A   1      44.838  31.103  27.167  1.00  0.00     0.198 A 
ATOM     69  C   UNL A   1      47.210  30.842  27.376  1.00  0.00     0.198 A 
ATOM     70  F   UNL A   1      48.099  29.320  28.930  1.00  0.00    -0.203 F 
ATOM     71  F   UNL A   1      43.783  31.701  26.594  1.00  0.00    -0.200 F 
ATOM     72  C   UNL A   1      46.120  31.446  26.772  1.00  0.00     0.200 A 
ATOM     73  F   UNL A   1      48.454  31.208  27.036  1.00  0.00    -0.200 F 
ATOM     74  F   UNL A   1      46.308  32.379  25.829  1.00  0.00    -0.200 F 
ENDBRANCH  41  64
ENDBRANCH  15  16
ENDBRANCH   8  10
ENDBRANCH   5   6
ENDBRANCH   4   5
ENDBRANCH   3   4
ENDBRANCH   2   3
ENDBRANCH   1   2
BRANCH   1  75
ATOM     75  C   UNL A   1      34.300  34.395  30.252  1.00  0.00     0.116 C 
BRANCH  75  76
ATOM     76  N   UNL A   1      35.676  34.425  29.790  1.00  0.00    -0.352 N 
ATOM     77  C   UNL A   1      36.360  33.508  29.027  1.00  0.00     0.251 C 
ATOM     78  H   UNL A   1      36.196  35.216  30.064  1.00  0.00     0.163 HD
ATOM     79  O   UNL A   1      37.560  33.624  28.837  1.00  0.00    -0.269 OA
BRANCH  77  80
ATOM     80  C   UNL A   1      35.631  32.355  28.454  1.00  0.00     0.039 A 
ATOM     81  C   UNL A   1      34.288  32.517  28.107  1.00  0.00     0.016 A 
ATOM     82  C   UNL A   1      36.269  31.124  28.272  1.00  0.00     0.016 A 
ATOM     83  C   UNL A   1      33.595  31.464  27.507  1.00  0.00     0.029 A 
ATOM     84  C   UNL A   1      35.574  30.064  27.687  1.00  0.00     0.029 A 
ATOM     85  C   UNL A   1      34.233  30.233  27.301  1.00  0.00     0.066 A 
BRANCH  85  86
ATOM     86  N   UNL A   1      33.494  29.153  26.762  1.00  0.00    -0.220 N 
ATOM     87  C   UNL A   1      33.945  28.152  25.940  1.00  0.00     0.141 A 
ATOM     88  N   UNL A   1      32.181  28.952  27.024  1.00  0.00    -0.062 NA
ATOM     89  C   UNL A   1      32.896  27.264  25.839  1.00  0.00     0.093 A 
ATOM     90  N   UNL A   1      31.807  27.810  26.457  1.00  0.00    -0.134 NA
BRANCH  89  91
ATOM     91  C   UNL A   1      32.815  26.016  25.053  1.00  0.00     0.138 C 
BRANCH  91  92
ATOM     92  S   UNL A   1      34.274  25.212  24.379  1.00  0.00    -0.081 SA
BRANCH  92  93
ATOM     93  C   UNL A   1      34.240  23.480  24.593  1.00  0.00     0.176 A 
ATOM     94  N   UNL A   1      33.342  22.924  23.833  1.00  0.00    -0.223 NA
ATOM     95  N   UNL A   1      35.078  22.725  25.405  1.00  0.00    -0.255 N 
ATOM     96  C   UNL A   1      33.141  21.544  23.921  1.00  0.00     0.079 A 
ATOM     97  C   UNL A   1      34.487  21.563  25.935  1.00  0.00     0.266 A 
ATOM     98  C   UNL A   1      32.445  20.854  22.927  1.00  0.00     0.029 A 
ATOM     99  C   UNL A   1      33.548  20.854  25.051  1.00  0.00     0.066 A 
ATOM    100  O   UNL A   1      34.688  21.097  27.055  1.00  0.00    -0.268 OA
ATOM    101  C   UNL A   1      32.095  19.511  23.110  1.00  0.00     0.002 A 
ATOM    102  C   UNL A   1      33.157  19.529  25.277  1.00  0.00     0.016 A 
ATOM    103  C   UNL A   1      32.415  18.861  24.303  1.00  0.00     0.001 A 
BRANCH  95 104
ATOM    104  C   UNL A   1      36.468  22.995  25.743  1.00  0.00     0.051 A 
ATOM    105  C   UNL A   1      37.467  22.051  25.425  1.00  0.00     0.027 A 
ATOM    106  C   UNL A   1      36.937  24.178  26.325  1.00  0.00     0.027 A 
ATOM    107  C   UNL A   1      38.798  22.192  25.836  1.00  0.00     0.002 A 
ATOM    108  C   UNL A   1      38.250  24.299  26.809  1.00  0.00     0.002 A 
ATOM    109  C   UNL A   1      39.175  23.292  26.588  1.00  0.00     0.000 A 
ENDBRANCH  95 104
ENDBRANCH  92  93
ENDBRANCH  91  92
ENDBRANCH  89  91
ENDBRANCH  85  86
ENDBRANCH  77  80
ENDBRANCH  75  76
ENDBRANCH   1  75
TORSDOF 18
ENDMDL
MODEL 3
REMARK VINA RESULT:     -11.3      1.725      2.596
REMARK SMILES O=C(NCCCCCCNC(=O)c1ccc(-n2cc(CSc3nc4ccccc4c(=O)n3-c3ccccc3)nn2)cc1)c1ccc(-c2c3nc(c(-c4c(F)c(F)c(F)c(F)c4F)c4ccc([nH]4)c(-c4c(F)c(F)c(F)c(F)c4F)c4nc(c(-c5c(F)c(F)c(F)c(F)c5F)c5ccc2[nH]5)C=C4)C=C3)cc1
REMARK SMILES IDX 8 1 7 2 6 3 5 4 4 5 3 6 1 7 2 8 43 10 44 11 105 12 45 13
REMARK SMILES IDX 104 14 46 15 47 16 48 17 98 18 49 19 103 20 97 21 99 22
REMARK SMILES IDX 50 23 102 24 96 25 95 26 51 28 83 29 63 30 82 31 64 32 67 33
REMARK SMILES IDX 81 34 100 35 65 36 66 37 80 39 101 40 68 41 52 42 53 43
REMARK SMILES IDX 61 44 54 45 55 46 59 47 62 48 56 49 57 50 60 51 58 52 84 53
REMARK SMILES IDX 85 54 93 55 86 56 87 57 91 58 94 59 88 60 89 61 92 62 90 63
REMARK SMILES IDX 69 64 70 65 78 66 71 67 72 68 76 69 79 70 73 71 74 72 77 73
REMARK SMILES IDX 75 74 9 75 10 76 11 77 12 79 13 80 14 81 42 82 15 83 41 84
REMARK SMILES IDX 16 85 17 86 18 87 40 88 19 89 39 90 20 91 21 92 22 93 23 94
REMARK SMILES IDX 32 95 24 96 30 97 25 98 29 99 31 100 26 101 28 102 27 103
REMARK SMILES IDX 33 104 34 105 38 106 35 107 37 108 36 109
REMARK H PARENT 3 9 99 27 67 38 10 78
REMARK Flexibility Score: inf
ROOT
ATOM      1  C   UNL A   1      32.406  25.979  25.065  1.00  0.00     0.021 C 
ENDROOT
BRANCH   1   2
ATOM      2  C   UNL A   1      33.643  26.832  25.359  1.00  0.00     0.002 C 
BRANCH   2   3
ATOM      3  C   UNL A   1      33.417  28.348  25.411  1.00  0.00     0.002 C 
BRANCH   3   4
ATOM      4  C   UNL A   1      33.178  28.955  26.800  1.00  0.00     0.021 C 
BRANCH   4   5
ATOM      5  C   UNL A   1      34.304  29.843  27.325  1.00  0.00     0.116 C 
BRANCH   5   6
ATOM      6  N   UNL A   1      33.864  31.122  27.842  1.00  0.00    -0.352 N 
ATOM      7  O   UNL A   1      33.761  33.137  28.732  1.00  0.00    -0.269 OA
ATOM      8  C   UNL A   1      34.403  32.086  28.647  1.00  0.00     0.251 C 
ATOM      9  H   UNL A   1      32.956  31.354  27.540  1.00  0.00     0.163 HD
BRANCH   8  10
ATOM     10  C   UNL A   1      35.640  31.947  29.466  1.00  0.00     0.039 A 
ATOM     11  C   UNL A   1      35.710  31.539  30.797  1.00  0.00     0.014 A 
ATOM     12  C   UNL A   1      36.843  32.275  28.807  1.00  0.00     0.014 A 
ATOM     13  C   UNL A   1      36.938  31.526  31.466  1.00  0.00     0.010 A 
ATOM     14  C   UNL A   1      38.070  32.265  29.466  1.00  0.00     0.010 A 
ATOM     15  C   UNL A   1      38.115  31.913  30.809  1.00  0.00    -0.014 A 
BRANCH  15  16
ATOM     16  C   UNL A   1      39.396  31.724  31.495  1.00  0.00     0.031 A 
ATOM     17  C   UNL A   1      39.861  32.942  32.218  1.00  0.00     0.074 A 
ATOM     18  C   UNL A   1      40.071  30.559  31.607  1.00  0.00     0.049 A 
ATOM     19  N   UNL A   1      40.891  33.672  31.943  1.00  0.00    -0.248 NA
ATOM     20  C   UNL A   1      39.017  33.482  33.295  1.00  0.00     0.031 C 
ATOM     21  C   UNL A   1      39.627  29.219  31.227  1.00  0.00     0.029 A 
ATOM     22  N   UNL A   1      41.297  30.323  32.170  1.00  0.00    -0.354 N 
ATOM     23  C   UNL A   1      40.929  34.670  32.913  1.00  0.00     0.074 A 
ATOM     24  C   UNL A   1      39.681  34.591  33.626  1.00  0.00     0.031 C 
ATOM     25  C   UNL A   1      40.470  28.298  31.752  1.00  0.00     0.029 A 
ATOM     26  C   UNL A   1      41.586  28.979  32.389  1.00  0.00     0.049 A 
ATOM     27  H   UNL A   1      41.924  31.046  32.402  1.00  0.00     0.167 HD
ATOM     28  C   UNL A   1      42.087  35.332  33.190  1.00  0.00     0.037 A 
ATOM     29  C   UNL A   1      42.647  28.466  33.068  1.00  0.00     0.037 A 
ATOM     30  C   UNL A   1      43.051  35.148  32.135  1.00  0.00     0.049 A 
ATOM     31  C   UNL A   1      43.694  29.511  33.119  1.00  0.00     0.074 A 
ATOM     32  C   UNL A   1      43.112  35.465  30.793  1.00  0.00     0.029 A 
ATOM     33  N   UNL A   1      44.035  34.219  32.348  1.00  0.00    -0.354 N 
ATOM     34  N   UNL A   1      44.380  29.908  32.087  1.00  0.00    -0.248 NA
ATOM     35  C   UNL A   1      43.706  30.408  34.263  1.00  0.00     0.031 C 
ATOM     36  C   UNL A   1      43.813  34.380  30.187  1.00  0.00     0.029 A 
ATOM     37  C   UNL A   1      44.194  33.496  31.198  1.00  0.00     0.049 A 
ATOM     38  H   UNL A   1      44.540  34.093  33.184  1.00  0.00     0.167 HD
ATOM     39  C   UNL A   1      44.506  31.274  32.266  1.00  0.00     0.074 A 
ATOM     40  C   UNL A   1      44.181  31.505  33.671  1.00  0.00     0.031 C 
ATOM     41  C   UNL A   1      44.579  32.107  31.187  1.00  0.00     0.037 A 
BRANCH  28  42
ATOM     42  C   UNL A   1      42.511  35.793  34.567  1.00  0.00     0.064 A 
ATOM     43  C   UNL A   1      42.963  37.121  34.732  1.00  0.00     0.173 A 
ATOM     44  C   UNL A   1      42.809  34.917  35.631  1.00  0.00     0.173 A 
ATOM     45  F   UNL A   1      42.750  38.040  33.777  1.00  0.00    -0.203 F 
ATOM     46  C   UNL A   1      43.738  37.508  35.828  1.00  0.00     0.198 A 
ATOM     47  C   UNL A   1      43.539  35.321  36.749  1.00  0.00     0.198 A 
ATOM     48  F   UNL A   1      42.516  33.612  35.584  1.00  0.00    -0.203 F 
ATOM     49  F   UNL A   1      44.265  38.739  35.869  1.00  0.00    -0.200 F 
ATOM     50  C   UNL A   1      44.034  36.605  36.831  1.00  0.00     0.200 A 
ATOM     51  F   UNL A   1      43.833  34.424  37.701  1.00  0.00    -0.200 F 
ATOM     52  F   UNL A   1      44.835  36.952  37.846  1.00  0.00    -0.200 F 
ENDBRANCH  28  42
BRANCH  29  53
ATOM     53  C   UNL A   1      42.753  27.245  33.910  1.00  0.00     0.064 A 
ATOM     54  C   UNL A   1      43.665  26.219  33.596  1.00  0.00     0.173 A 
ATOM     55  C   UNL A   1      42.200  27.210  35.203  1.00  0.00     0.173 A 
ATOM     56  F   UNL A   1      44.276  26.197  32.402  1.00  0.00    -0.203 F 
ATOM     57  C   UNL A   1      44.029  25.242  34.532  1.00  0.00     0.198 A 
ATOM     58  C   UNL A   1      42.560  26.232  36.134  1.00  0.00     0.198 A 
ATOM     59  F   UNL A   1      41.380  28.182  35.622  1.00  0.00    -0.203 F 
ATOM     60  F   UNL A   1      44.957  24.326  34.218  1.00  0.00    -0.200 F 
ATOM     61  C   UNL A   1      43.486  25.259  35.805  1.00  0.00     0.200 A 
ATOM     62  F   UNL A   1      42.058  26.282  37.376  1.00  0.00    -0.200 F 
ATOM     63  F   UNL A   1      43.887  24.370  36.724  1.00  0.00    -0.200 F 
ENDBRANCH  29  53
BRANCH  41  64
ATOM     64  C   UNL A   1      44.879  31.492  29.849  1.00  0.00     0.064 A 
ATOM     65  C   UNL A   1      43.912  30.980  28.967  1.00  0.00     0.173 A 
ATOM     66  C   UNL A   1      46.206  31.531  29.401  1.00  0.00     0.173 A 
ATOM     67  F   UNL A   1      42.609  30.997  29.279  1.00  0.00    -0.203 F 
ATOM     68  C   UNL A   1      44.271  30.487  27.713  1.00  0.00     0.198 A 
ATOM     69  C   UNL A   1      46.555  31.078  28.133  1.00  0.00     0.198 A 
ATOM     70  F   UNL A   1      47.165  32.054  30.181  1.00  0.00    -0.203 F 
ATOM     71  F   UNL A   1      43.335  29.986  26.894  1.00  0.00    -0.200 F 
ATOM     72  C   UNL A   1      45.590  30.544  27.295  1.00  0.00     0.200 A 
ATOM     73  F   UNL A   1      47.824  31.184  27.714  1.00  0.00    -0.200 F 
ATOM     74  F   UNL A   1      45.930  30.111  26.073  1.00  0.00    -0.200 F 
ENDBRANCH  41  64
ENDBRANCH  15  16
ENDBRANCH   8  10
ENDBRANCH   5   6
ENDBRANCH   4   5
ENDBRANCH   3   4
ENDBRANCH   2   3
ENDBRANCH   1   2
BRANCH   1  75
ATOM     75  C   UNL A   1      32.604  24.473  25.222  1.00  0.00     0.116 C 
BRANCH  75  76
ATOM     76  N   UNL A   1      32.164  23.729  24.055  1.00  0.00    -0.352 N 
ATOM     77  C   UNL A   1      32.832  22.768  23.331  1.00  0.00     0.251 C 
ATOM     78  H   UNL A   1      31.258  23.944  23.735  1.00  0.00     0.163 HD
ATOM     79  O   UNL A   1      32.364  22.334  22.291  1.00  0.00    -0.269 OA
BRANCH  77  80
ATOM     80  C   UNL A   1      34.142  22.280  23.812  1.00  0.00     0.039 A 
ATOM     81  C   UNL A   1      35.297  22.953  23.410  1.00  0.00     0.016 A 
ATOM     82  C   UNL A   1      34.226  21.159  24.645  1.00  0.00     0.016 A 
ATOM     83  C   UNL A   1      36.541  22.550  23.900  1.00  0.00     0.029 A 
ATOM     84  C   UNL A   1      35.470  20.743  25.123  1.00  0.00     0.029 A 
ATOM     85  C   UNL A   1      36.632  21.441  24.752  1.00  0.00     0.066 A 
BRANCH  85  86
ATOM     86  N   UNL A   1      37.908  20.999  25.178  1.00  0.00    -0.220 N 
ATOM     87  C   UNL A   1      38.875  21.724  25.825  1.00  0.00     0.141 A 
ATOM     88  N   UNL A   1      38.346  19.730  25.009  1.00  0.00    -0.062 NA
ATOM     89  C   UNL A   1      39.846  20.809  26.169  1.00  0.00     0.093 A 
ATOM     90  N   UNL A   1      39.529  19.608  25.601  1.00  0.00    -0.134 NA
BRANCH  89  91
ATOM     91  C   UNL A   1      41.133  21.042  26.857  1.00  0.00     0.138 C 
BRANCH  91  92
ATOM     92  S   UNL A   1      42.446  22.025  26.123  1.00  0.00    -0.081 SA
BRANCH  92  93
ATOM     93  C   UNL A   1      42.239  23.734  26.409  1.00  0.00     0.176 A 
ATOM     94  N   UNL A   1      41.118  23.982  27.021  1.00  0.00    -0.223 NA
ATOM     95  N   UNL A   1      43.143  24.746  26.104  1.00  0.00    -0.255 N 
ATOM     96  C   UNL A   1      40.765  25.310  27.278  1.00  0.00     0.079 A 
ATOM     97  C   UNL A   1      42.552  25.982  25.786  1.00  0.00     0.266 A 
ATOM     98  C   UNL A   1      39.763  25.624  28.198  1.00  0.00     0.029 A 
ATOM     99  C   UNL A   1      41.341  26.335  26.545  1.00  0.00     0.066 A 
ATOM    100  O   UNL A   1      42.957  26.780  24.943  1.00  0.00    -0.268 OA
ATOM    101  C   UNL A   1      39.297  26.938  28.316  1.00  0.00     0.002 A 
ATOM    102  C   UNL A   1      40.848  27.643  26.607  1.00  0.00     0.016 A 
ATOM    103  C   UNL A   1      39.809  27.940  27.490  1.00  0.00     0.001 A 
BRANCH  95 104
ATOM    104  C   UNL A   1      44.596  24.664  26.094  1.00  0.00     0.051 A 
ATOM    105  C   UNL A   1      45.303  24.535  27.309  1.00  0.00     0.027 A 
ATOM    106  C   UNL A   1      45.392  24.640  24.944  1.00  0.00     0.027 A 
ATOM    107  C   UNL A   1      46.701  24.579  27.378  1.00  0.00     0.002 A 
ATOM    108  C   UNL A   1      46.789  24.763  25.002  1.00  0.00     0.002 A 
ATOM    109  C   UNL A   1      47.443  24.760  26.224  1.00  0.00     0.000 A 
ENDBRANCH  95 104
ENDBRANCH  92  93
ENDBRANCH  91  92
ENDBRANCH  89  91
ENDBRANCH  85  86
ENDBRANCH  77  80
ENDBRANCH  75  76
ENDBRANCH   1  75
TORSDOF 18
ENDMDL
