MODEL 1
REMARK VINA RESULT:     -12.4      0.000      0.000
REMARK SMILES Cc1ccc(C(=O)NCCCCCCNC(=O)c2ccc(-c3c4nc(c(-c5c(F)c(F)c(F)c(F)c5F)c5ccc([nH]5)c(-c5c(F)c(F)c(F)c(F)c5F)c5nc(c(-c6c(F)c(F)c(F)c(F)c6F)c6ccc3[nH]6)C=C5)C=C4)cc2)cc1N1C(=O)/C(=C\c2nc3ccccc3n2C)SC1=S
REMARK SMILES IDX 11 1 10 2 9 3 8 4 6 5 7 6 5 8 1 9 2 10 3 11 82 12 4 13 81 14
REMARK SMILES IDX 83 15 84 16 99 17 85 18 86 19 98 20 100 21 87 22 88 23 89 24
REMARK SMILES IDX 96 25 90 26 95 27 97 28 91 29 94 30 92 31 93 32 12 33 13 34
REMARK SMILES IDX 14 35 15 36 16 37 17 39 18 40 19 41 80 42 20 43 79 44 21 45
REMARK SMILES IDX 22 46 23 47 73 48 24 49 78 50 72 51 74 52 25 53 77 54 71 55
REMARK SMILES IDX 70 56 26 58 58 59 38 60 57 61 39 62 42 63 56 64 75 65 40 66
REMARK SMILES IDX 41 67 55 69 76 70 43 71 27 72 28 73 36 74 29 75 30 76 34 77
REMARK SMILES IDX 37 78 31 79 32 80 35 81 33 82 59 83 60 84 68 85 61 86 62 87
REMARK SMILES IDX 66 88 69 89 63 90 64 91 67 92 65 93 44 94 45 95 53 96 46 97
REMARK SMILES IDX 47 98 51 99 54 100 48 101 49 102 52 103 50 104
REMARK H PARENT 8 7 15 38 74 57 42 68
REMARK Flexibility Score: inf
ROOT
ATOM      1  C   UNL A   1      40.766  34.078  29.799  1.00  0.00     0.002 C 
ENDROOT
BRANCH   1   2
ATOM      2  C   UNL A   1      41.860  34.900  30.499  1.00  0.00     0.021 C 
BRANCH   2   3
ATOM      3  C   UNL A   1      42.841  35.590  29.545  1.00  0.00     0.116 C 
BRANCH   3   4
ATOM      4  N   UNL A   1      42.528  35.276  28.163  1.00  0.00    -0.352 N 
ATOM      5  C   UNL A   1      43.129  35.595  26.972  1.00  0.00     0.251 C 
ATOM      6  O   UNL A   1      42.650  35.096  25.951  1.00  0.00    -0.269 OA
ATOM      7  H   UNL A   1      41.721  34.723  28.060  1.00  0.00     0.163 HD
BRANCH   5   8
ATOM      8  C   UNL A   1      44.339  36.460  26.844  1.00  0.00     0.041 A 
ATOM      9  C   UNL A   1      48.105  38.613  26.737  1.00  0.00     0.046 C 
ATOM     10  C   UNL A   1      46.759  37.940  26.716  1.00  0.00    -0.027 A 
ATOM     11  C   UNL A   1      46.755  36.541  26.574  1.00  0.00     0.006 A 
ATOM     12  C   UNL A   1      45.525  38.607  26.866  1.00  0.00     0.054 A 
ATOM     13  C   UNL A   1      45.567  35.812  26.662  1.00  0.00     0.014 A 
ATOM     14  C   UNL A   1      44.331  37.854  26.879  1.00  0.00     0.041 A 
BRANCH  12  15
ATOM     15  N   UNL A   1      45.454  39.998  27.188  1.00  0.00    -0.261 N 
ATOM     16  C   UNL A   1      45.485  40.931  26.155  1.00  0.00     0.270 C 
ATOM     17  C   UNL A   1      45.478  40.528  28.465  1.00  0.00     0.152 C 
ATOM     18  O   UNL A   1      45.954  40.771  25.035  1.00  0.00    -0.268 OA
ATOM     19  C   UNL A   1      45.047  42.261  26.670  1.00  0.00     0.084 C 
ATOM     20  S   UNL A   1      45.240  42.285  28.381  1.00  0.00    -0.054 SA
ATOM     21  S   UNL A   1      45.789  39.767  29.921  1.00  0.00    -0.051 S 
ATOM     22  C   UNL A   1      44.529  43.271  25.951  1.00  0.00     0.068 C 
BRANCH  22  23
ATOM     23  C   UNL A   1      44.163  43.069  24.595  1.00  0.00     0.134 A 
ATOM     24  N   UNL A   1      44.832  43.447  23.524  1.00  0.00    -0.229 NA
ATOM     25  N   UNL A   1      42.990  42.439  24.228  1.00  0.00    -0.328 N 
ATOM     26  C   UNL A   1      43.980  43.271  22.470  1.00  0.00     0.089 A 
ATOM     27  C   UNL A   1      42.798  42.663  22.881  1.00  0.00     0.068 A 
ATOM     28  C   UNL A   1      42.097  41.703  25.090  1.00  0.00     0.152 C 
ATOM     29  C   UNL A   1      44.148  43.638  21.127  1.00  0.00     0.030 A 
ATOM     30  C   UNL A   1      41.739  42.415  21.997  1.00  0.00     0.028 A 
ATOM     31  C   UNL A   1      43.097  43.412  20.232  1.00  0.00     0.002 A 
ATOM     32  C   UNL A   1      41.911  42.815  20.665  1.00  0.00     0.002 A 
ENDBRANCH  22  23
ENDBRANCH  12  15
ENDBRANCH   5   8
ENDBRANCH   3   4
ENDBRANCH   2   3
ENDBRANCH   1   2
BRANCH   1  33
ATOM     33  C   UNL A   1      39.327  34.615  29.912  1.00  0.00     0.002 C 
BRANCH  33  34
ATOM     34  C   UNL A   1      38.249  33.808  29.181  1.00  0.00     0.021 C 
BRANCH  34  35
ATOM     35  C   UNL A   1      37.555  32.772  30.057  1.00  0.00     0.116 C 
BRANCH  35  36
ATOM     36  N   UNL A   1      36.213  32.417  29.606  1.00  0.00    -0.352 N 
ATOM     37  C   UNL A   1      35.781  31.271  28.959  1.00  0.00     0.251 C 
ATOM     38  H   UNL A   1      35.515  33.087  29.787  1.00  0.00     0.163 HD
ATOM     39  O   UNL A   1      34.616  31.143  28.625  1.00  0.00    -0.269 OA
BRANCH  37  40
ATOM     40  C   UNL A   1      36.734  30.150  28.785  1.00  0.00     0.039 A 
ATOM     41  C   UNL A   1      36.995  29.329  29.887  1.00  0.00     0.014 A 
ATOM     42  C   UNL A   1      37.499  30.044  27.626  1.00  0.00     0.014 A 
ATOM     43  C   UNL A   1      38.169  28.579  29.911  1.00  0.00     0.010 A 
ATOM     44  C   UNL A   1      38.706  29.374  27.683  1.00  0.00     0.010 A 
ATOM     45  C   UNL A   1      39.070  28.700  28.852  1.00  0.00    -0.014 A 
BRANCH  45  46
ATOM     46  C   UNL A   1      40.460  28.275  28.948  1.00  0.00     0.031 A 
ATOM     47  C   UNL A   1      40.906  26.981  28.403  1.00  0.00     0.074 A 
ATOM     48  C   UNL A   1      41.376  29.096  29.512  1.00  0.00     0.049 A 
ATOM     49  N   UNL A   1      41.885  26.302  28.902  1.00  0.00    -0.248 NA
ATOM     50  C   UNL A   1      40.272  26.335  27.259  1.00  0.00     0.031 C 
ATOM     51  C   UNL A   1      42.829  28.943  29.488  1.00  0.00     0.029 A 
ATOM     52  N   UNL A   1      41.149  30.144  30.416  1.00  0.00    -0.354 N 
ATOM     53  C   UNL A   1      42.192  25.314  28.004  1.00  0.00     0.074 A 
ATOM     54  C   UNL A   1      41.113  25.319  27.040  1.00  0.00     0.031 C 
ATOM     55  C   UNL A   1      43.349  29.612  30.528  1.00  0.00     0.029 A 
ATOM     56  C   UNL A   1      42.237  30.106  31.318  1.00  0.00     0.049 A 
ATOM     57  H   UNL A   1      40.392  30.774  30.422  1.00  0.00     0.167 HD
ATOM     58  C   UNL A   1      43.400  24.688  28.063  1.00  0.00     0.037 A 
ATOM     59  C   UNL A   1      42.065  29.893  32.652  1.00  0.00     0.037 A 
ATOM     60  C   UNL A   1      44.241  25.198  29.137  1.00  0.00     0.049 A 
ATOM     61  C   UNL A   1      42.849  28.727  33.203  1.00  0.00     0.074 A 
ATOM     62  C   UNL A   1      45.288  26.104  29.160  1.00  0.00     0.029 A 
ATOM     63  N   UNL A   1      43.857  25.016  30.462  1.00  0.00    -0.354 N 
ATOM     64  N   UNL A   1      43.324  27.758  32.474  1.00  0.00    -0.248 NA
ATOM     65  C   UNL A   1      43.126  28.546  34.622  1.00  0.00     0.031 C 
ATOM     66  C   UNL A   1      45.550  26.454  30.506  1.00  0.00     0.029 A 
ATOM     67  C   UNL A   1      44.660  25.760  31.305  1.00  0.00     0.049 A 
ATOM     68  H   UNL A   1      43.115  24.439  30.758  1.00  0.00     0.167 HD
ATOM     69  C   UNL A   1      43.946  26.832  33.282  1.00  0.00     0.074 A 
ATOM     70  C   UNL A   1      43.811  27.389  34.615  1.00  0.00     0.031 C 
ATOM     71  C   UNL A   1      44.502  25.698  32.752  1.00  0.00     0.037 A 
BRANCH  58  72
ATOM     72  C   UNL A   1      43.884  23.834  26.924  1.00  0.00     0.064 A 
ATOM     73  C   UNL A   1      43.484  22.490  26.780  1.00  0.00     0.173 A 
ATOM     74  C   UNL A   1      44.813  24.296  25.975  1.00  0.00     0.173 A 
ATOM     75  F   UNL A   1      42.557  21.944  27.576  1.00  0.00    -0.203 F 
ATOM     76  C   UNL A   1      44.054  21.644  25.829  1.00  0.00     0.198 A 
ATOM     77  C   UNL A   1      45.418  23.436  25.053  1.00  0.00     0.198 A 
ATOM     78  F   UNL A   1      45.163  25.590  25.934  1.00  0.00    -0.203 F 
ATOM     79  F   UNL A   1      43.655  20.366  25.751  1.00  0.00    -0.200 F 
ATOM     80  C   UNL A   1      45.046  22.107  24.989  1.00  0.00     0.200 A 
ATOM     81  F   UNL A   1      46.382  23.899  24.244  1.00  0.00    -0.200 F 
ATOM     82  F   UNL A   1      45.640  21.277  24.121  1.00  0.00    -0.200 F 
ENDBRANCH  58  72
BRANCH  59  83
ATOM     83  C   UNL A   1      40.745  30.346  33.157  1.00  0.00     0.064 A 
ATOM     84  C   UNL A   1      40.476  31.730  33.185  1.00  0.00     0.173 A 
ATOM     85  C   UNL A   1      39.656  29.473  33.246  1.00  0.00     0.173 A 
ATOM     86  F   UNL A   1      41.485  32.610  33.097  1.00  0.00    -0.203 F 
ATOM     87  C   UNL A   1      39.170  32.214  33.179  1.00  0.00     0.198 A 
ATOM     88  C   UNL A   1      38.348  29.963  33.257  1.00  0.00     0.198 A 
ATOM     89  F   UNL A   1      39.846  28.146  33.207  1.00  0.00    -0.203 F 
ATOM     90  F   UNL A   1      38.946  33.533  33.088  1.00  0.00    -0.200 F 
ATOM     91  C   UNL A   1      38.107  31.329  33.190  1.00  0.00     0.200 A 
ATOM     92  F   UNL A   1      37.317  29.107  33.240  1.00  0.00    -0.200 F 
ATOM     93  F   UNL A   1      36.851  31.786  33.093  1.00  0.00    -0.200 F 
ENDBRANCH  59  83
BRANCH  71  94
ATOM     94  C   UNL A   1      45.053  24.471  33.469  1.00  0.00     0.064 A 
ATOM     95  C   UNL A   1      44.324  23.311  33.777  1.00  0.00     0.173 A 
ATOM     96  C   UNL A   1      46.438  24.394  33.790  1.00  0.00     0.173 A 
ATOM     97  F   UNL A   1      43.038  23.175  33.444  1.00  0.00    -0.203 F 
ATOM     98  C   UNL A   1      44.912  22.198  34.397  1.00  0.00     0.198 A 
ATOM     99  C   UNL A   1      47.031  23.263  34.354  1.00  0.00     0.198 A 
ATOM    100  F   UNL A   1      47.284  25.404  33.543  1.00  0.00    -0.203 F 
ATOM    101  F   UNL A   1      44.152  21.134  34.700  1.00  0.00    -0.200 F 
ATOM    102  C   UNL A   1      46.263  22.168  34.672  1.00  0.00     0.200 A 
ATOM    103  F   UNL A   1      48.355  23.242  34.567  1.00  0.00    -0.200 F 
ATOM    104  F   UNL A   1      46.826  21.083  35.219  1.00  0.00    -0.200 F 
ENDBRANCH  71  94
ENDBRANCH  45  46
ENDBRANCH  37  40
ENDBRANCH  35  36
ENDBRANCH  34  35
ENDBRANCH  33  34
ENDBRANCH   1  33
TORSDOF 15
ENDMDL
MODEL 2
REMARK VINA RESULT:     -12.4      1.219      2.089
REMARK SMILES Cc1ccc(C(=O)NCCCCCCNC(=O)c2ccc(-c3c4nc(c(-c5c(F)c(F)c(F)c(F)c5F)c5ccc([nH]5)c(-c5c(F)c(F)c(F)c(F)c5F)c5nc(c(-c6c(F)c(F)c(F)c(F)c6F)c6ccc3[nH]6)C=C5)C=C4)cc2)cc1N1C(=O)/C(=C\c2nc3ccccc3n2C)SC1=S
REMARK SMILES IDX 11 1 10 2 9 3 8 4 6 5 7 6 5 8 1 9 2 10 3 11 82 12 4 13 81 14
REMARK SMILES IDX 83 15 84 16 99 17 85 18 86 19 98 20 100 21 87 22 88 23 89 24
REMARK SMILES IDX 96 25 90 26 95 27 97 28 91 29 94 30 92 31 93 32 12 33 13 34
REMARK SMILES IDX 14 35 15 36 16 37 17 39 18 40 19 41 80 42 20 43 79 44 21 45
REMARK SMILES IDX 22 46 23 47 73 48 24 49 78 50 72 51 74 52 25 53 77 54 71 55
REMARK SMILES IDX 70 56 26 58 58 59 38 60 57 61 39 62 42 63 56 64 75 65 40 66
REMARK SMILES IDX 41 67 55 69 76 70 43 71 27 72 28 73 36 74 29 75 30 76 34 77
REMARK SMILES IDX 37 78 31 79 32 80 35 81 33 82 59 83 60 84 68 85 61 86 62 87
REMARK SMILES IDX 66 88 69 89 63 90 64 91 67 92 65 93 44 94 45 95 53 96 46 97
REMARK SMILES IDX 47 98 51 99 54 100 48 101 49 102 52 103 50 104
REMARK H PARENT 8 7 15 38 74 57 42 68
REMARK Flexibility Score: inf
ROOT
ATOM      1  C   UNL A   1      41.441  34.412  29.371  1.00  0.00     0.002 C 
ENDROOT
BRANCH   1   2
ATOM      2  C   UNL A   1      42.607  35.292  29.849  1.00  0.00     0.021 C 
BRANCH   2   3
ATOM      3  C   UNL A   1      43.996  34.754  29.486  1.00  0.00     0.116 C 
BRANCH   3   4
ATOM      4  N   UNL A   1      44.114  34.549  28.054  1.00  0.00    -0.352 N 
ATOM      5  C   UNL A   1      43.956  35.378  26.973  1.00  0.00     0.251 C 
ATOM      6  O   UNL A   1      44.211  34.907  25.863  1.00  0.00    -0.269 OA
ATOM      7  H   UNL A   1      44.356  33.626  27.809  1.00  0.00     0.163 HD
BRANCH   5   8
ATOM      8  C   UNL A   1      43.546  36.811  27.064  1.00  0.00     0.041 A 
ATOM      9  C   UNL A   1      42.024  40.872  26.956  1.00  0.00     0.046 C 
ATOM     10  C   UNL A   1      42.611  39.491  27.073  1.00  0.00    -0.027 A 
ATOM     11  C   UNL A   1      41.723  38.412  26.918  1.00  0.00     0.006 A 
ATOM     12  C   UNL A   1      43.978  39.215  27.283  1.00  0.00     0.054 A 
ATOM     13  C   UNL A   1      42.187  37.096  26.889  1.00  0.00     0.014 A 
ATOM     14  C   UNL A   1      44.413  37.873  27.323  1.00  0.00     0.041 A 
BRANCH  12  15
ATOM     15  N   UNL A   1      44.966  40.248  27.276  1.00  0.00    -0.261 N 
ATOM     16  C   UNL A   1      45.226  40.923  26.086  1.00  0.00     0.270 C 
ATOM     17  C   UNL A   1      45.796  40.573  28.333  1.00  0.00     0.152 C 
ATOM     18  O   UNL A   1      45.022  40.514  24.950  1.00  0.00    -0.268 OA
ATOM     19  C   UNL A   1      46.002  42.165  26.375  1.00  0.00     0.084 C 
ATOM     20  S   UNL A   1      46.768  41.996  27.908  1.00  0.00    -0.054 SA
ATOM     21  S   UNL A   1      46.029  39.769  29.780  1.00  0.00    -0.051 S 
ATOM     22  C   UNL A   1      46.066  43.269  25.612  1.00  0.00     0.068 C 
BRANCH  22  23
ATOM     23  C   UNL A   1      45.198  43.421  24.500  1.00  0.00     0.134 A 
ATOM     24  N   UNL A   1      43.925  43.762  24.524  1.00  0.00    -0.229 NA
ATOM     25  N   UNL A   1      45.609  43.196  23.201  1.00  0.00    -0.328 N 
ATOM     26  C   UNL A   1      43.452  43.529  23.262  1.00  0.00     0.089 A 
ATOM     27  C   UNL A   1      44.481  43.143  22.408  1.00  0.00     0.068 A 
ATOM     28  C   UNL A   1      46.964  43.012  22.741  1.00  0.00     0.152 C 
ATOM     29  C   UNL A   1      42.136  43.602  22.784  1.00  0.00     0.030 A 
ATOM     30  C   UNL A   1      44.251  42.799  21.069  1.00  0.00     0.028 A 
ATOM     31  C   UNL A   1      41.884  43.249  21.455  1.00  0.00     0.002 A 
ATOM     32  C   UNL A   1      42.926  42.849  20.616  1.00  0.00     0.002 A 
ENDBRANCH  22  23
ENDBRANCH  12  15
ENDBRANCH   5   8
ENDBRANCH   3   4
ENDBRANCH   2   3
ENDBRANCH   1   2
BRANCH   1  33
ATOM     33  C   UNL A   1      40.149  34.472  30.209  1.00  0.00     0.002 C 
BRANCH  33  34
ATOM     34  C   UNL A   1      38.864  34.045  29.492  1.00  0.00     0.021 C 
BRANCH  34  35
ATOM     35  C   UNL A   1      38.268  32.745  30.019  1.00  0.00     0.116 C 
BRANCH  35  36
ATOM     36  N   UNL A   1      36.848  32.582  29.723  1.00  0.00    -0.352 N 
ATOM     37  C   UNL A   1      36.196  31.520  29.120  1.00  0.00     0.251 C 
ATOM     38  H   UNL A   1      36.271  33.333  29.991  1.00  0.00     0.163 HD
ATOM     39  O   UNL A   1      34.993  31.554  28.921  1.00  0.00    -0.269 OA
BRANCH  37  40
ATOM     40  C   UNL A   1      36.964  30.288  28.824  1.00  0.00     0.039 A 
ATOM     41  C   UNL A   1      37.179  29.379  29.866  1.00  0.00     0.014 A 
ATOM     42  C   UNL A   1      37.627  30.140  27.607  1.00  0.00     0.014 A 
ATOM     43  C   UNL A   1      38.232  28.472  29.768  1.00  0.00     0.010 A 
ATOM     44  C   UNL A   1      38.725  29.306  27.544  1.00  0.00     0.010 A 
ATOM     45  C   UNL A   1      39.067  28.524  28.651  1.00  0.00    -0.014 A 
BRANCH  45  46
ATOM     46  C   UNL A   1      40.386  27.904  28.624  1.00  0.00     0.031 A 
ATOM     47  C   UNL A   1      40.551  26.466  28.355  1.00  0.00     0.074 A 
ATOM     48  C   UNL A   1      41.489  28.665  28.809  1.00  0.00     0.049 A 
ATOM     49  N   UNL A   1      41.518  25.761  28.843  1.00  0.00    -0.248 NA
ATOM     50  C   UNL A   1      39.628  25.696  27.528  1.00  0.00     0.031 C 
ATOM     51  C   UNL A   1      42.878  28.269  28.589  1.00  0.00     0.029 A 
ATOM     52  N   UNL A   1      41.577  29.912  29.447  1.00  0.00    -0.354 N 
ATOM     53  C   UNL A   1      41.517  24.560  28.184  1.00  0.00     0.074 A 
ATOM     54  C   UNL A   1      40.277  24.530  27.437  1.00  0.00     0.031 C 
ATOM     55  C   UNL A   1      43.673  29.056  29.330  1.00  0.00     0.029 A 
ATOM     56  C   UNL A   1      42.808  29.894  30.141  1.00  0.00     0.049 A 
ATOM     57  H   UNL A   1      40.920  30.645  29.416  1.00  0.00     0.167 HD
ATOM     58  C   UNL A   1      42.625  23.769  28.202  1.00  0.00     0.037 A 
ATOM     59  C   UNL A   1      42.878  30.016  31.495  1.00  0.00     0.037 A 
ATOM     60  C   UNL A   1      43.718  24.358  28.963  1.00  0.00     0.049 A 
ATOM     61  C   UNL A   1      43.604  28.888  32.186  1.00  0.00     0.074 A 
ATOM     62  C   UNL A   1      44.853  25.058  28.588  1.00  0.00     0.029 A 
ATOM     63  N   UNL A   1      43.583  24.544  30.335  1.00  0.00    -0.354 N 
ATOM     64  N   UNL A   1      43.803  27.715  31.656  1.00  0.00    -0.248 NA
ATOM     65  C   UNL A   1      44.132  28.985  33.541  1.00  0.00     0.031 C 
ATOM     66  C   UNL A   1      45.417  25.650  29.743  1.00  0.00     0.029 A 
ATOM     67  C   UNL A   1      44.623  25.312  30.823  1.00  0.00     0.049 A 
ATOM     68  H   UNL A   1      42.849  24.180  30.882  1.00  0.00     0.167 HD
ATOM     69  C   UNL A   1      44.452  26.902  32.558  1.00  0.00     0.074 A 
ATOM     70  C   UNL A   1      44.653  27.758  33.713  1.00  0.00     0.031 C 
ATOM     71  C   UNL A   1      44.748  25.602  32.246  1.00  0.00     0.037 A 
BRANCH  58  72
ATOM     72  C   UNL A   1      42.765  22.614  27.250  1.00  0.00     0.064 A 
ATOM     73  C   UNL A   1      42.052  21.412  27.430  1.00  0.00     0.173 A 
ATOM     74  C   UNL A   1      43.660  22.632  26.166  1.00  0.00     0.173 A 
ATOM     75  F   UNL A   1      41.121  21.283  28.382  1.00  0.00    -0.203 F 
ATOM     76  C   UNL A   1      42.298  20.279  26.653  1.00  0.00     0.198 A 
ATOM     77  C   UNL A   1      43.941  21.483  25.419  1.00  0.00     0.198 A 
ATOM     78  F   UNL A   1      44.294  23.763  25.820  1.00  0.00    -0.203 F 
ATOM     79  F   UNL A   1      41.608  19.152  26.883  1.00  0.00    -0.200 F 
ATOM     80  C   UNL A   1      43.268  20.304  25.672  1.00  0.00     0.200 A 
ATOM     81  F   UNL A   1      44.887  21.522  24.469  1.00  0.00    -0.200 F 
ATOM     82  F   UNL A   1      43.550  19.197  24.972  1.00  0.00    -0.200 F 
ENDBRANCH  58  72
BRANCH  59  83
ATOM     83  C   UNL A   1      41.750  30.786  32.078  1.00  0.00     0.064 A 
ATOM     84  C   UNL A   1      40.650  30.074  32.598  1.00  0.00     0.173 A 
ATOM     85  C   UNL A   1      41.897  32.122  32.461  1.00  0.00     0.173 A 
ATOM     86  F   UNL A   1      40.467  28.786  32.265  1.00  0.00    -0.203 F 
ATOM     87  C   UNL A   1      39.808  30.639  33.552  1.00  0.00     0.198 A 
ATOM     88  C   UNL A   1      41.040  32.691  33.407  1.00  0.00     0.198 A 
ATOM     89  F   UNL A   1      42.933  32.847  32.015  1.00  0.00    -0.203 F 
ATOM     90  F   UNL A   1      38.841  29.898  34.114  1.00  0.00    -0.200 F 
ATOM     91  C   UNL A   1      40.019  31.940  33.974  1.00  0.00     0.200 A 
ATOM     92  F   UNL A   1      41.260  33.941  33.837  1.00  0.00    -0.200 F 
ATOM     93  F   UNL A   1      39.269  32.458  34.957  1.00  0.00    -0.200 F 
ENDBRANCH  59  83
BRANCH  71  94
ATOM     94  C   UNL A   1      45.273  24.491  33.149  1.00  0.00     0.064 A 
ATOM     95  C   UNL A   1      44.576  23.322  33.493  1.00  0.00     0.173 A 
ATOM     96  C   UNL A   1      46.611  24.539  33.634  1.00  0.00     0.173 A 
ATOM     97  F   UNL A   1      43.349  23.068  33.030  1.00  0.00    -0.203 F 
ATOM     98  C   UNL A   1      45.143  22.317  34.291  1.00  0.00     0.198 A 
ATOM     99  C   UNL A   1      47.191  23.511  34.380  1.00  0.00     0.198 A 
ATOM    100  F   UNL A   1      47.425  25.573  33.380  1.00  0.00    -0.203 F 
ATOM    101  F   UNL A   1      44.411  21.241  34.616  1.00  0.00    -0.200 F 
ATOM    102  C   UNL A   1      46.450  22.405  34.722  1.00  0.00     0.200 A 
ATOM    103  F   UNL A   1      48.478  23.600  34.745  1.00  0.00    -0.200 F 
ATOM    104  F   UNL A   1      47.000  21.419  35.443  1.00  0.00    -0.200 F 
ENDBRANCH  71  94
ENDBRANCH  45  46
ENDBRANCH  37  40
ENDBRANCH  35  36
ENDBRANCH  34  35
ENDBRANCH  33  34
ENDBRANCH   1  33
TORSDOF 15
ENDMDL
MODEL 3
REMARK VINA RESULT:     -12.4      7.209     10.777
REMARK SMILES Cc1ccc(C(=O)NCCCCCCNC(=O)c2ccc(-c3c4nc(c(-c5c(F)c(F)c(F)c(F)c5F)c5ccc([nH]5)c(-c5c(F)c(F)c(F)c(F)c5F)c5nc(c(-c6c(F)c(F)c(F)c(F)c6F)c6ccc3[nH]6)C=C5)C=C4)cc2)cc1N1C(=O)/C(=C\c2nc3ccccc3n2C)SC1=S
REMARK SMILES IDX 11 1 10 2 9 3 8 4 6 5 7 6 5 8 1 9 2 10 3 11 82 12 4 13 81 14
REMARK SMILES IDX 83 15 84 16 99 17 85 18 86 19 98 20 100 21 87 22 88 23 89 24
REMARK SMILES IDX 96 25 90 26 95 27 97 28 91 29 94 30 92 31 93 32 12 33 13 34
REMARK SMILES IDX 14 35 15 36 16 37 17 39 18 40 19 41 80 42 20 43 79 44 21 45
REMARK SMILES IDX 22 46 23 47 73 48 24 49 78 50 72 51 74 52 25 53 77 54 71 55
REMARK SMILES IDX 70 56 26 58 58 59 38 60 57 61 39 62 42 63 56 64 75 65 40 66
REMARK SMILES IDX 41 67 55 69 76 70 43 71 27 72 28 73 36 74 29 75 30 76 34 77
REMARK SMILES IDX 37 78 31 79 32 80 35 81 33 82 59 83 60 84 68 85 61 86 62 87
REMARK SMILES IDX 66 88 69 89 63 90 64 91 67 92 65 93 44 94 45 95 53 96 46 97
REMARK SMILES IDX 47 98 51 99 54 100 48 101 49 102 52 103 50 104
REMARK H PARENT 8 7 15 38 74 57 42 68
REMARK Flexibility Score: inf
ROOT
ATOM      1  C   UNL A   1      35.707  32.073  28.106  1.00  0.00     0.002 C 
ENDROOT
BRANCH   1   2
ATOM      2  C   UNL A   1      35.082  30.695  27.836  1.00  0.00     0.021 C 
BRANCH   2   3
ATOM      3  C   UNL A   1      33.724  30.743  27.126  1.00  0.00     0.116 C 
BRANCH   3   4
ATOM      4  N   UNL A   1      32.814  29.757  27.680  1.00  0.00    -0.352 N 
ATOM      5  C   UNL A   1      32.352  28.550  27.222  1.00  0.00     0.251 C 
ATOM      6  O   UNL A   1      31.632  27.900  27.984  1.00  0.00    -0.269 OA
ATOM      7  H   UNL A   1      32.456  30.007  28.562  1.00  0.00     0.163 HD
BRANCH   5   8
ATOM      8  C   UNL A   1      32.704  27.961  25.896  1.00  0.00     0.041 A 
ATOM      9  C   UNL A   1      33.402  26.589  21.840  1.00  0.00     0.046 C 
ATOM     10  C   UNL A   1      33.231  26.998  23.278  1.00  0.00    -0.027 A 
ATOM     11  C   UNL A   1      33.080  28.373  23.530  1.00  0.00     0.006 A 
ATOM     12  C   UNL A   1      33.172  26.102  24.367  1.00  0.00     0.054 A 
ATOM     13  C   UNL A   1      32.797  28.844  24.813  1.00  0.00     0.014 A 
ATOM     14  C   UNL A   1      32.957  26.609  25.666  1.00  0.00     0.041 A 
BRANCH  12  15
ATOM     15  N   UNL A   1      33.142  24.686  24.176  1.00  0.00    -0.261 N 
ATOM     16  C   UNL A   1      34.340  23.978  24.191  1.00  0.00     0.270 C 
ATOM     17  C   UNL A   1      32.021  23.944  23.851  1.00  0.00     0.152 C 
ATOM     18  O   UNL A   1      35.458  24.420  23.956  1.00  0.00    -0.268 OA
ATOM     19  C   UNL A   1      34.058  22.520  24.334  1.00  0.00     0.084 C 
ATOM     20  S   UNL A   1      32.436  22.218  23.841  1.00  0.00    -0.054 SA
ATOM     21  S   UNL A   1      30.498  24.469  23.402  1.00  0.00    -0.051 S 
ATOM     22  C   UNL A   1      34.890  21.583  24.817  1.00  0.00     0.068 C 
BRANCH  22  23
ATOM     23  C   UNL A   1      36.107  21.960  25.442  1.00  0.00     0.134 A 
ATOM     24  N   UNL A   1      36.347  23.069  26.114  1.00  0.00    -0.229 NA
ATOM     25  N   UNL A   1      37.241  21.175  25.395  1.00  0.00    -0.328 N 
ATOM     26  C   UNL A   1      37.701  23.108  26.299  1.00  0.00     0.089 A 
ATOM     27  C   UNL A   1      38.301  21.943  25.833  1.00  0.00     0.068 A 
ATOM     28  C   UNL A   1      37.330  19.809  24.942  1.00  0.00     0.152 C 
ATOM     29  C   UNL A   1      38.490  24.133  26.841  1.00  0.00     0.030 A 
ATOM     30  C   UNL A   1      39.689  21.754  25.863  1.00  0.00     0.028 A 
ATOM     31  C   UNL A   1      39.878  23.970  26.866  1.00  0.00     0.002 A 
ATOM     32  C   UNL A   1      40.465  22.800  26.379  1.00  0.00     0.002 A 
ENDBRANCH  22  23
ENDBRANCH  12  15
ENDBRANCH   5   8
ENDBRANCH   3   4
ENDBRANCH   2   3
ENDBRANCH   1   2
BRANCH   1  33
ATOM     33  C   UNL A   1      34.733  33.206  28.477  1.00  0.00     0.002 C 
BRANCH  33  34
ATOM     34  C   UNL A   1      34.786  33.690  29.930  1.00  0.00     0.021 C 
BRANCH  34  35
ATOM     35  C   UNL A   1      34.638  32.572  30.956  1.00  0.00     0.116 C 
BRANCH  35  36
ATOM     36  N   UNL A   1      35.208  32.888  32.263  1.00  0.00    -0.352 N 
ATOM     37  C   UNL A   1      36.372  32.418  32.847  1.00  0.00     0.251 C 
ATOM     38  H   UNL A   1      34.692  33.528  32.806  1.00  0.00     0.163 HD
ATOM     39  O   UNL A   1      36.694  32.767  33.970  1.00  0.00    -0.269 OA
BRANCH  37  40
ATOM     40  C   UNL A   1      37.282  31.572  32.040  1.00  0.00     0.039 A 
ATOM     41  C   UNL A   1      37.414  30.224  32.392  1.00  0.00     0.014 A 
ATOM     42  C   UNL A   1      38.133  32.145  31.098  1.00  0.00     0.014 A 
ATOM     43  C   UNL A   1      38.545  29.523  31.979  1.00  0.00     0.010 A 
ATOM     44  C   UNL A   1      39.298  31.483  30.763  1.00  0.00     0.010 A 
ATOM     45  C   UNL A   1      39.534  30.199  31.261  1.00  0.00    -0.014 A 
BRANCH  45  46
ATOM     46  C   UNL A   1      40.891  29.687  31.117  1.00  0.00     0.031 A 
ATOM     47  C   UNL A   1      41.185  28.528  30.257  1.00  0.00     0.074 A 
ATOM     48  C   UNL A   1      41.913  30.306  31.751  1.00  0.00     0.049 A 
ATOM     49  N   UNL A   1      42.150  27.701  30.490  1.00  0.00    -0.248 NA
ATOM     50  C   UNL A   1      40.404  28.195  29.070  1.00  0.00     0.031 C 
ATOM     51  C   UNL A   1      43.342  30.083  31.543  1.00  0.00     0.029 A 
ATOM     52  N   UNL A   1      41.849  31.133  32.883  1.00  0.00    -0.354 N 
ATOM     53  C   UNL A   1      42.299  26.927  29.369  1.00  0.00     0.074 A 
ATOM     54  C   UNL A   1      41.142  27.210  28.547  1.00  0.00     0.031 C 
ATOM     55  C   UNL A   1      44.002  30.468  32.646  1.00  0.00     0.029 A 
ATOM     56  C   UNL A   1      43.006  30.830  33.636  1.00  0.00     0.049 A 
ATOM     57  H   UNL A   1      41.146  31.786  33.106  1.00  0.00     0.167 HD
ATOM     58  C   UNL A   1      43.455  26.238  29.163  1.00  0.00     0.037 A 
ATOM     59  C   UNL A   1      42.936  30.330  34.901  1.00  0.00     0.037 A 
ATOM     60  C   UNL A   1      44.424  26.443  30.230  1.00  0.00     0.049 A 
ATOM     61  C   UNL A   1      43.674  29.027  35.096  1.00  0.00     0.074 A 
ATOM     62  C   UNL A   1      45.536  27.261  30.344  1.00  0.00     0.029 A 
ATOM     63  N   UNL A   1      44.146  25.987  31.515  1.00  0.00    -0.354 N 
ATOM     64  N   UNL A   1      44.007  28.224  34.127  1.00  0.00    -0.248 NA
ATOM     65  C   UNL A   1      44.061  28.514  36.405  1.00  0.00     0.031 C 
ATOM     66  C   UNL A   1      45.942  27.281  31.700  1.00  0.00     0.029 A 
ATOM     67  C   UNL A   1      45.075  26.474  32.413  1.00  0.00     0.049 A 
ATOM     68  H   UNL A   1      43.391  25.399  31.751  1.00  0.00     0.167 HD
ATOM     69  C   UNL A   1      44.624  27.107  34.641  1.00  0.00     0.074 A 
ATOM     70  C   UNL A   1      44.651  27.353  36.071  1.00  0.00     0.031 C 
ATOM     71  C   UNL A   1      45.042  26.093  33.820  1.00  0.00     0.037 A 
BRANCH  58  72
ATOM     72  C   UNL A   1      43.769  25.639  27.820  1.00  0.00     0.064 A 
ATOM     73  C   UNL A   1      43.583  24.268  27.555  1.00  0.00     0.173 A 
ATOM     74  C   UNL A   1      44.328  26.390  26.770  1.00  0.00     0.173 A 
ATOM     75  F   UNL A   1      42.999  23.454  28.442  1.00  0.00    -0.203 F 
ATOM     76  C   UNL A   1      44.025  23.673  26.373  1.00  0.00     0.198 A 
ATOM     77  C   UNL A   1      44.814  25.785  25.607  1.00  0.00     0.198 A 
ATOM     78  F   UNL A   1      44.429  27.724  26.861  1.00  0.00    -0.203 F 
ATOM     79  F   UNL A   1      43.845  22.358  26.182  1.00  0.00    -0.200 F 
ATOM     80  C   UNL A   1      44.673  24.425  25.415  1.00  0.00     0.200 A 
ATOM     81  F   UNL A   1      45.444  26.528  24.685  1.00  0.00    -0.200 F 
ATOM     82  F   UNL A   1      45.157  23.841  24.310  1.00  0.00    -0.200 F 
ENDBRANCH  58  72
BRANCH  59  83
ATOM     83  C   UNL A   1      41.705  30.729  35.627  1.00  0.00     0.064 A 
ATOM     84  C   UNL A   1      41.706  31.952  36.329  1.00  0.00     0.173 A 
ATOM     85  C   UNL A   1      40.466  30.147  35.342  1.00  0.00     0.173 A 
ATOM     86  F   UNL A   1      42.869  32.554  36.623  1.00  0.00    -0.203 F 
ATOM     87  C   UNL A   1      40.520  32.619  36.622  1.00  0.00     0.198 A 
ATOM     88  C   UNL A   1      39.277  30.812  35.652  1.00  0.00     0.198 A 
ATOM     89  F   UNL A   1      40.398  28.994  34.661  1.00  0.00    -0.203 F 
ATOM     90  F   UNL A   1      40.558  33.835  37.186  1.00  0.00    -0.200 F 
ATOM     91  C   UNL A   1      39.307  32.060  36.261  1.00  0.00     0.200 A 
ATOM     92  F   UNL A   1      38.103  30.285  35.278  1.00  0.00    -0.200 F 
ATOM     93  F   UNL A   1      38.168  32.739  36.459  1.00  0.00    -0.200 F 
ENDBRANCH  59  83
BRANCH  71  94
ATOM     94  C   UNL A   1      45.557  24.707  34.187  1.00  0.00     0.064 A 
ATOM     95  C   UNL A   1      44.798  23.526  34.181  1.00  0.00     0.173 A 
ATOM     96  C   UNL A   1      46.939  24.512  34.473  1.00  0.00     0.173 A 
ATOM     97  F   UNL A   1      43.510  23.516  33.827  1.00  0.00    -0.203 F 
ATOM     98  C   UNL A   1      45.354  22.274  34.484  1.00  0.00     0.198 A 
ATOM     99  C   UNL A   1      47.500  23.258  34.718  1.00  0.00     0.198 A 
ATOM    100  F   UNL A   1      47.812  25.529  34.498  1.00  0.00    -0.203 F 
ATOM    101  F   UNL A   1      44.565  21.189  34.498  1.00  0.00    -0.200 F 
ATOM    102  C   UNL A   1      46.702  22.138  34.739  1.00  0.00     0.200 A 
ATOM    103  F   UNL A   1      48.821  23.147  34.915  1.00  0.00    -0.200 F 
ATOM    104  F   UNL A   1      47.234  20.933  34.980  1.00  0.00    -0.200 F 
ENDBRANCH  71  94
ENDBRANCH  45  46
ENDBRANCH  37  40
ENDBRANCH  35  36
ENDBRANCH  34  35
ENDBRANCH  33  34
ENDBRANCH   1  33
TORSDOF 15
ENDMDL
