MODEL 1
REMARK VINA RESULT:     -11.7      0.000      0.000
REMARK SMILES CC[C@@H](NC(=O)N1CCO[C@H](CC(=O)NCCCCCCNC(=O)c2ccc(-c3c4nc(c(-c5c(F)c(F)c(F)c(F)c5F)c5ccc([nH]5)c(-c5c(F)c(F)c(F)c(F)c5F)c5nc(c(-c6c(F)c(F)c(F)c(F)c6F)c6ccc3[nH]6)C=C5)C=C4)cc2)C1)c1cccs1
REMARK SMILES IDX 17 1 16 2 15 3 13 4 14 5 12 7 11 8 7 9 8 10 88 11 9 12 10 13
REMARK SMILES IDX 5 14 4 15 6 17 3 18 2 19 1 20 89 21 90 22 93 23 91 24 92 25
REMARK SMILES IDX 18 26 19 27 20 28 21 29 22 30 23 31 24 33 25 34 26 35 87 36
REMARK SMILES IDX 27 37 86 38 28 39 29 40 30 41 80 42 31 43 85 44 79 45 81 46
REMARK SMILES IDX 32 47 84 48 78 49 77 50 33 52 65 53 45 54 64 55 46 56 49 57
REMARK SMILES IDX 63 58 82 59 47 60 48 61 62 63 83 64 50 65 34 66 35 67 43 68
REMARK SMILES IDX 36 69 37 70 41 71 44 72 38 73 39 74 42 75 40 76 66 77 67 78
REMARK SMILES IDX 75 79 68 80 69 81 73 82 76 83 70 84 71 85 74 86 72 87 51 88
REMARK SMILES IDX 52 89 60 90 53 91 54 92 58 93 61 94 55 95 56 96 59 97 57 98
REMARK H PARENT 15 6 4 16 22 32 81 51 49 62
REMARK Flexibility Score: inf
ROOT
ATOM      1  C   UNL A   1      32.889  29.399  25.091  1.00  0.00     0.021 C 
ENDROOT
BRANCH   1   2
ATOM      2  C   UNL A   1      33.103  28.993  23.636  1.00  0.00     0.116 C 
BRANCH   2   3
ATOM      3  N   UNL A   1      31.878  29.088  22.874  1.00  0.00    -0.356 N 
ATOM      4  C   UNL A   1      30.846  28.203  22.813  1.00  0.00     0.222 C 
ATOM      5  O   UNL A   1      29.925  28.418  22.024  1.00  0.00    -0.275 OA
ATOM      6  H   UNL A   1      31.777  29.900  22.326  1.00  0.00     0.163 HD
BRANCH   4   7
ATOM      7  C   UNL A   1      30.822  27.000  23.726  1.00  0.00     0.133 C 
BRANCH   7   8
ATOM      8  C   UNL A   1      31.003  25.687  22.957  1.00  0.00     0.147 C 
ATOM      9  N   UNL A   1      33.060  25.024  24.097  1.00  0.00    -0.320 N 
ATOM     10  C   UNL A   1      33.820  25.080  22.859  1.00  0.00     0.150 C 
ATOM     11  C   UNL A   1      31.670  24.639  23.870  1.00  0.00     0.154 C 
ATOM     12  C   UNL A   1      33.160  26.047  21.880  1.00  0.00     0.182 C 
ATOM     13  O   UNL A   1      31.746  25.835  21.722  1.00  0.00    -0.374 OA
BRANCH   9  14
ATOM     14  C   UNL A   1      33.577  25.044  25.356  1.00  0.00     0.318 C 
ATOM     15  N   UNL A   1      33.734  23.880  26.041  1.00  0.00    -0.330 N 
ATOM     16  H   UNL A   1      33.131  23.726  26.804  1.00  0.00     0.166 HD
ATOM     17  O   UNL A   1      33.909  26.088  25.919  1.00  0.00    -0.249 OA
BRANCH  15  18
ATOM     18  C   UNL A   1      34.723  22.821  25.746  1.00  0.00     0.124 C 
BRANCH  18  19
ATOM     19  C   UNL A   1      35.903  23.312  24.874  1.00  0.00     0.027 C 
ATOM     20  C   UNL A   1      37.103  23.733  25.718  1.00  0.00     0.006 C 
ENDBRANCH  18  19
BRANCH  18  21
ATOM     21  C   UNL A   1      34.064  21.511  25.350  1.00  0.00     0.027 A 
ATOM     22  C   UNL A   1      34.694  20.383  24.842  1.00  0.00     0.017 A 
ATOM     23  S   UNL A   1      32.357  21.304  25.276  1.00  0.00    -0.147 S 
ATOM     24  C   UNL A   1      33.794  19.316  24.558  1.00  0.00     0.012 A 
ATOM     25  C   UNL A   1      32.486  19.683  24.763  1.00  0.00     0.065 A 
ENDBRANCH  18  21
ENDBRANCH  15  18
ENDBRANCH   9  14
ENDBRANCH   7   8
ENDBRANCH   4   7
ENDBRANCH   2   3
ENDBRANCH   1   2
BRANCH   1  26
ATOM     26  C   UNL A   1      31.610  30.212  25.298  1.00  0.00     0.002 C 
BRANCH  26  27
ATOM     27  C   UNL A   1      31.465  30.828  26.697  1.00  0.00     0.002 C 
BRANCH  27  28
ATOM     28  C   UNL A   1      31.408  32.358  26.734  1.00  0.00     0.021 C 
BRANCH  28  29
ATOM     29  C   UNL A   1      32.701  33.032  27.181  1.00  0.00     0.116 C 
BRANCH  29  30
ATOM     30  N   UNL A   1      32.471  34.384  27.668  1.00  0.00    -0.352 N 
ATOM     31  C   UNL A   1      33.025  35.042  28.732  1.00  0.00     0.251 C 
ATOM     32  H   UNL A   1      31.815  34.906  27.152  1.00  0.00     0.163 HD
ATOM     33  O   UNL A   1      32.548  36.115  29.108  1.00  0.00    -0.269 OA
BRANCH  31  34
ATOM     34  C   UNL A   1      34.187  34.474  29.444  1.00  0.00     0.039 A 
ATOM     35  C   UNL A   1      33.976  33.809  30.656  1.00  0.00     0.014 A 
ATOM     36  C   UNL A   1      35.483  34.622  28.942  1.00  0.00     0.014 A 
ATOM     37  C   UNL A   1      35.057  33.249  31.337  1.00  0.00     0.010 A 
ATOM     38  C   UNL A   1      36.551  34.003  29.587  1.00  0.00     0.010 A 
ATOM     39  C   UNL A   1      36.350  33.317  30.794  1.00  0.00    -0.014 A 
BRANCH  39  40
ATOM     40  C   UNL A   1      37.503  32.676  31.472  1.00  0.00     0.031 A 
ATOM     41  C   UNL A   1      38.205  31.510  30.836  1.00  0.00     0.074 A 
ATOM     42  C   UNL A   1      37.868  33.094  32.698  1.00  0.00     0.049 A 
ATOM     43  N   UNL A   1      39.182  30.774  31.304  1.00  0.00    -0.248 NA
ATOM     44  C   UNL A   1      37.724  31.096  29.508  1.00  0.00     0.031 C 
ATOM     45  C   UNL A   1      37.224  34.175  33.447  1.00  0.00     0.029 A 
ATOM     46  N   UNL A   1      38.855  32.648  33.540  1.00  0.00    -0.354 N 
ATOM     47  C   UNL A   1      39.414  29.799  30.342  1.00  0.00     0.074 A 
ATOM     48  C   UNL A   1      38.446  30.008  29.287  1.00  0.00     0.031 C 
ATOM     49  C   UNL A   1      37.840  34.315  34.632  1.00  0.00     0.029 A 
ATOM     50  C   UNL A   1      38.899  33.316  34.738  1.00  0.00     0.049 A 
ATOM     51  H   UNL A   1      39.474  31.918  33.306  1.00  0.00     0.167 HD
ATOM     52  C   UNL A   1      40.360  28.830  30.334  1.00  0.00     0.037 A 
ATOM     53  C   UNL A   1      39.697  33.137  35.808  1.00  0.00     0.037 A 
ATOM     54  C   UNL A   1      41.342  28.650  31.371  1.00  0.00     0.049 A 
ATOM     55  C   UNL A   1      40.760  32.076  35.763  1.00  0.00     0.074 A 
ATOM     56  C   UNL A   1      42.401  27.760  31.411  1.00  0.00     0.029 A 
ATOM     57  N   UNL A   1      41.381  29.371  32.555  1.00  0.00    -0.354 N 
ATOM     58  N   UNL A   1      41.028  31.215  34.812  1.00  0.00    -0.248 NA
ATOM     59  C   UNL A   1      41.639  31.968  36.936  1.00  0.00     0.031 C 
ATOM     60  C   UNL A   1      43.051  27.909  32.642  1.00  0.00     0.029 A 
ATOM     61  C   UNL A   1      42.429  28.927  33.347  1.00  0.00     0.049 A 
ATOM     62  H   UNL A   1      40.756  30.093  32.797  1.00  0.00     0.167 HD
ATOM     63  C   UNL A   1      42.115  30.476  35.260  1.00  0.00     0.074 A 
ATOM     64  C   UNL A   1      42.468  31.002  36.563  1.00  0.00     0.031 C 
ATOM     65  C   UNL A   1      42.763  29.456  34.646  1.00  0.00     0.037 A 
BRANCH  52  66
ATOM     66  C   UNL A   1      40.372  27.884  29.167  1.00  0.00     0.064 A 
ATOM     67  C   UNL A   1      41.150  28.129  28.026  1.00  0.00     0.173 A 
ATOM     68  C   UNL A   1      39.609  26.707  29.201  1.00  0.00     0.173 A 
ATOM     69  F   UNL A   1      41.890  29.244  27.939  1.00  0.00    -0.203 F 
ATOM     70  C   UNL A   1      41.134  27.249  26.945  1.00  0.00     0.198 A 
ATOM     71  C   UNL A   1      39.620  25.814  28.132  1.00  0.00     0.198 A 
ATOM     72  F   UNL A   1      38.853  26.420  30.271  1.00  0.00    -0.203 F 
ATOM     73  F   UNL A   1      41.839  27.534  25.842  1.00  0.00    -0.200 F 
ATOM     74  C   UNL A   1      40.374  26.092  27.001  1.00  0.00     0.200 A 
ATOM     75  F   UNL A   1      38.895  24.689  28.193  1.00  0.00    -0.200 F 
ATOM     76  F   UNL A   1      40.360  25.246  25.961  1.00  0.00    -0.200 F 
ENDBRANCH  52  66
BRANCH  53  77
ATOM     77  C   UNL A   1      39.527  34.007  37.000  1.00  0.00     0.064 A 
ATOM     78  C   UNL A   1      38.760  33.586  38.095  1.00  0.00     0.173 A 
ATOM     79  C   UNL A   1      40.152  35.259  37.081  1.00  0.00     0.173 A 
ATOM     80  F   UNL A   1      38.129  32.404  38.056  1.00  0.00    -0.203 F 
ATOM     81  C   UNL A   1      38.618  34.391  39.223  1.00  0.00     0.198 A 
ATOM     82  C   UNL A   1      40.030  36.051  38.219  1.00  0.00     0.198 A 
ATOM     83  F   UNL A   1      40.903  35.702  36.061  1.00  0.00    -0.203 F 
ATOM     84  F   UNL A   1      37.855  33.979  40.246  1.00  0.00    -0.200 F 
ATOM     85  C   UNL A   1      39.259  35.619  39.289  1.00  0.00     0.200 A 
ATOM     86  F   UNL A   1      40.665  37.230  38.284  1.00  0.00    -0.200 F 
ATOM     87  F   UNL A   1      39.133  36.387  40.379  1.00  0.00    -0.200 F 
ENDBRANCH  53  77
BRANCH  65  88
ATOM     88  C   UNL A   1      43.930  28.849  35.368  1.00  0.00     0.064 A 
ATOM     89  C   UNL A   1      45.237  29.318  35.175  1.00  0.00     0.173 A 
ATOM     90  C   UNL A   1      43.732  27.814  36.295  1.00  0.00     0.173 A 
ATOM     91  F   UNL A   1      45.480  30.294  34.288  1.00  0.00    -0.203 F 
ATOM     92  C   UNL A   1      46.307  28.759  35.868  1.00  0.00     0.198 A 
ATOM     93  C   UNL A   1      44.800  27.277  37.007  1.00  0.00     0.198 A 
ATOM     94  F   UNL A   1      42.500  27.334  36.520  1.00  0.00    -0.203 F 
ATOM     95  F   UNL A   1      47.554  29.192  35.636  1.00  0.00    -0.200 F 
ATOM     96  C   UNL A   1      46.087  27.744  36.788  1.00  0.00     0.200 A 
ATOM     97  F   UNL A   1      44.584  26.305  37.905  1.00  0.00    -0.200 F 
ATOM     98  F   UNL A   1      47.118  27.212  37.460  1.00  0.00    -0.200 F 
ENDBRANCH  65  88
ENDBRANCH  39  40
ENDBRANCH  31  34
ENDBRANCH  29  30
ENDBRANCH  28  29
ENDBRANCH  27  28
ENDBRANCH  26  27
ENDBRANCH   1  26
TORSDOF 18
ENDMDL
MODEL 2
REMARK VINA RESULT:     -11.6      1.757      7.763
REMARK SMILES CC[C@@H](NC(=O)N1CCO[C@H](CC(=O)NCCCCCCNC(=O)c2ccc(-c3c4nc(c(-c5c(F)c(F)c(F)c(F)c5F)c5ccc([nH]5)c(-c5c(F)c(F)c(F)c(F)c5F)c5nc(c(-c6c(F)c(F)c(F)c(F)c6F)c6ccc3[nH]6)C=C5)C=C4)cc2)C1)c1cccs1
REMARK SMILES IDX 17 1 16 2 15 3 13 4 14 5 12 7 11 8 7 9 8 10 88 11 9 12 10 13
REMARK SMILES IDX 5 14 4 15 6 17 3 18 2 19 1 20 89 21 90 22 93 23 91 24 92 25
REMARK SMILES IDX 18 26 19 27 20 28 21 29 22 30 23 31 24 33 25 34 26 35 87 36
REMARK SMILES IDX 27 37 86 38 28 39 29 40 30 41 80 42 31 43 85 44 79 45 81 46
REMARK SMILES IDX 32 47 84 48 78 49 77 50 33 52 65 53 45 54 64 55 46 56 49 57
REMARK SMILES IDX 63 58 82 59 47 60 48 61 62 63 83 64 50 65 34 66 35 67 43 68
REMARK SMILES IDX 36 69 37 70 41 71 44 72 38 73 39 74 42 75 40 76 66 77 67 78
REMARK SMILES IDX 75 79 68 80 69 81 73 82 76 83 70 84 71 85 74 86 72 87 51 88
REMARK SMILES IDX 52 89 60 90 53 91 54 92 58 93 61 94 55 95 56 96 59 97 57 98
REMARK H PARENT 15 6 4 16 22 32 81 51 49 62
REMARK Flexibility Score: inf
ROOT
ATOM      1  C   UNL A   1      34.494  31.330  27.836  1.00  0.00     0.021 C 
ENDROOT
BRANCH   1   2
ATOM      2  C   UNL A   1      33.095  31.133  27.261  1.00  0.00     0.116 C 
BRANCH   2   3
ATOM      3  N   UNL A   1      32.530  29.864  27.662  1.00  0.00    -0.356 N 
ATOM      4  C   UNL A   1      31.861  28.955  26.901  1.00  0.00     0.222 C 
ATOM      5  O   UNL A   1      31.367  27.970  27.450  1.00  0.00    -0.275 OA
ATOM      6  H   UNL A   1      32.644  29.626  28.610  1.00  0.00     0.163 HD
BRANCH   4   7
ATOM      7  C   UNL A   1      31.761  29.143  25.406  1.00  0.00     0.133 C 
BRANCH   7   8
ATOM      8  C   UNL A   1      33.133  29.101  24.725  1.00  0.00     0.147 C 
ATOM      9  N   UNL A   1      32.636  27.171  23.308  1.00  0.00    -0.320 N 
ATOM     10  C   UNL A   1      33.669  26.376  23.950  1.00  0.00     0.150 C 
ATOM     11  C   UNL A   1      32.978  28.591  23.278  1.00  0.00     0.154 C 
ATOM     12  C   UNL A   1      33.925  26.886  25.366  1.00  0.00     0.182 C 
ATOM     13  O   UNL A   1      34.113  28.310  25.442  1.00  0.00    -0.374 OA
BRANCH   9  14
ATOM     14  C   UNL A   1      31.598  26.692  22.570  1.00  0.00     0.318 C 
ATOM     15  N   UNL A   1      31.074  25.470  22.855  1.00  0.00    -0.330 N 
ATOM     16  H   UNL A   1      31.245  24.749  22.206  1.00  0.00     0.166 HD
ATOM     17  O   UNL A   1      31.106  27.321  21.633  1.00  0.00    -0.249 OA
BRANCH  15  18
ATOM     18  C   UNL A   1      30.273  25.120  24.047  1.00  0.00     0.124 C 
BRANCH  18  19
ATOM     19  C   UNL A   1      29.514  26.327  24.648  1.00  0.00     0.027 C 
ATOM     20  C   UNL A   1      28.112  26.473  24.062  1.00  0.00     0.006 C 
ENDBRANCH  18  19
BRANCH  18  21
ATOM     21  C   UNL A   1      31.033  24.227  25.011  1.00  0.00     0.027 A 
ATOM     22  C   UNL A   1      31.288  24.477  26.353  1.00  0.00     0.017 A 
ATOM     23  S   UNL A   1      31.900  22.827  24.509  1.00  0.00    -0.147 S 
ATOM     24  C   UNL A   1      32.040  23.446  26.985  1.00  0.00     0.012 A 
ATOM     25  C   UNL A   1      32.428  22.477  26.092  1.00  0.00     0.065 A 
ENDBRANCH  18  21
ENDBRANCH  15  18
ENDBRANCH   9  14
ENDBRANCH   7   8
ENDBRANCH   4   7
ENDBRANCH   2   3
ENDBRANCH   1   2
BRANCH   1  26
ATOM     26  C   UNL A   1      34.511  32.268  29.045  1.00  0.00     0.002 C 
BRANCH  26  27
ATOM     27  C   UNL A   1      34.583  33.761  28.693  1.00  0.00     0.002 C 
BRANCH  27  28
ATOM     28  C   UNL A   1      33.273  34.536  28.864  1.00  0.00     0.021 C 
BRANCH  28  29
ATOM     29  C   UNL A   1      33.433  35.939  29.440  1.00  0.00     0.116 C 
BRANCH  29  30
ATOM     30  N   UNL A   1      32.573  36.157  30.593  1.00  0.00    -0.352 N 
ATOM     31  C   UNL A   1      32.663  35.660  31.865  1.00  0.00     0.251 C 
ATOM     32  H   UNL A   1      31.806  36.753  30.433  1.00  0.00     0.163 HD
ATOM     33  O   UNL A   1      31.720  35.795  32.647  1.00  0.00    -0.269 OA
BRANCH  31  34
ATOM     34  C   UNL A   1      33.880  34.952  32.309  1.00  0.00     0.039 A 
ATOM     35  C   UNL A   1      33.766  33.638  32.773  1.00  0.00     0.014 A 
ATOM     36  C   UNL A   1      35.125  35.588  32.305  1.00  0.00     0.014 A 
ATOM     37  C   UNL A   1      34.905  32.944  33.182  1.00  0.00     0.010 A 
ATOM     38  C   UNL A   1      36.270  34.872  32.647  1.00  0.00     0.010 A 
ATOM     39  C   UNL A   1      36.171  33.546  33.095  1.00  0.00    -0.014 A 
BRANCH  39  40
ATOM     40  C   UNL A   1      37.400  32.805  33.468  1.00  0.00     0.031 A 
ATOM     41  C   UNL A   1      38.113  33.117  34.753  1.00  0.00     0.074 A 
ATOM     42  C   UNL A   1      37.918  31.905  32.612  1.00  0.00     0.049 A 
ATOM     43  N   UNL A   1      39.237  32.631  35.218  1.00  0.00    -0.248 NA
ATOM     44  C   UNL A   1      37.498  34.136  35.618  1.00  0.00     0.031 C 
ATOM     45  C   UNL A   1      37.353  31.560  31.307  1.00  0.00     0.029 A 
ATOM     46  N   UNL A   1      39.048  31.131  32.701  1.00  0.00    -0.354 N 
ATOM     47  C   UNL A   1      39.473  33.301  36.411  1.00  0.00     0.074 A 
ATOM     48  C   UNL A   1      38.402  34.259  36.577  1.00  0.00     0.031 C 
ATOM     49  C   UNL A   1      38.131  30.636  30.722  1.00  0.00     0.029 A 
ATOM     50  C   UNL A   1      39.265  30.347  31.596  1.00  0.00     0.049 A 
ATOM     51  H   UNL A   1      39.645  31.137  33.484  1.00  0.00     0.167 HD
ATOM     52  C   UNL A   1      40.482  33.118  37.296  1.00  0.00     0.037 A 
ATOM     53  C   UNL A   1      40.270  29.497  31.313  1.00  0.00     0.037 A 
ATOM     54  C   UNL A   1      41.525  32.137  37.142  1.00  0.00     0.049 A 
ATOM     55  C   UNL A   1      41.362  29.287  32.324  1.00  0.00     0.074 A 
ATOM     56  C   UNL A   1      42.538  31.808  38.026  1.00  0.00     0.029 A 
ATOM     57  N   UNL A   1      41.692  31.332  36.025  1.00  0.00    -0.354 N 
ATOM     58  N   UNL A   1      41.530  29.862  33.489  1.00  0.00    -0.248 NA
ATOM     59  C   UNL A   1      42.400  28.304  31.984  1.00  0.00     0.031 C 
ATOM     60  C   UNL A   1      43.347  30.838  37.423  1.00  0.00     0.029 A 
ATOM     61  C   UNL A   1      42.809  30.526  36.185  1.00  0.00     0.049 A 
ATOM     62  H   UNL A   1      41.104  31.332  35.236  1.00  0.00     0.167 HD
ATOM     63  C   UNL A   1      42.677  29.299  34.032  1.00  0.00     0.074 A 
ATOM     64  C   UNL A   1      43.156  28.324  33.074  1.00  0.00     0.031 C 
ATOM     65  C   UNL A   1      43.277  29.565  35.218  1.00  0.00     0.037 A 
BRANCH  52  66
ATOM     66  C   UNL A   1      40.509  34.004  38.508  1.00  0.00     0.064 A 
ATOM     67  C   UNL A   1      39.852  33.651  39.697  1.00  0.00     0.173 A 
ATOM     68  C   UNL A   1      41.219  35.214  38.486  1.00  0.00     0.173 A 
ATOM     69  F   UNL A   1      39.151  32.510  39.768  1.00  0.00    -0.203 F 
ATOM     70  C   UNL A   1      39.872  34.495  40.805  1.00  0.00     0.198 A 
ATOM     71  C   UNL A   1      41.263  36.040  39.607  1.00  0.00     0.198 A 
ATOM     72  F   UNL A   1      41.871  35.597  37.379  1.00  0.00    -0.203 F 
ATOM     73  F   UNL A   1      39.188  34.164  41.909  1.00  0.00    -0.200 F 
ATOM     74  C   UNL A   1      40.581  35.685  40.761  1.00  0.00     0.200 A 
ATOM     75  F   UNL A   1      41.960  37.184  39.567  1.00  0.00    -0.200 F 
ATOM     76  F   UNL A   1      40.600  36.496  41.828  1.00  0.00    -0.200 F 
ENDBRANCH  52  66
BRANCH  53  77
ATOM     77  C   UNL A   1      40.267  28.767  30.019  1.00  0.00     0.064 A 
ATOM     78  C   UNL A   1      39.633  27.523  29.896  1.00  0.00     0.173 A 
ATOM     79  C   UNL A   1      40.869  29.311  28.876  1.00  0.00     0.173 A 
ATOM     80  F   UNL A   1      39.059  26.956  30.967  1.00  0.00    -0.203 F 
ATOM     81  C   UNL A   1      39.609  26.847  28.678  1.00  0.00     0.198 A 
ATOM     82  C   UNL A   1      40.823  28.645  27.654  1.00  0.00     0.198 A 
ATOM     83  F   UNL A   1      41.482  30.503  28.941  1.00  0.00    -0.203 F 
ATOM     84  F   UNL A   1      39.021  25.645  28.594  1.00  0.00    -0.200 F 
ATOM     85  C   UNL A   1      40.196  27.412  27.556  1.00  0.00     0.200 A 
ATOM     86  F   UNL A   1      41.377  29.203  26.568  1.00  0.00    -0.200 F 
ATOM     87  F   UNL A   1      40.162  26.767  26.382  1.00  0.00    -0.200 F 
ENDBRANCH  53  77
BRANCH  65  88
ATOM     88  C   UNL A   1      44.512  28.780  35.555  1.00  0.00     0.064 A 
ATOM     89  C   UNL A   1      44.441  27.559  36.239  1.00  0.00     0.173 A 
ATOM     90  C   UNL A   1      45.776  29.236  35.151  1.00  0.00     0.173 A 
ATOM     91  F   UNL A   1      43.258  27.088  36.660  1.00  0.00    -0.203 F 
ATOM     92  C   UNL A   1      45.594  26.832  36.525  1.00  0.00     0.198 A 
ATOM     93  C   UNL A   1      46.923  28.493  35.413  1.00  0.00     0.198 A 
ATOM     94  F   UNL A   1      45.897  30.397  34.488  1.00  0.00    -0.203 F 
ATOM     95  F   UNL A   1      45.507  25.688  37.219  1.00  0.00    -0.200 F 
ATOM     96  C   UNL A   1      46.832  27.295  36.107  1.00  0.00     0.200 A 
ATOM     97  F   UNL A   1      48.117  28.937  34.997  1.00  0.00    -0.200 F 
ATOM     98  F   UNL A   1      47.939  26.590  36.377  1.00  0.00    -0.200 F 
ENDBRANCH  65  88
ENDBRANCH  39  40
ENDBRANCH  31  34
ENDBRANCH  29  30
ENDBRANCH  28  29
ENDBRANCH  27  28
ENDBRANCH  26  27
ENDBRANCH   1  26
TORSDOF 18
ENDMDL
MODEL 3
REMARK VINA RESULT:     -11.3      6.221     10.810
REMARK SMILES CC[C@@H](NC(=O)N1CCO[C@H](CC(=O)NCCCCCCNC(=O)c2ccc(-c3c4nc(c(-c5c(F)c(F)c(F)c(F)c5F)c5ccc([nH]5)c(-c5c(F)c(F)c(F)c(F)c5F)c5nc(c(-c6c(F)c(F)c(F)c(F)c6F)c6ccc3[nH]6)C=C5)C=C4)cc2)C1)c1cccs1
REMARK SMILES IDX 17 1 16 2 15 3 13 4 14 5 12 7 11 8 7 9 8 10 88 11 9 12 10 13
REMARK SMILES IDX 5 14 4 15 6 17 3 18 2 19 1 20 89 21 90 22 93 23 91 24 92 25
REMARK SMILES IDX 18 26 19 27 20 28 21 29 22 30 23 31 24 33 25 34 26 35 87 36
REMARK SMILES IDX 27 37 86 38 28 39 29 40 30 41 80 42 31 43 85 44 79 45 81 46
REMARK SMILES IDX 32 47 84 48 78 49 77 50 33 52 65 53 45 54 64 55 46 56 49 57
REMARK SMILES IDX 63 58 82 59 47 60 48 61 62 63 83 64 50 65 34 66 35 67 43 68
REMARK SMILES IDX 36 69 37 70 41 71 44 72 38 73 39 74 42 75 40 76 66 77 67 78
REMARK SMILES IDX 75 79 68 80 69 81 73 82 76 83 70 84 71 85 74 86 72 87 51 88
REMARK SMILES IDX 52 89 60 90 53 91 54 92 58 93 61 94 55 95 56 96 59 97 57 98
REMARK H PARENT 15 6 4 16 22 32 81 51 49 62
REMARK Flexibility Score: inf
ROOT
ATOM      1  C   UNL A   1      39.840  22.753  26.942  1.00  0.00     0.021 C 
ENDROOT
BRANCH   1   2
ATOM      2  C   UNL A   1      38.766  22.886  25.867  1.00  0.00     0.116 C 
BRANCH   2   3
ATOM      3  N   UNL A   1      37.968  21.684  25.762  1.00  0.00    -0.356 N 
ATOM      4  C   UNL A   1      36.720  21.538  25.239  1.00  0.00     0.222 C 
ATOM      5  O   UNL A   1      36.164  20.443  25.328  1.00  0.00    -0.275 OA
ATOM      6  H   UNL A   1      38.383  20.864  26.114  1.00  0.00     0.163 HD
BRANCH   4   7
ATOM      7  C   UNL A   1      36.052  22.693  24.533  1.00  0.00     0.133 C 
BRANCH   7   8
ATOM      8  C   UNL A   1      35.755  23.858  25.484  1.00  0.00     0.147 C 
ATOM      9  N   UNL A   1      33.594  23.004  26.240  1.00  0.00    -0.320 N 
ATOM     10  C   UNL A   1      32.894  24.151  25.685  1.00  0.00     0.150 C 
ATOM     11  C   UNL A   1      34.940  23.349  26.689  1.00  0.00     0.154 C 
ATOM     12  C   UNL A   1      33.695  24.750  24.532  1.00  0.00     0.182 C 
ATOM     13  O   UNL A   1      35.082  24.971  24.846  1.00  0.00    -0.374 OA
BRANCH   9  14
ATOM     14  C   UNL A   1      33.034  21.811  26.580  1.00  0.00     0.318 C 
ATOM     15  N   UNL A   1      32.250  21.153  25.684  1.00  0.00    -0.330 N 
ATOM     16  H   UNL A   1      31.285  21.119  25.877  1.00  0.00     0.166 HD
ATOM     17  O   UNL A   1      33.200  21.293  27.684  1.00  0.00    -0.249 OA
BRANCH  15  18
ATOM     18  C   UNL A   1      32.710  20.486  24.448  1.00  0.00     0.124 C 
BRANCH  18  19
ATOM     19  C   UNL A   1      32.032  21.033  23.170  1.00  0.00     0.027 C 
ATOM     20  C   UNL A   1      32.847  22.148  22.520  1.00  0.00     0.006 C 
ENDBRANCH  18  19
BRANCH  18  21
ATOM     21  C   UNL A   1      32.788  18.977  24.602  1.00  0.00     0.027 A 
ATOM     22  C   UNL A   1      32.857  18.264  25.791  1.00  0.00     0.017 A 
ATOM     23  S   UNL A   1      33.022  17.909  23.272  1.00  0.00    -0.147 S 
ATOM     24  C   UNL A   1      32.931  16.855  25.599  1.00  0.00     0.012 A 
ATOM     25  C   UNL A   1      33.016  16.525  24.268  1.00  0.00     0.065 A 
ENDBRANCH  18  21
ENDBRANCH  15  18
ENDBRANCH   9  14
ENDBRANCH   7   8
ENDBRANCH   4   7
ENDBRANCH   2   3
ENDBRANCH   1   2
BRANCH   1  26
ATOM     26  C   UNL A   1      41.053  21.950  26.470  1.00  0.00     0.002 C 
BRANCH  26  27
ATOM     27  C   UNL A   1      41.753  21.143  27.574  1.00  0.00     0.002 C 
BRANCH  27  28
ATOM     28  C   UNL A   1      42.268  19.765  27.149  1.00  0.00     0.021 C 
BRANCH  28  29
ATOM     29  C   UNL A   1      42.027  19.419  25.683  1.00  0.00     0.116 C 
BRANCH  29  30
ATOM     30  N   UNL A   1      43.225  18.900  25.041  1.00  0.00    -0.352 N 
ATOM     31  C   UNL A   1      44.349  19.555  24.615  1.00  0.00     0.251 C 
ATOM     32  H   UNL A   1      43.227  17.928  24.887  1.00  0.00     0.163 HD
ATOM     33  O   UNL A   1      45.169  18.970  23.905  1.00  0.00    -0.269 OA
BRANCH  31  34
ATOM     34  C   UNL A   1      44.585  20.962  24.992  1.00  0.00     0.039 A 
ATOM     35  C   UNL A   1      44.126  21.974  24.143  1.00  0.00     0.014 A 
ATOM     36  C   UNL A   1      45.286  21.289  26.156  1.00  0.00     0.014 A 
ATOM     37  C   UNL A   1      44.323  23.312  24.488  1.00  0.00     0.010 A 
ATOM     38  C   UNL A   1      45.420  22.623  26.533  1.00  0.00     0.010 A 
ATOM     39  C   UNL A   1      44.946  23.647  25.700  1.00  0.00    -0.014 A 
BRANCH  39  40
ATOM     40  C   UNL A   1      45.111  25.063  26.112  1.00  0.00     0.031 A 
ATOM     41  C   UNL A   1      46.461  25.719  26.047  1.00  0.00     0.074 A 
ATOM     42  C   UNL A   1      44.060  25.733  26.619  1.00  0.00     0.049 A 
ATOM     43  N   UNL A   1      46.819  26.919  26.430  1.00  0.00    -0.248 NA
ATOM     44  C   UNL A   1      47.564  24.906  25.510  1.00  0.00     0.031 C 
ATOM     45  C   UNL A   1      42.714  25.186  26.791  1.00  0.00     0.029 A 
ATOM     46  N   UNL A   1      43.963  27.014  27.102  1.00  0.00    -0.354 N 
ATOM     47  C   UNL A   1      48.188  26.995  26.203  1.00  0.00     0.074 A 
ATOM     48  C   UNL A   1      48.603  25.706  25.693  1.00  0.00     0.031 C 
ATOM     49  C   UNL A   1      41.923  26.127  27.330  1.00  0.00     0.029 A 
ATOM     50  C   UNL A   1      42.713  27.331  27.570  1.00  0.00     0.049 A 
ATOM     51  H   UNL A   1      44.719  27.646  27.111  1.00  0.00     0.167 HD
ATOM     52  C   UNL A   1      49.016  28.050  26.386  1.00  0.00     0.037 A 
ATOM     53  C   UNL A   1      42.255  28.463  28.139  1.00  0.00     0.037 A 
ATOM     54  C   UNL A   1      48.589  29.341  26.859  1.00  0.00     0.049 A 
ATOM     55  C   UNL A   1      43.185  29.632  28.302  1.00  0.00     0.074 A 
ATOM     56  C   UNL A   1      49.331  30.502  26.989  1.00  0.00     0.029 A 
ATOM     57  N   UNL A   1      47.304  29.639  27.289  1.00  0.00    -0.354 N 
ATOM     58  N   UNL A   1      44.458  29.723  28.003  1.00  0.00    -0.248 NA
ATOM     59  C   UNL A   1      42.614  30.859  28.873  1.00  0.00     0.031 C 
ATOM     60  C   UNL A   1      48.507  31.489  27.543  1.00  0.00     0.029 A 
ATOM     61  C   UNL A   1      47.239  30.958  27.711  1.00  0.00     0.049 A 
ATOM     62  H   UNL A   1      46.550  29.006  27.292  1.00  0.00     0.167 HD
ATOM     63  C   UNL A   1      44.836  31.018  28.330  1.00  0.00     0.074 A 
ATOM     64  C   UNL A   1      43.653  31.683  28.836  1.00  0.00     0.031 C 
ATOM     65  C   UNL A   1      46.054  31.603  28.219  1.00  0.00     0.037 A 
BRANCH  52  66
ATOM     66  C   UNL A   1      50.472  27.849  26.078  1.00  0.00     0.064 A 
ATOM     67  C   UNL A   1      50.974  27.960  24.773  1.00  0.00     0.173 A 
ATOM     68  C   UNL A   1      51.381  27.561  27.107  1.00  0.00     0.173 A 
ATOM     69  F   UNL A   1      50.146  28.224  23.750  1.00  0.00    -0.203 F 
ATOM     70  C   UNL A   1      52.325  27.751  24.503  1.00  0.00     0.198 A 
ATOM     71  C   UNL A   1      52.736  27.384  26.839  1.00  0.00     0.198 A 
ATOM     72  F   UNL A   1      50.957  27.452  28.375  1.00  0.00    -0.203 F 
ATOM     73  F   UNL A   1      52.770  27.803  23.240  1.00  0.00    -0.200 F 
ATOM     74  C   UNL A   1      53.205  27.468  25.537  1.00  0.00     0.200 A 
ATOM     75  F   UNL A   1      53.588  27.124  27.841  1.00  0.00    -0.200 F 
ATOM     76  F   UNL A   1      54.504  27.269  25.276  1.00  0.00    -0.200 F 
ENDBRANCH  52  66
BRANCH  53  77
ATOM     77  C   UNL A   1      40.835  28.542  28.569  1.00  0.00     0.064 A 
ATOM     78  C   UNL A   1      40.450  28.143  29.856  1.00  0.00     0.173 A 
ATOM     79  C   UNL A   1      39.844  29.046  27.715  1.00  0.00     0.173 A 
ATOM     80  F   UNL A   1      41.360  27.639  30.702  1.00  0.00    -0.203 F 
ATOM     81  C   UNL A   1      39.122  28.238  30.269  1.00  0.00     0.198 A 
ATOM     82  C   UNL A   1      38.523  29.164  28.138  1.00  0.00     0.198 A 
ATOM     83  F   UNL A   1      40.165  29.448  26.476  1.00  0.00    -0.203 F 
ATOM     84  F   UNL A   1      38.774  27.823  31.495  1.00  0.00    -0.200 F 
ATOM     85  C   UNL A   1      38.162  28.756  29.414  1.00  0.00     0.200 A 
ATOM     86  F   UNL A   1      37.601  29.680  27.313  1.00  0.00    -0.200 F 
ATOM     87  F   UNL A   1      36.888  28.859  29.816  1.00  0.00    -0.200 F 
ENDBRANCH  53  77
BRANCH  65  88
ATOM     88  C   UNL A   1      46.166  33.040  28.638  1.00  0.00     0.064 A 
ATOM     89  C   UNL A   1      45.968  34.088  27.728  1.00  0.00     0.173 A 
ATOM     90  C   UNL A   1      46.435  33.371  29.975  1.00  0.00     0.173 A 
ATOM     91  F   UNL A   1      45.724  33.823  26.436  1.00  0.00    -0.203 F 
ATOM     92  C   UNL A   1      46.055  35.416  28.137  1.00  0.00     0.198 A 
ATOM     93  C   UNL A   1      46.493  34.700  30.386  1.00  0.00     0.198 A 
ATOM     94  F   UNL A   1      46.627  32.405  30.886  1.00  0.00    -0.203 F 
ATOM     95  F   UNL A   1      45.905  36.401  27.241  1.00  0.00    -0.200 F 
ATOM     96  C   UNL A   1      46.310  35.721  29.466  1.00  0.00     0.200 A 
ATOM     97  F   UNL A   1      46.727  34.992  31.673  1.00  0.00    -0.200 F 
ATOM     98  F   UNL A   1      46.386  37.000  29.858  1.00  0.00    -0.200 F 
ENDBRANCH  65  88
ENDBRANCH  39  40
ENDBRANCH  31  34
ENDBRANCH  29  30
ENDBRANCH  28  29
ENDBRANCH  27  28
ENDBRANCH  26  27
ENDBRANCH   1  26
TORSDOF 18
ENDMDL
