MODEL 1
REMARK VINA RESULT:     -12.0      0.000      0.000
REMARK SMILES C/C(=C/c1cccc(OCC(=O)NCCCCCCNC(=O)c2ccc(-c3c4nc(c(-c5c(F)c(F)c(F)c(F)c5F)c5ccc([nH]5)c(-c5c(F)c(F)c(F)c(F)c5F)c5nc(c(-c6c(F)c(F)c(F)c(F)c6F)c6ccc3[nH]6)C=C5)C=C4)cc2)c1)c1nc2sccc2c(=O)[nH]1
REMARK SMILES IDX 15 1 14 2 13 3 11 4 12 5 10 7 9 8 8 9 4 10 5 11 86 12 6 13
REMARK SMILES IDX 7 14 3 15 1 16 2 17 87 18 88 19 96 20 89 21 94 22 90 24
REMARK SMILES IDX 93 25 95 26 91 27 92 28 16 29 17 30 18 31 19 32 20 33 21 34
REMARK SMILES IDX 22 36 23 37 24 38 85 39 25 40 84 41 26 42 27 43 28 44 78 45
REMARK SMILES IDX 29 46 83 47 77 48 79 49 30 50 82 51 76 52 75 53 31 55 63 56
REMARK SMILES IDX 43 57 62 58 44 59 47 60 61 61 80 62 45 63 46 64 60 66 81 67
REMARK SMILES IDX 48 68 32 69 33 70 41 71 34 72 35 73 39 74 42 75 36 76 37 77
REMARK SMILES IDX 40 78 38 79 64 80 65 81 73 82 66 83 67 84 71 85 74 86 68 87
REMARK SMILES IDX 69 88 72 89 70 90 49 91 50 92 58 93 51 94 52 95 56 96 59 97
REMARK SMILES IDX 53 98 54 99 57 100 55 101
REMARK H PARENT 13 6 96 23 20 35 79 54 47 65
REMARK Flexibility Score: inf
ROOT
ATOM      1  C   UNL A   1      40.812  22.383  27.611  1.00  0.00     0.021 C 
ENDROOT
BRANCH   1   2
ATOM      2  C   UNL A   1      39.574  22.852  26.848  1.00  0.00     0.116 C 
BRANCH   2   3
ATOM      3  N   UNL A   1      38.924  21.814  26.075  1.00  0.00    -0.353 N 
ATOM      4  C   UNL A   1      37.712  21.863  25.447  1.00  0.00     0.257 C 
ATOM      5  O   UNL A   1      37.432  20.995  24.620  1.00  0.00    -0.271 OA
ATOM      6  H   UNL A   1      39.418  20.965  25.991  1.00  0.00     0.163 HD
BRANCH   4   7
ATOM      7  C   UNL A   1      36.748  23.015  25.724  1.00  0.00     0.329 C 
BRANCH   7   8
ATOM      8  O   UNL A   1      36.117  23.594  24.596  1.00  0.00    -0.484 OA
BRANCH   8   9
ATOM      9  C   UNL A   1      34.829  23.234  24.310  1.00  0.00     0.120 A 
ATOM     10  C   UNL A   1      32.517  22.646  24.771  1.00  0.00    -0.022 A 
ATOM     11  C   UNL A   1      32.278  22.522  23.398  1.00  0.00     0.008 A 
ATOM     12  C   UNL A   1      33.802  22.991  25.225  1.00  0.00     0.054 A 
ATOM     13  C   UNL A   1      33.301  22.763  22.484  1.00  0.00     0.004 A 
ATOM     14  C   UNL A   1      34.567  23.121  22.942  1.00  0.00     0.046 A 
BRANCH  10  15
ATOM     15  C   UNL A   1      31.413  22.384  25.705  1.00  0.00     0.015 C 
ATOM     16  C   UNL A   1      29.527  22.955  27.251  1.00  0.00     0.048 C 
ATOM     17  C   UNL A   1      30.597  23.300  26.261  1.00  0.00    -0.008 C 
BRANCH  17  18
ATOM     18  C   UNL A   1      30.717  24.751  25.958  1.00  0.00     0.137 A 
ATOM     19  N   UNL A   1      31.448  25.540  26.682  1.00  0.00    -0.219 NA
ATOM     20  N   UNL A   1      29.961  25.163  24.881  1.00  0.00    -0.306 N 
ATOM     21  C   UNL A   1      31.476  26.831  26.256  1.00  0.00     0.131 A 
ATOM     22  C   UNL A   1      29.915  26.466  24.442  1.00  0.00     0.259 A 
ATOM     23  H   UNL A   1      29.426  24.489  24.401  1.00  0.00     0.171 HD
ATOM     24  S   UNL A   1      32.453  28.012  27.008  1.00  0.00    -0.124 S 
ATOM     25  C   UNL A   1      30.772  27.357  25.196  1.00  0.00     0.077 A 
ATOM     26  O   UNL A   1      29.220  26.817  23.501  1.00  0.00    -0.269 OA
ATOM     27  C   UNL A   1      31.963  29.220  25.894  1.00  0.00     0.068 A 
ATOM     28  C   UNL A   1      31.028  28.746  25.002  1.00  0.00     0.028 A 
ENDBRANCH  17  18
ENDBRANCH  10  15
ENDBRANCH   8   9
ENDBRANCH   7   8
ENDBRANCH   4   7
ENDBRANCH   2   3
ENDBRANCH   1   2
BRANCH   1  29
ATOM     29  C   UNL A   1      41.815  21.530  26.828  1.00  0.00     0.002 C 
BRANCH  29  30
ATOM     30  C   UNL A   1      41.854  20.032  27.140  1.00  0.00     0.002 C 
BRANCH  30  31
ATOM     31  C   UNL A   1      42.266  19.127  25.983  1.00  0.00     0.021 C 
BRANCH  31  32
ATOM     32  C   UNL A   1      43.672  18.554  26.095  1.00  0.00     0.116 C 
BRANCH  32  33
ATOM     33  N   UNL A   1      44.370  18.453  24.819  1.00  0.00    -0.352 N 
ATOM     34  C   UNL A   1      44.904  19.480  24.072  1.00  0.00     0.251 C 
ATOM     35  H   UNL A   1      44.471  17.546  24.450  1.00  0.00     0.163 HD
ATOM     36  O   UNL A   1      45.397  19.281  22.969  1.00  0.00    -0.269 OA
BRANCH  34  37
ATOM     37  C   UNL A   1      44.825  20.848  24.618  1.00  0.00     0.039 A 
ATOM     38  C   UNL A   1      45.487  21.148  25.811  1.00  0.00     0.014 A 
ATOM     39  C   UNL A   1      44.192  21.850  23.881  1.00  0.00     0.014 A 
ATOM     40  C   UNL A   1      45.589  22.479  26.223  1.00  0.00     0.010 A 
ATOM     41  C   UNL A   1      44.360  23.178  24.251  1.00  0.00     0.010 A 
ATOM     42  C   UNL A   1      45.066  23.506  25.421  1.00  0.00    -0.014 A 
BRANCH  42  43
ATOM     43  C   UNL A   1      45.214  24.939  25.776  1.00  0.00     0.031 A 
ATOM     44  C   UNL A   1      46.561  25.590  25.639  1.00  0.00     0.074 A 
ATOM     45  C   UNL A   1      44.184  25.614  26.321  1.00  0.00     0.049 A 
ATOM     46  N   UNL A   1      46.967  26.758  26.066  1.00  0.00    -0.248 NA
ATOM     47  C   UNL A   1      47.605  24.797  24.970  1.00  0.00     0.031 C 
ATOM     48  C   UNL A   1      42.840  25.080  26.544  1.00  0.00     0.029 A 
ATOM     49  N   UNL A   1      44.118  26.894  26.814  1.00  0.00    -0.354 N 
ATOM     50  C   UNL A   1      48.318  26.821  25.753  1.00  0.00     0.074 A 
ATOM     51  C   UNL A   1      48.673  25.559  25.142  1.00  0.00     0.031 C 
ATOM     52  C   UNL A   1      42.079  26.028  27.116  1.00  0.00     0.029 A 
ATOM     53  C   UNL A   1      42.892  27.220  27.341  1.00  0.00     0.049 A 
ATOM     54  H   UNL A   1      44.878  27.520  26.792  1.00  0.00     0.167 HD
ATOM     55  C   UNL A   1      49.180  27.849  25.939  1.00  0.00     0.037 A 
ATOM     56  C   UNL A   1      42.477  28.349  27.950  1.00  0.00     0.037 A 
ATOM     57  C   UNL A   1      48.808  29.119  26.501  1.00  0.00     0.049 A 
ATOM     58  C   UNL A   1      43.448  29.488  28.119  1.00  0.00     0.074 A 
ATOM     59  C   UNL A   1      49.589  30.247  26.680  1.00  0.00     0.029 A 
ATOM     60  N   UNL A   1      47.538  29.431  26.967  1.00  0.00    -0.354 N 
ATOM     61  N   UNL A   1      44.712  29.555  27.779  1.00  0.00    -0.248 NA
ATOM     62  C   UNL A   1      42.932  30.710  28.752  1.00  0.00     0.031 C 
ATOM     63  C   UNL A   1      48.799  31.233  27.280  1.00  0.00     0.029 A 
ATOM     64  C   UNL A   1      47.516  30.733  27.436  1.00  0.00     0.049 A 
ATOM     65  H   UNL A   1      46.768  28.817  26.964  1.00  0.00     0.167 HD
ATOM     66  C   UNL A   1      45.132  30.833  28.121  1.00  0.00     0.074 A 
ATOM     67  C   UNL A   1      43.988  31.511  28.694  1.00  0.00     0.031 C 
ATOM     68  C   UNL A   1      46.356  31.397  27.974  1.00  0.00     0.037 A 
BRANCH  55  69
ATOM     69  C   UNL A   1      50.606  27.638  25.525  1.00  0.00     0.064 A 
ATOM     70  C   UNL A   1      51.026  27.837  24.201  1.00  0.00     0.173 A 
ATOM     71  C   UNL A   1      51.570  27.246  26.467  1.00  0.00     0.173 A 
ATOM     72  F   UNL A   1      50.141  28.198  23.261  1.00  0.00    -0.203 F 
ATOM     73  C   UNL A   1      52.349  27.618  23.827  1.00  0.00     0.198 A 
ATOM     74  C   UNL A   1      52.899  27.059  26.096  1.00  0.00     0.198 A 
ATOM     75  F   UNL A   1      51.223  27.046  27.747  1.00  0.00    -0.203 F 
ATOM     76  F   UNL A   1      52.713  27.759  22.546  1.00  0.00    -0.200 F 
ATOM     77  C   UNL A   1      53.285  27.235  24.776  1.00  0.00     0.200 A 
ATOM     78  F   UNL A   1      53.805  26.700  27.016  1.00  0.00    -0.200 F 
ATOM     79  F   UNL A   1      54.559  27.028  24.416  1.00  0.00    -0.200 F 
ENDBRANCH  55  69
BRANCH  56  80
ATOM     80  C   UNL A   1      41.072  28.471  28.418  1.00  0.00     0.064 A 
ATOM     81  C   UNL A   1      40.718  28.097  29.722  1.00  0.00     0.173 A 
ATOM     82  C   UNL A   1      40.057  28.953  27.580  1.00  0.00     0.173 A 
ATOM     83  F   UNL A   1      41.650  27.611  30.555  1.00  0.00    -0.203 F 
ATOM     84  C   UNL A   1      39.399  28.179  30.162  1.00  0.00     0.198 A 
ATOM     85  C   UNL A   1      38.742  29.059  28.029  1.00  0.00     0.198 A 
ATOM     86  F   UNL A   1      40.345  29.328  26.324  1.00  0.00    -0.203 F 
ATOM     87  F   UNL A   1      39.080  27.773  31.398  1.00  0.00    -0.200 F 
ATOM     88  C   UNL A   1      38.413  28.666  29.317  1.00  0.00     0.200 A 
ATOM     89  F   UNL A   1      37.795  29.541  27.213  1.00  0.00    -0.200 F 
ATOM     90  F   UNL A   1      37.144  28.747  29.741  1.00  0.00    -0.200 F 
ENDBRANCH  56  80
BRANCH  68  91
ATOM     91  C   UNL A   1      46.511  32.832  28.379  1.00  0.00     0.064 A 
ATOM     92  C   UNL A   1      46.273  33.881  27.480  1.00  0.00     0.173 A 
ATOM     93  C   UNL A   1      46.838  33.158  29.704  1.00  0.00     0.173 A 
ATOM     94  F   UNL A   1      45.971  33.618  26.200  1.00  0.00    -0.203 F 
ATOM     95  C   UNL A   1      46.373  35.207  27.891  1.00  0.00     0.198 A 
ATOM     96  C   UNL A   1      46.911  34.485  30.117  1.00  0.00     0.198 A 
ATOM     97  F   UNL A   1      47.069  32.189  30.602  1.00  0.00    -0.203 F 
ATOM     98  F   UNL A   1      46.175  36.196  27.008  1.00  0.00    -0.200 F 
ATOM     99  C   UNL A   1      46.682  35.509  29.210  1.00  0.00     0.200 A 
ATOM    100  F   UNL A   1      47.198  34.773  31.394  1.00  0.00    -0.200 F 
ATOM    101  F   UNL A   1      46.763  36.786  29.605  1.00  0.00    -0.200 F 
ENDBRANCH  68  91
ENDBRANCH  42  43
ENDBRANCH  34  37
ENDBRANCH  32  33
ENDBRANCH  31  32
ENDBRANCH  30  31
ENDBRANCH  29  30
ENDBRANCH   1  29
TORSDOF 17
ENDMDL
MODEL 2
REMARK VINA RESULT:     -11.9      0.127      1.538
REMARK SMILES C/C(=C/c1cccc(OCC(=O)NCCCCCCNC(=O)c2ccc(-c3c4nc(c(-c5c(F)c(F)c(F)c(F)c5F)c5ccc([nH]5)c(-c5c(F)c(F)c(F)c(F)c5F)c5nc(c(-c6c(F)c(F)c(F)c(F)c6F)c6ccc3[nH]6)C=C5)C=C4)cc2)c1)c1nc2sccc2c(=O)[nH]1
REMARK SMILES IDX 15 1 14 2 13 3 11 4 12 5 10 7 9 8 8 9 4 10 5 11 86 12 6 13
REMARK SMILES IDX 7 14 3 15 1 16 2 17 87 18 88 19 96 20 89 21 94 22 90 24
REMARK SMILES IDX 93 25 95 26 91 27 92 28 16 29 17 30 18 31 19 32 20 33 21 34
REMARK SMILES IDX 22 36 23 37 24 38 85 39 25 40 84 41 26 42 27 43 28 44 78 45
REMARK SMILES IDX 29 46 83 47 77 48 79 49 30 50 82 51 76 52 75 53 31 55 63 56
REMARK SMILES IDX 43 57 62 58 44 59 47 60 61 61 80 62 45 63 46 64 60 66 81 67
REMARK SMILES IDX 48 68 32 69 33 70 41 71 34 72 35 73 39 74 42 75 36 76 37 77
REMARK SMILES IDX 40 78 38 79 64 80 65 81 73 82 66 83 67 84 71 85 74 86 68 87
REMARK SMILES IDX 69 88 72 89 70 90 49 91 50 92 58 93 51 94 52 95 56 96 59 97
REMARK SMILES IDX 53 98 54 99 57 100 55 101
REMARK H PARENT 13 6 96 23 20 35 79 54 47 65
REMARK Flexibility Score: inf
ROOT
ATOM      1  C   UNL A   1      40.706  22.355  27.622  1.00  0.00     0.021 C 
ENDROOT
BRANCH   1   2
ATOM      2  C   UNL A   1      39.606  22.809  26.664  1.00  0.00     0.116 C 
BRANCH   2   3
ATOM      3  N   UNL A   1      38.936  21.726  25.974  1.00  0.00    -0.353 N 
ATOM      4  C   UNL A   1      37.692  21.727  25.408  1.00  0.00     0.257 C 
ATOM      5  O   UNL A   1      37.386  20.817  24.637  1.00  0.00    -0.271 OA
ATOM      6  H   UNL A   1      39.440  20.882  25.903  1.00  0.00     0.163 HD
BRANCH   4   7
ATOM      7  C   UNL A   1      36.724  22.876  25.683  1.00  0.00     0.329 C 
BRANCH   7   8
ATOM      8  O   UNL A   1      36.104  23.462  24.552  1.00  0.00    -0.484 OA
BRANCH   8   9
ATOM      9  C   UNL A   1      34.805  23.137  24.275  1.00  0.00     0.120 A 
ATOM     10  C   UNL A   1      32.483  22.606  24.751  1.00  0.00    -0.022 A 
ATOM     11  C   UNL A   1      32.230  22.495  23.380  1.00  0.00     0.008 A 
ATOM     12  C   UNL A   1      33.780  22.916  25.196  1.00  0.00     0.054 A 
ATOM     13  C   UNL A   1      33.251  22.714  22.459  1.00  0.00     0.004 A 
ATOM     14  C   UNL A   1      34.530  23.036  22.908  1.00  0.00     0.046 A 
BRANCH  10  15
ATOM     15  C   UNL A   1      31.379  22.368  25.692  1.00  0.00     0.015 C 
ATOM     16  C   UNL A   1      29.515  22.981  27.248  1.00  0.00     0.048 C 
ATOM     17  C   UNL A   1      30.584  23.302  26.251  1.00  0.00    -0.008 C 
BRANCH  17  18
ATOM     18  C   UNL A   1      30.732  24.750  25.942  1.00  0.00     0.137 A 
ATOM     19  N   UNL A   1      31.263  25.576  26.789  1.00  0.00    -0.219 NA
ATOM     20  N   UNL A   1      30.223  25.116  24.715  1.00  0.00    -0.306 N 
ATOM     21  C   UNL A   1      31.352  26.858  26.345  1.00  0.00     0.131 A 
ATOM     22  C   UNL A   1      30.242  26.407  24.242  1.00  0.00     0.259 A 
ATOM     23  H   UNL A   1      29.825  24.416  24.147  1.00  0.00     0.171 HD
ATOM     24  S   UNL A   1      32.107  28.084  27.262  1.00  0.00    -0.124 S 
ATOM     25  C   UNL A   1      30.887  27.340  25.142  1.00  0.00     0.077 A 
ATOM     26  O   UNL A   1      29.763  26.717  23.161  1.00  0.00    -0.269 OA
ATOM     27  C   UNL A   1      31.845  29.253  26.035  1.00  0.00     0.068 A 
ATOM     28  C   UNL A   1      31.143  28.732  24.972  1.00  0.00     0.028 A 
ENDBRANCH  17  18
ENDBRANCH  10  15
ENDBRANCH   8   9
ENDBRANCH   7   8
ENDBRANCH   4   7
ENDBRANCH   2   3
ENDBRANCH   1   2
BRANCH   1  29
ATOM     29  C   UNL A   1      41.844  21.530  27.015  1.00  0.00     0.002 C 
BRANCH  29  30
ATOM     30  C   UNL A   1      41.776  20.010  27.184  1.00  0.00     0.002 C 
BRANCH  30  31
ATOM     31  C   UNL A   1      42.220  19.191  25.976  1.00  0.00     0.021 C 
BRANCH  31  32
ATOM     32  C   UNL A   1      43.604  18.570  26.104  1.00  0.00     0.116 C 
BRANCH  32  33
ATOM     33  N   UNL A   1      44.319  18.460  24.839  1.00  0.00    -0.352 N 
ATOM     34  C   UNL A   1      44.866  19.482  24.094  1.00  0.00     0.251 C 
ATOM     35  H   UNL A   1      44.423  17.551  24.476  1.00  0.00     0.163 HD
ATOM     36  O   UNL A   1      45.375  19.277  22.999  1.00  0.00    -0.269 OA
BRANCH  34  37
ATOM     37  C   UNL A   1      44.783  20.853  24.632  1.00  0.00     0.039 A 
ATOM     38  C   UNL A   1      45.422  21.155  25.838  1.00  0.00     0.014 A 
ATOM     39  C   UNL A   1      44.171  21.855  23.877  1.00  0.00     0.014 A 
ATOM     40  C   UNL A   1      45.522  22.488  26.245  1.00  0.00     0.010 A 
ATOM     41  C   UNL A   1      44.338  23.183  24.245  1.00  0.00     0.010 A 
ATOM     42  C   UNL A   1      45.021  23.513  25.428  1.00  0.00    -0.014 A 
BRANCH  42  43
ATOM     43  C   UNL A   1      45.169  24.947  25.779  1.00  0.00     0.031 A 
ATOM     44  C   UNL A   1      46.516  25.598  25.642  1.00  0.00     0.074 A 
ATOM     45  C   UNL A   1      44.139  25.624  26.322  1.00  0.00     0.049 A 
ATOM     46  N   UNL A   1      46.923  26.767  26.066  1.00  0.00    -0.248 NA
ATOM     47  C   UNL A   1      47.560  24.803  24.975  1.00  0.00     0.031 C 
ATOM     48  C   UNL A   1      42.794  25.091  26.545  1.00  0.00     0.029 A 
ATOM     49  N   UNL A   1      44.072  26.905  26.811  1.00  0.00    -0.354 N 
ATOM     50  C   UNL A   1      48.274  26.829  25.753  1.00  0.00     0.074 A 
ATOM     51  C   UNL A   1      48.629  25.566  25.146  1.00  0.00     0.031 C 
ATOM     52  C   UNL A   1      42.033  26.040  27.114  1.00  0.00     0.029 A 
ATOM     53  C   UNL A   1      42.846  27.233  27.337  1.00  0.00     0.049 A 
ATOM     54  H   UNL A   1      44.832  27.531  26.788  1.00  0.00     0.167 HD
ATOM     55  C   UNL A   1      49.135  27.857  25.938  1.00  0.00     0.037 A 
ATOM     56  C   UNL A   1      42.432  28.363  27.942  1.00  0.00     0.037 A 
ATOM     57  C   UNL A   1      48.763  29.128  26.496  1.00  0.00     0.049 A 
ATOM     58  C   UNL A   1      43.402  29.503  28.109  1.00  0.00     0.074 A 
ATOM     59  C   UNL A   1      49.544  30.256  26.672  1.00  0.00     0.029 A 
ATOM     60  N   UNL A   1      47.493  29.442  26.960  1.00  0.00    -0.354 N 
ATOM     61  N   UNL A   1      44.666  29.569  27.770  1.00  0.00    -0.248 NA
ATOM     62  C   UNL A   1      42.886  30.727  28.739  1.00  0.00     0.031 C 
ATOM     63  C   UNL A   1      48.755  31.244  27.270  1.00  0.00     0.029 A 
ATOM     64  C   UNL A   1      47.471  30.745  27.426  1.00  0.00     0.049 A 
ATOM     65  H   UNL A   1      46.723  28.828  26.958  1.00  0.00     0.167 HD
ATOM     66  C   UNL A   1      45.087  30.847  28.109  1.00  0.00     0.074 A 
ATOM     67  C   UNL A   1      43.942  31.527  28.679  1.00  0.00     0.031 C 
ATOM     68  C   UNL A   1      46.311  31.410  27.962  1.00  0.00     0.037 A 
BRANCH  55  69
ATOM     69  C   UNL A   1      50.562  27.644  25.525  1.00  0.00     0.064 A 
ATOM     70  C   UNL A   1      51.544  27.251  26.446  1.00  0.00     0.173 A 
ATOM     71  C   UNL A   1      50.949  27.820  24.188  1.00  0.00     0.173 A 
ATOM     72  F   UNL A   1      51.228  27.084  27.739  1.00  0.00    -0.203 F 
ATOM     73  C   UNL A   1      52.868  27.078  26.053  1.00  0.00     0.198 A 
ATOM     74  C   UNL A   1      52.268  27.614  23.791  1.00  0.00     0.198 A 
ATOM     75  F   UNL A   1      50.049  28.191  23.266  1.00  0.00    -0.203 F 
ATOM     76  F   UNL A   1      53.799  26.759  26.962  1.00  0.00    -0.200 F 
ATOM     77  C   UNL A   1      53.228  27.253  24.724  1.00  0.00     0.200 A 
ATOM     78  F   UNL A   1      52.611  27.773  22.506  1.00  0.00    -0.200 F 
ATOM     79  F   UNL A   1      54.501  27.082  24.347  1.00  0.00    -0.200 F 
ENDBRANCH  55  69
BRANCH  56  80
ATOM     80  C   UNL A   1      41.026  28.487  28.409  1.00  0.00     0.064 A 
ATOM     81  C   UNL A   1      40.025  28.957  27.548  1.00  0.00     0.173 A 
ATOM     82  C   UNL A   1      40.654  28.149  29.718  1.00  0.00     0.173 A 
ATOM     83  F   UNL A   1      40.335  29.313  26.293  1.00  0.00    -0.203 F 
ATOM     84  C   UNL A   1      38.710  29.107  27.984  1.00  0.00     0.198 A 
ATOM     85  C   UNL A   1      39.334  28.274  30.146  1.00  0.00     0.198 A 
ATOM     86  F   UNL A   1      41.574  27.690  30.580  1.00  0.00    -0.203 F 
ATOM     87  F   UNL A   1      37.782  29.601  27.154  1.00  0.00    -0.200 F 
ATOM     88  C   UNL A   1      38.364  28.759  29.282  1.00  0.00     0.200 A 
ATOM     89  F   UNL A   1      39.002  27.926  31.396  1.00  0.00    -0.200 F 
ATOM     90  F   UNL A   1      37.099  28.900  29.701  1.00  0.00    -0.200 F 
ENDBRANCH  56  80
BRANCH  68  91
ATOM     91  C   UNL A   1      46.465  32.847  28.362  1.00  0.00     0.064 A 
ATOM     92  C   UNL A   1      46.230  33.893  27.461  1.00  0.00     0.173 A 
ATOM     93  C   UNL A   1      46.790  33.177  29.687  1.00  0.00     0.173 A 
ATOM     94  F   UNL A   1      45.931  33.627  26.180  1.00  0.00    -0.203 F 
ATOM     95  C   UNL A   1      46.330  35.221  27.868  1.00  0.00     0.198 A 
ATOM     96  C   UNL A   1      46.863  34.505  30.096  1.00  0.00     0.198 A 
ATOM     97  F   UNL A   1      47.018  32.209  30.589  1.00  0.00    -0.203 F 
ATOM     98  F   UNL A   1      46.134  36.207  26.981  1.00  0.00    -0.200 F 
ATOM     99  C   UNL A   1      46.637  35.526  29.186  1.00  0.00     0.200 A 
ATOM    100  F   UNL A   1      47.147  34.796  31.374  1.00  0.00    -0.200 F 
ATOM    101  F   UNL A   1      46.717  36.804  29.579  1.00  0.00    -0.200 F 
ENDBRANCH  68  91
ENDBRANCH  42  43
ENDBRANCH  34  37
ENDBRANCH  32  33
ENDBRANCH  31  32
ENDBRANCH  30  31
ENDBRANCH  29  30
ENDBRANCH   1  29
TORSDOF 17
ENDMDL
MODEL 3
REMARK VINA RESULT:     -11.9      6.773     12.442
REMARK SMILES C/C(=C/c1cccc(OCC(=O)NCCCCCCNC(=O)c2ccc(-c3c4nc(c(-c5c(F)c(F)c(F)c(F)c5F)c5ccc([nH]5)c(-c5c(F)c(F)c(F)c(F)c5F)c5nc(c(-c6c(F)c(F)c(F)c(F)c6F)c6ccc3[nH]6)C=C5)C=C4)cc2)c1)c1nc2sccc2c(=O)[nH]1
REMARK SMILES IDX 15 1 14 2 13 3 11 4 12 5 10 7 9 8 8 9 4 10 5 11 86 12 6 13
REMARK SMILES IDX 7 14 3 15 1 16 2 17 87 18 88 19 96 20 89 21 94 22 90 24
REMARK SMILES IDX 93 25 95 26 91 27 92 28 16 29 17 30 18 31 19 32 20 33 21 34
REMARK SMILES IDX 22 36 23 37 24 38 85 39 25 40 84 41 26 42 27 43 28 44 78 45
REMARK SMILES IDX 29 46 83 47 77 48 79 49 30 50 82 51 76 52 75 53 31 55 63 56
REMARK SMILES IDX 43 57 62 58 44 59 47 60 61 61 80 62 45 63 46 64 60 66 81 67
REMARK SMILES IDX 48 68 32 69 33 70 41 71 34 72 35 73 39 74 42 75 36 76 37 77
REMARK SMILES IDX 40 78 38 79 64 80 65 81 73 82 66 83 67 84 71 85 74 86 68 87
REMARK SMILES IDX 69 88 72 89 70 90 49 91 50 92 58 93 51 94 52 95 56 96 59 97
REMARK SMILES IDX 53 98 54 99 57 100 55 101
REMARK H PARENT 13 6 96 23 20 35 79 54 47 65
REMARK Flexibility Score: inf
ROOT
ATOM      1  C   UNL A   1      35.898  32.038  28.035  1.00  0.00     0.021 C 
ENDROOT
BRANCH   1   2
ATOM      2  C   UNL A   1      34.689  31.138  28.284  1.00  0.00     0.116 C 
BRANCH   2   3
ATOM      3  N   UNL A   1      34.853  29.779  27.809  1.00  0.00    -0.353 N 
ATOM      4  C   UNL A   1      34.001  29.049  27.030  1.00  0.00     0.257 C 
ATOM      5  O   UNL A   1      34.412  28.015  26.503  1.00  0.00    -0.271 OA
ATOM      6  H   UNL A   1      35.683  29.324  28.083  1.00  0.00     0.163 HD
BRANCH   4   7
ATOM      7  C   UNL A   1      32.581  29.547  26.768  1.00  0.00     0.329 C 
BRANCH   7   8
ATOM      8  O   UNL A   1      32.130  29.489  25.426  1.00  0.00    -0.484 OA
BRANCH   8   9
ATOM      9  C   UNL A   1      31.404  28.401  25.026  1.00  0.00     0.120 A 
ATOM     10  C   UNL A   1      30.295  26.250  25.242  1.00  0.00    -0.022 A 
ATOM     11  C   UNL A   1      29.885  26.331  23.908  1.00  0.00     0.008 A 
ATOM     12  C   UNL A   1      31.069  27.286  25.796  1.00  0.00     0.054 A 
ATOM     13  C   UNL A   1      30.219  27.442  23.138  1.00  0.00     0.004 A 
ATOM     14  C   UNL A   1      30.972  28.471  23.699  1.00  0.00     0.046 A 
BRANCH  10  15
ATOM     15  C   UNL A   1      29.923  25.062  26.023  1.00  0.00     0.015 C 
ATOM     16  C   UNL A   1      30.130  22.717  26.877  1.00  0.00     0.048 C 
ATOM     17  C   UNL A   1      30.609  23.905  26.101  1.00  0.00    -0.008 C 
BRANCH  17  18
ATOM     18  C   UNL A   1      31.896  23.701  25.384  1.00  0.00     0.137 A 
ATOM     19  N   UNL A   1      33.036  23.972  25.940  1.00  0.00    -0.219 NA
ATOM     20  N   UNL A   1      31.751  23.246  24.091  1.00  0.00    -0.306 N 
ATOM     21  C   UNL A   1      34.119  23.703  25.164  1.00  0.00     0.131 A 
ATOM     22  C   UNL A   1      32.812  23.007  23.249  1.00  0.00     0.259 A 
ATOM     23  H   UNL A   1      30.840  23.082  23.753  1.00  0.00     0.171 HD
ATOM     24  S   UNL A   1      35.716  23.893  25.738  1.00  0.00    -0.124 S 
ATOM     25  C   UNL A   1      34.101  23.241  23.866  1.00  0.00     0.077 A 
ATOM     26  O   UNL A   1      32.663  22.626  22.097  1.00  0.00    -0.269 OA
ATOM     27  C   UNL A   1      36.383  23.325  24.265  1.00  0.00     0.068 A 
ATOM     28  C   UNL A   1      35.408  23.050  23.332  1.00  0.00     0.028 A 
ENDBRANCH  17  18
ENDBRANCH  10  15
ENDBRANCH   8   9
ENDBRANCH   7   8
ENDBRANCH   4   7
ENDBRANCH   2   3
ENDBRANCH   1   2
BRANCH   1  29
ATOM     29  C   UNL A   1      35.654  33.548  28.112  1.00  0.00     0.002 C 
BRANCH  29  30
ATOM     30  C   UNL A   1      34.261  34.053  27.727  1.00  0.00     0.002 C 
BRANCH  30  31
ATOM     31  C   UNL A   1      33.339  34.398  28.892  1.00  0.00     0.021 C 
BRANCH  31  32
ATOM     32  C   UNL A   1      33.660  35.713  29.588  1.00  0.00     0.116 C 
BRANCH  32  33
ATOM     33  N   UNL A   1      32.615  36.168  30.498  1.00  0.00    -0.352 N 
ATOM     34  C   UNL A   1      32.522  35.932  31.852  1.00  0.00     0.251 C 
ATOM     35  H   UNL A   1      31.894  36.705  30.098  1.00  0.00     0.163 HD
ATOM     36  O   UNL A   1      31.551  36.297  32.501  1.00  0.00    -0.269 OA
BRANCH  34  37
ATOM     37  C   UNL A   1      33.614  35.181  32.501  1.00  0.00     0.039 A 
ATOM     38  C   UNL A   1      33.402  33.852  32.876  1.00  0.00     0.014 A 
ATOM     39  C   UNL A   1      34.874  35.767  32.627  1.00  0.00     0.014 A 
ATOM     40  C   UNL A   1      34.486  33.078  33.299  1.00  0.00     0.010 A 
ATOM     41  C   UNL A   1      35.962  34.976  32.973  1.00  0.00     0.010 A 
ATOM     42  C   UNL A   1      35.779  33.623  33.306  1.00  0.00    -0.014 A 
BRANCH  42  43
ATOM     43  C   UNL A   1      36.972  32.820  33.673  1.00  0.00     0.031 A 
ATOM     44  C   UNL A   1      37.668  33.099  34.975  1.00  0.00     0.074 A 
ATOM     45  C   UNL A   1      37.490  31.934  32.801  1.00  0.00     0.049 A 
ATOM     46  N   UNL A   1      38.823  32.666  35.410  1.00  0.00    -0.248 NA
ATOM     47  C   UNL A   1      36.990  34.031  35.891  1.00  0.00     0.031 C 
ATOM     48  C   UNL A   1      36.931  31.605  31.490  1.00  0.00     0.029 A 
ATOM     49  N   UNL A   1      38.626  31.166  32.878  1.00  0.00    -0.354 N 
ATOM     50  C   UNL A   1      39.026  33.301  36.628  1.00  0.00     0.074 A 
ATOM     51  C   UNL A   1      37.900  34.182  36.842  1.00  0.00     0.031 C 
ATOM     52  C   UNL A   1      37.716  30.694  30.892  1.00  0.00     0.029 A 
ATOM     53  C   UNL A   1      38.857  30.407  31.757  1.00  0.00     0.049 A 
ATOM     54  H   UNL A   1      39.219  31.160  33.664  1.00  0.00     0.167 HD
ATOM     55  C   UNL A   1      40.051  33.146  37.499  1.00  0.00     0.037 A 
ATOM     56  C   UNL A   1      39.881  29.585  31.457  1.00  0.00     0.037 A 
ATOM     57  C   UNL A   1      41.142  32.230  37.303  1.00  0.00     0.049 A 
ATOM     58  C   UNL A   1      40.995  29.408  32.456  1.00  0.00     0.074 A 
ATOM     59  C   UNL A   1      42.200  31.954  38.151  1.00  0.00     0.029 A 
ATOM     60  N   UNL A   1      41.307  31.432  36.180  1.00  0.00    -0.354 N 
ATOM     61  N   UNL A   1      41.156  29.980  33.625  1.00  0.00    -0.248 NA
ATOM     62  C   UNL A   1      42.066  28.469  32.096  1.00  0.00     0.031 C 
ATOM     63  C   UNL A   1      43.022  31.008  37.527  1.00  0.00     0.029 A 
ATOM     64  C   UNL A   1      42.452  30.666  36.311  1.00  0.00     0.049 A 
ATOM     65  H   UNL A   1      40.699  31.415  35.405  1.00  0.00     0.167 HD
ATOM     66  C   UNL A   1      42.321  29.443  34.155  1.00  0.00     0.074 A 
ATOM     67  C   UNL A   1      42.828  28.498  33.181  1.00  0.00     0.031 C 
ATOM     68  C   UNL A   1      42.920  29.709  35.341  1.00  0.00     0.037 A 
BRANCH  55  69
ATOM     69  C   UNL A   1      40.032  33.984  38.743  1.00  0.00     0.064 A 
ATOM     70  C   UNL A   1      39.394  33.548  39.914  1.00  0.00     0.173 A 
ATOM     71  C   UNL A   1      40.673  35.232  38.770  1.00  0.00     0.173 A 
ATOM     72  F   UNL A   1      38.755  32.370  39.936  1.00  0.00    -0.203 F 
ATOM     73  C   UNL A   1      39.367  34.346  41.056  1.00  0.00     0.198 A 
ATOM     74  C   UNL A   1      40.672  36.012  39.924  1.00  0.00     0.198 A 
ATOM     75  F   UNL A   1      41.302  35.694  37.679  1.00  0.00    -0.203 F 
ATOM     76  F   UNL A   1      38.702  33.933  42.143  1.00  0.00    -0.200 F 
ATOM     77  C   UNL A   1      40.012  35.574  41.061  1.00  0.00     0.200 A 
ATOM     78  F   UNL A   1      41.305  37.194  39.931  1.00  0.00    -0.200 F 
ATOM     79  F   UNL A   1      39.988  36.338  42.161  1.00  0.00    -0.200 F 
ENDBRANCH  55  69
BRANCH  56  80
ATOM     80  C   UNL A   1      39.891  28.843  30.169  1.00  0.00     0.064 A 
ATOM     81  C   UNL A   1      39.352  27.553  30.083  1.00  0.00     0.173 A 
ATOM     82  C   UNL A   1      40.442  29.399  29.005  1.00  0.00     0.173 A 
ATOM     83  F   UNL A   1      38.833  26.970  31.174  1.00  0.00    -0.203 F 
ATOM     84  C   UNL A   1      39.383  26.836  28.889  1.00  0.00     0.198 A 
ATOM     85  C   UNL A   1      40.449  28.692  27.804  1.00  0.00     0.198 A 
ATOM     86  F   UNL A   1      40.966  30.633  29.034  1.00  0.00    -0.203 F 
ATOM     87  F   UNL A   1      38.902  25.587  28.845  1.00  0.00    -0.200 F 
ATOM     88  C   UNL A   1      39.926  27.409  27.748  1.00  0.00     0.200 A 
ATOM     89  F   UNL A   1      40.964  29.254  26.703  1.00  0.00    -0.200 F 
ATOM     90  F   UNL A   1      39.954  26.721  26.599  1.00  0.00    -0.200 F 
ENDBRANCH  56  80
BRANCH  68  91
ATOM     91  C   UNL A   1      44.152  28.927  35.686  1.00  0.00     0.064 A 
ATOM     92  C   UNL A   1      45.433  29.385  35.353  1.00  0.00     0.173 A 
ATOM     93  C   UNL A   1      44.046  27.735  36.418  1.00  0.00     0.173 A 
ATOM     94  F   UNL A   1      45.584  30.512  34.641  1.00  0.00    -0.203 F 
ATOM     95  C   UNL A   1      46.566  28.668  35.728  1.00  0.00     0.198 A 
ATOM     96  C   UNL A   1      45.182  27.035  36.814  1.00  0.00     0.198 A 
ATOM     97  F   UNL A   1      42.841  27.259  36.767  1.00  0.00    -0.203 F 
ATOM     98  F   UNL A   1      47.782  29.106  35.369  1.00  0.00    -0.200 F 
ATOM     99  C   UNL A   1      46.441  27.500  36.465  1.00  0.00     0.200 A 
ATOM    100  F   UNL A   1      45.058  25.913  37.538  1.00  0.00    -0.200 F 
ATOM    101  F   UNL A   1      47.533  26.820  36.837  1.00  0.00    -0.200 F 
ENDBRANCH  68  91
ENDBRANCH  42  43
ENDBRANCH  34  37
ENDBRANCH  32  33
ENDBRANCH  31  32
ENDBRANCH  30  31
ENDBRANCH  29  30
ENDBRANCH   1  29
TORSDOF 17
ENDMDL
