MODEL 1
REMARK VINA RESULT:     -13.7      0.000      0.000
REMARK SMILES NS(=O)(=O)c1ccc(-c2cc(Cl)cc3c2O[C@H](C(F)(F)F)C(C(=O)NCCCCCCNC(=O)c2ccc(-c4c5nc(c(-c6c(F)c(F)c(F)c(F)c6F)c6ccc([nH]6)c(-c6c(F)c(F)c(F)c(F)c6F)c6nc(c(-c7c(F)c(F)c(F)c(F)c7F)c7ccc4[nH]7)C=C6)C=C5)cc2)=C3)cc1
REMARK SMILES IDX 28 1 27 2 26 3 25 4 23 5 24 6 22 8 9 9 10 10 15 11 11 12
REMARK SMILES IDX 14 13 16 14 12 15 13 16 98 17 17 18 8 19 5 20 6 21 100 22
REMARK SMILES IDX 7 23 99 24 2 25 3 26 4 27 1 28 18 31 19 32 20 33 21 34 29 35
REMARK SMILES IDX 30 36 31 37 32 38 33 39 34 41 35 42 36 43 97 44 37 45 96 46
REMARK SMILES IDX 38 47 39 48 40 49 90 50 41 51 95 52 89 53 91 54 42 55 94 56
REMARK SMILES IDX 88 57 87 58 43 60 75 61 55 62 74 63 56 64 59 65 73 66 92 67
REMARK SMILES IDX 57 68 58 69 72 71 93 72 60 73 44 74 45 75 53 76 46 77 47 78
REMARK SMILES IDX 51 79 54 80 48 81 49 82 52 83 50 84 76 85 77 86 85 87 78 88
REMARK SMILES IDX 79 89 83 90 86 91 80 92 81 93 84 94 82 95 61 96 62 97 70 98
REMARK SMILES IDX 63 99 64 100 68 101 71 102 65 103 66 104 69 105 67 106
REMARK H PARENT 25 7 1 29 1 30 32 40 91 59 59 70
REMARK Flexibility Score: inf
ROOT
ATOM      1  C   UNL A   1      31.594  29.891  25.009  1.00  0.00     0.002 C 
ENDROOT
BRANCH   1   2
ATOM      2  C   UNL A   1      30.284  30.083  24.226  1.00  0.00     0.021 C 
BRANCH   2   3
ATOM      3  C   UNL A   1      29.916  28.920  23.293  1.00  0.00     0.116 C 
BRANCH   3   4
ATOM      4  N   UNL A   1      29.654  27.726  24.072  1.00  0.00    -0.352 N 
ATOM      5  C   UNL A   1      30.169  26.503  23.790  1.00  0.00     0.251 C 
ATOM      6  O   UNL A   1      29.431  25.534  23.662  1.00  0.00    -0.270 OA
ATOM      7  H   UNL A   1      29.065  27.808  24.856  1.00  0.00     0.163 HD
BRANCH   5   8
ATOM      8  C   UNL A   1      31.658  26.398  23.816  1.00  0.00     0.067 C 
ATOM      9  C   UNL A   1      31.990  22.421  24.547  1.00  0.00     0.026 A 
ATOM     10  C   UNL A   1      31.014  22.127  25.537  1.00  0.00     0.033 A 
ATOM     11  C   UNL A   1      32.269  23.783  24.339  1.00  0.00     0.135 A 
ATOM     12  C   UNL A   1      30.509  23.094  26.404  1.00  0.00     0.042 A 
ATOM     13  C   UNL A   1      31.841  24.728  25.305  1.00  0.00     0.019 A 
ATOM     14  O   UNL A   1      32.882  24.278  23.192  1.00  0.00    -0.475 OA
ATOM     15  Cl  UNL A   1      29.318  22.662  27.564  1.00  0.00    -0.084 Cl
ATOM     16  C   UNL A   1      30.985  24.387  26.347  1.00  0.00     0.032 A 
ATOM     17  C   UNL A   1      32.138  26.154  25.051  1.00  0.00     0.025 C 
ATOM     18  C   UNL A   1      32.261  25.552  22.704  1.00  0.00     0.314 C 
BRANCH   9  19
ATOM     19  C   UNL A   1      32.756  21.233  24.074  1.00  0.00    -0.015 A 
ATOM     20  C   UNL A   1      33.506  18.501  24.107  1.00  0.00     0.082 A 
ATOM     21  C   UNL A   1      32.505  18.940  23.239  1.00  0.00     0.022 A 
ATOM     22  C   UNL A   1      34.216  19.426  24.874  1.00  0.00     0.022 A 
ATOM     23  C   UNL A   1      32.155  20.298  23.204  1.00  0.00     0.010 A 
ATOM     24  C   UNL A   1      33.849  20.784  24.843  1.00  0.00     0.010 A 
BRANCH  20  25
ATOM     25  S   UNL A   1      33.735  16.752  24.285  1.00  0.00     0.238 S 
ATOM     26  O   UNL A   1      34.042  16.198  22.985  1.00  0.00    -0.207 OA
ATOM     27  O   UNL A   1      32.679  16.237  25.121  1.00  0.00    -0.207 OA
BRANCH  25  28
ATOM     28  N   UNL A   1      35.138  16.565  25.197  1.00  0.00    -0.225 NA
ATOM     29  H   UNL A   1      34.901  16.171  26.107  1.00  0.00     0.137 HD
ATOM     30  H   UNL A   1      35.583  17.473  25.325  1.00  0.00     0.137 HD
ENDBRANCH  25  28
ENDBRANCH  20  25
ENDBRANCH   9  19
BRANCH  18  31
ATOM     31  C   UNL A   1      33.262  26.444  21.932  1.00  0.00     0.429 C 
ATOM     32  F   UNL A   1      34.543  26.244  22.309  1.00  0.00    -0.167 F 
ATOM     33  F   UNL A   1      33.185  26.226  20.597  1.00  0.00    -0.167 F 
ATOM     34  F   UNL A   1      33.013  27.772  22.105  1.00  0.00    -0.167 F 
ENDBRANCH  18  31
ENDBRANCH   5   8
ENDBRANCH   3   4
ENDBRANCH   2   3
ENDBRANCH   1   2
BRANCH   1  35
ATOM     35  C   UNL A   1      31.577  30.438  26.439  1.00  0.00     0.002 C 
BRANCH  35  36
ATOM     36  C   UNL A   1      31.471  31.960  26.534  1.00  0.00     0.021 C 
BRANCH  36  37
ATOM     37  C   UNL A   1      32.645  32.631  27.235  1.00  0.00     0.116 C 
BRANCH  37  38
ATOM     38  N   UNL A   1      32.379  34.024  27.559  1.00  0.00    -0.352 N 
ATOM     39  C   UNL A   1      32.971  34.819  28.508  1.00  0.00     0.251 C 
ATOM     40  H   UNL A   1      31.677  34.457  27.022  1.00  0.00     0.163 HD
ATOM     41  O   UNL A   1      32.515  35.927  28.766  1.00  0.00    -0.269 OA
BRANCH  39  42
ATOM     42  C   UNL A   1      34.150  34.317  29.242  1.00  0.00     0.039 A 
ATOM     43  C   UNL A   1      33.952  33.560  30.400  1.00  0.00     0.014 A 
ATOM     44  C   UNL A   1      35.444  34.577  28.781  1.00  0.00     0.014 A 
ATOM     45  C   UNL A   1      35.053  33.015  31.063  1.00  0.00     0.010 A 
ATOM     46  C   UNL A   1      36.531  33.964  29.394  1.00  0.00     0.010 A 
ATOM     47  C   UNL A   1      36.348  33.183  30.545  1.00  0.00    -0.014 A 
BRANCH  47  48
ATOM     48  C   UNL A   1      37.519  32.544  31.194  1.00  0.00     0.031 A 
ATOM     49  C   UNL A   1      38.232  31.407  30.521  1.00  0.00     0.074 A 
ATOM     50  C   UNL A   1      37.895  32.942  32.424  1.00  0.00     0.049 A 
ATOM     51  N   UNL A   1      39.239  30.689  30.951  1.00  0.00    -0.248 NA
ATOM     52  C   UNL A   1      37.723  31.000  29.202  1.00  0.00     0.031 C 
ATOM     53  C   UNL A   1      37.241  33.990  33.208  1.00  0.00     0.029 A 
ATOM     54  N   UNL A   1      38.908  32.500  33.237  1.00  0.00    -0.354 N 
ATOM     55  C   UNL A   1      39.472  29.739  29.966  1.00  0.00     0.074 A 
ATOM     56  C   UNL A   1      38.462  29.932  28.947  1.00  0.00     0.031 C 
ATOM     57  C   UNL A   1      37.878  34.122  34.381  1.00  0.00     0.029 A 
ATOM     58  C   UNL A   1      38.959  33.142  34.450  1.00  0.00     0.049 A 
ATOM     59  H   UNL A   1      39.539  31.790  32.976  1.00  0.00     0.167 HD
ATOM     60  C   UNL A   1      40.452  28.806  29.905  1.00  0.00     0.037 A 
ATOM     61  C   UNL A   1      39.777  32.957  35.503  1.00  0.00     0.037 A 
ATOM     62  C   UNL A   1      41.461  28.630  30.918  1.00  0.00     0.049 A 
ATOM     63  C   UNL A   1      40.864  31.922  35.415  1.00  0.00     0.074 A 
ATOM     64  C   UNL A   1      42.545  27.770  30.918  1.00  0.00     0.029 A 
ATOM     65  N   UNL A   1      41.499  29.319  32.123  1.00  0.00    -0.354 N 
ATOM     66  N   UNL A   1      41.135  31.090  34.439  1.00  0.00    -0.248 NA
ATOM     67  C   UNL A   1      41.764  31.807  36.569  1.00  0.00     0.031 C 
ATOM     68  C   UNL A   1      43.199  27.891  32.149  1.00  0.00     0.029 A 
ATOM     69  C   UNL A   1      42.565  28.875  32.891  1.00  0.00     0.049 A 
ATOM     70  H   UNL A   1      40.862  30.019  32.394  1.00  0.00     0.167 HD
ATOM     71  C   UNL A   1      42.246  30.366  34.850  1.00  0.00     0.074 A 
ATOM     72  C   UNL A   1      42.608  30.872  36.159  1.00  0.00     0.031 C 
ATOM     73  C   UNL A   1      42.907  29.376  34.200  1.00  0.00     0.037 A 
BRANCH  60  74
ATOM     74  C   UNL A   1      40.464  27.895  28.708  1.00  0.00     0.064 A 
ATOM     75  C   UNL A   1      39.768  26.675  28.696  1.00  0.00     0.173 A 
ATOM     76  C   UNL A   1      41.187  28.244  27.557  1.00  0.00     0.173 A 
ATOM     77  F   UNL A   1      39.067  26.286  29.771  1.00  0.00    -0.203 F 
ATOM     78  C   UNL A   1      39.841  25.817  27.601  1.00  0.00     0.198 A 
ATOM     79  C   UNL A   1      41.226  27.401  26.449  1.00  0.00     0.198 A 
ATOM     80  F   UNL A   1      41.864  29.402  27.507  1.00  0.00    -0.203 F 
ATOM     81  F   UNL A   1      39.232  24.623  27.646  1.00  0.00    -0.200 F 
ATOM     82  C   UNL A   1      40.566  26.183  26.478  1.00  0.00     0.200 A 
ATOM     83  F   UNL A   1      41.914  27.764  25.357  1.00  0.00    -0.200 F 
ATOM     84  F   UNL A   1      40.639  25.354  25.427  1.00  0.00    -0.200 F 
ENDBRANCH  60  74
BRANCH  61  85
ATOM     85  C   UNL A   1      39.595  33.792  36.718  1.00  0.00     0.064 A 
ATOM     86  C   UNL A   1      40.166  35.068  36.812  1.00  0.00     0.173 A 
ATOM     87  C   UNL A   1      38.808  33.349  37.791  1.00  0.00     0.173 A 
ATOM     88  F   UNL A   1      40.943  35.529  35.820  1.00  0.00    -0.203 F 
ATOM     89  C   UNL A   1      39.961  35.867  37.935  1.00  0.00     0.198 A 
ATOM     90  C   UNL A   1      38.580  34.159  38.900  1.00  0.00     0.198 A 
ATOM     91  F   UNL A   1      38.232  32.137  37.746  1.00  0.00    -0.203 F 
ATOM     92  F   UNL A   1      40.541  37.072  38.013  1.00  0.00    -0.200 F 
ATOM     93  C   UNL A   1      39.159  35.416  38.974  1.00  0.00     0.200 A 
ATOM     94  F   UNL A   1      37.788  33.726  39.892  1.00  0.00    -0.200 F 
ATOM     95  F   UNL A   1      38.945  36.192  40.044  1.00  0.00    -0.200 F 
ENDBRANCH  61  85
BRANCH  73  96
ATOM     96  C   UNL A   1      44.104  28.781  34.886  1.00  0.00     0.064 A 
ATOM     97  C   UNL A   1      43.994  27.663  35.726  1.00  0.00     0.173 A 
ATOM     98  C   UNL A   1      45.385  29.312  34.667  1.00  0.00     0.173 A 
ATOM     99  F   UNL A   1      42.792  27.125  35.981  1.00  0.00    -0.203 F 
ATOM    100  C   UNL A   1      45.118  27.115  36.341  1.00  0.00     0.198 A 
ATOM    101  C   UNL A   1      46.510  28.741  35.256  1.00  0.00     0.198 A 
ATOM    102  F   UNL A   1      45.548  30.377  33.867  1.00  0.00    -0.203 F 
ATOM    103  F   UNL A   1      44.982  26.079  37.180  1.00  0.00    -0.200 F 
ATOM    104  C   UNL A   1      46.375  27.649  36.099  1.00  0.00     0.200 A 
ATOM    105  F   UNL A   1      47.725  29.249  35.007  1.00  0.00    -0.200 F 
ATOM    106  F   UNL A   1      47.455  27.115  36.684  1.00  0.00    -0.200 F 
ENDBRANCH  73  96
ENDBRANCH  47  48
ENDBRANCH  39  42
ENDBRANCH  37  38
ENDBRANCH  36  37
ENDBRANCH  35  36
ENDBRANCH   1  35
TORSDOF 17
ENDMDL
MODEL 2
REMARK VINA RESULT:     -13.5      5.606     11.182
REMARK SMILES NS(=O)(=O)c1ccc(-c2cc(Cl)cc3c2O[C@H](C(F)(F)F)C(C(=O)NCCCCCCNC(=O)c2ccc(-c4c5nc(c(-c6c(F)c(F)c(F)c(F)c6F)c6ccc([nH]6)c(-c6c(F)c(F)c(F)c(F)c6F)c6nc(c(-c7c(F)c(F)c(F)c(F)c7F)c7ccc4[nH]7)C=C6)C=C5)cc2)=C3)cc1
REMARK SMILES IDX 28 1 27 2 26 3 25 4 23 5 24 6 22 8 9 9 10 10 15 11 11 12
REMARK SMILES IDX 14 13 16 14 12 15 13 16 98 17 17 18 8 19 5 20 6 21 100 22
REMARK SMILES IDX 7 23 99 24 2 25 3 26 4 27 1 28 18 31 19 32 20 33 21 34 29 35
REMARK SMILES IDX 30 36 31 37 32 38 33 39 34 41 35 42 36 43 97 44 37 45 96 46
REMARK SMILES IDX 38 47 39 48 40 49 90 50 41 51 95 52 89 53 91 54 42 55 94 56
REMARK SMILES IDX 88 57 87 58 43 60 75 61 55 62 74 63 56 64 59 65 73 66 92 67
REMARK SMILES IDX 57 68 58 69 72 71 93 72 60 73 44 74 45 75 53 76 46 77 47 78
REMARK SMILES IDX 51 79 54 80 48 81 49 82 52 83 50 84 76 85 77 86 85 87 78 88
REMARK SMILES IDX 79 89 83 90 86 91 80 92 81 93 84 94 82 95 61 96 62 97 70 98
REMARK SMILES IDX 63 99 64 100 68 101 71 102 65 103 66 104 69 105 67 106
REMARK H PARENT 25 7 1 29 1 30 32 40 91 59 59 70
REMARK Flexibility Score: inf
ROOT
ATOM      1  C   UNL A   1      35.823  19.924  24.962  1.00  0.00     0.002 C 
ENDROOT
BRANCH   1   2
ATOM      2  C   UNL A   1      35.828  21.428  25.281  1.00  0.00     0.021 C 
BRANCH   2   3
ATOM      3  C   UNL A   1      35.082  21.816  26.567  1.00  0.00     0.116 C 
BRANCH   3   4
ATOM      4  N   UNL A   1      34.739  23.223  26.534  1.00  0.00    -0.352 N 
ATOM      5  C   UNL A   1      34.266  23.868  25.438  1.00  0.00     0.251 C 
ATOM      6  O   UNL A   1      34.818  24.881  25.028  1.00  0.00    -0.270 OA
ATOM      7  H   UNL A   1      34.856  23.745  27.360  1.00  0.00     0.163 HD
BRANCH   5   8
ATOM      8  C   UNL A   1      32.971  23.365  24.891  1.00  0.00     0.067 C 
ATOM      9  C   UNL A   1      31.117  26.927  24.309  1.00  0.00     0.026 A 
ATOM     10  C   UNL A   1      31.407  27.706  25.461  1.00  0.00     0.033 A 
ATOM     11  C   UNL A   1      31.403  25.554  24.403  1.00  0.00     0.135 A 
ATOM     12  C   UNL A   1      31.753  27.138  26.685  1.00  0.00     0.042 A 
ATOM     13  C   UNL A   1      31.633  24.986  25.682  1.00  0.00     0.019 A 
ATOM     14  O   UNL A   1      31.551  24.720  23.300  1.00  0.00    -0.475 OA
ATOM     15  Cl  UNL A   1      32.104  28.150  28.027  1.00  0.00    -0.084 Cl
ATOM     16  C   UNL A   1      31.785  25.766  26.824  1.00  0.00     0.032 A 
ATOM     17  C   UNL A   1      31.945  23.542  25.746  1.00  0.00     0.025 C 
ATOM     18  C   UNL A   1      32.689  23.755  23.447  1.00  0.00     0.314 C 
BRANCH   9  19
ATOM     19  C   UNL A   1      30.309  27.638  23.278  1.00  0.00    -0.015 A 
ATOM     20  C   UNL A   1      28.813  29.823  22.268  1.00  0.00     0.082 A 
ATOM     21  C   UNL A   1      30.173  29.714  21.978  1.00  0.00     0.022 A 
ATOM     22  C   UNL A   1      28.166  28.796  22.958  1.00  0.00     0.022 A 
ATOM     23  C   UNL A   1      30.907  28.617  22.455  1.00  0.00     0.010 A 
ATOM     24  C   UNL A   1      28.910  27.707  23.445  1.00  0.00     0.010 A 
BRANCH  20  25
ATOM     25  S   UNL A   1      27.997  31.340  21.850  1.00  0.00     0.238 S 
ATOM     26  O   UNL A   1      27.012  31.624  22.870  1.00  0.00    -0.207 OA
ATOM     27  O   UNL A   1      27.676  31.313  20.445  1.00  0.00    -0.207 OA
BRANCH  25  28
ATOM     28  N   UNL A   1      29.164  32.544  22.004  1.00  0.00    -0.225 NA
ATOM     29  H   UNL A   1      29.166  32.895  22.961  1.00  0.00     0.137 HD
ATOM     30  H   UNL A   1      28.951  33.307  21.362  1.00  0.00     0.137 HD
ENDBRANCH  25  28
ENDBRANCH  20  25
ENDBRANCH   9  19
BRANCH  18  31
ATOM     31  C   UNL A   1      32.471  22.449  22.647  1.00  0.00     0.429 C 
ATOM     32  F   UNL A   1      31.195  22.008  22.701  1.00  0.00    -0.167 F 
ATOM     33  F   UNL A   1      32.798  22.613  21.343  1.00  0.00    -0.167 F 
ATOM     34  F   UNL A   1      33.250  21.428  23.100  1.00  0.00    -0.167 F 
ENDBRANCH  18  31
ENDBRANCH   5   8
ENDBRANCH   3   4
ENDBRANCH   2   3
ENDBRANCH   1   2
BRANCH   1  35
ATOM     35  C   UNL A   1      37.199  19.252  25.001  1.00  0.00     0.002 C 
BRANCH  35  36
ATOM     36  C   UNL A   1      38.379  20.218  24.911  1.00  0.00     0.021 C 
BRANCH  36  37
ATOM     37  C   UNL A   1      39.279  20.231  26.140  1.00  0.00     0.116 C 
BRANCH  37  38
ATOM     38  N   UNL A   1      40.294  19.191  26.098  1.00  0.00    -0.352 N 
ATOM     39  C   UNL A   1      41.661  19.314  26.136  1.00  0.00     0.251 C 
ATOM     40  H   UNL A   1      39.954  18.269  26.035  1.00  0.00     0.163 HD
ATOM     41  O   UNL A   1      42.381  18.344  25.924  1.00  0.00    -0.269 OA
BRANCH  39  42
ATOM     42  C   UNL A   1      42.263  20.635  26.406  1.00  0.00     0.039 A 
ATOM     43  C   UNL A   1      42.603  21.454  25.327  1.00  0.00     0.014 A 
ATOM     44  C   UNL A   1      42.474  21.070  27.718  1.00  0.00     0.014 A 
ATOM     45  C   UNL A   1      43.102  22.736  25.566  1.00  0.00     0.010 A 
ATOM     46  C   UNL A   1      42.892  22.375  27.952  1.00  0.00     0.010 A 
ATOM     47  C   UNL A   1      43.217  23.219  26.879  1.00  0.00    -0.014 A 
BRANCH  47  48
ATOM     48  C   UNL A   1      43.672  24.606  27.147  1.00  0.00     0.031 A 
ATOM     49  C   UNL A   1      42.701  25.640  27.639  1.00  0.00     0.074 A 
ATOM     50  C   UNL A   1      44.945  24.951  26.876  1.00  0.00     0.049 A 
ATOM     51  N   UNL A   1      42.896  26.913  27.879  1.00  0.00    -0.248 NA
ATOM     52  C   UNL A   1      41.318  25.192  27.858  1.00  0.00     0.031 C 
ATOM     53  C   UNL A   1      45.964  24.053  26.332  1.00  0.00     0.029 A 
ATOM     54  N   UNL A   1      45.594  26.153  27.005  1.00  0.00    -0.354 N 
ATOM     55  C   UNL A   1      41.661  27.417  28.261  1.00  0.00     0.074 A 
ATOM     56  C   UNL A   1      40.712  26.330  28.159  1.00  0.00     0.031 C 
ATOM     57  C   UNL A   1      47.114  24.730  26.189  1.00  0.00     0.029 A 
ATOM     58  C   UNL A   1      46.903  26.117  26.594  1.00  0.00     0.049 A 
ATOM     59  H   UNL A   1      45.162  26.964  27.360  1.00  0.00     0.167 HD
ATOM     60  C   UNL A   1      41.351  28.668  28.680  1.00  0.00     0.037 A 
ATOM     61  C   UNL A   1      47.828  27.094  26.536  1.00  0.00     0.037 A 
ATOM     62  C   UNL A   1      42.305  29.740  28.790  1.00  0.00     0.049 A 
ATOM     63  C   UNL A   1      47.468  28.474  27.012  1.00  0.00     0.074 A 
ATOM     64  C   UNL A   1      42.113  31.021  29.278  1.00  0.00     0.029 A 
ATOM     65  N   UNL A   1      43.632  29.661  28.389  1.00  0.00    -0.354 N 
ATOM     66  N   UNL A   1      46.319  28.920  27.461  1.00  0.00    -0.248 NA
ATOM     67  C   UNL A   1      48.534  29.484  26.985  1.00  0.00     0.031 C 
ATOM     68  C   UNL A   1      43.305  31.735  29.112  1.00  0.00     0.029 A 
ATOM     69  C   UNL A   1      44.261  30.882  28.584  1.00  0.00     0.049 A 
ATOM     70  H   UNL A   1      44.064  28.857  28.021  1.00  0.00     0.167 HD
ATOM     71  C   UNL A   1      46.527  30.253  27.786  1.00  0.00     0.074 A 
ATOM     72  C   UNL A   1      47.918  30.538  27.500  1.00  0.00     0.031 C 
ATOM     73  C   UNL A   1      45.644  31.157  28.281  1.00  0.00     0.037 A 
BRANCH  60  74
ATOM     74  C   UNL A   1      39.913  28.941  29.031  1.00  0.00     0.064 A 
ATOM     75  C   UNL A   1      39.431  28.807  30.343  1.00  0.00     0.173 A 
ATOM     76  C   UNL A   1      39.003  29.336  28.039  1.00  0.00     0.173 A 
ATOM     77  F   UNL A   1      40.254  28.425  31.331  1.00  0.00    -0.203 F 
ATOM     78  C   UNL A   1      38.084  29.005  30.637  1.00  0.00     0.198 A 
ATOM     79  C   UNL A   1      37.665  29.571  28.344  1.00  0.00     0.198 A 
ATOM     80  F   UNL A   1      39.409  29.488  26.769  1.00  0.00    -0.203 F 
ATOM     81  F   UNL A   1      37.633  28.795  31.882  1.00  0.00    -0.200 F 
ATOM     82  C   UNL A   1      37.204  29.391  29.638  1.00  0.00     0.200 A 
ATOM     83  F   UNL A   1      36.818  29.959  27.379  1.00  0.00    -0.200 F 
ATOM     84  F   UNL A   1      35.906  29.576  29.921  1.00  0.00    -0.200 F 
ENDBRANCH  60  74
BRANCH  61  85
ATOM     85  C   UNL A   1      49.185  26.780  26.021  1.00  0.00     0.064 A 
ATOM     86  C   UNL A   1      49.514  26.987  24.675  1.00  0.00     0.173 A 
ATOM     87  C   UNL A   1      50.194  26.309  26.875  1.00  0.00     0.173 A 
ATOM     88  F   UNL A   1      48.579  27.418  23.815  1.00  0.00    -0.203 F 
ATOM     89  C   UNL A   1      50.800  26.730  24.201  1.00  0.00     0.198 A 
ATOM     90  C   UNL A   1      51.485  26.081  26.407  1.00  0.00     0.198 A 
ATOM     91  F   UNL A   1      49.931  26.104  28.175  1.00  0.00    -0.203 F 
ATOM     92  F   UNL A   1      51.081  26.910  22.904  1.00  0.00    -0.200 F 
ATOM     93  C   UNL A   1      51.787  26.288  25.070  1.00  0.00     0.200 A 
ATOM     94  F   UNL A   1      52.440  25.673  27.255  1.00  0.00    -0.200 F 
ATOM     95  F   UNL A   1      53.027  26.062  24.619  1.00  0.00    -0.200 F 
ENDBRANCH  61  85
BRANCH  73  96
ATOM     96  C   UNL A   1      46.160  32.541  28.562  1.00  0.00     0.064 A 
ATOM     97  C   UNL A   1      46.740  32.877  29.795  1.00  0.00     0.173 A 
ATOM     98  C   UNL A   1      46.109  33.533  27.571  1.00  0.00     0.173 A 
ATOM     99  F   UNL A   1      46.800  31.971  30.782  1.00  0.00    -0.203 F 
ATOM    100  C   UNL A   1      47.226  34.161  30.032  1.00  0.00     0.198 A 
ATOM    101  C   UNL A   1      46.627  34.804  27.799  1.00  0.00     0.198 A 
ATOM    102  F   UNL A   1      45.571  33.264  26.371  1.00  0.00    -0.203 F 
ATOM    103  F   UNL A   1      47.728  34.472  31.234  1.00  0.00    -0.200 F 
ATOM    104  C   UNL A   1      47.176  35.120  29.032  1.00  0.00     0.200 A 
ATOM    105  F   UNL A   1      46.593  35.725  26.825  1.00  0.00    -0.200 F 
ATOM    106  F   UNL A   1      47.654  36.352  29.259  1.00  0.00    -0.200 F 
ENDBRANCH  73  96
ENDBRANCH  47  48
ENDBRANCH  39  42
ENDBRANCH  37  38
ENDBRANCH  36  37
ENDBRANCH  35  36
ENDBRANCH   1  35
TORSDOF 17
ENDMDL
MODEL 3
REMARK VINA RESULT:     -13.5      1.496      2.186
REMARK SMILES NS(=O)(=O)c1ccc(-c2cc(Cl)cc3c2O[C@H](C(F)(F)F)C(C(=O)NCCCCCCNC(=O)c2ccc(-c4c5nc(c(-c6c(F)c(F)c(F)c(F)c6F)c6ccc([nH]6)c(-c6c(F)c(F)c(F)c(F)c6F)c6nc(c(-c7c(F)c(F)c(F)c(F)c7F)c7ccc4[nH]7)C=C6)C=C5)cc2)=C3)cc1
REMARK SMILES IDX 28 1 27 2 26 3 25 4 23 5 24 6 22 8 9 9 10 10 15 11 11 12
REMARK SMILES IDX 14 13 16 14 12 15 13 16 98 17 17 18 8 19 5 20 6 21 100 22
REMARK SMILES IDX 7 23 99 24 2 25 3 26 4 27 1 28 18 31 19 32 20 33 21 34 29 35
REMARK SMILES IDX 30 36 31 37 32 38 33 39 34 41 35 42 36 43 97 44 37 45 96 46
REMARK SMILES IDX 38 47 39 48 40 49 90 50 41 51 95 52 89 53 91 54 42 55 94 56
REMARK SMILES IDX 88 57 87 58 43 60 75 61 55 62 74 63 56 64 59 65 73 66 92 67
REMARK SMILES IDX 57 68 58 69 72 71 93 72 60 73 44 74 45 75 53 76 46 77 47 78
REMARK SMILES IDX 51 79 54 80 48 81 49 82 52 83 50 84 76 85 77 86 85 87 78 88
REMARK SMILES IDX 79 89 83 90 86 91 80 92 81 93 84 94 82 95 61 96 62 97 70 98
REMARK SMILES IDX 63 99 64 100 68 101 71 102 65 103 66 104 69 105 67 106
REMARK H PARENT 25 7 1 29 1 30 32 40 91 59 59 70
REMARK Flexibility Score: inf
ROOT
ATOM      1  C   UNL A   1      32.520  29.915  26.234  1.00  0.00     0.002 C 
ENDROOT
BRANCH   1   2
ATOM      2  C   UNL A   1      32.205  29.391  24.823  1.00  0.00     0.021 C 
BRANCH   2   3
ATOM      3  C   UNL A   1      33.431  28.948  24.012  1.00  0.00     0.116 C 
BRANCH   3   4
ATOM      4  N   UNL A   1      33.996  27.744  24.587  1.00  0.00    -0.352 N 
ATOM      5  C   UNL A   1      33.268  26.659  24.953  1.00  0.00     0.251 C 
ATOM      6  O   UNL A   1      33.359  26.205  26.087  1.00  0.00    -0.270 OA
ATOM      7  H   UNL A   1      34.971  27.712  24.722  1.00  0.00     0.163 HD
BRANCH   5   8
ATOM      8  C   UNL A   1      32.508  25.982  23.860  1.00  0.00     0.067 C 
ATOM      9  C   UNL A   1      33.551  22.144  24.661  1.00  0.00     0.026 A 
ATOM     10  C   UNL A   1      34.941  22.174  24.953  1.00  0.00     0.033 A 
ATOM     11  C   UNL A   1      33.018  23.302  24.069  1.00  0.00     0.135 A 
ATOM     12  C   UNL A   1      35.782  23.188  24.502  1.00  0.00     0.042 A 
ATOM     13  C   UNL A   1      33.905  24.259  23.511  1.00  0.00     0.019 A 
ATOM     14  O   UNL A   1      31.662  23.611  24.062  1.00  0.00    -0.475 OA
ATOM     15  Cl  UNL A   1      37.449  23.161  24.912  1.00  0.00    -0.084 Cl
ATOM     16  C   UNL A   1      35.281  24.195  23.703  1.00  0.00     0.032 A 
ATOM     17  C   UNL A   1      33.314  25.473  22.908  1.00  0.00     0.025 C 
ATOM     18  C   UNL A   1      31.392  25.060  24.331  1.00  0.00     0.314 C 
BRANCH   9  19
ATOM     19  C   UNL A   1      32.931  20.794  24.782  1.00  0.00    -0.015 A 
ATOM     20  C   UNL A   1      32.951  17.961  24.718  1.00  0.00     0.082 A 
ATOM     21  C   UNL A   1      33.137  18.634  25.926  1.00  0.00     0.022 A 
ATOM     22  C   UNL A   1      32.640  18.680  23.563  1.00  0.00     0.022 A 
ATOM     23  C   UNL A   1      33.098  20.036  25.961  1.00  0.00     0.010 A 
ATOM     24  C   UNL A   1      32.618  20.087  23.602  1.00  0.00     0.010 A 
BRANCH  20  25
ATOM     25  S   UNL A   1      33.252  16.214  24.690  1.00  0.00     0.238 S 
ATOM     26  O   UNL A   1      33.664  15.843  23.355  1.00  0.00    -0.207 OA
ATOM     27  O   UNL A   1      32.170  15.555  25.381  1.00  0.00    -0.207 OA
BRANCH  25  28
ATOM     28  N   UNL A   1      34.602  15.966  25.664  1.00  0.00    -0.225 NA
ATOM     29  H   UNL A   1      34.328  15.445  26.497  1.00  0.00     0.137 HD
ATOM     30  H   UNL A   1      34.992  16.867  25.940  1.00  0.00     0.137 HD
ENDBRANCH  25  28
ENDBRANCH  20  25
ENDBRANCH   9  19
BRANCH  18  31
ATOM     31  C   UNL A   1      30.078  25.553  23.681  1.00  0.00     0.429 C 
ATOM     32  F   UNL A   1      29.483  24.609  22.920  1.00  0.00    -0.167 F 
ATOM     33  F   UNL A   1      29.185  25.950  24.620  1.00  0.00    -0.167 F 
ATOM     34  F   UNL A   1      30.271  26.632  22.874  1.00  0.00    -0.167 F 
ENDBRANCH  18  31
ENDBRANCH   5   8
ENDBRANCH   3   4
ENDBRANCH   2   3
ENDBRANCH   1   2
BRANCH   1  35
ATOM     35  C   UNL A   1      31.411  30.756  26.873  1.00  0.00     0.002 C 
BRANCH  35  36
ATOM     36  C   UNL A   1      31.539  32.260  26.633  1.00  0.00     0.021 C 
BRANCH  36  37
ATOM     37  C   UNL A   1      32.714  32.915  27.349  1.00  0.00     0.116 C 
BRANCH  37  38
ATOM     38  N   UNL A   1      32.448  34.299  27.707  1.00  0.00    -0.352 N 
ATOM     39  C   UNL A   1      33.031  35.067  28.684  1.00  0.00     0.251 C 
ATOM     40  H   UNL A   1      31.753  34.748  27.173  1.00  0.00     0.163 HD
ATOM     41  O   UNL A   1      32.575  36.169  28.966  1.00  0.00    -0.269 OA
BRANCH  39  42
ATOM     42  C   UNL A   1      34.200  34.541  29.417  1.00  0.00     0.039 A 
ATOM     43  C   UNL A   1      34.004  33.968  30.676  1.00  0.00     0.014 A 
ATOM     44  C   UNL A   1      35.480  34.601  28.859  1.00  0.00     0.014 A 
ATOM     45  C   UNL A   1      35.086  33.399  31.349  1.00  0.00     0.010 A 
ATOM     46  C   UNL A   1      36.539  33.961  29.494  1.00  0.00     0.010 A 
ATOM     47  C   UNL A   1      36.355  33.360  30.748  1.00  0.00    -0.014 A 
BRANCH  47  48
ATOM     48  C   UNL A   1      37.498  32.690  31.417  1.00  0.00     0.031 A 
ATOM     49  C   UNL A   1      38.176  31.518  30.766  1.00  0.00     0.074 A 
ATOM     50  C   UNL A   1      37.877  33.092  32.644  1.00  0.00     0.049 A 
ATOM     51  N   UNL A   1      39.153  30.772  31.216  1.00  0.00    -0.248 NA
ATOM     52  C   UNL A   1      37.665  31.111  29.449  1.00  0.00     0.031 C 
ATOM     53  C   UNL A   1      37.253  34.174  33.407  1.00  0.00     0.029 A 
ATOM     54  N   UNL A   1      38.867  32.627  33.473  1.00  0.00    -0.354 N 
ATOM     55  C   UNL A   1      39.361  29.800  30.246  1.00  0.00     0.074 A 
ATOM     56  C   UNL A   1      38.368  30.013  29.216  1.00  0.00     0.031 C 
ATOM     57  C   UNL A   1      37.884  34.300  34.584  1.00  0.00     0.029 A 
ATOM     58  C   UNL A   1      38.930  33.285  34.676  1.00  0.00     0.049 A 
ATOM     59  H   UNL A   1      39.474  31.891  33.228  1.00  0.00     0.167 HD
ATOM     60  C   UNL A   1      40.309  28.833  30.208  1.00  0.00     0.037 A 
ATOM     61  C   UNL A   1      39.731  33.086  35.740  1.00  0.00     0.037 A 
ATOM     62  C   UNL A   1      41.301  28.636  31.233  1.00  0.00     0.049 A 
ATOM     63  C   UNL A   1      40.782  32.013  35.677  1.00  0.00     0.074 A 
ATOM     64  C   UNL A   1      42.354  27.739  31.255  1.00  0.00     0.029 A 
ATOM     65  N   UNL A   1      41.353  29.340  32.429  1.00  0.00    -0.354 N 
ATOM     66  N   UNL A   1      41.032  31.157  34.715  1.00  0.00    -0.248 NA
ATOM     67  C   UNL A   1      41.667  31.883  36.841  1.00  0.00     0.031 C 
ATOM     68  C   UNL A   1      43.002  27.855  32.490  1.00  0.00     0.029 A 
ATOM     69  C   UNL A   1      42.396  28.872  33.212  1.00  0.00     0.049 A 
ATOM     70  H   UNL A   1      40.739  30.066  32.683  1.00  0.00     0.167 HD
ATOM     71  C   UNL A   1      42.113  30.401  35.147  1.00  0.00     0.074 A 
ATOM     72  C   UNL A   1      42.482  30.913  36.451  1.00  0.00     0.031 C 
ATOM     73  C   UNL A   1      42.744  29.379  34.517  1.00  0.00     0.037 A 
BRANCH  60  74
ATOM     74  C   UNL A   1      40.298  27.904  29.025  1.00  0.00     0.064 A 
ATOM     75  C   UNL A   1      41.013  28.189  27.850  1.00  0.00     0.173 A 
ATOM     76  C   UNL A   1      39.557  26.712  29.064  1.00  0.00     0.173 A 
ATOM     77  F   UNL A   1      41.732  29.318  27.753  1.00  0.00    -0.203 F 
ATOM     78  C   UNL A   1      40.941  27.347  26.743  1.00  0.00     0.198 A 
ATOM     79  C   UNL A   1      39.520  25.853  27.969  1.00  0.00     0.198 A 
ATOM     80  F   UNL A   1      38.862  26.383  30.163  1.00  0.00    -0.203 F 
ATOM     81  F   UNL A   1      41.569  27.682  25.606  1.00  0.00    -0.200 F 
ATOM     82  C   UNL A   1      40.199  26.179  26.805  1.00  0.00     0.200 A 
ATOM     83  F   UNL A   1      38.814  24.715  28.036  1.00  0.00    -0.200 F 
ATOM     84  F   UNL A   1      40.127  25.372  25.737  1.00  0.00    -0.200 F 
ENDBRANCH  60  74
BRANCH  61  85
ATOM     85  C   UNL A   1      39.569  33.945  36.941  1.00  0.00     0.064 A 
ATOM     86  C   UNL A   1      40.140  35.223  37.000  1.00  0.00     0.173 A 
ATOM     87  C   UNL A   1      38.799  33.522  38.036  1.00  0.00     0.173 A 
ATOM     88  F   UNL A   1      40.899  35.665  35.987  1.00  0.00    -0.203 F 
ATOM     89  C   UNL A   1      39.952  36.044  38.111  1.00  0.00     0.198 A 
ATOM     90  C   UNL A   1      38.588  34.353  39.132  1.00  0.00     0.198 A 
ATOM     91  F   UNL A   1      38.224  32.309  38.023  1.00  0.00    -0.203 F 
ATOM     92  F   UNL A   1      40.532  37.250  38.155  1.00  0.00    -0.200 F 
ATOM     93  C   UNL A   1      39.168  35.612  39.171  1.00  0.00     0.200 A 
ATOM     94  F   UNL A   1      37.813  33.940  40.145  1.00  0.00    -0.200 F 
ATOM     95  F   UNL A   1      38.970  36.409  40.229  1.00  0.00    -0.200 F 
ENDBRANCH  61  85
BRANCH  73  96
ATOM     96  C   UNL A   1      43.914  28.752  35.222  1.00  0.00     0.064 A 
ATOM     97  C   UNL A   1      43.751  27.685  36.118  1.00  0.00     0.173 A 
ATOM     98  C   UNL A   1      45.220  29.198  34.966  1.00  0.00     0.173 A 
ATOM     99  F   UNL A   1      42.523  27.230  36.410  1.00  0.00    -0.203 F 
ATOM    100  C   UNL A   1      44.849  27.107  36.752  1.00  0.00     0.198 A 
ATOM    101  C   UNL A   1      46.317  28.595  35.574  1.00  0.00     0.198 A 
ATOM    102  F   UNL A   1      45.434  30.211  34.112  1.00  0.00    -0.203 F 
ATOM    103  F   UNL A   1      44.664  26.123  37.643  1.00  0.00    -0.200 F 
ATOM    104  C   UNL A   1      46.131  27.557  36.473  1.00  0.00     0.200 A 
ATOM    105  F   UNL A   1      47.556  29.021  35.290  1.00  0.00    -0.200 F 
ATOM    106  F   UNL A   1      47.186  26.992  37.075  1.00  0.00    -0.200 F 
ENDBRANCH  73  96
ENDBRANCH  47  48
ENDBRANCH  39  42
ENDBRANCH  37  38
ENDBRANCH  36  37
ENDBRANCH  35  36
ENDBRANCH   1  35
TORSDOF 17
ENDMDL
