MODEL 1
REMARK VINA RESULT:     -10.0      0.000      0.000
REMARK SMILES CC/C=C/C/C=C/C/C=C/C/C=C/CC/C=C/COCC(=O)NCCCCCCNC(=O)c1ccc(-c2c3nc(c(-c4c(F)c(F)c(F)c(F)c4F)c4ccc([nH]4)c(-c4c(F)c(F)c(F)c(F)c4F)c4nc(c(-c5c(F)c(F)c(F)c(F)c5F)c5ccc2[nH]5)C=C4)C=C3)cc1
REMARK SMILES IDX 19 1 18 2 17 3 16 4 15 5 14 6 13 7 12 8 11 9 10 10 9 11 8 12
REMARK SMILES IDX 7 13 6 14 5 15 4 16 3 17 2 18 1 19 20 20 21 21 22 22 23 23
REMARK SMILES IDX 24 25 25 26 26 27 27 28 28 29 29 30 30 31 31 32 32 34 33 35
REMARK SMILES IDX 34 36 95 37 35 38 94 39 36 40 37 41 38 42 88 43 39 44 93 45
REMARK SMILES IDX 87 46 89 47 40 48 92 49 86 50 85 51 41 53 73 54 53 55 72 56
REMARK SMILES IDX 54 57 57 58 71 59 90 60 55 61 56 62 70 64 91 65 58 66 42 67
REMARK SMILES IDX 43 68 51 69 44 70 45 71 49 72 52 73 46 74 47 75 50 76 48 77
REMARK SMILES IDX 74 78 75 79 83 80 76 81 77 82 81 83 84 84 78 85 79 86 82 87
REMARK SMILES IDX 80 88 59 89 60 90 68 91 61 92 62 93 66 94 69 95 63 96 64 97
REMARK SMILES IDX 67 98 65 99
REMARK H PARENT 23 24 30 33 89 52 57 63
REMARK Flexibility Score: inf
ROOT
ATOM      1  O   UNL A   1      33.041  23.147  22.142  1.00  0.00    -0.368 OA
ENDROOT
BRANCH   1   2
ATOM      2  C   UNL A   1      31.907  22.516  22.740  1.00  0.00     0.188 C 
BRANCH   2   3
ATOM      3  C   UNL A   1      31.229  23.462  23.679  1.00  0.00    -0.003 C 
ATOM      4  C   UNL A   1      31.103  23.217  24.992  1.00  0.00    -0.029 C 
BRANCH   4   5
ATOM      5  C   UNL A   1      30.283  24.049  25.938  1.00  0.00     0.031 C 
BRANCH   5   6
ATOM      6  C   UNL A   1      31.025  25.317  26.394  1.00  0.00     0.031 C 
BRANCH   6   7
ATOM      7  C   UNL A   1      32.518  25.216  26.228  1.00  0.00    -0.031 C 
ATOM      8  C   UNL A   1      33.272  26.125  25.594  1.00  0.00    -0.027 C 
BRANCH   8   9
ATOM      9  C   UNL A   1      34.753  25.982  25.388  1.00  0.00     0.054 C 
BRANCH   9  10
ATOM     10  C   UNL A   1      35.108  24.545  25.133  1.00  0.00    -0.027 C 
ATOM     11  C   UNL A   1      35.740  23.758  26.020  1.00  0.00    -0.027 C 
BRANCH  11  12
ATOM     12  C   UNL A   1      36.139  22.336  25.750  1.00  0.00     0.054 C 
BRANCH  12  13
ATOM     13  C   UNL A   1      35.009  21.585  25.107  1.00  0.00    -0.027 C 
ATOM     14  C   UNL A   1      34.024  20.976  25.789  1.00  0.00    -0.027 C 
BRANCH  14  15
ATOM     15  C   UNL A   1      32.911  20.199  25.147  1.00  0.00     0.054 C 
BRANCH  15  16
ATOM     16  C   UNL A   1      33.401  18.863  24.669  1.00  0.00    -0.027 C 
ATOM     17  C   UNL A   1      32.939  17.685  25.119  1.00  0.00    -0.031 C 
BRANCH  17  18
ATOM     18  C   UNL A   1      33.440  16.352  24.645  1.00  0.00     0.023 C 
ATOM     19  C   UNL A   1      34.012  16.448  23.239  1.00  0.00     0.008 C 
ENDBRANCH  17  18
ENDBRANCH  15  16
ENDBRANCH  14  15
ENDBRANCH  12  13
ENDBRANCH  11  12
ENDBRANCH   9  10
ENDBRANCH   8   9
ENDBRANCH   6   7
ENDBRANCH   5   6
ENDBRANCH   4   5
ENDBRANCH   2   3
ENDBRANCH   1   2
BRANCH   1  20
ATOM     20  C   UNL A   1      33.038  24.566  22.250  1.00  0.00     0.260 C 
BRANCH  20  21
ATOM     21  C   UNL A   1      32.548  25.368  21.037  1.00  0.00     0.246 C 
ATOM     22  O   UNL A   1      33.033  25.225  19.916  1.00  0.00    -0.272 OA
ATOM     23  N   UNL A   1      31.517  26.247  21.206  1.00  0.00    -0.354 N 
ATOM     24  H   UNL A   1      31.180  26.679  20.389  1.00  0.00     0.163 HD
BRANCH  23  25
ATOM     25  C   UNL A   1      30.859  26.624  22.441  1.00  0.00     0.116 C 
BRANCH  25  26
ATOM     26  C   UNL A   1      31.429  27.930  22.994  1.00  0.00     0.021 C 
BRANCH  26  27
ATOM     27  C   UNL A   1      30.698  28.459  24.237  1.00  0.00     0.002 C 
BRANCH  27  28
ATOM     28  C   UNL A   1      31.217  29.793  24.779  1.00  0.00     0.002 C 
BRANCH  28  29
ATOM     29  C   UNL A   1      32.520  29.704  25.577  1.00  0.00     0.021 C 
BRANCH  29  30
ATOM     30  C   UNL A   1      32.437  30.269  26.991  1.00  0.00     0.116 C 
BRANCH  30  31
ATOM     31  N   UNL A   1      32.559  31.720  27.013  1.00  0.00    -0.352 N 
ATOM     32  C   UNL A   1      33.530  32.503  27.585  1.00  0.00     0.251 C 
ATOM     33  H   UNL A   1      31.841  32.209  26.552  1.00  0.00     0.163 HD
ATOM     34  O   UNL A   1      33.377  33.719  27.668  1.00  0.00    -0.269 OA
BRANCH  32  35
ATOM     35  C   UNL A   1      34.753  31.878  28.129  1.00  0.00     0.039 A 
ATOM     36  C   UNL A   1      35.890  32.667  28.318  1.00  0.00     0.014 A 
ATOM     37  C   UNL A   1      34.774  30.521  28.463  1.00  0.00     0.014 A 
ATOM     38  C   UNL A   1      37.024  32.113  28.916  1.00  0.00     0.010 A 
ATOM     39  C   UNL A   1      35.877  29.989  29.125  1.00  0.00     0.010 A 
ATOM     40  C   UNL A   1      37.010  30.782  29.366  1.00  0.00    -0.014 A 
BRANCH  40  41
ATOM     41  C   UNL A   1      38.158  30.210  30.115  1.00  0.00     0.031 A 
ATOM     42  C   UNL A   1      38.430  30.637  31.529  1.00  0.00     0.074 A 
ATOM     43  C   UNL A   1      39.000  29.362  29.491  1.00  0.00     0.049 A 
ATOM     44  N   UNL A   1      39.429  30.316  32.314  1.00  0.00    -0.248 NA
ATOM     45  C   UNL A   1      37.466  31.567  32.136  1.00  0.00     0.031 C 
ATOM     46  C   UNL A   1      38.867  28.906  28.107  1.00  0.00     0.029 A 
ATOM     47  N   UNL A   1      40.144  28.746  29.934  1.00  0.00    -0.354 N 
ATOM     48  C   UNL A   1      39.219  31.010  33.498  1.00  0.00     0.074 A 
ATOM     49  C   UNL A   1      38.028  31.811  33.312  1.00  0.00     0.031 C 
ATOM     50  C   UNL A   1      39.875  28.067  27.821  1.00  0.00     0.029 A 
ATOM     51  C   UNL A   1      40.753  27.965  28.983  1.00  0.00     0.049 A 
ATOM     52  H   UNL A   1      40.494  28.853  30.849  1.00  0.00     0.167 HD
ATOM     53  C   UNL A   1      39.941  30.965  34.642  1.00  0.00     0.037 A 
ATOM     54  C   UNL A   1      41.898  27.259  29.034  1.00  0.00     0.037 A 
ATOM     55  C   UNL A   1      41.117  30.155  34.826  1.00  0.00     0.049 A 
ATOM     56  C   UNL A   1      42.702  27.255  30.307  1.00  0.00     0.074 A 
ATOM     57  C   UNL A   1      41.883  29.995  35.967  1.00  0.00     0.029 A 
ATOM     58  N   UNL A   1      41.704  29.376  33.839  1.00  0.00    -0.354 N 
ATOM     59  N   UNL A   1      42.452  27.857  31.444  1.00  0.00    -0.248 NA
ATOM     60  C   UNL A   1      43.946  26.472  30.303  1.00  0.00     0.031 C 
ATOM     61  C   UNL A   1      42.968  29.168  35.654  1.00  0.00     0.029 A 
ATOM     62  C   UNL A   1      42.843  28.761  34.335  1.00  0.00     0.049 A 
ATOM     63  H   UNL A   1      41.362  29.275  32.921  1.00  0.00     0.167 HD
ATOM     64  C   UNL A   1      43.490  27.505  32.298  1.00  0.00     0.074 A 
ATOM     65  C   UNL A   1      44.363  26.623  31.553  1.00  0.00     0.031 C 
ATOM     66  C   UNL A   1      43.702  27.882  33.583  1.00  0.00     0.037 A 
BRANCH  53  67
ATOM     67  C   UNL A   1      39.484  31.821  35.789  1.00  0.00     0.064 A 
ATOM     68  C   UNL A   1      39.992  33.113  35.993  1.00  0.00     0.173 A 
ATOM     69  C   UNL A   1      38.493  31.360  36.671  1.00  0.00     0.173 A 
ATOM     70  F   UNL A   1      40.946  33.600  35.185  1.00  0.00    -0.203 F 
ATOM     71  C   UNL A   1      39.547  33.899  37.054  1.00  0.00     0.198 A 
ATOM     72  C   UNL A   1      38.027  32.162  37.709  1.00  0.00     0.198 A 
ATOM     73  F   UNL A   1      37.968  30.135  36.519  1.00  0.00    -0.203 F 
ATOM     74  F   UNL A   1      40.083  35.111  37.257  1.00  0.00    -0.200 F 
ATOM     75  C   UNL A   1      38.560  33.428  37.905  1.00  0.00     0.200 A 
ATOM     76  F   UNL A   1      37.061  31.710  38.521  1.00  0.00    -0.200 F 
ATOM     77  F   UNL A   1      38.126  34.190  38.918  1.00  0.00    -0.200 F 
ENDBRANCH  53  67
BRANCH  54  78
ATOM     78  C   UNL A   1      42.353  26.490  27.844  1.00  0.00     0.064 A 
ATOM     79  C   UNL A   1      41.946  25.163  27.643  1.00  0.00     0.173 A 
ATOM     80  C   UNL A   1      43.211  27.059  26.891  1.00  0.00     0.173 A 
ATOM     81  F   UNL A   1      41.144  24.568  28.537  1.00  0.00    -0.203 F 
ATOM     82  C   UNL A   1      42.396  24.430  26.548  1.00  0.00     0.198 A 
ATOM     83  C   UNL A   1      43.635  26.334  25.779  1.00  0.00     0.198 A 
ATOM     84  F   UNL A   1      43.627  28.326  27.032  1.00  0.00    -0.203 F 
ATOM     85  F   UNL A   1      42.033  23.148  26.409  1.00  0.00    -0.200 F 
ATOM     86  C   UNL A   1      43.236  25.017  25.613  1.00  0.00     0.200 A 
ATOM     87  F   UNL A   1      44.431  26.911  24.870  1.00  0.00    -0.200 F 
ATOM     88  F   UNL A   1      43.666  24.312  24.559  1.00  0.00    -0.200 F 
ENDBRANCH  54  78
BRANCH  66  89
ATOM     89  C   UNL A   1      44.909  27.321  34.279  1.00  0.00     0.064 A 
ATOM     90  C   UNL A   1      44.809  26.242  35.170  1.00  0.00     0.173 A 
ATOM     91  C   UNL A   1      46.186  27.836  34.014  1.00  0.00     0.173 A 
ATOM     92  F   UNL A   1      43.608  25.722  35.471  1.00  0.00    -0.203 F 
ATOM     93  C   UNL A   1      45.941  25.715  35.786  1.00  0.00     0.198 A 
ATOM     94  C   UNL A   1      47.319  27.285  34.605  1.00  0.00     0.198 A 
ATOM     95  F   UNL A   1      46.338  28.864  33.165  1.00  0.00    -0.203 F 
ATOM     96  F   UNL A   1      45.817  24.715  36.669  1.00  0.00    -0.200 F 
ATOM     97  C   UNL A   1      47.196  26.230  35.496  1.00  0.00     0.200 A 
ATOM     98  F   UNL A   1      48.532  27.774  34.311  1.00  0.00    -0.200 F 
ATOM     99  F   UNL A   1      48.285  25.713  36.079  1.00  0.00    -0.200 F 
ENDBRANCH  66  89
ENDBRANCH  40  41
ENDBRANCH  32  35
ENDBRANCH  30  31
ENDBRANCH  29  30
ENDBRANCH  28  29
ENDBRANCH  27  28
ENDBRANCH  26  27
ENDBRANCH  25  26
ENDBRANCH  23  25
ENDBRANCH  20  21
ENDBRANCH   1  20
TORSDOF 26
ENDMDL
MODEL 2
REMARK VINA RESULT:      -9.3      1.320      2.529
REMARK SMILES CC/C=C/C/C=C/C/C=C/C/C=C/CC/C=C/COCC(=O)NCCCCCCNC(=O)c1ccc(-c2c3nc(c(-c4c(F)c(F)c(F)c(F)c4F)c4ccc([nH]4)c(-c4c(F)c(F)c(F)c(F)c4F)c4nc(c(-c5c(F)c(F)c(F)c(F)c5F)c5ccc2[nH]5)C=C4)C=C3)cc1
REMARK SMILES IDX 19 1 18 2 17 3 16 4 15 5 14 6 13 7 12 8 11 9 10 10 9 11 8 12
REMARK SMILES IDX 7 13 6 14 5 15 4 16 3 17 2 18 1 19 20 20 21 21 22 22 23 23
REMARK SMILES IDX 24 25 25 26 26 27 27 28 28 29 29 30 30 31 31 32 32 34 33 35
REMARK SMILES IDX 34 36 95 37 35 38 94 39 36 40 37 41 38 42 88 43 39 44 93 45
REMARK SMILES IDX 87 46 89 47 40 48 92 49 86 50 85 51 41 53 73 54 53 55 72 56
REMARK SMILES IDX 54 57 57 58 71 59 90 60 55 61 56 62 70 64 91 65 58 66 42 67
REMARK SMILES IDX 43 68 51 69 44 70 45 71 49 72 52 73 46 74 47 75 50 76 48 77
REMARK SMILES IDX 74 78 75 79 83 80 76 81 77 82 81 83 84 84 78 85 79 86 82 87
REMARK SMILES IDX 80 88 59 89 60 90 68 91 61 92 62 93 66 94 69 95 63 96 64 97
REMARK SMILES IDX 67 98 65 99
REMARK H PARENT 23 24 30 33 89 52 57 63
REMARK Flexibility Score: inf
ROOT
ATOM      1  O   UNL A   1      33.182  23.377  22.331  1.00  0.00    -0.368 OA
ENDROOT
BRANCH   1   2
ATOM      2  C   UNL A   1      31.912  22.783  22.606  1.00  0.00     0.188 C 
BRANCH   2   3
ATOM      3  C   UNL A   1      31.103  23.684  23.484  1.00  0.00    -0.003 C 
ATOM      4  C   UNL A   1      31.204  23.677  24.821  1.00  0.00    -0.029 C 
BRANCH   4   5
ATOM      5  C   UNL A   1      30.294  24.434  25.748  1.00  0.00     0.031 C 
BRANCH   5   6
ATOM      6  C   UNL A   1      30.962  25.696  26.321  1.00  0.00     0.031 C 
BRANCH   6   7
ATOM      7  C   UNL A   1      32.454  25.554  26.469  1.00  0.00    -0.031 C 
ATOM      8  C   UNL A   1      33.343  25.877  25.519  1.00  0.00    -0.027 C 
BRANCH   8   9
ATOM      9  C   UNL A   1      34.825  25.678  25.661  1.00  0.00     0.054 C 
BRANCH   9  10
ATOM     10  C   UNL A   1      35.170  24.222  25.529  1.00  0.00    -0.027 C 
ATOM     11  C   UNL A   1      35.792  23.690  24.463  1.00  0.00    -0.027 C 
BRANCH  11  12
ATOM     12  C   UNL A   1      36.094  22.228  24.306  1.00  0.00     0.054 C 
BRANCH  12  13
ATOM     13  C   UNL A   1      37.089  21.783  25.339  1.00  0.00    -0.027 C 
ATOM     14  C   UNL A   1      38.321  22.303  25.473  1.00  0.00    -0.027 C 
BRANCH  14  15
ATOM     15  C   UNL A   1      39.326  21.838  26.487  1.00  0.00     0.054 C 
BRANCH  15  16
ATOM     16  C   UNL A   1      40.126  20.684  25.953  1.00  0.00    -0.027 C 
ATOM     17  C   UNL A   1      41.050  20.015  26.661  1.00  0.00    -0.031 C 
BRANCH  17  18
ATOM     18  C   UNL A   1      41.854  18.870  26.118  1.00  0.00     0.023 C 
ATOM     19  C   UNL A   1      42.941  18.449  27.095  1.00  0.00     0.008 C 
ENDBRANCH  17  18
ENDBRANCH  15  16
ENDBRANCH  14  15
ENDBRANCH  12  13
ENDBRANCH  11  12
ENDBRANCH   9  10
ENDBRANCH   8   9
ENDBRANCH   6   7
ENDBRANCH   5   6
ENDBRANCH   4   5
ENDBRANCH   2   3
ENDBRANCH   1   2
BRANCH   1  20
ATOM     20  C   UNL A   1      33.164  24.800  22.311  1.00  0.00     0.260 C 
BRANCH  20  21
ATOM     21  C   UNL A   1      32.683  25.485  21.025  1.00  0.00     0.246 C 
ATOM     22  O   UNL A   1      33.218  25.286  19.935  1.00  0.00    -0.272 OA
ATOM     23  N   UNL A   1      31.606  26.321  21.092  1.00  0.00    -0.354 N 
ATOM     24  H   UNL A   1      31.281  26.674  20.233  1.00  0.00     0.163 HD
BRANCH  23  25
ATOM     25  C   UNL A   1      30.883  26.754  22.270  1.00  0.00     0.116 C 
BRANCH  25  26
ATOM     26  C   UNL A   1      31.515  28.006  22.877  1.00  0.00     0.021 C 
BRANCH  26  27
ATOM     27  C   UNL A   1      30.784  28.541  24.117  1.00  0.00     0.002 C 
BRANCH  27  28
ATOM     28  C   UNL A   1      31.436  29.756  24.784  1.00  0.00     0.002 C 
BRANCH  28  29
ATOM     29  C   UNL A   1      32.652  29.439  25.657  1.00  0.00     0.021 C 
BRANCH  29  30
ATOM     30  C   UNL A   1      32.603  30.045  27.056  1.00  0.00     0.116 C 
BRANCH  30  31
ATOM     31  N   UNL A   1      32.709  31.496  27.033  1.00  0.00    -0.352 N 
ATOM     32  C   UNL A   1      33.678  32.306  27.570  1.00  0.00     0.251 C 
ATOM     33  H   UNL A   1      31.982  31.964  26.564  1.00  0.00     0.163 HD
ATOM     34  O   UNL A   1      33.513  33.523  27.617  1.00  0.00    -0.269 OA
BRANCH  32  35
ATOM     35  C   UNL A   1      34.913  31.710  28.121  1.00  0.00     0.039 A 
ATOM     36  C   UNL A   1      36.048  32.512  28.258  1.00  0.00     0.014 A 
ATOM     37  C   UNL A   1      34.946  30.369  28.513  1.00  0.00     0.014 A 
ATOM     38  C   UNL A   1      37.194  31.989  28.860  1.00  0.00     0.010 A 
ATOM     39  C   UNL A   1      36.062  29.871  29.180  1.00  0.00     0.010 A 
ATOM     40  C   UNL A   1      37.194  30.678  29.368  1.00  0.00    -0.014 A 
BRANCH  40  41
ATOM     41  C   UNL A   1      38.357  30.144  30.122  1.00  0.00     0.031 A 
ATOM     42  C   UNL A   1      38.621  30.596  31.530  1.00  0.00     0.074 A 
ATOM     43  C   UNL A   1      39.219  29.309  29.508  1.00  0.00     0.049 A 
ATOM     44  N   UNL A   1      39.628  30.310  32.317  1.00  0.00    -0.248 NA
ATOM     45  C   UNL A   1      37.635  31.511  32.127  1.00  0.00     0.031 C 
ATOM     46  C   UNL A   1      39.094  28.832  28.131  1.00  0.00     0.029 A 
ATOM     47  N   UNL A   1      40.377  28.727  29.957  1.00  0.00    -0.354 N 
ATOM     48  C   UNL A   1      39.403  31.015  33.492  1.00  0.00     0.074 A 
ATOM     49  C   UNL A   1      38.193  31.784  33.298  1.00  0.00     0.031 C 
ATOM     50  C   UNL A   1      40.122  28.014  27.854  1.00  0.00     0.029 A 
ATOM     51  C   UNL A   1      41.004  27.948  29.015  1.00  0.00     0.049 A 
ATOM     52  H   UNL A   1      40.726  28.854  30.869  1.00  0.00     0.167 HD
ATOM     53  C   UNL A   1      40.128  31.002  34.636  1.00  0.00     0.037 A 
ATOM     54  C   UNL A   1      42.166  27.270  29.073  1.00  0.00     0.037 A 
ATOM     55  C   UNL A   1      41.324  30.224  34.829  1.00  0.00     0.049 A 
ATOM     56  C   UNL A   1      42.971  27.303  30.346  1.00  0.00     0.074 A 
ATOM     57  C   UNL A   1      42.095  30.097  35.970  1.00  0.00     0.029 A 
ATOM     58  N   UNL A   1      41.927  29.446  33.851  1.00  0.00    -0.354 N 
ATOM     59  N   UNL A   1      42.709  27.913  31.475  1.00  0.00    -0.248 NA
ATOM     60  C   UNL A   1      44.234  26.550  30.349  1.00  0.00     0.031 C 
ATOM     61  C   UNL A   1      43.199  29.293  35.666  1.00  0.00     0.029 A 
ATOM     62  C   UNL A   1      43.082  28.865  34.353  1.00  0.00     0.049 A 
ATOM     63  H   UNL A   1      41.587  29.324  32.935  1.00  0.00     0.167 HD
ATOM     64  C   UNL A   1      43.756  27.598  32.331  1.00  0.00     0.074 A 
ATOM     65  C   UNL A   1      44.649  26.728  31.596  1.00  0.00     0.031 C 
ATOM     66  C   UNL A   1      43.960  27.997  33.610  1.00  0.00     0.037 A 
BRANCH  53  67
ATOM     67  C   UNL A   1      39.652  31.862  35.773  1.00  0.00     0.064 A 
ATOM     68  C   UNL A   1      40.198  33.131  36.015  1.00  0.00     0.173 A 
ATOM     69  C   UNL A   1      38.606  31.429  36.603  1.00  0.00     0.173 A 
ATOM     70  F   UNL A   1      41.205  33.590  35.257  1.00  0.00    -0.203 F 
ATOM     71  C   UNL A   1      39.735  33.922  37.065  1.00  0.00     0.198 A 
ATOM     72  C   UNL A   1      38.124  32.237  37.630  1.00  0.00     0.198 A 
ATOM     73  F   UNL A   1      38.043  30.226  36.412  1.00  0.00    -0.203 F 
ATOM     74  F   UNL A   1      40.307  35.110  37.308  1.00  0.00    -0.200 F 
ATOM     75  C   UNL A   1      38.694  33.479  37.865  1.00  0.00     0.200 A 
ATOM     76  F   UNL A   1      37.106  31.812  38.392  1.00  0.00    -0.200 F 
ATOM     77  F   UNL A   1      38.244  34.245  38.868  1.00  0.00    -0.200 F 
ENDBRANCH  53  67
BRANCH  54  78
ATOM     78  C   UNL A   1      42.637  26.498  27.893  1.00  0.00     0.064 A 
ATOM     79  C   UNL A   1      43.465  27.089  26.928  1.00  0.00     0.173 A 
ATOM     80  C   UNL A   1      42.264  25.160  27.699  1.00  0.00     0.173 A 
ATOM     81  F   UNL A   1      43.832  28.371  27.057  1.00  0.00    -0.203 F 
ATOM     82  C   UNL A   1      43.882  26.378  25.804  1.00  0.00     0.198 A 
ATOM     83  C   UNL A   1      42.707  24.441  26.591  1.00  0.00     0.198 A 
ATOM     84  F   UNL A   1      41.476  24.545  28.593  1.00  0.00    -0.203 F 
ATOM     85  F   UNL A   1      44.629  26.984  24.872  1.00  0.00    -0.200 F 
ATOM     86  C   UNL A   1      43.508  25.053  25.639  1.00  0.00     0.200 A 
ATOM     87  F   UNL A   1      42.357  23.156  26.444  1.00  0.00    -0.200 F 
ATOM     88  F   UNL A   1      43.912  24.370  24.559  1.00  0.00    -0.200 F 
ENDBRANCH  54  78
BRANCH  66  89
ATOM     89  C   UNL A   1      45.181  27.474  34.312  1.00  0.00     0.064 A 
ATOM     90  C   UNL A   1      46.389  28.188  34.320  1.00  0.00     0.173 A 
ATOM     91  C   UNL A   1      45.128  26.268  35.027  1.00  0.00     0.173 A 
ATOM     92  F   UNL A   1      46.497  29.339  33.639  1.00  0.00    -0.203 F 
ATOM     93  C   UNL A   1      47.503  27.702  34.999  1.00  0.00     0.198 A 
ATOM     94  C   UNL A   1      46.234  25.802  35.732  1.00  0.00     0.198 A 
ATOM     95  F   UNL A   1      43.995  25.549  35.057  1.00  0.00    -0.203 F 
ATOM     96  F   UNL A   1      48.660  28.378  34.954  1.00  0.00    -0.200 F 
ATOM     97  C   UNL A   1      47.422  26.516  35.712  1.00  0.00     0.200 A 
ATOM     98  F   UNL A   1      46.148  24.664  36.434  1.00  0.00    -0.200 F 
ATOM     99  F   UNL A   1      48.491  26.057  36.376  1.00  0.00    -0.200 F 
ENDBRANCH  66  89
ENDBRANCH  40  41
ENDBRANCH  32  35
ENDBRANCH  30  31
ENDBRANCH  29  30
ENDBRANCH  28  29
ENDBRANCH  27  28
ENDBRANCH  26  27
ENDBRANCH  25  26
ENDBRANCH  23  25
ENDBRANCH  20  21
ENDBRANCH   1  20
TORSDOF 26
ENDMDL
MODEL 3
REMARK VINA RESULT:      -8.6      0.744      7.123
REMARK SMILES CC/C=C/C/C=C/C/C=C/C/C=C/CC/C=C/COCC(=O)NCCCCCCNC(=O)c1ccc(-c2c3nc(c(-c4c(F)c(F)c(F)c(F)c4F)c4ccc([nH]4)c(-c4c(F)c(F)c(F)c(F)c4F)c4nc(c(-c5c(F)c(F)c(F)c(F)c5F)c5ccc2[nH]5)C=C4)C=C3)cc1
REMARK SMILES IDX 19 1 18 2 17 3 16 4 15 5 14 6 13 7 12 8 11 9 10 10 9 11 8 12
REMARK SMILES IDX 7 13 6 14 5 15 4 16 3 17 2 18 1 19 20 20 21 21 22 22 23 23
REMARK SMILES IDX 24 25 25 26 26 27 27 28 28 29 29 30 30 31 31 32 32 34 33 35
REMARK SMILES IDX 34 36 95 37 35 38 94 39 36 40 37 41 38 42 88 43 39 44 93 45
REMARK SMILES IDX 87 46 89 47 40 48 92 49 86 50 85 51 41 53 73 54 53 55 72 56
REMARK SMILES IDX 54 57 57 58 71 59 90 60 55 61 56 62 70 64 91 65 58 66 42 67
REMARK SMILES IDX 43 68 51 69 44 70 45 71 49 72 52 73 46 74 47 75 50 76 48 77
REMARK SMILES IDX 74 78 75 79 83 80 76 81 77 82 81 83 84 84 78 85 79 86 82 87
REMARK SMILES IDX 80 88 59 89 60 90 68 91 61 92 62 93 66 94 69 95 63 96 64 97
REMARK SMILES IDX 67 98 65 99
REMARK H PARENT 23 24 30 33 89 52 57 63
REMARK Flexibility Score: inf
ROOT
ATOM      1  O   UNL A   1      33.026  22.665  23.248  1.00  0.00    -0.368 OA
ENDROOT
BRANCH   1   2
ATOM      2  C   UNL A   1      31.633  22.385  23.099  1.00  0.00     0.188 C 
BRANCH   2   3
ATOM      3  C   UNL A   1      30.822  23.432  23.792  1.00  0.00    -0.003 C 
ATOM      4  C   UNL A   1      31.111  23.878  25.024  1.00  0.00    -0.029 C 
BRANCH   4   5
ATOM      5  C   UNL A   1      30.230  24.795  25.825  1.00  0.00     0.031 C 
BRANCH   5   6
ATOM      6  C   UNL A   1      30.951  26.095  26.224  1.00  0.00     0.031 C 
BRANCH   6   7
ATOM      7  C   UNL A   1      32.414  25.890  26.516  1.00  0.00    -0.031 C 
ATOM      8  C   UNL A   1      33.374  25.850  25.581  1.00  0.00    -0.027 C 
BRANCH   8   9
ATOM      9  C   UNL A   1      34.821  25.588  25.883  1.00  0.00     0.054 C 
BRANCH   9  10
ATOM     10  C   UNL A   1      35.015  24.163  26.314  1.00  0.00    -0.027 C 
ATOM     11  C   UNL A   1      35.203  23.138  25.465  1.00  0.00    -0.027 C 
BRANCH  11  12
ATOM     12  C   UNL A   1      35.348  21.706  25.891  1.00  0.00     0.054 C 
BRANCH  12  13
ATOM     13  C   UNL A   1      34.020  21.006  25.842  1.00  0.00    -0.027 C 
ATOM     14  C   UNL A   1      33.820  19.810  25.263  1.00  0.00    -0.027 C 
BRANCH  14  15
ATOM     15  C   UNL A   1      32.486  19.124  25.188  1.00  0.00     0.054 C 
BRANCH  15  16
ATOM     16  C   UNL A   1      32.657  17.652  24.944  1.00  0.00    -0.027 C 
ATOM     17  C   UNL A   1      33.769  16.962  25.246  1.00  0.00    -0.031 C 
BRANCH  17  18
ATOM     18  C   UNL A   1      33.939  15.493  24.990  1.00  0.00     0.023 C 
ATOM     19  C   UNL A   1      32.775  14.697  25.561  1.00  0.00     0.008 C 
ENDBRANCH  17  18
ENDBRANCH  15  16
ENDBRANCH  14  15
ENDBRANCH  12  13
ENDBRANCH  11  12
ENDBRANCH   9  10
ENDBRANCH   8   9
ENDBRANCH   6   7
ENDBRANCH   5   6
ENDBRANCH   4   5
ENDBRANCH   2   3
ENDBRANCH   1   2
BRANCH   1  20
ATOM     20  C   UNL A   1      33.430  23.910  22.690  1.00  0.00     0.260 C 
BRANCH  20  21
ATOM     21  C   UNL A   1      33.001  24.213  21.248  1.00  0.00     0.246 C 
ATOM     22  O   UNL A   1      33.511  23.652  20.279  1.00  0.00    -0.272 OA
ATOM     23  N   UNL A   1      31.998  25.115  21.039  1.00  0.00    -0.354 N 
ATOM     24  H   UNL A   1      31.698  25.218  20.107  1.00  0.00     0.163 HD
BRANCH  23  25
ATOM     25  C   UNL A   1      31.320  25.940  22.018  1.00  0.00     0.116 C 
BRANCH  25  26
ATOM     26  C   UNL A   1      32.083  27.241  22.267  1.00  0.00     0.021 C 
BRANCH  26  27
ATOM     27  C   UNL A   1      31.350  28.236  23.178  1.00  0.00     0.002 C 
BRANCH  27  28
ATOM     28  C   UNL A   1      32.133  29.507  23.520  1.00  0.00     0.002 C 
BRANCH  28  29
ATOM     29  C   UNL A   1      33.366  29.289  24.400  1.00  0.00     0.021 C 
BRANCH  29  30
ATOM     30  C   UNL A   1      33.106  29.421  25.897  1.00  0.00     0.116 C 
BRANCH  30  31
ATOM     31  N   UNL A   1      32.775  30.785  26.281  1.00  0.00    -0.352 N 
ATOM     32  C   UNL A   1      33.396  31.610  27.186  1.00  0.00     0.251 C 
ATOM     33  H   UNL A   1      31.993  31.172  25.826  1.00  0.00     0.163 HD
ATOM     34  O   UNL A   1      32.870  32.668  27.523  1.00  0.00    -0.269 OA
BRANCH  32  35
ATOM     35  C   UNL A   1      34.689  31.211  27.778  1.00  0.00     0.039 A 
ATOM     36  C   UNL A   1      35.695  32.169  27.917  1.00  0.00     0.014 A 
ATOM     37  C   UNL A   1      34.903  29.898  28.207  1.00  0.00     0.014 A 
ATOM     38  C   UNL A   1      36.889  31.831  28.558  1.00  0.00     0.010 A 
ATOM     39  C   UNL A   1      36.062  29.581  28.910  1.00  0.00     0.010 A 
ATOM     40  C   UNL A   1      37.062  30.546  29.100  1.00  0.00    -0.014 A 
BRANCH  40  41
ATOM     41  C   UNL A   1      38.271  30.202  29.893  1.00  0.00     0.031 A 
ATOM     42  C   UNL A   1      39.284  29.234  29.351  1.00  0.00     0.074 A 
ATOM     43  C   UNL A   1      38.415  30.706  31.135  1.00  0.00     0.049 A 
ATOM     44  N   UNL A   1      40.354  28.746  29.927  1.00  0.00    -0.248 NA
ATOM     45  C   UNL A   1      39.052  28.728  27.990  1.00  0.00     0.031 C 
ATOM     46  C   UNL A   1      37.478  31.621  31.788  1.00  0.00     0.029 A 
ATOM     47  N   UNL A   1      39.394  30.507  32.075  1.00  0.00    -0.354 N 
ATOM     48  C   UNL A   1      40.915  27.871  29.006  1.00  0.00     0.074 A 
ATOM     49  C   UNL A   1      40.039  27.853  27.854  1.00  0.00     0.031 C 
ATOM     50  C   UNL A   1      37.938  31.921  33.013  1.00  0.00     0.029 A 
ATOM     51  C   UNL A   1      39.174  31.182  33.251  1.00  0.00     0.049 A 
ATOM     52  H   UNL A   1      40.181  29.935  31.921  1.00  0.00     0.167 HD
ATOM     53  C   UNL A   1      42.066  27.165  29.105  1.00  0.00     0.037 A 
ATOM     54  C   UNL A   1      39.878  31.192  34.399  1.00  0.00     0.037 A 
ATOM     55  C   UNL A   1      42.941  27.198  30.249  1.00  0.00     0.049 A 
ATOM     56  C   UNL A   1      41.136  30.370  34.495  1.00  0.00     0.074 A 
ATOM     57  C   UNL A   1      44.159  26.566  30.420  1.00  0.00     0.029 A 
ATOM     58  N   UNL A   1      42.684  27.895  31.421  1.00  0.00    -0.354 N 
ATOM     59  N   UNL A   1      41.695  29.604  33.589  1.00  0.00    -0.248 NA
ATOM     60  C   UNL A   1      41.861  30.414  35.773  1.00  0.00     0.031 C 
ATOM     61  C   UNL A   1      44.611  26.829  31.718  1.00  0.00     0.029 A 
ATOM     62  C   UNL A   1      43.705  27.679  32.334  1.00  0.00     0.049 A 
ATOM     63  H   UNL A   1      41.894  28.459  31.582  1.00  0.00     0.167 HD
ATOM     64  C   UNL A   1      42.848  29.098  34.177  1.00  0.00     0.074 A 
ATOM     65  C   UNL A   1      42.918  29.658  35.510  1.00  0.00     0.031 C 
ATOM     66  C   UNL A   1      43.764  28.245  33.657  1.00  0.00     0.037 A 
BRANCH  53  67
ATOM     67  C   UNL A   1      42.449  26.290  27.946  1.00  0.00     0.064 A 
ATOM     68  C   UNL A   1      43.339  26.728  26.953  1.00  0.00     0.173 A 
ATOM     69  C   UNL A   1      41.955  24.979  27.850  1.00  0.00     0.173 A 
ATOM     70  F   UNL A   1      43.834  27.974  26.992  1.00  0.00    -0.203 F 
ATOM     71  C   UNL A   1      43.695  25.898  25.893  1.00  0.00     0.198 A 
ATOM     72  C   UNL A   1      42.341  24.142  26.806  1.00  0.00     0.198 A 
ATOM     73  F   UNL A   1      41.107  24.506  28.775  1.00  0.00    -0.203 F 
ATOM     74  F   UNL A   1      44.507  26.358  24.930  1.00  0.00    -0.200 F 
ATOM     75  C   UNL A   1      43.203  24.604  25.824  1.00  0.00     0.200 A 
ATOM     76  F   UNL A   1      41.876  22.885  26.751  1.00  0.00    -0.200 F 
ATOM     77  F   UNL A   1      43.556  23.804  24.809  1.00  0.00    -0.200 F 
ENDBRANCH  53  67
BRANCH  54  78
ATOM     78  C   UNL A   1      39.416  32.013  35.549  1.00  0.00     0.064 A 
ATOM     79  C   UNL A   1      39.831  33.344  35.700  1.00  0.00     0.173 A 
ATOM     80  C   UNL A   1      38.560  31.484  36.527  1.00  0.00     0.173 A 
ATOM     81  F   UNL A   1      40.667  33.889  34.804  1.00  0.00    -0.203 F 
ATOM     82  C   UNL A   1      39.427  34.106  36.794  1.00  0.00     0.198 A 
ATOM     83  C   UNL A   1      38.131  32.257  37.604  1.00  0.00     0.198 A 
ATOM     84  F   UNL A   1      38.129  30.218  36.430  1.00  0.00    -0.203 F 
ATOM     85  F   UNL A   1      39.881  35.358  36.939  1.00  0.00    -0.200 F 
ATOM     86  C   UNL A   1      38.573  33.564  37.742  1.00  0.00     0.200 A 
ATOM     87  F   UNL A   1      37.292  31.736  38.508  1.00  0.00    -0.200 F 
ATOM     88  F   UNL A   1      38.181  34.299  38.792  1.00  0.00    -0.200 F 
ENDBRANCH  54  78
BRANCH  66  89
ATOM     89  C   UNL A   1      44.940  27.883  34.520  1.00  0.00     0.064 A 
ATOM     90  C   UNL A   1      44.927  26.749  35.346  1.00  0.00     0.173 A 
ATOM     91  C   UNL A   1      46.112  28.654  34.482  1.00  0.00     0.173 A 
ATOM     92  F   UNL A   1      43.824  25.988  35.430  1.00  0.00    -0.203 F 
ATOM     93  C   UNL A   1      46.036  26.413  36.117  1.00  0.00     0.198 A 
ATOM     94  C   UNL A   1      47.230  28.295  35.229  1.00  0.00     0.198 A 
ATOM     95  F   UNL A   1      46.179  29.745  33.705  1.00  0.00    -0.203 F 
ATOM     96  F   UNL A   1      45.984  25.352  36.934  1.00  0.00    -0.200 F 
ATOM     97  C   UNL A   1      47.189  27.180  36.051  1.00  0.00     0.200 A 
ATOM     98  F   UNL A   1      48.349  29.029  35.152  1.00  0.00    -0.200 F 
ATOM     99  F   UNL A   1      48.260  26.847  36.784  1.00  0.00    -0.200 F 
ENDBRANCH  66  89
ENDBRANCH  40  41
ENDBRANCH  32  35
ENDBRANCH  30  31
ENDBRANCH  29  30
ENDBRANCH  28  29
ENDBRANCH  27  28
ENDBRANCH  26  27
ENDBRANCH  25  26
ENDBRANCH  23  25
ENDBRANCH  20  21
ENDBRANCH   1  20
TORSDOF 26
ENDMDL
