MODEL 1
REMARK VINA RESULT:     -12.2      0.000      0.000
REMARK SMILES O=C(NCc1ccsc1)NC[C@H]1CC[C@@H](C(=O)NCCCCCCNC(=O)c2ccc(-c3c4nc(c(-c5c(F)c(F)c(F)c(F)c5F)c5ccc([nH]5)c(-c5c(F)c(F)c(F)c(F)c5F)c5nc(c(-c6c(F)c(F)c(F)c(F)c6F)c6ccc3[nH]6)C=C5)C=C4)cc2)CC1
REMARK SMILES IDX 20 1 19 2 18 3 16 4 17 5 15 7 12 8 13 9 92 10 14 11 91 12
REMARK SMILES IDX 11 13 10 14 1 15 2 16 3 17 4 20 5 21 6 22 9 23 7 24 8 25
REMARK SMILES IDX 21 26 22 27 23 28 24 29 25 30 26 31 27 33 28 34 29 35 90 36
REMARK SMILES IDX 30 37 89 38 31 39 32 40 33 41 83 42 34 43 88 44 82 45 84 46
REMARK SMILES IDX 35 47 87 48 81 49 80 50 36 52 68 53 48 54 67 55 49 56 52 57
REMARK SMILES IDX 66 58 85 59 50 60 51 61 65 63 86 64 53 65 37 66 38 67 46 68
REMARK SMILES IDX 39 69 40 70 44 71 47 72 41 73 42 74 45 75 43 76 69 77 70 78
REMARK SMILES IDX 78 79 71 80 72 81 76 82 79 83 73 84 74 85 77 86 75 87 54 88
REMARK SMILES IDX 55 89 63 90 56 91 57 92 61 93 64 94 58 95 59 96 62 97 60 98
REMARK H PARENT 18 6 3 18 10 19 25 32 84 51 52 62
REMARK Flexibility Score: inf
ROOT
ATOM      1  C   UNL A   1      33.585  29.159  25.943  1.00  0.00     0.021 C 
ENDROOT
BRANCH   1   2
ATOM      2  C   UNL A   1      33.069  29.087  24.509  1.00  0.00     0.116 C 
BRANCH   2   3
ATOM      3  N   UNL A   1      33.566  27.954  23.773  1.00  0.00    -0.356 N 
ATOM      4  C   UNL A   1      32.959  26.824  23.333  1.00  0.00     0.223 C 
ATOM      5  O   UNL A   1      33.643  26.098  22.600  1.00  0.00    -0.275 OA
ATOM      6  H   UNL A   1      34.522  28.011  23.545  1.00  0.00     0.163 HD
BRANCH   4   7
ATOM      7  C   UNL A   1      31.527  26.388  23.692  1.00  0.00     0.078 C 
ATOM      8  C   UNL A   1      30.847  24.205  25.677  1.00  0.00     0.008 C 
ATOM      9  C   UNL A   1      31.135  25.642  26.153  1.00  0.00     0.006 C 
ATOM     10  C   UNL A   1      31.290  23.883  24.236  1.00  0.00     0.006 C 
ATOM     11  C   UNL A   1      31.019  26.730  25.091  1.00  0.00     0.014 C 
ATOM     12  C   UNL A   1      31.118  24.997  23.221  1.00  0.00     0.014 C 
BRANCH   8  13
ATOM     13  C   UNL A   1      31.505  23.159  26.605  1.00  0.00     0.121 C 
BRANCH  13  14
ATOM     14  N   UNL A   1      32.361  22.205  25.935  1.00  0.00    -0.338 N 
ATOM     15  O   UNL A   1      33.548  21.684  27.810  1.00  0.00    -0.249 OA
ATOM     16  C   UNL A   1      33.293  21.495  26.624  1.00  0.00     0.315 C 
ATOM     17  N   UNL A   1      33.948  20.519  25.958  1.00  0.00    -0.334 N 
ATOM     18  H   UNL A   1      34.664  20.082  26.474  1.00  0.00     0.165 HD
ATOM     19  H   UNL A   1      32.267  22.068  24.965  1.00  0.00     0.165 HD
BRANCH  17  20
ATOM     20  C   UNL A   1      33.777  20.008  24.619  1.00  0.00     0.154 C 
BRANCH  20  21
ATOM     21  C   UNL A   1      33.521  18.539  24.692  1.00  0.00    -0.018 A 
ATOM     22  C   UNL A   1      33.908  17.585  23.691  1.00  0.00     0.017 A 
ATOM     23  C   UNL A   1      32.870  17.907  25.737  1.00  0.00     0.070 A 
ATOM     24  C   UNL A   1      33.534  16.299  24.010  1.00  0.00     0.065 A 
ATOM     25  S   UNL A   1      32.720  16.221  25.510  1.00  0.00    -0.152 S 
ENDBRANCH  20  21
ENDBRANCH  17  20
ENDBRANCH  13  14
ENDBRANCH   8  13
ENDBRANCH   4   7
ENDBRANCH   2   3
ENDBRANCH   1   2
BRANCH   1  26
ATOM     26  C   UNL A   1      32.666  29.909  26.908  1.00  0.00     0.002 C 
BRANCH  26  27
ATOM     27  C   UNL A   1      31.490  30.658  26.263  1.00  0.00     0.002 C 
BRANCH  27  28
ATOM     28  C   UNL A   1      31.420  32.166  26.526  1.00  0.00     0.021 C 
BRANCH  28  29
ATOM     29  C   UNL A   1      32.621  32.761  27.260  1.00  0.00     0.116 C 
BRANCH  29  30
ATOM     30  N   UNL A   1      32.406  34.150  27.633  1.00  0.00    -0.352 N 
ATOM     31  C   UNL A   1      33.006  34.920  28.598  1.00  0.00     0.251 C 
ATOM     32  H   UNL A   1      31.717  34.616  27.107  1.00  0.00     0.163 HD
ATOM     33  O   UNL A   1      32.537  36.016  28.884  1.00  0.00    -0.269 OA
BRANCH  31  34
ATOM     34  C   UNL A   1      34.207  34.432  29.311  1.00  0.00     0.039 A 
ATOM     35  C   UNL A   1      34.043  33.806  30.551  1.00  0.00     0.014 A 
ATOM     36  C   UNL A   1      35.488  34.621  28.786  1.00  0.00     0.014 A 
ATOM     37  C   UNL A   1      35.155  33.300  31.228  1.00  0.00     0.010 A 
ATOM     38  C   UNL A   1      36.590  34.066  29.432  1.00  0.00     0.010 A 
ATOM     39  C   UNL A   1      36.433  33.391  30.653  1.00  0.00    -0.014 A 
BRANCH  39  40
ATOM     40  C   UNL A   1      37.611  32.747  31.286  1.00  0.00     0.031 A 
ATOM     41  C   UNL A   1      38.296  31.589  30.621  1.00  0.00     0.074 A 
ATOM     42  C   UNL A   1      38.006  33.157  32.507  1.00  0.00     0.049 A 
ATOM     43  N   UNL A   1      39.269  30.835  31.067  1.00  0.00    -0.248 NA
ATOM     44  C   UNL A   1      37.812  31.216  29.282  1.00  0.00     0.031 C 
ATOM     45  C   UNL A   1      37.399  34.251  33.266  1.00  0.00     0.029 A 
ATOM     46  N   UNL A   1      38.999  32.691  33.332  1.00  0.00    -0.354 N 
ATOM     47  C   UNL A   1      39.504  29.893  30.075  1.00  0.00     0.074 A 
ATOM     48  C   UNL A   1      38.548  30.146  29.017  1.00  0.00     0.031 C 
ATOM     49  C   UNL A   1      38.036  34.376  34.440  1.00  0.00     0.029 A 
ATOM     50  C   UNL A   1      39.063  33.344  34.537  1.00  0.00     0.049 A 
ATOM     51  H   UNL A   1      39.607  31.957  33.083  1.00  0.00     0.167 HD
ATOM     52  C   UNL A   1      40.443  28.917  30.045  1.00  0.00     0.037 A 
ATOM     53  C   UNL A   1      39.848  33.123  35.610  1.00  0.00     0.037 A 
ATOM     54  C   UNL A   1      41.401  28.682  31.093  1.00  0.00     0.049 A 
ATOM     55  C   UNL A   1      40.854  32.006  35.565  1.00  0.00     0.074 A 
ATOM     56  C   UNL A   1      42.442  27.769  31.122  1.00  0.00     0.029 A 
ATOM     57  N   UNL A   1      41.429  29.357  32.304  1.00  0.00    -0.354 N 
ATOM     58  N   UNL A   1      41.118  31.170  34.592  1.00  0.00    -0.248 NA
ATOM     59  C   UNL A   1      41.669  31.801  36.771  1.00  0.00     0.031 C 
ATOM     60  C   UNL A   1      43.067  27.857  32.370  1.00  0.00     0.029 A 
ATOM     61  C   UNL A   1      42.445  28.856  33.103  1.00  0.00     0.049 A 
ATOM     62  H   UNL A   1      40.816  30.084  32.560  1.00  0.00     0.167 HD
ATOM     63  C   UNL A   1      42.136  30.350  35.058  1.00  0.00     0.074 A 
ATOM     64  C   UNL A   1      42.457  30.802  36.395  1.00  0.00     0.031 C 
ATOM     65  C   UNL A   1      42.746  29.313  34.435  1.00  0.00     0.037 A 
BRANCH  52  66
ATOM     66  C   UNL A   1      40.482  28.025  28.839  1.00  0.00     0.064 A 
ATOM     67  C   UNL A   1      41.255  28.346  27.713  1.00  0.00     0.173 A 
ATOM     68  C   UNL A   1      39.777  26.812  28.827  1.00  0.00     0.173 A 
ATOM     69  F   UNL A   1      41.942  29.497  27.671  1.00  0.00    -0.203 F 
ATOM     70  C   UNL A   1      41.302  27.497  26.610  1.00  0.00     0.198 A 
ATOM     71  C   UNL A   1      39.847  25.953  27.734  1.00  0.00     0.198 A 
ATOM     72  F   UNL A   1      39.029  26.454  29.881  1.00  0.00    -0.203 F 
ATOM     73  F   UNL A   1      42.014  27.843  25.529  1.00  0.00    -0.200 F 
ATOM     74  C   UNL A   1      40.603  26.298  26.624  1.00  0.00     0.200 A 
ATOM     75  F   UNL A   1      39.183  24.789  27.754  1.00  0.00    -0.200 F 
ATOM     76  F   UNL A   1      40.656  25.479  25.565  1.00  0.00    -0.200 F 
ENDBRANCH  52  66
BRANCH  53  77
ATOM     77  C   UNL A   1      39.711  33.981  36.815  1.00  0.00     0.064 A 
ATOM     78  C   UNL A   1      38.876  33.600  37.875  1.00  0.00     0.173 A 
ATOM     79  C   UNL A   1      40.412  35.190  36.938  1.00  0.00     0.173 A 
ATOM     80  F   UNL A   1      38.173  32.461  37.795  1.00  0.00    -0.203 F 
ATOM     81  C   UNL A   1      38.736  34.402  39.005  1.00  0.00     0.198 A 
ATOM     82  C   UNL A   1      40.292  35.976  38.082  1.00  0.00     0.198 A 
ATOM     83  F   UNL A   1      41.234  35.598  35.961  1.00  0.00    -0.203 F 
ATOM     84  F   UNL A   1      37.902  34.032  39.987  1.00  0.00    -0.200 F 
ATOM     85  C   UNL A   1      39.448  35.587  39.111  1.00  0.00     0.200 A 
ATOM     86  F   UNL A   1      41.000  37.108  38.189  1.00  0.00    -0.200 F 
ATOM     87  F   UNL A   1      39.321  36.353  40.201  1.00  0.00    -0.200 F 
ENDBRANCH  53  77
BRANCH  65  88
ATOM     88  C   UNL A   1      43.827  28.597  35.192  1.00  0.00     0.064 A 
ATOM     89  C   UNL A   1      45.160  29.031  35.146  1.00  0.00     0.173 A 
ATOM     90  C   UNL A   1      43.520  27.495  36.003  1.00  0.00     0.173 A 
ATOM     91  F   UNL A   1      45.505  30.068  34.368  1.00  0.00    -0.203 F 
ATOM     92  C   UNL A   1      46.150  28.377  35.873  1.00  0.00     0.198 A 
ATOM     93  C   UNL A   1      44.508  26.860  36.751  1.00  0.00     0.198 A 
ATOM     94  F   UNL A   1      42.260  27.043  36.083  1.00  0.00    -0.203 F 
ATOM     95  F   UNL A   1      47.423  28.783  35.784  1.00  0.00    -0.200 F 
ATOM     96  C   UNL A   1      45.822  27.298  36.682  1.00  0.00     0.200 A 
ATOM     97  F   UNL A   1      44.188  25.825  37.539  1.00  0.00    -0.200 F 
ATOM     98  F   UNL A   1      46.775  26.675  37.389  1.00  0.00    -0.200 F 
ENDBRANCH  65  88
ENDBRANCH  39  40
ENDBRANCH  31  34
ENDBRANCH  29  30
ENDBRANCH  28  29
ENDBRANCH  27  28
ENDBRANCH  26  27
ENDBRANCH   1  26
TORSDOF 17
ENDMDL
MODEL 2
REMARK VINA RESULT:     -12.0      2.115      7.778
REMARK SMILES O=C(NCc1ccsc1)NC[C@H]1CC[C@@H](C(=O)NCCCCCCNC(=O)c2ccc(-c3c4nc(c(-c5c(F)c(F)c(F)c(F)c5F)c5ccc([nH]5)c(-c5c(F)c(F)c(F)c(F)c5F)c5nc(c(-c6c(F)c(F)c(F)c(F)c6F)c6ccc3[nH]6)C=C5)C=C4)cc2)CC1
REMARK SMILES IDX 20 1 19 2 18 3 16 4 17 5 15 7 12 8 13 9 92 10 14 11 91 12
REMARK SMILES IDX 11 13 10 14 1 15 2 16 3 17 4 20 5 21 6 22 9 23 7 24 8 25
REMARK SMILES IDX 21 26 22 27 23 28 24 29 25 30 26 31 27 33 28 34 29 35 90 36
REMARK SMILES IDX 30 37 89 38 31 39 32 40 33 41 83 42 34 43 88 44 82 45 84 46
REMARK SMILES IDX 35 47 87 48 81 49 80 50 36 52 68 53 48 54 67 55 49 56 52 57
REMARK SMILES IDX 66 58 85 59 50 60 51 61 65 63 86 64 53 65 37 66 38 67 46 68
REMARK SMILES IDX 39 69 40 70 44 71 47 72 41 73 42 74 45 75 43 76 69 77 70 78
REMARK SMILES IDX 78 79 71 80 72 81 76 82 79 83 73 84 74 85 77 86 75 87 54 88
REMARK SMILES IDX 55 89 63 90 56 91 57 92 61 93 64 94 58 95 59 96 62 97 60 98
REMARK H PARENT 18 6 3 18 10 19 25 32 84 51 52 62
REMARK Flexibility Score: inf
ROOT
ATOM      1  C   UNL A   1      35.340  31.743  28.131  1.00  0.00     0.021 C 
ENDROOT
BRANCH   1   2
ATOM      2  C   UNL A   1      34.122  30.924  27.714  1.00  0.00     0.116 C 
BRANCH   2   3
ATOM      3  N   UNL A   1      34.443  29.584  27.297  1.00  0.00    -0.356 N 
ATOM      4  C   UNL A   1      33.708  28.631  26.672  1.00  0.00     0.223 C 
ATOM      5  O   UNL A   1      34.328  27.617  26.328  1.00  0.00    -0.275 OA
ATOM      6  H   UNL A   1      35.365  29.309  27.504  1.00  0.00     0.163 HD
BRANCH   4   7
ATOM      7  C   UNL A   1      32.197  28.717  26.390  1.00  0.00     0.078 C 
ATOM      8  C   UNL A   1      30.875  27.775  23.834  1.00  0.00     0.008 C 
ATOM      9  C   UNL A   1      31.180  26.786  24.975  1.00  0.00     0.006 C 
ATOM     10  C   UNL A   1      31.605  29.131  23.919  1.00  0.00     0.006 C 
ATOM     11  C   UNL A   1      31.416  27.406  26.348  1.00  0.00     0.014 C 
ATOM     12  C   UNL A   1      31.777  29.708  25.311  1.00  0.00     0.014 C 
BRANCH   8  13
ATOM     13  C   UNL A   1      31.199  27.165  22.453  1.00  0.00     0.121 C 
BRANCH  13  14
ATOM     14  N   UNL A   1      31.538  25.759  22.474  1.00  0.00    -0.338 N 
ATOM     15  O   UNL A   1      33.172  25.946  20.896  1.00  0.00    -0.249 OA
ATOM     16  C   UNL A   1      32.556  25.272  21.716  1.00  0.00     0.315 C 
ATOM     17  N   UNL A   1      32.906  23.980  21.903  1.00  0.00    -0.334 N 
ATOM     18  H   UNL A   1      33.596  23.651  21.282  1.00  0.00     0.165 HD
ATOM     19  H   UNL A   1      31.023  25.145  23.047  1.00  0.00     0.165 HD
BRANCH  17  20
ATOM     20  C   UNL A   1      32.443  23.002  22.858  1.00  0.00     0.154 C 
BRANCH  20  21
ATOM     21  C   UNL A   1      33.621  22.436  23.579  1.00  0.00    -0.018 A 
ATOM     22  C   UNL A   1      34.951  22.976  23.537  1.00  0.00     0.017 A 
ATOM     23  C   UNL A   1      33.582  21.308  24.380  1.00  0.00     0.070 A 
ATOM     24  C   UNL A   1      35.845  22.245  24.286  1.00  0.00     0.065 A 
ATOM     25  S   UNL A   1      35.103  20.909  25.048  1.00  0.00    -0.152 S 
ENDBRANCH  20  21
ENDBRANCH  17  20
ENDBRANCH  13  14
ENDBRANCH   8  13
ENDBRANCH   4   7
ENDBRANCH   2   3
ENDBRANCH   1   2
BRANCH   1  26
ATOM     26  C   UNL A   1      35.062  32.775  29.225  1.00  0.00     0.002 C 
BRANCH  26  27
ATOM     27  C   UNL A   1      35.450  34.223  28.890  1.00  0.00     0.002 C 
BRANCH  27  28
ATOM     28  C   UNL A   1      34.313  35.251  28.908  1.00  0.00     0.021 C 
BRANCH  28  29
ATOM     29  C   UNL A   1      32.993  34.759  29.499  1.00  0.00     0.116 C 
BRANCH  29  30
ATOM     30  N   UNL A   1      32.491  35.644  30.538  1.00  0.00    -0.352 N 
ATOM     31  C   UNL A   1      32.831  35.750  31.864  1.00  0.00     0.251 C 
ATOM     32  H   UNL A   1      31.792  36.272  30.243  1.00  0.00     0.163 HD
ATOM     33  O   UNL A   1      32.142  36.428  32.619  1.00  0.00    -0.269 OA
BRANCH  31  34
ATOM     34  C   UNL A   1      34.011  35.037  32.397  1.00  0.00     0.039 A 
ATOM     35  C   UNL A   1      33.840  33.750  32.919  1.00  0.00     0.014 A 
ATOM     36  C   UNL A   1      35.272  35.639  32.421  1.00  0.00     0.014 A 
ATOM     37  C   UNL A   1      34.944  33.038  33.393  1.00  0.00     0.010 A 
ATOM     38  C   UNL A   1      36.382  34.908  32.839  1.00  0.00     0.010 A 
ATOM     39  C   UNL A   1      36.230  33.597  33.318  1.00  0.00    -0.014 A 
BRANCH  39  40
ATOM     40  C   UNL A   1      37.434  32.814  33.691  1.00  0.00     0.031 A 
ATOM     41  C   UNL A   1      38.174  33.112  34.963  1.00  0.00     0.074 A 
ATOM     42  C   UNL A   1      37.907  31.889  32.833  1.00  0.00     0.049 A 
ATOM     43  N   UNL A   1      39.299  32.608  35.404  1.00  0.00    -0.248 NA
ATOM     44  C   UNL A   1      37.580  34.125  35.850  1.00  0.00     0.031 C 
ATOM     45  C   UNL A   1      37.293  31.533  31.554  1.00  0.00     0.029 A 
ATOM     46  N   UNL A   1      39.023  31.092  32.899  1.00  0.00    -0.354 N 
ATOM     47  C   UNL A   1      39.555  33.249  36.608  1.00  0.00     0.074 A 
ATOM     48  C   UNL A   1      38.487  34.206  36.812  1.00  0.00     0.031 C 
ATOM     49  C   UNL A   1      38.034  30.586  30.959  1.00  0.00     0.029 A 
ATOM     50  C   UNL A   1      39.198  30.301  31.791  1.00  0.00     0.049 A 
ATOM     51  H   UNL A   1      39.639  31.089  33.667  1.00  0.00     0.167 HD
ATOM     52  C   UNL A   1      40.580  33.045  37.470  1.00  0.00     0.037 A 
ATOM     53  C   UNL A   1      40.198  29.457  31.470  1.00  0.00     0.037 A 
ATOM     54  C   UNL A   1      41.629  32.080  37.268  1.00  0.00     0.049 A 
ATOM     55  C   UNL A   1      41.344  29.280  32.428  1.00  0.00     0.074 A 
ATOM     56  C   UNL A   1      42.668  31.743  38.119  1.00  0.00     0.029 A 
ATOM     57  N   UNL A   1      41.780  31.304  36.128  1.00  0.00    -0.354 N 
ATOM     58  N   UNL A   1      41.538  29.836  33.598  1.00  0.00    -0.248 NA
ATOM     59  C   UNL A   1      42.414  28.359  32.016  1.00  0.00     0.031 C 
ATOM     60  C   UNL A   1      43.475  30.801  37.473  1.00  0.00     0.029 A 
ATOM     61  C   UNL A   1      42.916  30.517  36.238  1.00  0.00     0.049 A 
ATOM     62  H   UNL A   1      41.171  31.312  35.354  1.00  0.00     0.167 HD
ATOM     63  C   UNL A   1      42.739  29.326  34.070  1.00  0.00     0.074 A 
ATOM     64  C   UNL A   1      43.221  28.398  33.068  1.00  0.00     0.031 C 
ATOM     65  C   UNL A   1      43.386  29.604  35.228  1.00  0.00     0.037 A 
BRANCH  52  66
ATOM     66  C   UNL A   1      40.620  33.882  38.714  1.00  0.00     0.064 A 
ATOM     67  C   UNL A   1      39.929  33.505  39.876  1.00  0.00     0.173 A 
ATOM     68  C   UNL A   1      41.397  35.049  38.763  1.00  0.00     0.173 A 
ATOM     69  F   UNL A   1      39.167  32.402  39.880  1.00  0.00    -0.203 F 
ATOM     70  C   UNL A   1      39.996  34.279  41.032  1.00  0.00     0.198 A 
ATOM     71  C   UNL A   1      41.483  35.806  39.928  1.00  0.00     0.198 A 
ATOM     72  F   UNL A   1      42.084  35.450  37.682  1.00  0.00    -0.203 F 
ATOM     73  F   UNL A   1      39.295  33.922  42.117  1.00  0.00    -0.200 F 
ATOM     74  C   UNL A   1      40.778  35.425  41.059  1.00  0.00     0.200 A 
ATOM     75  F   UNL A   1      42.249  36.905  39.957  1.00  0.00    -0.200 F 
ATOM     76  F   UNL A   1      40.847  36.163  42.175  1.00  0.00    -0.200 F 
ENDBRANCH  52  66
BRANCH  53  77
ATOM     77  C   UNL A   1      40.154  28.714  30.184  1.00  0.00     0.064 A 
ATOM     78  C   UNL A   1      39.517  27.469  30.097  1.00  0.00     0.173 A 
ATOM     79  C   UNL A   1      40.738  29.232  29.019  1.00  0.00     0.173 A 
ATOM     80  F   UNL A   1      38.959  26.926  31.189  1.00  0.00    -0.203 F 
ATOM     81  C   UNL A   1      39.479  26.762  28.897  1.00  0.00     0.198 A 
ATOM     82  C   UNL A   1      40.674  28.537  27.813  1.00  0.00     0.198 A 
ATOM     83  F   UNL A   1      41.351  30.424  29.040  1.00  0.00    -0.203 F 
ATOM     84  F   UNL A   1      38.896  25.556  28.851  1.00  0.00    -0.200 F 
ATOM     85  C   UNL A   1      40.053  27.298  27.754  1.00  0.00     0.200 A 
ATOM     86  F   UNL A   1      41.209  29.070  26.707  1.00  0.00    -0.200 F 
ATOM     87  F   UNL A   1      40.008  26.624  26.599  1.00  0.00    -0.200 F 
ENDBRANCH  53  77
BRANCH  65  88
ATOM     88  C   UNL A   1      44.684  28.894  35.477  1.00  0.00     0.064 A 
ATOM     89  C   UNL A   1      45.900  29.409  35.001  1.00  0.00     0.173 A 
ATOM     90  C   UNL A   1      44.719  27.714  36.233  1.00  0.00     0.173 A 
ATOM     91  F   UNL A   1      45.915  30.525  34.257  1.00  0.00    -0.203 F 
ATOM     92  C   UNL A   1      47.102  28.758  35.262  1.00  0.00     0.198 A 
ATOM     93  C   UNL A   1      45.926  27.080  36.515  1.00  0.00     0.198 A 
ATOM     94  F   UNL A   1      43.584  27.183  36.712  1.00  0.00    -0.203 F 
ATOM     95  F   UNL A   1      48.247  29.245  34.765  1.00  0.00    -0.200 F 
ATOM     96  C   UNL A   1      47.115  27.599  36.025  1.00  0.00     0.200 A 
ATOM     97  F   UNL A   1      45.939  25.967  37.261  1.00  0.00    -0.200 F 
ATOM     98  F   UNL A   1      48.275  26.979  36.283  1.00  0.00    -0.200 F 
ENDBRANCH  65  88
ENDBRANCH  39  40
ENDBRANCH  31  34
ENDBRANCH  29  30
ENDBRANCH  28  29
ENDBRANCH  27  28
ENDBRANCH  26  27
ENDBRANCH   1  26
TORSDOF 17
ENDMDL
MODEL 3
REMARK VINA RESULT:     -11.9      1.977      7.779
REMARK SMILES O=C(NCc1ccsc1)NC[C@H]1CC[C@@H](C(=O)NCCCCCCNC(=O)c2ccc(-c3c4nc(c(-c5c(F)c(F)c(F)c(F)c5F)c5ccc([nH]5)c(-c5c(F)c(F)c(F)c(F)c5F)c5nc(c(-c6c(F)c(F)c(F)c(F)c6F)c6ccc3[nH]6)C=C5)C=C4)cc2)CC1
REMARK SMILES IDX 20 1 19 2 18 3 16 4 17 5 15 7 12 8 13 9 92 10 14 11 91 12
REMARK SMILES IDX 11 13 10 14 1 15 2 16 3 17 4 20 5 21 6 22 9 23 7 24 8 25
REMARK SMILES IDX 21 26 22 27 23 28 24 29 25 30 26 31 27 33 28 34 29 35 90 36
REMARK SMILES IDX 30 37 89 38 31 39 32 40 33 41 83 42 34 43 88 44 82 45 84 46
REMARK SMILES IDX 35 47 87 48 81 49 80 50 36 52 68 53 48 54 67 55 49 56 52 57
REMARK SMILES IDX 66 58 85 59 50 60 51 61 65 63 86 64 53 65 37 66 38 67 46 68
REMARK SMILES IDX 39 69 40 70 44 71 47 72 41 73 42 74 45 75 43 76 69 77 70 78
REMARK SMILES IDX 78 79 71 80 72 81 76 82 79 83 73 84 74 85 77 86 75 87 54 88
REMARK SMILES IDX 55 89 63 90 56 91 57 92 61 93 64 94 58 95 59 96 62 97 60 98
REMARK H PARENT 18 6 3 18 10 19 25 32 84 51 52 62
REMARK Flexibility Score: inf
ROOT
ATOM      1  C   UNL A   1      34.901  31.692  28.456  1.00  0.00     0.021 C 
ENDROOT
BRANCH   1   2
ATOM      2  C   UNL A   1      34.268  30.909  27.310  1.00  0.00     0.116 C 
BRANCH   2   3
ATOM      3  N   UNL A   1      33.046  30.242  27.673  1.00  0.00    -0.356 N 
ATOM      4  C   UNL A   1      32.332  29.264  27.060  1.00  0.00     0.223 C 
ATOM      5  O   UNL A   1      31.384  28.806  27.710  1.00  0.00    -0.275 OA
ATOM      6  H   UNL A   1      32.656  30.551  28.523  1.00  0.00     0.163 HD
BRANCH   4   7
ATOM      7  C   UNL A   1      32.604  28.719  25.646  1.00  0.00     0.078 C 
ATOM      8  C   UNL A   1      31.387  26.185  24.523  1.00  0.00     0.008 C 
ATOM      9  C   UNL A   1      30.617  27.518  24.475  1.00  0.00     0.006 C 
ATOM     10  C   UNL A   1      32.593  26.150  25.484  1.00  0.00     0.006 C 
ATOM     11  C   UNL A   1      31.459  28.779  24.639  1.00  0.00     0.014 C 
ATOM     12  C   UNL A   1      33.408  27.426  25.575  1.00  0.00     0.014 C 
BRANCH   8  13
ATOM     13  C   UNL A   1      30.460  25.009  24.907  1.00  0.00     0.121 C 
BRANCH  13  14
ATOM     14  N   UNL A   1      31.120  23.728  25.021  1.00  0.00    -0.338 N 
ATOM     15  O   UNL A   1      30.520  23.412  27.197  1.00  0.00    -0.249 OA
ATOM     16  C   UNL A   1      31.043  23.000  26.167  1.00  0.00     0.315 C 
ATOM     17  N   UNL A   1      31.556  21.750  26.144  1.00  0.00    -0.334 N 
ATOM     18  H   UNL A   1      31.546  21.289  27.014  1.00  0.00     0.165 HD
ATOM     19  H   UNL A   1      31.632  23.376  24.257  1.00  0.00     0.165 HD
BRANCH  17  20
ATOM     20  C   UNL A   1      32.118  20.977  25.063  1.00  0.00     0.154 C 
BRANCH  20  21
ATOM     21  C   UNL A   1      33.559  21.337  24.910  1.00  0.00    -0.018 A 
ATOM     22  C   UNL A   1      34.078  22.259  23.939  1.00  0.00     0.017 A 
ATOM     23  C   UNL A   1      34.583  20.821  25.684  1.00  0.00     0.070 A 
ATOM     24  C   UNL A   1      35.446  22.393  24.013  1.00  0.00     0.065 A 
ATOM     25  S   UNL A   1      36.121  21.421  25.245  1.00  0.00    -0.152 S 
ENDBRANCH  20  21
ENDBRANCH  17  20
ENDBRANCH  13  14
ENDBRANCH   8  13
ENDBRANCH   4   7
ENDBRANCH   2   3
ENDBRANCH   1   2
BRANCH   1  26
ATOM     26  C   UNL A   1      35.685  32.930  28.018  1.00  0.00     0.002 C 
BRANCH  26  27
ATOM     27  C   UNL A   1      35.583  34.148  28.948  1.00  0.00     0.002 C 
BRANCH  27  28
ATOM     28  C   UNL A   1      34.421  35.111  28.680  1.00  0.00     0.021 C 
BRANCH  28  29
ATOM     29  C   UNL A   1      33.068  34.680  29.241  1.00  0.00     0.116 C 
BRANCH  29  30
ATOM     30  N   UNL A   1      32.579  35.591  30.265  1.00  0.00    -0.352 N 
ATOM     31  C   UNL A   1      32.917  35.711  31.589  1.00  0.00     0.251 C 
ATOM     32  H   UNL A   1      31.895  36.228  29.956  1.00  0.00     0.163 HD
ATOM     33  O   UNL A   1      32.239  36.415  32.331  1.00  0.00    -0.269 OA
BRANCH  31  34
ATOM     34  C   UNL A   1      34.081  34.983  32.139  1.00  0.00     0.039 A 
ATOM     35  C   UNL A   1      33.905  33.666  32.575  1.00  0.00     0.014 A 
ATOM     36  C   UNL A   1      35.330  35.600  32.260  1.00  0.00     0.014 A 
ATOM     37  C   UNL A   1      34.996  32.942  33.061  1.00  0.00     0.010 A 
ATOM     38  C   UNL A   1      36.429  34.860  32.690  1.00  0.00     0.010 A 
ATOM     39  C   UNL A   1      36.275  33.521  33.084  1.00  0.00    -0.014 A 
BRANCH  39  40
ATOM     40  C   UNL A   1      37.472  32.733  33.470  1.00  0.00     0.031 A 
ATOM     41  C   UNL A   1      38.199  33.029  34.749  1.00  0.00     0.074 A 
ATOM     42  C   UNL A   1      37.950  31.806  32.618  1.00  0.00     0.049 A 
ATOM     43  N   UNL A   1      39.317  32.520  35.202  1.00  0.00    -0.248 NA
ATOM     44  C   UNL A   1      37.600  34.044  35.629  1.00  0.00     0.031 C 
ATOM     45  C   UNL A   1      37.348  31.452  31.332  1.00  0.00     0.029 A 
ATOM     46  N   UNL A   1      39.062  31.005  32.695  1.00  0.00    -0.354 N 
ATOM     47  C   UNL A   1      39.563  33.161  36.409  1.00  0.00     0.074 A 
ATOM     48  C   UNL A   1      38.497  34.122  36.601  1.00  0.00     0.031 C 
ATOM     49  C   UNL A   1      38.091  30.502  30.745  1.00  0.00     0.029 A 
ATOM     50  C   UNL A   1      39.246  30.212  31.590  1.00  0.00     0.049 A 
ATOM     51  H   UNL A   1      39.669  30.999  33.470  1.00  0.00     0.167 HD
ATOM     52  C   UNL A   1      40.578  32.953  37.282  1.00  0.00     0.037 A 
ATOM     53  C   UNL A   1      40.245  29.364  31.280  1.00  0.00     0.037 A 
ATOM     54  C   UNL A   1      41.625  31.984  37.092  1.00  0.00     0.049 A 
ATOM     55  C   UNL A   1      41.380  29.182  32.250  1.00  0.00     0.074 A 
ATOM     56  C   UNL A   1      42.653  31.643  37.954  1.00  0.00     0.029 A 
ATOM     57  N   UNL A   1      41.785  31.207  35.954  1.00  0.00    -0.354 N 
ATOM     58  N   UNL A   1      41.564  29.738  33.422  1.00  0.00    -0.248 NA
ATOM     59  C   UNL A   1      42.451  28.257  31.850  1.00  0.00     0.031 C 
ATOM     60  C   UNL A   1      43.464  30.697  37.317  1.00  0.00     0.029 A 
ATOM     61  C   UNL A   1      42.916  30.415  36.076  1.00  0.00     0.049 A 
ATOM     62  H   UNL A   1      41.184  31.217  35.173  1.00  0.00     0.167 HD
ATOM     63  C   UNL A   1      42.757  29.223  33.907  1.00  0.00     0.074 A 
ATOM     64  C   UNL A   1      43.247  28.293  32.911  1.00  0.00     0.031 C 
ATOM     65  C   UNL A   1      43.393  29.499  35.071  1.00  0.00     0.037 A 
BRANCH  52  66
ATOM     66  C   UNL A   1      40.608  33.791  38.526  1.00  0.00     0.064 A 
ATOM     67  C   UNL A   1      39.907  33.415  39.682  1.00  0.00     0.173 A 
ATOM     68  C   UNL A   1      41.386  34.957  38.581  1.00  0.00     0.173 A 
ATOM     69  F   UNL A   1      39.143  32.313  39.680  1.00  0.00    -0.203 F 
ATOM     70  C   UNL A   1      39.964  34.189  40.838  1.00  0.00     0.198 A 
ATOM     71  C   UNL A   1      41.462  35.714  39.746  1.00  0.00     0.198 A 
ATOM     72  F   UNL A   1      42.083  35.357  37.506  1.00  0.00    -0.203 F 
ATOM     73  F   UNL A   1      39.254  33.833  41.917  1.00  0.00    -0.200 F 
ATOM     74  C   UNL A   1      40.747  35.334  40.872  1.00  0.00     0.200 A 
ATOM     75  F   UNL A   1      42.229  36.812  39.782  1.00  0.00    -0.200 F 
ATOM     76  F   UNL A   1      40.807  36.073  41.988  1.00  0.00    -0.200 F 
ENDBRANCH  52  66
BRANCH  53  77
ATOM     77  C   UNL A   1      40.212  28.621  29.994  1.00  0.00     0.064 A 
ATOM     78  C   UNL A   1      40.835  29.140  28.851  1.00  0.00     0.173 A 
ATOM     79  C   UNL A   1      39.568  27.380  29.880  1.00  0.00     0.173 A 
ATOM     80  F   UNL A   1      41.449  30.330  28.907  1.00  0.00    -0.203 F 
ATOM     81  C   UNL A   1      40.802  28.453  27.639  1.00  0.00     0.198 A 
ATOM     82  C   UNL A   1      39.561  26.682  28.675  1.00  0.00     0.198 A 
ATOM     83  F   UNL A   1      38.965  26.830  30.945  1.00  0.00    -0.203 F 
ATOM     84  F   UNL A   1      41.374  28.990  26.552  1.00  0.00    -0.200 F 
ATOM     85  C   UNL A   1      40.170  27.222  27.552  1.00  0.00     0.200 A 
ATOM     86  F   UNL A   1      38.969  25.482  28.603  1.00  0.00    -0.200 F 
ATOM     87  F   UNL A   1      40.147  26.558  26.390  1.00  0.00    -0.200 F 
ENDBRANCH  53  77
BRANCH  65  88
ATOM     88  C   UNL A   1      44.686  28.785  35.335  1.00  0.00     0.064 A 
ATOM     89  C   UNL A   1      44.712  27.529  35.960  1.00  0.00     0.173 A 
ATOM     90  C   UNL A   1      45.905  29.339  34.919  1.00  0.00     0.173 A 
ATOM     91  F   UNL A   1      43.573  26.967  36.392  1.00  0.00    -0.203 F 
ATOM     92  C   UNL A   1      45.914  26.862  36.174  1.00  0.00     0.198 A 
ATOM     93  C   UNL A   1      47.103  28.657  35.111  1.00  0.00     0.198 A 
ATOM     94  F   UNL A   1      45.934  30.536  34.315  1.00  0.00    -0.203 F 
ATOM     95  F   UNL A   1      45.920  25.682  36.809  1.00  0.00    -0.200 F 
ATOM     96  C   UNL A   1      47.108  27.422  35.742  1.00  0.00     0.200 A 
ATOM     97  F   UNL A   1      48.255  29.194  34.684  1.00  0.00    -0.200 F 
ATOM     98  F   UNL A   1      48.264  26.774  35.941  1.00  0.00    -0.200 F 
ENDBRANCH  65  88
ENDBRANCH  39  40
ENDBRANCH  31  34
ENDBRANCH  29  30
ENDBRANCH  28  29
ENDBRANCH  27  28
ENDBRANCH  26  27
ENDBRANCH   1  26
TORSDOF 17
ENDMDL
