MODEL 1
REMARK VINA RESULT:     -12.1      0.000      0.000
REMARK SMILES CC(C)(C)OC(=O)N1CCC[C@](Cc2ccccc2)(C(=O)NCCCCCCNC(=O)c2ccc(-c3c4nc(c(-c5c(F)c(F)c(F)c(F)c5F)c5ccc([nH]5)c(-c5c(F)c(F)c(F)c(F)c5F)c5nc(c(-c6c(F)c(F)c(F)c(F)c6F)c6ccc3[nH]6)C=C5)C=C4)cc2)C1
REMARK SMILES IDX 25 1 24 2 23 3 22 4 20 5 21 6 12 8 8 9 9 10 95 11 10 12
REMARK SMILES IDX 11 13 6 14 7 15 5 16 2 17 1 18 3 19 4 20 13 21 14 22 15 23
REMARK SMILES IDX 19 24 16 25 18 26 17 27 26 28 27 29 28 30 29 31 30 32 31 34
REMARK SMILES IDX 32 35 33 36 94 37 34 38 93 39 35 40 36 41 37 42 87 43 38 44
REMARK SMILES IDX 92 45 86 46 88 47 39 48 91 49 85 50 84 51 40 53 72 54 52 55
REMARK SMILES IDX 71 56 53 57 56 58 70 59 89 60 54 61 55 62 69 64 90 65 57 66
REMARK SMILES IDX 41 67 42 68 50 69 43 70 44 71 48 72 51 73 45 74 46 75 49 76
REMARK SMILES IDX 47 77 73 78 74 79 82 80 75 81 76 82 80 83 83 84 77 85 78 86
REMARK SMILES IDX 81 87 79 88 58 89 59 90 67 91 60 92 61 93 65 94 68 95 62 96
REMARK SMILES IDX 63 97 66 98 64 99
REMARK H PARENT 22 7 29 33 88 52 56 63
REMARK Flexibility Score: inf
ROOT
ATOM      1  C   UNL A   1      32.078  29.709  27.073  1.00  0.00     0.002 C 
ENDROOT
BRANCH   1   2
ATOM      2  C   UNL A   1      33.500  29.223  26.804  1.00  0.00     0.021 C 
BRANCH   2   3
ATOM      3  C   UNL A   1      33.597  27.727  26.532  1.00  0.00     0.116 C 
BRANCH   3   4
ATOM      4  N   UNL A   1      32.342  27.025  26.625  1.00  0.00    -0.356 N 
ATOM      5  C   UNL A   1      32.011  25.741  26.329  1.00  0.00     0.228 C 
ATOM      6  O   UNL A   1      30.943  25.364  26.830  1.00  0.00    -0.274 OA
ATOM      7  H   UNL A   1      31.595  27.572  26.962  1.00  0.00     0.163 HD
BRANCH   5   8
ATOM      8  C   UNL A   1      32.835  24.809  25.380  1.00  0.00     0.071 C 
ATOM      9  N   UNL A   1      32.835  25.538  22.919  1.00  0.00    -0.307 N 
ATOM     10  C   UNL A   1      32.271  24.262  22.521  1.00  0.00     0.123 C 
ATOM     11  C   UNL A   1      33.507  25.615  24.217  1.00  0.00     0.140 C 
ATOM     12  C   UNL A   1      31.286  23.736  23.543  1.00  0.00     0.023 C 
ATOM     13  C   UNL A   1      31.909  23.638  24.926  1.00  0.00     0.021 C 
BRANCH   9  14
ATOM     14  C   UNL A   1      32.732  26.599  22.029  1.00  0.00     0.410 C 
ATOM     15  O   UNL A   1      33.688  26.975  21.374  1.00  0.00    -0.224 OA
BRANCH  14  16
ATOM     16  O   UNL A   1      31.494  27.160  22.006  1.00  0.00    -0.444 OA
BRANCH  16  17
ATOM     17  C   UNL A   1      31.173  28.361  22.778  1.00  0.00     0.106 C 
ATOM     18  C   UNL A   1      32.517  28.958  23.224  1.00  0.00     0.056 C 
ATOM     19  C   UNL A   1      30.384  27.905  24.006  1.00  0.00     0.056 C 
ATOM     20  C   UNL A   1      30.406  29.471  22.038  1.00  0.00     0.056 C 
ENDBRANCH  16  17
ENDBRANCH  14  16
ENDBRANCH   9  14
BRANCH   8  21
ATOM     21  C   UNL A   1      33.976  24.212  26.328  1.00  0.00     0.054 C 
BRANCH  21  22
ATOM     22  C   UNL A   1      35.123  23.497  25.636  1.00  0.00    -0.047 A 
ATOM     23  C   UNL A   1      36.441  23.949  25.800  1.00  0.00     0.004 A 
ATOM     24  C   UNL A   1      34.902  22.325  24.906  1.00  0.00     0.004 A 
ATOM     25  C   UNL A   1      37.516  23.159  25.390  1.00  0.00     0.000 A 
ATOM     26  C   UNL A   1      35.975  21.531  24.505  1.00  0.00     0.000 A 
ATOM     27  C   UNL A   1      37.281  21.933  24.776  1.00  0.00     0.000 A 
ENDBRANCH  21  22
ENDBRANCH   8  21
ENDBRANCH   5   8
ENDBRANCH   3   4
ENDBRANCH   2   3
ENDBRANCH   1   2
BRANCH   1  28
ATOM     28  C   UNL A   1      31.567  30.800  26.121  1.00  0.00     0.002 C 
BRANCH  28  29
ATOM     29  C   UNL A   1      31.405  32.194  26.731  1.00  0.00     0.021 C 
BRANCH  29  30
ATOM     30  C   UNL A   1      32.703  32.853  27.183  1.00  0.00     0.116 C 
BRANCH  30  31
ATOM     31  N   UNL A   1      32.494  34.226  27.619  1.00  0.00    -0.352 N 
ATOM     32  C   UNL A   1      33.031  34.905  28.680  1.00  0.00     0.251 C 
ATOM     33  H   UNL A   1      31.869  34.748  27.065  1.00  0.00     0.163 HD
ATOM     34  O   UNL A   1      32.559  35.984  29.026  1.00  0.00    -0.269 OA
BRANCH  32  35
ATOM     35  C   UNL A   1      34.177  34.335  29.416  1.00  0.00     0.039 A 
ATOM     36  C   UNL A   1      33.941  33.625  30.596  1.00  0.00     0.014 A 
ATOM     37  C   UNL A   1      35.484  34.522  28.956  1.00  0.00     0.014 A 
ATOM     38  C   UNL A   1      35.012  33.056  31.285  1.00  0.00     0.010 A 
ATOM     39  C   UNL A   1      36.540  33.885  29.597  1.00  0.00     0.010 A 
ATOM     40  C   UNL A   1      36.317  33.155  30.773  1.00  0.00    -0.014 A 
BRANCH  40  41
ATOM     41  C   UNL A   1      37.463  32.509  31.459  1.00  0.00     0.031 A 
ATOM     42  C   UNL A   1      38.168  31.347  30.821  1.00  0.00     0.074 A 
ATOM     43  C   UNL A   1      37.827  32.935  32.683  1.00  0.00     0.049 A 
ATOM     44  N   UNL A   1      39.154  30.620  31.281  1.00  0.00    -0.248 NA
ATOM     45  C   UNL A   1      37.678  30.926  29.500  1.00  0.00     0.031 C 
ATOM     46  C   UNL A   1      37.195  34.030  33.420  1.00  0.00     0.029 A 
ATOM     47  N   UNL A   1      38.818  32.496  33.524  1.00  0.00    -0.354 N 
ATOM     48  C   UNL A   1      39.395  29.655  30.312  1.00  0.00     0.074 A 
ATOM     49  C   UNL A   1      38.408  29.845  29.273  1.00  0.00     0.031 C 
ATOM     50  C   UNL A   1      37.839  34.203  34.584  1.00  0.00     0.029 A 
ATOM     51  C   UNL A   1      38.897  33.204  34.698  1.00  0.00     0.049 A 
ATOM     52  H   UNL A   1      39.415  31.744  33.307  1.00  0.00     0.167 HD
ATOM     53  C   UNL A   1      40.370  28.715  30.279  1.00  0.00     0.037 A 
ATOM     54  C   UNL A   1      39.729  33.061  35.745  1.00  0.00     0.037 A 
ATOM     55  C   UNL A   1      41.351  28.534  31.317  1.00  0.00     0.049 A 
ATOM     56  C   UNL A   1      40.771  31.976  35.708  1.00  0.00     0.074 A 
ATOM     57  C   UNL A   1      42.408  27.643  31.364  1.00  0.00     0.029 A 
ATOM     58  N   UNL A   1      41.386  29.258  32.502  1.00  0.00    -0.354 N 
ATOM     59  N   UNL A   1      41.037  31.112  34.758  1.00  0.00    -0.248 NA
ATOM     60  C   UNL A   1      41.629  31.847  36.893  1.00  0.00     0.031 C 
ATOM     61  C   UNL A   1      43.045  27.785  32.602  1.00  0.00     0.029 A 
ATOM     62  C   UNL A   1      42.427  28.809  33.301  1.00  0.00     0.049 A 
ATOM     63  H   UNL A   1      40.764  29.982  32.740  1.00  0.00     0.167 HD
ATOM     64  C   UNL A   1      42.113  30.362  35.213  1.00  0.00     0.074 A 
ATOM     65  C   UNL A   1      42.457  30.881  36.521  1.00  0.00     0.031 C 
ATOM     66  C   UNL A   1      42.760  29.339  34.601  1.00  0.00     0.037 A 
BRANCH  53  67
ATOM     67  C   UNL A   1      40.405  27.804  29.082  1.00  0.00     0.064 A 
ATOM     68  C   UNL A   1      41.189  28.097  27.953  1.00  0.00     0.173 A 
ATOM     69  C   UNL A   1      39.641  26.627  29.057  1.00  0.00     0.173 A 
ATOM     70  F   UNL A   1      41.933  29.214  27.919  1.00  0.00    -0.203 F 
ATOM     71  C   UNL A   1      41.165  27.277  26.828  1.00  0.00     0.198 A 
ATOM     72  C   UNL A   1      39.651  25.789  27.945  1.00  0.00     0.198 A 
ATOM     73  F   UNL A   1      38.881  26.290  30.110  1.00  0.00    -0.203 F 
ATOM     74  F   UNL A   1      41.862  27.620  25.736  1.00  0.00    -0.200 F 
ATOM     75  C   UNL A   1      40.399  26.122  26.827  1.00  0.00     0.200 A 
ATOM     76  F   UNL A   1      38.922  24.664  27.950  1.00  0.00    -0.200 F 
ATOM     77  F   UNL A   1      40.373  25.336  25.742  1.00  0.00    -0.200 F 
ENDBRANCH  53  67
BRANCH  54  78
ATOM     78  C   UNL A   1      39.641  33.997  36.895  1.00  0.00     0.064 A 
ATOM     79  C   UNL A   1      38.857  33.680  38.014  1.00  0.00     0.173 A 
ATOM     80  C   UNL A   1      40.339  35.213  36.911  1.00  0.00     0.173 A 
ATOM     81  F   UNL A   1      38.156  32.537  38.037  1.00  0.00    -0.203 F 
ATOM     82  C   UNL A   1      38.762  34.550  39.098  1.00  0.00     0.198 A 
ATOM     83  C   UNL A   1      40.267  36.069  38.008  1.00  0.00     0.198 A 
ATOM     84  F   UNL A   1      41.106  35.562  35.869  1.00  0.00    -0.203 F 
ATOM     85  F   UNL A   1      37.974  34.241  40.135  1.00  0.00    -0.200 F 
ATOM     86  C   UNL A   1      39.473  35.741  39.098  1.00  0.00     0.200 A 
ATOM     87  F   UNL A   1      40.967  37.211  38.011  1.00  0.00    -0.200 F 
ATOM     88  F   UNL A   1      39.389  36.573  40.143  1.00  0.00    -0.200 F 
ENDBRANCH  54  78
BRANCH  66  89
ATOM     89  C   UNL A   1      43.933  28.737  35.322  1.00  0.00     0.064 A 
ATOM     90  C   UNL A   1      45.240  29.208  35.134  1.00  0.00     0.173 A 
ATOM     91  C   UNL A   1      43.738  27.696  36.243  1.00  0.00     0.173 A 
ATOM     92  F   UNL A   1      45.483  30.191  34.253  1.00  0.00    -0.203 F 
ATOM     93  C   UNL A   1      46.312  28.642  35.820  1.00  0.00     0.198 A 
ATOM     94  C   UNL A   1      44.805  27.156  36.953  1.00  0.00     0.198 A 
ATOM     95  F   UNL A   1      42.507  27.211  36.466  1.00  0.00    -0.203 F 
ATOM     96  F   UNL A   1      47.558  29.073  35.584  1.00  0.00    -0.200 F 
ATOM     97  C   UNL A   1      46.093  27.623  36.735  1.00  0.00     0.200 A 
ATOM     98  F   UNL A   1      44.590  26.183  37.849  1.00  0.00    -0.200 F 
ATOM     99  F   UNL A   1      47.124  27.087  37.401  1.00  0.00    -0.200 F 
ENDBRANCH  66  89
ENDBRANCH  40  41
ENDBRANCH  32  35
ENDBRANCH  30  31
ENDBRANCH  29  30
ENDBRANCH  28  29
ENDBRANCH   1  28
TORSDOF 18
ENDMDL
MODEL 2
REMARK VINA RESULT:     -11.9      0.785      7.196
REMARK SMILES CC(C)(C)OC(=O)N1CCC[C@](Cc2ccccc2)(C(=O)NCCCCCCNC(=O)c2ccc(-c3c4nc(c(-c5c(F)c(F)c(F)c(F)c5F)c5ccc([nH]5)c(-c5c(F)c(F)c(F)c(F)c5F)c5nc(c(-c6c(F)c(F)c(F)c(F)c6F)c6ccc3[nH]6)C=C5)C=C4)cc2)C1
REMARK SMILES IDX 25 1 24 2 23 3 22 4 20 5 21 6 12 8 8 9 9 10 95 11 10 12
REMARK SMILES IDX 11 13 6 14 7 15 5 16 2 17 1 18 3 19 4 20 13 21 14 22 15 23
REMARK SMILES IDX 19 24 16 25 18 26 17 27 26 28 27 29 28 30 29 31 30 32 31 34
REMARK SMILES IDX 32 35 33 36 94 37 34 38 93 39 35 40 36 41 37 42 87 43 38 44
REMARK SMILES IDX 92 45 86 46 88 47 39 48 91 49 85 50 84 51 40 53 72 54 52 55
REMARK SMILES IDX 71 56 53 57 56 58 70 59 89 60 54 61 55 62 69 64 90 65 57 66
REMARK SMILES IDX 41 67 42 68 50 69 43 70 44 71 48 72 51 73 45 74 46 75 49 76
REMARK SMILES IDX 47 77 73 78 74 79 82 80 75 81 76 82 80 83 83 84 77 85 78 86
REMARK SMILES IDX 81 87 79 88 58 89 59 90 67 91 60 92 61 93 65 94 68 95 62 96
REMARK SMILES IDX 63 97 66 98 64 99
REMARK H PARENT 22 7 29 33 88 52 56 63
REMARK Flexibility Score: inf
ROOT
ATOM      1  C   UNL A   1      32.153  29.548  27.256  1.00  0.00     0.002 C 
ENDROOT
BRANCH   1   2
ATOM      2  C   UNL A   1      33.540  29.010  26.909  1.00  0.00     0.021 C 
BRANCH   2   3
ATOM      3  C   UNL A   1      33.534  27.566  26.422  1.00  0.00     0.116 C 
BRANCH   3   4
ATOM      4  N   UNL A   1      32.268  26.894  26.574  1.00  0.00    -0.356 N 
ATOM      5  C   UNL A   1      31.904  25.607  26.334  1.00  0.00     0.228 C 
ATOM      6  O   UNL A   1      30.843  25.271  26.875  1.00  0.00    -0.274 OA
ATOM      7  H   UNL A   1      31.541  27.468  26.910  1.00  0.00     0.163 HD
BRANCH   5   8
ATOM      8  C   UNL A   1      32.683  24.625  25.397  1.00  0.00     0.071 C 
ATOM      9  N   UNL A   1      32.714  25.318  22.926  1.00  0.00    -0.307 N 
ATOM     10  C   UNL A   1      32.092  24.064  22.546  1.00  0.00     0.123 C 
ATOM     11  C   UNL A   1      33.390  25.382  24.223  1.00  0.00     0.140 C 
ATOM     12  C   UNL A   1      31.085  23.598  23.577  1.00  0.00     0.023 C 
ATOM     13  C   UNL A   1      31.704  23.492  24.961  1.00  0.00     0.021 C 
BRANCH   9  14
ATOM     14  C   UNL A   1      32.659  26.370  22.022  1.00  0.00     0.410 C 
ATOM     15  O   UNL A   1      33.649  26.745  21.419  1.00  0.00    -0.224 OA
BRANCH  14  16
ATOM     16  O   UNL A   1      31.421  26.925  21.920  1.00  0.00    -0.444 OA
BRANCH  16  17
ATOM     17  C   UNL A   1      31.025  28.085  22.718  1.00  0.00     0.106 C 
ATOM     18  C   UNL A   1      32.329  28.759  23.175  1.00  0.00     0.056 C 
ATOM     19  C   UNL A   1      30.270  27.552  23.937  1.00  0.00     0.056 C 
ATOM     20  C   UNL A   1      30.185  29.159  22.003  1.00  0.00     0.056 C 
ENDBRANCH  16  17
ENDBRANCH  14  16
ENDBRANCH   9  14
BRANCH   8  21
ATOM     21  C   UNL A   1      33.796  23.990  26.353  1.00  0.00     0.054 C 
BRANCH  21  22
ATOM     22  C   UNL A   1      34.977  23.326  25.667  1.00  0.00    -0.047 A 
ATOM     23  C   UNL A   1      36.256  23.898  25.744  1.00  0.00     0.004 A 
ATOM     24  C   UNL A   1      34.834  22.089  25.029  1.00  0.00     0.004 A 
ATOM     25  C   UNL A   1      37.380  23.174  25.347  1.00  0.00     0.000 A 
ATOM     26  C   UNL A   1      35.957  21.361  24.642  1.00  0.00     0.000 A 
ATOM     27  C   UNL A   1      37.232  21.891  24.830  1.00  0.00     0.000 A 
ENDBRANCH  21  22
ENDBRANCH   8  21
ENDBRANCH   5   8
ENDBRANCH   3   4
ENDBRANCH   2   3
ENDBRANCH   1   2
BRANCH   1  28
ATOM     28  C   UNL A   1      31.522  30.464  26.197  1.00  0.00     0.002 C 
BRANCH  28  29
ATOM     29  C   UNL A   1      31.407  31.942  26.579  1.00  0.00     0.021 C 
BRANCH  29  30
ATOM     30  C   UNL A   1      32.732  32.633  26.876  1.00  0.00     0.116 C 
BRANCH  30  31
ATOM     31  N   UNL A   1      32.539  33.967  27.427  1.00  0.00    -0.352 N 
ATOM     32  C   UNL A   1      33.097  34.554  28.532  1.00  0.00     0.251 C 
ATOM     33  H   UNL A   1      31.908  34.536  26.928  1.00  0.00     0.163 HD
ATOM     34  O   UNL A   1      32.637  35.603  28.973  1.00  0.00    -0.269 OA
BRANCH  32  35
ATOM     35  C   UNL A   1      34.251  33.920  29.198  1.00  0.00     0.039 A 
ATOM     36  C   UNL A   1      34.021  32.952  30.179  1.00  0.00     0.014 A 
ATOM     37  C   UNL A   1      35.557  34.298  28.876  1.00  0.00     0.014 A 
ATOM     38  C   UNL A   1      35.102  32.323  30.796  1.00  0.00     0.010 A 
ATOM     39  C   UNL A   1      36.633  33.612  29.430  1.00  0.00     0.010 A 
ATOM     40  C   UNL A   1      36.416  32.626  30.403  1.00  0.00    -0.014 A 
BRANCH  40  41
ATOM     41  C   UNL A   1      37.579  31.930  31.006  1.00  0.00     0.031 A 
ATOM     42  C   UNL A   1      38.048  32.299  32.384  1.00  0.00     0.074 A 
ATOM     43  C   UNL A   1      38.246  31.008  30.286  1.00  0.00     0.049 A 
ATOM     44  N   UNL A   1      39.071  31.843  33.063  1.00  0.00    -0.248 NA
ATOM     45  C   UNL A   1      37.282  33.343  33.082  1.00  0.00     0.031 C 
ATOM     46  C   UNL A   1      37.908  30.592  28.925  1.00  0.00     0.029 A 
ATOM     47  N   UNL A   1      39.349  30.255  30.601  1.00  0.00    -0.354 N 
ATOM     48  C   UNL A   1      39.074  32.549  34.259  1.00  0.00     0.074 A 
ATOM     49  C   UNL A   1      37.996  33.511  34.184  1.00  0.00     0.031 C 
ATOM     50  C   UNL A   1      38.760  29.631  28.537  1.00  0.00     0.029 A 
ATOM     51  C   UNL A   1      39.731  29.396  29.600  1.00  0.00     0.049 A 
ATOM     52  H   UNL A   1      39.822  30.325  31.462  1.00  0.00     0.167 HD
ATOM     53  C   UNL A   1      39.883  32.389  35.334  1.00  0.00     0.037 A 
ATOM     54  C   UNL A   1      40.750  28.519  29.550  1.00  0.00     0.037 A 
ATOM     55  C   UNL A   1      40.952  31.427  35.401  1.00  0.00     0.049 A 
ATOM     56  C   UNL A   1      41.668  28.395  30.736  1.00  0.00     0.074 A 
ATOM     57  C   UNL A   1      41.804  31.151  36.456  1.00  0.00     0.029 A 
ATOM     58  N   UNL A   1      41.323  30.587  34.358  1.00  0.00    -0.354 N 
ATOM     59  N   UNL A   1      41.622  29.017  31.889  1.00  0.00    -0.248 NA
ATOM     60  C   UNL A   1      42.781  27.445  30.610  1.00  0.00     0.031 C 
ATOM     61  C   UNL A   1      42.727  30.189  36.032  1.00  0.00     0.029 A 
ATOM     62  C   UNL A   1      42.412  29.816  34.735  1.00  0.00     0.049 A 
ATOM     63  H   UNL A   1      40.878  30.545  33.481  1.00  0.00     0.167 HD
ATOM     64  C   UNL A   1      42.674  28.510  32.639  1.00  0.00     0.074 A 
ATOM     65  C   UNL A   1      43.335  27.521  31.812  1.00  0.00     0.031 C 
ATOM     66  C   UNL A   1      43.057  28.831  33.900  1.00  0.00     0.037 A 
BRANCH  53  67
ATOM     67  C   UNL A   1      39.644  33.290  36.514  1.00  0.00     0.064 A 
ATOM     68  C   UNL A   1      38.791  32.918  37.566  1.00  0.00     0.173 A 
ATOM     69  C   UNL A   1      40.267  34.545  36.593  1.00  0.00     0.173 A 
ATOM     70  F   UNL A   1      38.161  31.733  37.539  1.00  0.00    -0.203 F 
ATOM     71  C   UNL A   1      38.531  33.787  38.623  1.00  0.00     0.198 A 
ATOM     72  C   UNL A   1      40.035  35.395  37.671  1.00  0.00     0.198 A 
ATOM     73  F   UNL A   1      41.100  34.950  35.623  1.00  0.00    -0.203 F 
ATOM     74  F   UNL A   1      37.653  33.439  39.575  1.00  0.00    -0.200 F 
ATOM     75  C   UNL A   1      39.156  35.023  38.676  1.00  0.00     0.200 A 
ATOM     76  F   UNL A   1      40.653  36.583  37.730  1.00  0.00    -0.200 F 
ATOM     77  F   UNL A   1      38.901  35.860  39.691  1.00  0.00    -0.200 F 
ENDBRANCH  53  67
BRANCH  54  78
ATOM     78  C   UNL A   1      40.927  27.658  28.353  1.00  0.00     0.064 A 
ATOM     79  C   UNL A   1      41.728  28.081  27.283  1.00  0.00     0.173 A 
ATOM     80  C   UNL A   1      40.319  26.398  28.254  1.00  0.00     0.173 A 
ATOM     81  F   UNL A   1      42.316  29.285  27.323  1.00  0.00    -0.203 F 
ATOM     82  C   UNL A   1      41.901  27.285  26.152  1.00  0.00     0.198 A 
ATOM     83  C   UNL A   1      40.516  25.590  27.135  1.00  0.00     0.198 A 
ATOM     84  F   UNL A   1      39.546  25.944  29.251  1.00  0.00    -0.203 F 
ATOM     85  F   UNL A   1      42.638  27.732  25.127  1.00  0.00    -0.200 F 
ATOM     86  C   UNL A   1      41.301  26.037  26.082  1.00  0.00     0.200 A 
ATOM     87  F   UNL A   1      39.946  24.379  27.078  1.00  0.00    -0.200 F 
ATOM     88  F   UNL A   1      41.473  25.267  25.000  1.00  0.00    -0.200 F 
ENDBRANCH  54  78
BRANCH  66  89
ATOM     89  C   UNL A   1      44.221  28.079  34.480  1.00  0.00     0.064 A 
ATOM     90  C   UNL A   1      45.534  28.563  34.394  1.00  0.00     0.173 A 
ATOM     91  C   UNL A   1      44.012  26.871  35.164  1.00  0.00     0.173 A 
ATOM     92  F   UNL A   1      45.790  29.705  33.736  1.00  0.00    -0.203 F 
ATOM     93  C   UNL A   1      46.597  27.854  34.946  1.00  0.00     0.198 A 
ATOM     94  C   UNL A   1      45.072  26.182  35.746  1.00  0.00     0.198 A 
ATOM     95  F   UNL A   1      42.775  26.364  35.281  1.00  0.00    -0.203 F 
ATOM     96  F   UNL A   1      47.849  28.310  34.805  1.00  0.00    -0.200 F 
ATOM     97  C   UNL A   1      46.365  26.669  35.629  1.00  0.00     0.200 A 
ATOM     98  F   UNL A   1      44.843  25.046  36.419  1.00  0.00    -0.200 F 
ATOM     99  F   UNL A   1      47.388  25.994  36.169  1.00  0.00    -0.200 F 
ENDBRANCH  66  89
ENDBRANCH  40  41
ENDBRANCH  32  35
ENDBRANCH  30  31
ENDBRANCH  29  30
ENDBRANCH  28  29
ENDBRANCH   1  28
TORSDOF 18
ENDMDL
MODEL 3
REMARK VINA RESULT:     -11.9      1.583      7.292
REMARK SMILES CC(C)(C)OC(=O)N1CCC[C@](Cc2ccccc2)(C(=O)NCCCCCCNC(=O)c2ccc(-c3c4nc(c(-c5c(F)c(F)c(F)c(F)c5F)c5ccc([nH]5)c(-c5c(F)c(F)c(F)c(F)c5F)c5nc(c(-c6c(F)c(F)c(F)c(F)c6F)c6ccc3[nH]6)C=C5)C=C4)cc2)C1
REMARK SMILES IDX 25 1 24 2 23 3 22 4 20 5 21 6 12 8 8 9 9 10 95 11 10 12
REMARK SMILES IDX 11 13 6 14 7 15 5 16 2 17 1 18 3 19 4 20 13 21 14 22 15 23
REMARK SMILES IDX 19 24 16 25 18 26 17 27 26 28 27 29 28 30 29 31 30 32 31 34
REMARK SMILES IDX 32 35 33 36 94 37 34 38 93 39 35 40 36 41 37 42 87 43 38 44
REMARK SMILES IDX 92 45 86 46 88 47 39 48 91 49 85 50 84 51 40 53 72 54 52 55
REMARK SMILES IDX 71 56 53 57 56 58 70 59 89 60 54 61 55 62 69 64 90 65 57 66
REMARK SMILES IDX 41 67 42 68 50 69 43 70 44 71 48 72 51 73 45 74 46 75 49 76
REMARK SMILES IDX 47 77 73 78 74 79 82 80 75 81 76 82 80 83 83 84 77 85 78 86
REMARK SMILES IDX 81 87 79 88 58 89 59 90 67 91 60 92 61 93 65 94 68 95 62 96
REMARK SMILES IDX 63 97 66 98 64 99
REMARK H PARENT 22 7 29 33 88 52 56 63
REMARK Flexibility Score: inf
ROOT
ATOM      1  C   UNL A   1      34.389  31.572  28.556  1.00  0.00     0.002 C 
ENDROOT
BRANCH   1   2
ATOM      2  C   UNL A   1      34.718  30.426  27.601  1.00  0.00     0.021 C 
BRANCH   2   3
ATOM      3  C   UNL A   1      33.616  30.135  26.589  1.00  0.00     0.116 C 
BRANCH   3   4
ATOM      4  N   UNL A   1      32.425  29.559  27.160  1.00  0.00    -0.356 N 
ATOM      5  C   UNL A   1      31.853  28.338  26.990  1.00  0.00     0.228 C 
ATOM      6  O   UNL A   1      31.032  28.037  27.866  1.00  0.00    -0.274 OA
ATOM      7  H   UNL A   1      31.942  30.152  27.780  1.00  0.00     0.163 HD
BRANCH   5   8
ATOM      8  C   UNL A   1      32.117  27.395  25.769  1.00  0.00     0.071 C 
ATOM      9  N   UNL A   1      30.906  28.089  23.615  1.00  0.00    -0.307 N 
ATOM     10  C   UNL A   1      30.234  26.805  23.557  1.00  0.00     0.123 C 
ATOM     11  C   UNL A   1      32.126  28.188  24.418  1.00  0.00     0.140 C 
ATOM     12  C   UNL A   1      29.880  26.289  24.936  1.00  0.00     0.023 C 
ATOM     13  C   UNL A   1      31.101  26.214  25.838  1.00  0.00     0.021 C 
BRANCH   9  14
ATOM     14  C   UNL A   1      30.369  29.136  22.878  1.00  0.00     0.410 C 
ATOM     15  O   UNL A   1      30.784  29.411  21.766  1.00  0.00    -0.224 OA
BRANCH  14  16
ATOM     16  O   UNL A   1      29.387  29.808  23.538  1.00  0.00    -0.444 OA
BRANCH  16  17
ATOM     17  C   UNL A   1      28.086  30.074  22.926  1.00  0.00     0.106 C 
ATOM     18  C   UNL A   1      27.476  31.251  23.705  1.00  0.00     0.056 C 
ATOM     19  C   UNL A   1      27.229  28.824  23.135  1.00  0.00     0.056 C 
ATOM     20  C   UNL A   1      28.092  30.470  21.439  1.00  0.00     0.056 C 
ENDBRANCH  16  17
ENDBRANCH  14  16
ENDBRANCH   9  14
BRANCH   8  21
ATOM     21  C   UNL A   1      33.582  26.818  26.044  1.00  0.00     0.054 C 
BRANCH  21  22
ATOM     22  C   UNL A   1      33.929  25.505  25.365  1.00  0.00    -0.047 A 
ATOM     23  C   UNL A   1      34.021  24.322  26.115  1.00  0.00     0.004 A 
ATOM     24  C   UNL A   1      34.070  25.430  23.975  1.00  0.00     0.004 A 
ATOM     25  C   UNL A   1      34.080  23.083  25.477  1.00  0.00     0.000 A 
ATOM     26  C   UNL A   1      34.118  24.192  23.337  1.00  0.00     0.000 A 
ATOM     27  C   UNL A   1      34.091  23.018  24.087  1.00  0.00     0.000 A 
ENDBRANCH  21  22
ENDBRANCH   8  21
ENDBRANCH   5   8
ENDBRANCH   3   4
ENDBRANCH   2   3
ENDBRANCH   1   2
BRANCH   1  28
ATOM     28  C   UNL A   1      34.491  32.979  27.950  1.00  0.00     0.002 C 
BRANCH  28  29
ATOM     29  C   UNL A   1      33.244  33.856  28.088  1.00  0.00     0.021 C 
BRANCH  29  30
ATOM     30  C   UNL A   1      33.517  35.305  28.471  1.00  0.00     0.116 C 
BRANCH  30  31
ATOM     31  N   UNL A   1      32.852  35.675  29.713  1.00  0.00    -0.352 N 
ATOM     32  C   UNL A   1      33.057  35.225  30.990  1.00  0.00     0.251 C 
ATOM     33  H   UNL A   1      32.144  36.353  29.619  1.00  0.00     0.163 HD
ATOM     34  O   UNL A   1      32.243  35.479  31.873  1.00  0.00    -0.269 OA
BRANCH  32  35
ATOM     35  C   UNL A   1      34.258  34.427  31.306  1.00  0.00     0.039 A 
ATOM     36  C   UNL A   1      35.514  34.916  30.938  1.00  0.00     0.014 A 
ATOM     37  C   UNL A   1      34.144  33.188  31.940  1.00  0.00     0.014 A 
ATOM     38  C   UNL A   1      36.659  34.187  31.257  1.00  0.00     0.010 A 
ATOM     39  C   UNL A   1      35.289  32.502  32.331  1.00  0.00     0.010 A 
ATOM     40  C   UNL A   1      36.557  32.989  31.984  1.00  0.00    -0.014 A 
BRANCH  40  41
ATOM     41  C   UNL A   1      37.765  32.226  32.382  1.00  0.00     0.031 A 
ATOM     42  C   UNL A   1      38.456  32.529  33.681  1.00  0.00     0.074 A 
ATOM     43  C   UNL A   1      38.271  31.302  31.545  1.00  0.00     0.049 A 
ATOM     44  N   UNL A   1      39.548  32.009  34.182  1.00  0.00    -0.248 NA
ATOM     45  C   UNL A   1      37.854  33.580  34.516  1.00  0.00     0.031 C 
ATOM     46  C   UNL A   1      37.710  30.945  30.241  1.00  0.00     0.029 A 
ATOM     47  N   UNL A   1      39.373  30.494  31.666  1.00  0.00    -0.354 N 
ATOM     48  C   UNL A   1      39.766  32.674  35.382  1.00  0.00     0.074 A 
ATOM     49  C   UNL A   1      38.734  33.682  35.499  1.00  0.00     0.031 C 
ATOM     50  C   UNL A   1      38.447  29.963  29.701  1.00  0.00     0.029 A 
ATOM     51  C   UNL A   1      39.558  29.653  30.596  1.00  0.00     0.049 A 
ATOM     52  H   UNL A   1      39.975  30.515  32.445  1.00  0.00     0.167 HD
ATOM     53  C   UNL A   1      40.722  32.445  36.314  1.00  0.00     0.037 A 
ATOM     54  C   UNL A   1      40.516  28.737  30.365  1.00  0.00     0.037 A 
ATOM     55  C   UNL A   1      41.743  31.438  36.190  1.00  0.00     0.049 A 
ATOM     56  C   UNL A   1      41.598  28.536  31.392  1.00  0.00     0.074 A 
ATOM     57  C   UNL A   1      42.732  31.093  37.093  1.00  0.00     0.029 A 
ATOM     58  N   UNL A   1      41.911  30.619  35.081  1.00  0.00    -0.354 N 
ATOM     59  N   UNL A   1      41.757  29.120  32.555  1.00  0.00    -0.248 NA
ATOM     60  C   UNL A   1      42.634  27.546  31.071  1.00  0.00     0.031 C 
ATOM     61  C   UNL A   1      43.535  30.108  36.507  1.00  0.00     0.029 A 
ATOM     62  C   UNL A   1      43.009  29.792  35.265  1.00  0.00     0.049 A 
ATOM     63  H   UNL A   1      41.336  30.625  34.283  1.00  0.00     0.167 HD
ATOM     64  C   UNL A   1      42.887  28.546  33.120  1.00  0.00     0.074 A 
ATOM     65  C   UNL A   1      43.368  27.559  32.175  1.00  0.00     0.031 C 
ATOM     66  C   UNL A   1      43.473  28.809  34.315  1.00  0.00     0.037 A 
BRANCH  53  67
ATOM     67  C   UNL A   1      40.707  33.316  37.540  1.00  0.00     0.064 A 
ATOM     68  C   UNL A   1      41.624  34.368  37.710  1.00  0.00     0.173 A 
ATOM     69  C   UNL A   1      39.774  33.095  38.564  1.00  0.00     0.173 A 
ATOM     70  F   UNL A   1      42.545  34.621  36.767  1.00  0.00    -0.203 F 
ATOM     71  C   UNL A   1      41.639  35.128  38.876  1.00  0.00     0.198 A 
ATOM     72  C   UNL A   1      39.766  33.883  39.712  1.00  0.00     0.198 A 
ATOM     73  F   UNL A   1      38.869  32.111  38.453  1.00  0.00    -0.203 F 
ATOM     74  F   UNL A   1      42.572  36.075  39.046  1.00  0.00    -0.200 F 
ATOM     75  C   UNL A   1      40.707  34.887  39.875  1.00  0.00     0.200 A 
ATOM     76  F   UNL A   1      38.856  33.659  40.670  1.00  0.00    -0.200 F 
ATOM     77  F   UNL A   1      40.726  35.616  40.999  1.00  0.00    -0.200 F 
ENDBRANCH  53  67
BRANCH  54  78
ATOM     78  C   UNL A   1      40.469  27.909  29.133  1.00  0.00     0.064 A 
ATOM     79  C   UNL A   1      39.690  26.744  29.087  1.00  0.00     0.173 A 
ATOM     80  C   UNL A   1      41.182  28.262  27.979  1.00  0.00     0.173 A 
ATOM     81  F   UNL A   1      39.005  26.354  30.172  1.00  0.00    -0.203 F 
ATOM     82  C   UNL A   1      39.639  25.955  27.940  1.00  0.00     0.198 A 
ATOM     83  C   UNL A   1      41.107  27.489  26.822  1.00  0.00     0.198 A 
ATOM     84  F   UNL A   1      41.938  29.369  27.968  1.00  0.00    -0.203 F 
ATOM     85  F   UNL A   1      38.920  24.825  27.937  1.00  0.00    -0.200 F 
ATOM     86  C   UNL A   1      40.342  26.332  26.805  1.00  0.00     0.200 A 
ATOM     87  F   UNL A   1      41.775  27.865  25.723  1.00  0.00    -0.200 F 
ATOM     88  F   UNL A   1      40.286  25.579  25.699  1.00  0.00    -0.200 F 
ENDBRANCH  54  78
BRANCH  66  89
ATOM     89  C   UNL A   1      44.676  27.990  34.688  1.00  0.00     0.064 A 
ATOM     90  C   UNL A   1      45.981  28.423  34.415  1.00  0.00     0.173 A 
ATOM     91  C   UNL A   1      44.518  26.770  35.363  1.00  0.00     0.173 A 
ATOM     92  F   UNL A   1      46.186  29.575  33.757  1.00  0.00    -0.203 F 
ATOM     93  C   UNL A   1      47.083  27.653  34.778  1.00  0.00     0.198 A 
ATOM     94  C   UNL A   1      45.622  26.019  35.756  1.00  0.00     0.198 A 
ATOM     95  F   UNL A   1      43.292  26.310  35.655  1.00  0.00    -0.203 F 
ATOM     96  F   UNL A   1      48.318  28.062  34.459  1.00  0.00    -0.200 F 
ATOM     97  C   UNL A   1      46.903  26.457  35.456  1.00  0.00     0.200 A 
ATOM     98  F   UNL A   1      45.447  24.871  36.426  1.00  0.00    -0.200 F 
ATOM     99  F   UNL A   1      47.965  25.722  35.813  1.00  0.00    -0.200 F 
ENDBRANCH  66  89
ENDBRANCH  40  41
ENDBRANCH  32  35
ENDBRANCH  30  31
ENDBRANCH  29  30
ENDBRANCH  28  29
ENDBRANCH   1  28
TORSDOF 18
ENDMDL
