MODEL 1
REMARK VINA RESULT:     -12.2      0.000      0.000
REMARK SMILES O=C(NCCCCCCNC(=O)c1ccc(S(=O)(=O)NCCCn2cccn2)cc1)c1ccc(-c2c3nc(c(-c4c(F)c(F)c(F)c(F)c4F)c4ccc([nH]4)c(-c4c(F)c(F)c(F)c(F)c4F)c4nc(c(-c5c(F)c(F)c(F)c(F)c5F)c5ccc2[nH]5)C=C4)C=C3)cc1
REMARK SMILES IDX 8 1 7 2 6 3 5 4 4 5 3 6 1 7 2 8 31 10 32 11 93 12 33 13
REMARK SMILES IDX 92 14 34 15 35 16 36 17 86 18 37 19 91 20 85 21 87 22 38 23
REMARK SMILES IDX 90 24 84 25 83 26 39 28 71 29 51 30 70 31 52 32 55 33 69 34
REMARK SMILES IDX 88 35 53 36 54 37 68 39 89 40 56 41 40 42 41 43 49 44 42 45
REMARK SMILES IDX 43 46 47 47 50 48 44 49 45 50 48 51 46 52 72 53 73 54 81 55
REMARK SMILES IDX 74 56 75 57 79 58 82 59 76 60 77 61 80 62 78 63 57 64 58 65
REMARK SMILES IDX 66 66 59 67 60 68 64 69 67 70 61 71 62 72 65 73 63 74 9 75
REMARK SMILES IDX 10 76 11 77 12 79 13 80 14 81 30 82 15 83 29 84 16 85 17 86
REMARK SMILES IDX 18 87 19 88 20 89 21 91 22 92 23 93 24 94 25 95 28 96 26 97
REMARK SMILES IDX 27 98
REMARK H PARENT 3 9 87 27 55 38 10 78 20 90
REMARK Flexibility Score: inf
ROOT
ATOM      1  C   UNL A   1      33.961  28.000  23.587  1.00  0.00     0.021 C 
ENDROOT
BRANCH   1   2
ATOM      2  C   UNL A   1      33.964  27.050  24.786  1.00  0.00     0.002 C 
BRANCH   2   3
ATOM      3  C   UNL A   1      33.585  27.677  26.131  1.00  0.00     0.002 C 
BRANCH   3   4
ATOM      4  C   UNL A   1      33.256  29.175  26.105  1.00  0.00     0.021 C 
BRANCH   4   5
ATOM      5  C   UNL A   1      33.219  29.848  27.476  1.00  0.00     0.116 C 
BRANCH   5   6
ATOM      6  N   UNL A   1      33.736  31.199  27.485  1.00  0.00    -0.352 N 
ATOM      7  O   UNL A   1      35.039  32.983  27.602  1.00  0.00    -0.269 OA
ATOM      8  C   UNL A   1      34.966  31.755  27.697  1.00  0.00     0.251 C 
ATOM      9  H   UNL A   1      33.043  31.872  27.292  1.00  0.00     0.163 HD
BRANCH   8  10
ATOM     10  C   UNL A   1      36.193  30.997  28.062  1.00  0.00     0.039 A 
ATOM     11  C   UNL A   1      36.418  29.644  27.802  1.00  0.00     0.014 A 
ATOM     12  C   UNL A   1      37.221  31.738  28.676  1.00  0.00     0.014 A 
ATOM     13  C   UNL A   1      37.615  29.037  28.180  1.00  0.00     0.010 A 
ATOM     14  C   UNL A   1      38.430  31.142  29.030  1.00  0.00     0.010 A 
ATOM     15  C   UNL A   1      38.624  29.782  28.794  1.00  0.00    -0.014 A 
BRANCH  15  16
ATOM     16  C   UNL A   1      39.906  29.121  29.046  1.00  0.00     0.031 A 
ATOM     17  C   UNL A   1      40.294  28.926  30.480  1.00  0.00     0.074 A 
ATOM     18  C   UNL A   1      40.653  28.535  28.090  1.00  0.00     0.049 A 
ATOM     19  N   UNL A   1      41.407  29.231  31.072  1.00  0.00    -0.248 NA
ATOM     20  C   UNL A   1      39.296  28.309  31.368  1.00  0.00     0.031 C 
ATOM     21  C   UNL A   1      40.305  28.312  26.686  1.00  0.00     0.029 A 
ATOM     22  N   UNL A   1      41.859  27.908  28.222  1.00  0.00    -0.354 N 
ATOM     23  C   UNL A   1      41.310  28.726  32.368  1.00  0.00     0.074 A 
ATOM     24  C   UNL A   1      39.966  28.226  32.517  1.00  0.00     0.031 C 
ATOM     25  C   UNL A   1      41.176  27.426  26.153  1.00  0.00     0.029 A 
ATOM     26  C   UNL A   1      42.205  27.123  27.134  1.00  0.00     0.049 A 
ATOM     27  H   UNL A   1      42.431  28.006  29.016  1.00  0.00     0.167 HD
ATOM     28  C   UNL A   1      42.378  28.614  33.205  1.00  0.00     0.037 A 
ATOM     29  C   UNL A   1      43.222  26.234  27.066  1.00  0.00     0.037 A 
ATOM     30  C   UNL A   1      43.471  29.460  32.824  1.00  0.00     0.049 A 
ATOM     31  C   UNL A   1      44.192  26.544  28.141  1.00  0.00     0.074 A 
ATOM     32  C   UNL A   1      43.645  30.823  32.682  1.00  0.00     0.029 A 
ATOM     33  N   UNL A   1      44.584  28.895  32.256  1.00  0.00    -0.354 N 
ATOM     34  N   UNL A   1      44.978  27.583  28.160  1.00  0.00    -0.248 NA
ATOM     35  C   UNL A   1      44.069  25.832  29.405  1.00  0.00     0.031 C 
ATOM     36  C   UNL A   1      44.584  30.973  31.620  1.00  0.00     0.029 A 
ATOM     37  C   UNL A   1      44.919  29.690  31.190  1.00  0.00     0.049 A 
ATOM     38  H   UNL A   1      45.051  28.082  32.555  1.00  0.00     0.167 HD
ATOM     39  C   UNL A   1      45.121  27.892  29.502  1.00  0.00     0.074 A 
ATOM     40  C   UNL A   1      44.657  26.710  30.217  1.00  0.00     0.031 C 
ATOM     41  C   UNL A   1      45.339  29.176  29.909  1.00  0.00     0.037 A 
BRANCH  28  42
ATOM     42  C   UNL A   1      42.522  27.539  34.249  1.00  0.00     0.064 A 
ATOM     43  C   UNL A   1      43.092  26.294  33.918  1.00  0.00     0.173 A 
ATOM     44  C   UNL A   1      41.865  27.598  35.498  1.00  0.00     0.173 A 
ATOM     45  F   UNL A   1      43.698  26.115  32.734  1.00  0.00    -0.203 F 
ATOM     46  C   UNL A   1      42.984  25.185  34.761  1.00  0.00     0.198 A 
ATOM     47  C   UNL A   1      41.801  26.504  36.358  1.00  0.00     0.198 A 
ATOM     48  F   UNL A   1      41.179  28.686  35.875  1.00  0.00    -0.203 F 
ATOM     49  F   UNL A   1      43.453  23.995  34.361  1.00  0.00    -0.200 F 
ATOM     50  C   UNL A   1      42.340  25.290  35.981  1.00  0.00     0.200 A 
ATOM     51  F   UNL A   1      41.152  26.617  37.526  1.00  0.00    -0.200 F 
ATOM     52  F   UNL A   1      42.196  24.216  36.770  1.00  0.00    -0.200 F 
ENDBRANCH  28  42
BRANCH  29  53
ATOM     53  C   UNL A   1      43.296  24.986  26.275  1.00  0.00     0.064 A 
ATOM     54  C   UNL A   1      44.287  24.801  25.299  1.00  0.00     0.173 A 
ATOM     55  C   UNL A   1      42.550  23.849  26.638  1.00  0.00     0.173 A 
ATOM     56  F   UNL A   1      45.076  25.823  24.934  1.00  0.00    -0.203 F 
ATOM     57  C   UNL A   1      44.525  23.548  24.728  1.00  0.00     0.198 A 
ATOM     58  C   UNL A   1      42.779  22.602  26.058  1.00  0.00     0.198 A 
ATOM     59  F   UNL A   1      41.646  23.906  27.627  1.00  0.00    -0.203 F 
ATOM     60  F   UNL A   1      45.519  23.395  23.841  1.00  0.00    -0.200 F 
ATOM     61  C   UNL A   1      43.775  22.449  25.112  1.00  0.00     0.200 A 
ATOM     62  F   UNL A   1      42.067  21.540  26.464  1.00  0.00    -0.200 F 
ATOM     63  F   UNL A   1      44.036  21.237  24.603  1.00  0.00    -0.200 F 
ENDBRANCH  29  53
BRANCH  41  64
ATOM     64  C   UNL A   1      45.740  30.180  28.869  1.00  0.00     0.064 A 
ATOM     65  C   UNL A   1      44.822  30.856  28.048  1.00  0.00     0.173 A 
ATOM     66  C   UNL A   1      47.085  30.567  28.792  1.00  0.00     0.173 A 
ATOM     67  F   UNL A   1      43.507  30.624  28.147  1.00  0.00    -0.203 F 
ATOM     68  C   UNL A   1      45.243  31.833  27.148  1.00  0.00     0.198 A 
ATOM     69  C   UNL A   1      47.496  31.572  27.920  1.00  0.00     0.198 A 
ATOM     70  F   UNL A   1      47.996  30.004  29.601  1.00  0.00    -0.203 F 
ATOM     71  F   UNL A   1      44.349  32.452  26.362  1.00  0.00    -0.200 F 
ATOM     72  C   UNL A   1      46.578  32.194  27.089  1.00  0.00     0.200 A 
ATOM     73  F   UNL A   1      48.780  31.957  27.904  1.00  0.00    -0.200 F 
ATOM     74  F   UNL A   1      46.977  33.163  26.252  1.00  0.00    -0.200 F 
ENDBRANCH  41  64
ENDBRANCH  15  16
ENDBRANCH   8  10
ENDBRANCH   5   6
ENDBRANCH   4   5
ENDBRANCH   3   4
ENDBRANCH   2   3
ENDBRANCH   1   2
BRANCH   1  75
ATOM     75  C   UNL A   1      33.283  27.458  22.338  1.00  0.00     0.116 C 
BRANCH  75  76
ATOM     76  N   UNL A   1      31.973  28.044  22.113  1.00  0.00    -0.352 N 
ATOM     77  C   UNL A   1      30.744  27.630  22.572  1.00  0.00     0.251 C 
ATOM     78  H   UNL A   1      31.962  28.853  21.551  1.00  0.00     0.163 HD
ATOM     79  O   UNL A   1      29.718  28.156  22.153  1.00  0.00    -0.269 OA
BRANCH  77  80
ATOM     80  C   UNL A   1      30.657  26.534  23.562  1.00  0.00     0.039 A 
ATOM     81  C   UNL A   1      30.971  25.229  23.164  1.00  0.00     0.015 A 
ATOM     82  C   UNL A   1      30.257  26.789  24.878  1.00  0.00     0.015 A 
ATOM     83  C   UNL A   1      30.929  24.190  24.097  1.00  0.00     0.022 A 
ATOM     84  C   UNL A   1      30.285  25.771  25.826  1.00  0.00     0.022 A 
ATOM     85  C   UNL A   1      30.600  24.470  25.429  1.00  0.00     0.082 A 
BRANCH  85  86
ATOM     86  S   UNL A   1      30.504  23.118  26.576  1.00  0.00     0.240 S 
ATOM     87  O   UNL A   1      29.531  23.477  27.590  1.00  0.00    -0.207 OA
ATOM     88  O   UNL A   1      30.378  21.916  25.794  1.00  0.00    -0.207 OA
BRANCH  86  89
ATOM     89  N   UNL A   1      32.002  23.050  27.309  1.00  0.00    -0.211 NA
ATOM     90  H   UNL A   1      31.818  22.867  28.296  1.00  0.00     0.141 HD
BRANCH  89  91
ATOM     91  C   UNL A   1      33.065  22.123  26.928  1.00  0.00     0.101 C 
BRANCH  91  92
ATOM     92  C   UNL A   1      34.467  22.693  27.060  1.00  0.00     0.040 C 
BRANCH  92  93
ATOM     93  C   UNL A   1      35.227  22.781  25.743  1.00  0.00     0.145 C 
BRANCH  93  94
ATOM     94  N   UNL A   1      36.658  22.900  25.950  1.00  0.00    -0.273 N 
ATOM     95  C   UNL A   1      37.342  24.040  26.261  1.00  0.00     0.108 A 
ATOM     96  N   UNL A   1      37.459  21.837  25.742  1.00  0.00    -0.182 NA
ATOM     97  C   UNL A   1      38.671  23.691  26.287  1.00  0.00     0.042 A 
ATOM     98  C   UNL A   1      38.685  22.319  25.973  1.00  0.00     0.135 A 
ENDBRANCH  93  94
ENDBRANCH  92  93
ENDBRANCH  91  92
ENDBRANCH  89  91
ENDBRANCH  86  89
ENDBRANCH  85  86
ENDBRANCH  77  80
ENDBRANCH  75  76
ENDBRANCH   1  75
TORSDOF 19
ENDMDL
MODEL 2
REMARK VINA RESULT:     -11.5      2.994      8.799
REMARK SMILES O=C(NCCCCCCNC(=O)c1ccc(S(=O)(=O)NCCCn2cccn2)cc1)c1ccc(-c2c3nc(c(-c4c(F)c(F)c(F)c(F)c4F)c4ccc([nH]4)c(-c4c(F)c(F)c(F)c(F)c4F)c4nc(c(-c5c(F)c(F)c(F)c(F)c5F)c5ccc2[nH]5)C=C4)C=C3)cc1
REMARK SMILES IDX 8 1 7 2 6 3 5 4 4 5 3 6 1 7 2 8 31 10 32 11 93 12 33 13
REMARK SMILES IDX 92 14 34 15 35 16 36 17 86 18 37 19 91 20 85 21 87 22 38 23
REMARK SMILES IDX 90 24 84 25 83 26 39 28 71 29 51 30 70 31 52 32 55 33 69 34
REMARK SMILES IDX 88 35 53 36 54 37 68 39 89 40 56 41 40 42 41 43 49 44 42 45
REMARK SMILES IDX 43 46 47 47 50 48 44 49 45 50 48 51 46 52 72 53 73 54 81 55
REMARK SMILES IDX 74 56 75 57 79 58 82 59 76 60 77 61 80 62 78 63 57 64 58 65
REMARK SMILES IDX 66 66 59 67 60 68 64 69 67 70 61 71 62 72 65 73 63 74 9 75
REMARK SMILES IDX 10 76 11 77 12 79 13 80 14 81 30 82 15 83 29 84 16 85 17 86
REMARK SMILES IDX 18 87 19 88 20 89 21 91 22 92 23 93 24 94 25 95 28 96 26 97
REMARK SMILES IDX 27 98
REMARK H PARENT 3 9 87 27 55 38 10 78 20 90
REMARK Flexibility Score: inf
ROOT
ATOM      1  C   UNL A   1      38.949  23.140  26.503  1.00  0.00     0.021 C 
ENDROOT
BRANCH   1   2
ATOM      2  C   UNL A   1      39.922  22.197  27.212  1.00  0.00     0.002 C 
BRANCH   2   3
ATOM      3  C   UNL A   1      40.470  21.046  26.362  1.00  0.00     0.002 C 
BRANCH   3   4
ATOM      4  C   UNL A   1      41.884  20.566  26.714  1.00  0.00     0.021 C 
BRANCH   4   5
ATOM      5  C   UNL A   1      42.354  19.335  25.941  1.00  0.00     0.116 C 
BRANCH   5   6
ATOM      6  N   UNL A   1      43.469  19.586  25.052  1.00  0.00    -0.352 N 
ATOM      7  O   UNL A   1      45.150  20.507  23.948  1.00  0.00    -0.269 OA
ATOM      8  C   UNL A   1      44.250  20.672  24.776  1.00  0.00     0.251 C 
ATOM      9  H   UNL A   1      43.722  18.792  24.528  1.00  0.00     0.163 HD
BRANCH   8  10
ATOM     10  C   UNL A   1      44.072  22.025  25.370  1.00  0.00     0.039 A 
ATOM     11  C   UNL A   1      43.189  23.002  24.909  1.00  0.00     0.014 A 
ATOM     12  C   UNL A   1      44.831  22.301  26.523  1.00  0.00     0.014 A 
ATOM     13  C   UNL A   1      43.095  24.236  25.552  1.00  0.00     0.010 A 
ATOM     14  C   UNL A   1      44.721  23.523  27.186  1.00  0.00     0.010 A 
ATOM     15  C   UNL A   1      43.860  24.500  26.692  1.00  0.00    -0.014 A 
BRANCH  15  16
ATOM     16  C   UNL A   1      43.620  25.759  27.399  1.00  0.00     0.031 A 
ATOM     17  C   UNL A   1      44.585  26.874  27.135  1.00  0.00     0.074 A 
ATOM     18  C   UNL A   1      42.510  26.023  28.116  1.00  0.00     0.049 A 
ATOM     19  N   UNL A   1      45.232  27.612  27.985  1.00  0.00    -0.248 NA
ATOM     20  C   UNL A   1      44.864  27.204  25.728  1.00  0.00     0.031 C 
ATOM     21  C   UNL A   1      41.297  25.212  28.227  1.00  0.00     0.029 A 
ATOM     22  N   UNL A   1      42.202  27.154  28.817  1.00  0.00    -0.354 N 
ATOM     23  C   UNL A   1      45.891  28.584  27.235  1.00  0.00     0.074 A 
ATOM     24  C   UNL A   1      45.684  28.247  25.848  1.00  0.00     0.031 C 
ATOM     25  C   UNL A   1      40.315  25.963  28.774  1.00  0.00     0.029 A 
ATOM     26  C   UNL A   1      40.864  27.252  29.162  1.00  0.00     0.049 A 
ATOM     27  H   UNL A   1      42.869  27.837  29.056  1.00  0.00     0.167 HD
ATOM     28  C   UNL A   1      46.454  29.695  27.786  1.00  0.00     0.037 A 
ATOM     29  C   UNL A   1      40.234  28.339  29.665  1.00  0.00     0.037 A 
ATOM     30  C   UNL A   1      46.709  29.548  29.189  1.00  0.00     0.049 A 
ATOM     31  C   UNL A   1      41.251  29.256  30.227  1.00  0.00     0.074 A 
ATOM     32  C   UNL A   1      47.484  28.699  29.955  1.00  0.00     0.029 A 
ATOM     33  N   UNL A   1      45.908  30.208  30.084  1.00  0.00    -0.354 N 
ATOM     34  N   UNL A   1      41.937  29.035  31.312  1.00  0.00    -0.248 NA
ATOM     35  C   UNL A   1      41.753  30.328  29.380  1.00  0.00     0.031 C 
ATOM     36  C   UNL A   1      46.770  28.540  31.179  1.00  0.00     0.029 A 
ATOM     37  C   UNL A   1      45.610  29.307  31.074  1.00  0.00     0.049 A 
ATOM     38  H   UNL A   1      45.608  31.144  30.029  1.00  0.00     0.167 HD
ATOM     39  C   UNL A   1      43.159  29.646  31.087  1.00  0.00     0.074 A 
ATOM     40  C   UNL A   1      42.940  30.532  29.952  1.00  0.00     0.031 C 
ATOM     41  C   UNL A   1      44.300  29.169  31.663  1.00  0.00     0.037 A 
BRANCH  28  42
ATOM     42  C   UNL A   1      46.553  31.025  27.087  1.00  0.00     0.064 A 
ATOM     43  C   UNL A   1      47.781  31.713  27.032  1.00  0.00     0.173 A 
ATOM     44  C   UNL A   1      45.416  31.771  26.708  1.00  0.00     0.173 A 
ATOM     45  F   UNL A   1      48.917  31.111  27.417  1.00  0.00    -0.203 F 
ATOM     46  C   UNL A   1      47.859  33.056  26.657  1.00  0.00     0.198 A 
ATOM     47  C   UNL A   1      45.503  33.097  26.286  1.00  0.00     0.198 A 
ATOM     48  F   UNL A   1      44.178  31.272  26.832  1.00  0.00    -0.203 F 
ATOM     49  F   UNL A   1      49.033  33.699  26.716  1.00  0.00    -0.200 F 
ATOM     50  C   UNL A   1      46.720  33.748  26.282  1.00  0.00     0.200 A 
ATOM     51  F   UNL A   1      44.386  33.759  25.951  1.00  0.00    -0.200 F 
ATOM     52  F   UNL A   1      46.787  35.048  25.966  1.00  0.00    -0.200 F 
ENDBRANCH  28  42
BRANCH  29  53
ATOM     53  C   UNL A   1      38.823  28.744  29.485  1.00  0.00     0.064 A 
ATOM     54  C   UNL A   1      37.985  28.975  30.587  1.00  0.00     0.173 A 
ATOM     55  C   UNL A   1      38.339  29.158  28.229  1.00  0.00     0.173 A 
ATOM     56  F   UNL A   1      38.392  28.656  31.824  1.00  0.00    -0.203 F 
ATOM     57  C   UNL A   1      36.741  29.595  30.441  1.00  0.00     0.198 A 
ATOM     58  C   UNL A   1      37.092  29.764  28.083  1.00  0.00     0.198 A 
ATOM     59  F   UNL A   1      39.105  29.065  27.132  1.00  0.00    -0.203 F 
ATOM     60  F   UNL A   1      35.992  29.853  31.523  1.00  0.00    -0.200 F 
ATOM     61  C   UNL A   1      36.298  29.994  29.191  1.00  0.00     0.200 A 
ATOM     62  F   UNL A   1      36.692  30.175  26.871  1.00  0.00    -0.200 F 
ATOM     63  F   UNL A   1      35.129  30.634  29.057  1.00  0.00    -0.200 F 
ENDBRANCH  29  53
BRANCH  41  64
ATOM     64  C   UNL A   1      44.158  28.184  32.786  1.00  0.00     0.064 A 
ATOM     65  C   UNL A   1      43.993  26.803  32.591  1.00  0.00     0.173 A 
ATOM     66  C   UNL A   1      44.325  28.637  34.102  1.00  0.00     0.173 A 
ATOM     67  F   UNL A   1      43.944  26.281  31.359  1.00  0.00    -0.203 F 
ATOM     68  C   UNL A   1      43.939  25.924  33.671  1.00  0.00     0.198 A 
ATOM     69  C   UNL A   1      44.310  27.751  35.176  1.00  0.00     0.198 A 
ATOM     70  F   UNL A   1      44.553  29.937  34.344  1.00  0.00    -0.203 F 
ATOM     71  F   UNL A   1      43.764  24.610  33.459  1.00  0.00    -0.200 F 
ATOM     72  C   UNL A   1      44.103  26.397  34.961  1.00  0.00     0.200 A 
ATOM     73  F   UNL A   1      44.523  28.206  36.419  1.00  0.00    -0.200 F 
ATOM     74  F   UNL A   1      44.091  25.546  35.997  1.00  0.00    -0.200 F 
ENDBRANCH  41  64
ENDBRANCH  15  16
ENDBRANCH   8  10
ENDBRANCH   5   6
ENDBRANCH   4   5
ENDBRANCH   3   4
ENDBRANCH   2   3
ENDBRANCH   1   2
BRANCH   1  75
ATOM     75  C   UNL A   1      37.759  22.460  25.843  1.00  0.00     0.116 C 
BRANCH  75  76
ATOM     76  N   UNL A   1      37.704  22.694  24.410  1.00  0.00    -0.352 N 
ATOM     77  C   UNL A   1      36.608  22.880  23.601  1.00  0.00     0.251 C 
ATOM     78  H   UNL A   1      38.575  22.725  23.953  1.00  0.00     0.163 HD
ATOM     79  O   UNL A   1      36.737  22.909  22.381  1.00  0.00    -0.269 OA
BRANCH  77  80
ATOM     80  C   UNL A   1      35.263  23.029  24.201  1.00  0.00     0.039 A 
ATOM     81  C   UNL A   1      34.395  21.930  24.209  1.00  0.00     0.015 A 
ATOM     82  C   UNL A   1      34.855  24.250  24.747  1.00  0.00     0.015 A 
ATOM     83  C   UNL A   1      33.137  22.045  24.805  1.00  0.00     0.022 A 
ATOM     84  C   UNL A   1      33.633  24.347  25.405  1.00  0.00     0.022 A 
ATOM     85  C   UNL A   1      32.768  23.251  25.414  1.00  0.00     0.082 A 
BRANCH  85  86
ATOM     86  S   UNL A   1      31.142  23.378  26.116  1.00  0.00     0.240 S 
ATOM     87  O   UNL A   1      30.562  22.049  26.114  1.00  0.00    -0.207 OA
ATOM     88  O   UNL A   1      31.269  24.149  27.325  1.00  0.00    -0.207 OA
BRANCH  86  89
ATOM     89  N   UNL A   1      30.268  24.317  25.047  1.00  0.00    -0.211 NA
ATOM     90  H   UNL A   1      29.288  24.093  25.222  1.00  0.00     0.141 HD
BRANCH  89  91
ATOM     91  C   UNL A   1      30.334  25.775  24.986  1.00  0.00     0.101 C 
BRANCH  91  92
ATOM     92  C   UNL A   1      30.013  26.357  23.619  1.00  0.00     0.040 C 
BRANCH  92  93
ATOM     93  C   UNL A   1      30.539  27.770  23.407  1.00  0.00     0.145 C 
BRANCH  93  94
ATOM     94  N   UNL A   1      29.527  28.648  22.851  1.00  0.00    -0.273 N 
ATOM     95  C   UNL A   1      28.205  28.682  23.192  1.00  0.00     0.108 A 
ATOM     96  N   UNL A   1      29.837  29.473  21.832  1.00  0.00    -0.182 NA
ATOM     97  C   UNL A   1      27.623  29.610  22.362  1.00  0.00     0.042 A 
ATOM     98  C   UNL A   1      28.676  30.075  21.553  1.00  0.00     0.135 A 
ENDBRANCH  93  94
ENDBRANCH  92  93
ENDBRANCH  91  92
ENDBRANCH  89  91
ENDBRANCH  86  89
ENDBRANCH  85  86
ENDBRANCH  77  80
ENDBRANCH  75  76
ENDBRANCH   1  75
TORSDOF 19
ENDMDL
MODEL 3
REMARK VINA RESULT:     -11.2      2.073      2.844
REMARK SMILES O=C(NCCCCCCNC(=O)c1ccc(S(=O)(=O)NCCCn2cccn2)cc1)c1ccc(-c2c3nc(c(-c4c(F)c(F)c(F)c(F)c4F)c4ccc([nH]4)c(-c4c(F)c(F)c(F)c(F)c4F)c4nc(c(-c5c(F)c(F)c(F)c(F)c5F)c5ccc2[nH]5)C=C4)C=C3)cc1
REMARK SMILES IDX 8 1 7 2 6 3 5 4 4 5 3 6 1 7 2 8 31 10 32 11 93 12 33 13
REMARK SMILES IDX 92 14 34 15 35 16 36 17 86 18 37 19 91 20 85 21 87 22 38 23
REMARK SMILES IDX 90 24 84 25 83 26 39 28 71 29 51 30 70 31 52 32 55 33 69 34
REMARK SMILES IDX 88 35 53 36 54 37 68 39 89 40 56 41 40 42 41 43 49 44 42 45
REMARK SMILES IDX 43 46 47 47 50 48 44 49 45 50 48 51 46 52 72 53 73 54 81 55
REMARK SMILES IDX 74 56 75 57 79 58 82 59 76 60 77 61 80 62 78 63 57 64 58 65
REMARK SMILES IDX 66 66 59 67 60 68 64 69 67 70 61 71 62 72 65 73 63 74 9 75
REMARK SMILES IDX 10 76 11 77 12 79 13 80 14 81 30 82 15 83 29 84 16 85 17 86
REMARK SMILES IDX 18 87 19 88 20 89 21 91 22 92 23 93 24 94 25 95 28 96 26 97
REMARK SMILES IDX 27 98
REMARK H PARENT 3 9 87 27 55 38 10 78 20 90
REMARK Flexibility Score: inf
ROOT
ATOM      1  C   UNL A   1      31.666  29.042  25.986  1.00  0.00     0.021 C 
ENDROOT
BRANCH   1   2
ATOM      2  C   UNL A   1      32.173  29.765  27.234  1.00  0.00     0.002 C 
BRANCH   2   3
ATOM      3  C   UNL A   1      32.971  31.048  26.981  1.00  0.00     0.002 C 
BRANCH   3   4
ATOM      4  C   UNL A   1      34.363  31.111  27.625  1.00  0.00     0.021 C 
BRANCH   4   5
ATOM      5  C   UNL A   1      34.701  32.444  28.290  1.00  0.00     0.116 C 
BRANCH   5   6
ATOM      6  N   UNL A   1      34.560  32.437  29.730  1.00  0.00    -0.352 N 
ATOM      7  O   UNL A   1      34.884  32.179  31.903  1.00  0.00    -0.269 OA
ATOM      8  C   UNL A   1      35.330  31.992  30.768  1.00  0.00     0.251 C 
ATOM      9  H   UNL A   1      33.717  32.848  30.031  1.00  0.00     0.163 HD
BRANCH   8  10
ATOM     10  C   UNL A   1      36.628  31.280  30.623  1.00  0.00     0.039 A 
ATOM     11  C   UNL A   1      37.889  31.875  30.678  1.00  0.00     0.014 A 
ATOM     12  C   UNL A   1      36.555  29.882  30.470  1.00  0.00     0.014 A 
ATOM     13  C   UNL A   1      39.044  31.107  30.541  1.00  0.00     0.010 A 
ATOM     14  C   UNL A   1      37.708  29.106  30.361  1.00  0.00     0.010 A 
ATOM     15  C   UNL A   1      38.958  29.721  30.382  1.00  0.00    -0.014 A 
BRANCH  15  16
ATOM     16  C   UNL A   1      40.206  28.954  30.379  1.00  0.00     0.031 A 
ATOM     17  C   UNL A   1      40.854  28.717  31.708  1.00  0.00     0.074 A 
ATOM     18  C   UNL A   1      40.695  28.315  29.299  1.00  0.00     0.049 A 
ATOM     19  N   UNL A   1      42.086  28.924  32.063  1.00  0.00    -0.248 NA
ATOM     20  C   UNL A   1      40.007  28.177  32.783  1.00  0.00     0.031 C 
ATOM     21  C   UNL A   1      40.056  28.132  27.995  1.00  0.00     0.029 A 
ATOM     22  N   UNL A   1      41.848  27.589  29.192  1.00  0.00    -0.354 N 
ATOM     23  C   UNL A   1      42.208  28.419  33.357  1.00  0.00     0.074 A 
ATOM     24  C   UNL A   1      40.884  28.031  33.776  1.00  0.00     0.031 C 
ATOM     25  C   UNL A   1      40.727  27.182  27.306  1.00  0.00     0.029 A 
ATOM     26  C   UNL A   1      41.903  26.787  28.065  1.00  0.00     0.049 A 
ATOM     27  H   UNL A   1      42.573  27.633  29.856  1.00  0.00     0.167 HD
ATOM     28  C   UNL A   1      43.409  28.212  33.965  1.00  0.00     0.037 A 
ATOM     29  C   UNL A   1      42.809  25.817  27.803  1.00  0.00     0.037 A 
ATOM     30  C   UNL A   1      44.470  28.968  33.365  1.00  0.00     0.049 A 
ATOM     31  C   UNL A   1      43.996  26.037  28.660  1.00  0.00     0.074 A 
ATOM     32  C   UNL A   1      44.723  30.312  33.179  1.00  0.00     0.029 A 
ATOM     33  N   UNL A   1      45.396  28.317  32.592  1.00  0.00    -0.354 N 
ATOM     34  N   UNL A   1      44.853  27.008  28.511  1.00  0.00    -0.248 NA
ATOM     35  C   UNL A   1      44.070  25.329  29.929  1.00  0.00     0.031 C 
ATOM     36  C   UNL A   1      45.440  30.393  31.949  1.00  0.00     0.029 A 
ATOM     37  C   UNL A   1      45.575  29.089  31.473  1.00  0.00     0.049 A 
ATOM     38  H   UNL A   1      45.844  27.466  32.799  1.00  0.00     0.167 HD
ATOM     39  C   UNL A   1      45.286  27.293  29.795  1.00  0.00     0.074 A 
ATOM     40  C   UNL A   1      44.879  26.149  30.600  1.00  0.00     0.031 C 
ATOM     41  C   UNL A   1      45.687  28.552  30.139  1.00  0.00     0.037 A 
BRANCH  28  42
ATOM     42  C   UNL A   1      43.669  27.121  34.969  1.00  0.00     0.064 A 
ATOM     43  C   UNL A   1      43.985  27.442  36.304  1.00  0.00     0.173 A 
ATOM     44  C   UNL A   1      43.884  25.778  34.594  1.00  0.00     0.173 A 
ATOM     45  F   UNL A   1      43.863  28.701  36.751  1.00  0.00    -0.203 F 
ATOM     46  C   UNL A   1      44.509  26.493  37.186  1.00  0.00     0.198 A 
ATOM     47  C   UNL A   1      44.360  24.822  35.490  1.00  0.00     0.198 A 
ATOM     48  F   UNL A   1      43.738  25.374  33.324  1.00  0.00    -0.203 F 
ATOM     49  F   UNL A   1      44.891  26.864  38.416  1.00  0.00    -0.200 F 
ATOM     50  C   UNL A   1      44.695  25.183  36.780  1.00  0.00     0.200 A 
ATOM     51  F   UNL A   1      44.558  23.563  35.072  1.00  0.00    -0.200 F 
ATOM     52  F   UNL A   1      45.240  24.283  37.610  1.00  0.00    -0.200 F 
ENDBRANCH  28  42
BRANCH  29  53
ATOM     53  C   UNL A   1      42.620  24.574  27.025  1.00  0.00     0.064 A 
ATOM     54  C   UNL A   1      43.211  24.408  25.763  1.00  0.00     0.173 A 
ATOM     55  C   UNL A   1      42.063  23.422  27.615  1.00  0.00     0.173 A 
ATOM     56  F   UNL A   1      43.808  25.443  25.155  1.00  0.00    -0.203 F 
ATOM     57  C   UNL A   1      43.252  23.160  25.134  1.00  0.00     0.198 A 
ATOM     58  C   UNL A   1      42.093  22.182  26.980  1.00  0.00     0.198 A 
ATOM     59  F   UNL A   1      41.560  23.461  28.857  1.00  0.00    -0.203 F 
ATOM     60  F   UNL A   1      43.877  23.027  23.955  1.00  0.00    -0.200 F 
ATOM     61  C   UNL A   1      42.698  22.048  25.745  1.00  0.00     0.200 A 
ATOM     62  F   UNL A   1      41.582  21.107  27.599  1.00  0.00    -0.200 F 
ATOM     63  F   UNL A   1      42.782  20.842  25.166  1.00  0.00    -0.200 F 
ENDBRANCH  29  53
BRANCH  41  64
ATOM     64  C   UNL A   1      45.954  29.527  29.030  1.00  0.00     0.064 A 
ATOM     65  C   UNL A   1      44.949  30.283  28.403  1.00  0.00     0.173 A 
ATOM     66  C   UNL A   1      47.283  29.802  28.682  1.00  0.00     0.173 A 
ATOM     67  F   UNL A   1      43.666  30.161  28.766  1.00  0.00    -0.203 F 
ATOM     68  C   UNL A   1      45.261  31.229  27.428  1.00  0.00     0.198 A 
ATOM     69  C   UNL A   1      47.594  30.775  27.736  1.00  0.00     0.198 A 
ATOM     70  F   UNL A   1      48.288  29.158  29.297  1.00  0.00    -0.203 F 
ATOM     71  F   UNL A   1      44.282  31.926  26.832  1.00  0.00    -0.200 F 
ATOM     72  C   UNL A   1      46.582  31.478  27.100  1.00  0.00     0.200 A 
ATOM     73  F   UNL A   1      48.876  31.052  27.460  1.00  0.00    -0.200 F 
ATOM     74  F   UNL A   1      46.884  32.417  26.191  1.00  0.00    -0.200 F 
ENDBRANCH  41  64
ENDBRANCH  15  16
ENDBRANCH   8  10
ENDBRANCH   5   6
ENDBRANCH   4   5
ENDBRANCH   3   4
ENDBRANCH   2   3
ENDBRANCH   1   2
BRANCH   1  75
ATOM     75  C   UNL A   1      32.406  29.381  24.700  1.00  0.00     0.116 C 
BRANCH  75  76
ATOM     76  N   UNL A   1      31.629  29.078  23.511  1.00  0.00    -0.352 N 
ATOM     77  C   UNL A   1      31.063  27.887  23.121  1.00  0.00     0.251 C 
ATOM     78  H   UNL A   1      31.487  29.833  22.895  1.00  0.00     0.163 HD
ATOM     79  O   UNL A   1      30.572  27.771  22.003  1.00  0.00    -0.269 OA
BRANCH  77  80
ATOM     80  C   UNL A   1      31.063  26.732  24.047  1.00  0.00     0.039 A 
ATOM     81  C   UNL A   1      29.924  26.479  24.820  1.00  0.00     0.015 A 
ATOM     82  C   UNL A   1      32.185  25.906  24.160  1.00  0.00     0.015 A 
ATOM     83  C   UNL A   1      29.895  25.372  25.671  1.00  0.00     0.022 A 
ATOM     84  C   UNL A   1      32.134  24.762  24.950  1.00  0.00     0.022 A 
ATOM     85  C   UNL A   1      30.997  24.509  25.721  1.00  0.00     0.082 A 
BRANCH  85  86
ATOM     86  S   UNL A   1      30.948  23.141  26.852  1.00  0.00     0.240 S 
ATOM     87  O   UNL A   1      32.182  23.163  27.614  1.00  0.00    -0.207 OA
ATOM     88  O   UNL A   1      29.659  23.176  27.492  1.00  0.00    -0.207 OA
BRANCH  86  89
ATOM     89  N   UNL A   1      30.963  21.772  25.896  1.00  0.00    -0.211 NA
ATOM     90  H   UNL A   1      30.152  21.856  25.283  1.00  0.00     0.141 HD
BRANCH  89  91
ATOM     91  C   UNL A   1      32.073  21.384  25.030  1.00  0.00     0.101 C 
BRANCH  91  92
ATOM     92  C   UNL A   1      32.974  20.309  25.614  1.00  0.00     0.040 C 
BRANCH  92  93
ATOM     93  C   UNL A   1      33.644  19.425  24.570  1.00  0.00     0.145 C 
BRANCH  93  94
ATOM     94  N   UNL A   1      33.386  18.017  24.805  1.00  0.00    -0.273 N 
ATOM     95  C   UNL A   1      33.849  16.971  24.060  1.00  0.00     0.108 A 
ATOM     96  N   UNL A   1      32.542  17.642  25.785  1.00  0.00    -0.182 NA
ATOM     97  C   UNL A   1      33.294  15.840  24.609  1.00  0.00     0.042 A 
ATOM     98  C   UNL A   1      32.508  16.310  25.677  1.00  0.00     0.135 A 
ENDBRANCH  93  94
ENDBRANCH  92  93
ENDBRANCH  91  92
ENDBRANCH  89  91
ENDBRANCH  86  89
ENDBRANCH  85  86
ENDBRANCH  77  80
ENDBRANCH  75  76
ENDBRANCH   1  75
TORSDOF 19
ENDMDL
