MODEL 1
REMARK VINA RESULT:     -12.4      0.000      0.000
REMARK SMILES COc1ccc(NC(=O)[C@@H]2[C@@H](C(=O)NCCCCCCNC(=O)c3ccc(-c4c5nc(c(-c6c(F)c(F)c(F)c(F)c6F)c6ccc([nH]6)c(-c6c(F)c(F)c(F)c(F)c6F)c6nc(c(-c7c(F)c(F)c(F)c(F)c7F)c7ccc4[nH]7)C=C6)C=C5)cc3)[C@H]3C=C[C@@H]2C3)cc1O
REMARK SMILES IDX 17 1 16 2 15 3 14 4 12 5 13 6 11 8 10 9 90 10 87 11 89 12
REMARK SMILES IDX 91 13 88 14 8 15 7 16 9 18 6 19 3 20 4 21 93 22 5 23 92 24
REMARK SMILES IDX 2 25 1 26 94 27 18 29 19 30 20 31 21 32 22 33 23 35 24 36
REMARK SMILES IDX 25 37 86 38 26 39 85 40 27 41 28 42 29 43 79 44 30 45 84 46
REMARK SMILES IDX 78 47 80 48 31 49 83 50 77 51 76 52 32 54 64 55 44 56 63 57
REMARK SMILES IDX 45 58 48 59 62 60 81 61 46 62 47 63 61 65 82 66 49 67 33 68
REMARK SMILES IDX 34 69 42 70 35 71 36 72 40 73 43 74 37 75 38 76 41 77 39 78
REMARK SMILES IDX 65 79 66 80 74 81 67 82 68 83 72 84 75 85 69 86 70 87 73 88
REMARK SMILES IDX 71 89 50 90 51 91 59 92 52 93 53 94 57 95 60 96 54 97 55 98
REMARK SMILES IDX 58 99 56 100
REMARK H PARENT 14 7 7 17 94 28 21 34 80 53 48 64
REMARK Flexibility Score: inf
ROOT
ATOM      1  C   UNL A   1      32.264  29.806  27.228  1.00  0.00     0.002 C 
ENDROOT
BRANCH   1   2
ATOM      2  C   UNL A   1      33.736  29.439  27.001  1.00  0.00     0.021 C 
BRANCH   2   3
ATOM      3  C   UNL A   1      33.960  28.057  26.399  1.00  0.00     0.116 C 
BRANCH   3   4
ATOM      4  N   UNL A   1      34.033  28.136  24.957  1.00  0.00    -0.356 N 
ATOM      5  C   UNL A   1      33.352  27.431  24.014  1.00  0.00     0.224 C 
ATOM      6  O   UNL A   1      33.771  27.493  22.857  1.00  0.00    -0.275 OA
ATOM      7  H   UNL A   1      34.670  28.798  24.606  1.00  0.00     0.163 HD
BRANCH   5   8
ATOM      8  C   UNL A   1      32.129  26.606  24.414  1.00  0.00     0.098 C 
ATOM      9  C   UNL A   1      31.597  25.734  23.215  1.00  0.00     0.099 C 
ATOM     10  C   UNL A   1      30.174  26.356  23.003  1.00  0.00     0.025 C 
ATOM     11  C   UNL A   1      30.915  27.520  24.753  1.00  0.00     0.025 C 
ATOM     12  C   UNL A   1      30.297  27.799  22.568  1.00  0.00    -0.027 C 
ATOM     13  C   UNL A   1      29.742  26.589  24.459  1.00  0.00     0.017 C 
ATOM     14  C   UNL A   1      30.710  28.506  23.629  1.00  0.00    -0.027 C 
BRANCH   9  15
ATOM     15  C   UNL A   1      31.408  24.230  23.450  1.00  0.00     0.228 C 
ATOM     16  N   UNL A   1      32.322  23.402  24.014  1.00  0.00    -0.326 N 
ATOM     17  H   UNL A   1      31.944  22.526  24.253  1.00  0.00     0.169 HD
ATOM     18  O   UNL A   1      30.335  23.689  23.147  1.00  0.00    -0.274 OA
BRANCH  16  19
ATOM     19  C   UNL A   1      33.677  23.508  24.334  1.00  0.00     0.045 A 
ATOM     20  C   UNL A   1      36.437  23.548  24.829  1.00  0.00     0.160 A 
ATOM     21  C   UNL A   1      35.538  23.941  25.821  1.00  0.00     0.052 A 
ATOM     22  C   UNL A   1      35.953  23.246  23.559  1.00  0.00     0.159 A 
ATOM     23  C   UNL A   1      34.157  23.924  25.574  1.00  0.00     0.030 A 
ATOM     24  C   UNL A   1      34.586  23.222  23.309  1.00  0.00     0.076 A 
BRANCH  20  25
ATOM     25  O   UNL A   1      37.768  23.529  25.148  1.00  0.00    -0.493 OA
ATOM     26  C   UNL A   1      38.190  22.288  25.723  1.00  0.00     0.278 C 
ENDBRANCH  20  25
BRANCH  22  27
ATOM     27  O   UNL A   1      36.787  22.997  22.507  1.00  0.00    -0.504 OA
ATOM     28  H   UNL A   1      36.582  22.315  21.898  1.00  0.00     0.293 HD
ENDBRANCH  22  27
ENDBRANCH  16  19
ENDBRANCH   9  15
ENDBRANCH   5   8
ENDBRANCH   3   4
ENDBRANCH   2   3
ENDBRANCH   1   2
BRANCH   1  29
ATOM     29  C   UNL A   1      31.690  30.795  26.211  1.00  0.00     0.002 C 
BRANCH  29  30
ATOM     30  C   UNL A   1      31.455  32.207  26.752  1.00  0.00     0.021 C 
BRANCH  30  31
ATOM     31  C   UNL A   1      32.711  32.900  27.272  1.00  0.00     0.116 C 
BRANCH  31  32
ATOM     32  N   UNL A   1      32.460  34.287  27.625  1.00  0.00    -0.352 N 
ATOM     33  C   UNL A   1      33.001  35.024  28.647  1.00  0.00     0.251 C 
ATOM     34  H   UNL A   1      31.816  34.763  27.053  1.00  0.00     0.163 HD
ATOM     35  O   UNL A   1      32.524  36.115  28.955  1.00  0.00    -0.269 OA
BRANCH  33  36
ATOM     36  C   UNL A   1      34.157  34.489  29.397  1.00  0.00     0.039 A 
ATOM     37  C   UNL A   1      33.941  33.875  30.632  1.00  0.00     0.014 A 
ATOM     38  C   UNL A   1      35.448  34.586  28.871  1.00  0.00     0.014 A 
ATOM     39  C   UNL A   1      35.017  33.305  31.314  1.00  0.00     0.010 A 
ATOM     40  C   UNL A   1      36.507  33.952  29.515  1.00  0.00     0.010 A 
ATOM     41  C   UNL A   1      36.303  33.309  30.746  1.00  0.00    -0.014 A 
BRANCH  41  42
ATOM     42  C   UNL A   1      37.444  32.647  31.429  1.00  0.00     0.031 A 
ATOM     43  C   UNL A   1      38.136  31.477  30.786  1.00  0.00     0.074 A 
ATOM     44  C   UNL A   1      37.825  33.068  32.651  1.00  0.00     0.049 A 
ATOM     45  N   UNL A   1      39.113  30.737  31.245  1.00  0.00    -0.248 NA
ATOM     46  C   UNL A   1      37.648  31.068  29.458  1.00  0.00     0.031 C 
ATOM     47  C   UNL A   1      37.208  34.165  33.399  1.00  0.00     0.029 A 
ATOM     48  N   UNL A   1      38.820  32.619  33.485  1.00  0.00    -0.354 N 
ATOM     49  C   UNL A   1      39.352  29.778  30.269  1.00  0.00     0.074 A 
ATOM     50  C   UNL A   1      38.378  29.988  29.221  1.00  0.00     0.031 C 
ATOM     51  C   UNL A   1      37.853  34.321  34.565  1.00  0.00     0.029 A 
ATOM     52  C   UNL A   1      38.901  33.310  34.669  1.00  0.00     0.049 A 
ATOM     53  H   UNL A   1      39.419  31.872  33.254  1.00  0.00     0.167 HD
ATOM     54  C   UNL A   1      40.313  28.825  30.239  1.00  0.00     0.037 A 
ATOM     55  C   UNL A   1      39.723  33.141  35.723  1.00  0.00     0.037 A 
ATOM     56  C   UNL A   1      41.291  28.628  31.277  1.00  0.00     0.049 A 
ATOM     57  C   UNL A   1      40.764  32.054  35.674  1.00  0.00     0.074 A 
ATOM     58  C   UNL A   1      42.334  27.718  31.318  1.00  0.00     0.029 A 
ATOM     59  N   UNL A   1      41.345  29.350  32.460  1.00  0.00    -0.354 N 
ATOM     60  N   UNL A   1      41.023  31.197  34.717  1.00  0.00    -0.248 NA
ATOM     61  C   UNL A   1      41.633  31.916  36.851  1.00  0.00     0.031 C 
ATOM     62  C   UNL A   1      42.984  27.855  32.549  1.00  0.00     0.029 A 
ATOM     63  C   UNL A   1      42.387  28.891  33.249  1.00  0.00     0.049 A 
ATOM     64  H   UNL A   1      40.732  30.081  32.703  1.00  0.00     0.167 HD
ATOM     65  C   UNL A   1      42.103  30.444  35.159  1.00  0.00     0.074 A 
ATOM     66  C   UNL A   1      42.461  30.957  36.465  1.00  0.00     0.031 C 
ATOM     67  C   UNL A   1      42.741  29.421  34.541  1.00  0.00     0.037 A 
BRANCH  54  68
ATOM     68  C   UNL A   1      40.362  27.921  29.040  1.00  0.00     0.064 A 
ATOM     69  C   UNL A   1      39.618  26.731  28.985  1.00  0.00     0.173 A 
ATOM     70  C   UNL A   1      41.121  28.270  27.912  1.00  0.00     0.173 A 
ATOM     71  F   UNL A   1      38.885  26.345  30.039  1.00  0.00    -0.203 F 
ATOM     72  C   UNL A   1      39.655  25.913  27.859  1.00  0.00     0.198 A 
ATOM     73  C   UNL A   1      41.129  27.466  26.775  1.00  0.00     0.198 A 
ATOM     74  F   UNL A   1      41.846  29.398  27.908  1.00  0.00    -0.203 F 
ATOM     75  F   UNL A   1      38.976  24.757  27.850  1.00  0.00    -0.200 F 
ATOM     76  C   UNL A   1      40.403  26.285  26.752  1.00  0.00     0.200 A 
ATOM     77  F   UNL A   1      41.841  27.835  25.701  1.00  0.00    -0.200 F 
ATOM     78  F   UNL A   1      40.429  25.502  25.665  1.00  0.00    -0.200 F 
ENDBRANCH  54  68
BRANCH  55  79
ATOM     79  C   UNL A   1      39.611  34.030  36.911  1.00  0.00     0.064 A 
ATOM     80  C   UNL A   1      40.296  35.253  36.964  1.00  0.00     0.173 A 
ATOM     81  C   UNL A   1      38.841  33.666  38.026  1.00  0.00     0.173 A 
ATOM     82  F   UNL A   1      41.062  35.636  35.931  1.00  0.00    -0.203 F 
ATOM     83  C   UNL A   1      40.240  36.062  38.097  1.00  0.00     0.198 A 
ATOM     84  C   UNL A   1      38.760  34.492  39.146  1.00  0.00     0.198 A 
ATOM     85  F   UNL A   1      38.161  32.511  38.026  1.00  0.00    -0.203 F 
ATOM     86  F   UNL A   1      40.954  37.195  38.143  1.00  0.00    -0.200 F 
ATOM     87  C   UNL A   1      39.469  35.683  39.185  1.00  0.00     0.200 A 
ATOM     88  F   UNL A   1      38.000  34.130  40.188  1.00  0.00    -0.200 F 
ATOM     89  F   UNL A   1      39.417  36.461  40.275  1.00  0.00    -0.200 F 
ENDBRANCH  55  79
BRANCH  67  90
ATOM     90  C   UNL A   1      43.922  28.817  35.245  1.00  0.00     0.064 A 
ATOM     91  C   UNL A   1      43.778  27.772  36.171  1.00  0.00     0.173 A 
ATOM     92  C   UNL A   1      45.221  29.263  34.958  1.00  0.00     0.173 A 
ATOM     93  F   UNL A   1      42.556  27.319  36.492  1.00  0.00    -0.203 F 
ATOM     94  C   UNL A   1      44.887  27.220  36.805  1.00  0.00     0.198 A 
ATOM     95  C   UNL A   1      46.330  28.685  35.567  1.00  0.00     0.198 A 
ATOM     96  F   UNL A   1      45.416  30.253  34.073  1.00  0.00    -0.203 F 
ATOM     97  F   UNL A   1      44.721  26.262  37.727  1.00  0.00    -0.200 F 
ATOM     98  C   UNL A   1      46.163  27.670  36.497  1.00  0.00     0.200 A 
ATOM     99  F   UNL A   1      47.563  29.111  35.256  1.00  0.00    -0.200 F 
ATOM    100  F   UNL A   1      47.229  27.131  37.103  1.00  0.00    -0.200 F 
ENDBRANCH  67  90
ENDBRANCH  41  42
ENDBRANCH  33  36
ENDBRANCH  31  32
ENDBRANCH  30  31
ENDBRANCH  29  30
ENDBRANCH   1  29
TORSDOF 17
ENDMDL
MODEL 2
REMARK VINA RESULT:     -12.2      0.636      7.304
REMARK SMILES COc1ccc(NC(=O)[C@@H]2[C@@H](C(=O)NCCCCCCNC(=O)c3ccc(-c4c5nc(c(-c6c(F)c(F)c(F)c(F)c6F)c6ccc([nH]6)c(-c6c(F)c(F)c(F)c(F)c6F)c6nc(c(-c7c(F)c(F)c(F)c(F)c7F)c7ccc4[nH]7)C=C6)C=C5)cc3)[C@H]3C=C[C@@H]2C3)cc1O
REMARK SMILES IDX 17 1 16 2 15 3 14 4 12 5 13 6 11 8 10 9 90 10 87 11 89 12
REMARK SMILES IDX 91 13 88 14 8 15 7 16 9 18 6 19 3 20 4 21 93 22 5 23 92 24
REMARK SMILES IDX 2 25 1 26 94 27 18 29 19 30 20 31 21 32 22 33 23 35 24 36
REMARK SMILES IDX 25 37 86 38 26 39 85 40 27 41 28 42 29 43 79 44 30 45 84 46
REMARK SMILES IDX 78 47 80 48 31 49 83 50 77 51 76 52 32 54 64 55 44 56 63 57
REMARK SMILES IDX 45 58 48 59 62 60 81 61 46 62 47 63 61 65 82 66 49 67 33 68
REMARK SMILES IDX 34 69 42 70 35 71 36 72 40 73 43 74 37 75 38 76 41 77 39 78
REMARK SMILES IDX 65 79 66 80 74 81 67 82 68 83 72 84 75 85 69 86 70 87 73 88
REMARK SMILES IDX 71 89 50 90 51 91 59 92 52 93 53 94 57 95 60 96 54 97 55 98
REMARK SMILES IDX 58 99 56 100
REMARK H PARENT 14 7 7 17 94 28 21 34 80 53 48 64
REMARK Flexibility Score: inf
ROOT
ATOM      1  C   UNL A   1      32.678  30.400  26.576  1.00  0.00     0.002 C 
ENDROOT
BRANCH   1   2
ATOM      2  C   UNL A   1      32.449  29.080  27.322  1.00  0.00     0.021 C 
BRANCH   2   3
ATOM      3  C   UNL A   1      33.392  27.952  26.921  1.00  0.00     0.116 C 
BRANCH   3   4
ATOM      4  N   UNL A   1      33.743  28.057  25.522  1.00  0.00    -0.356 N 
ATOM      5  C   UNL A   1      33.255  27.372  24.452  1.00  0.00     0.224 C 
ATOM      6  O   UNL A   1      33.891  27.452  23.399  1.00  0.00    -0.275 OA
ATOM      7  H   UNL A   1      34.436  28.722  25.312  1.00  0.00     0.163 HD
BRANCH   5   8
ATOM      8  C   UNL A   1      31.978  26.545  24.594  1.00  0.00     0.098 C 
ATOM      9  C   UNL A   1      31.691  25.690  23.302  1.00  0.00     0.099 C 
ATOM     10  C   UNL A   1      30.337  26.319  22.824  1.00  0.00     0.025 C 
ATOM     11  C   UNL A   1      30.722  27.458  24.701  1.00  0.00     0.025 C 
ATOM     12  C   UNL A   1      30.544  27.768  22.441  1.00  0.00    -0.027 C 
ATOM     13  C   UNL A   1      29.628  26.534  24.170  1.00  0.00     0.017 C 
ATOM     14  C   UNL A   1      30.740  28.459  23.572  1.00  0.00    -0.027 C 
BRANCH   9  15
ATOM     15  C   UNL A   1      31.459  24.184  23.474  1.00  0.00     0.228 C 
ATOM     16  N   UNL A   1      32.352  23.307  23.997  1.00  0.00    -0.326 N 
ATOM     17  H   UNL A   1      31.949  22.433  24.201  1.00  0.00     0.169 HD
ATOM     18  O   UNL A   1      30.370  23.688  23.156  1.00  0.00    -0.274 OA
BRANCH  16  19
ATOM     19  C   UNL A   1      33.710  23.360  24.313  1.00  0.00     0.045 A 
ATOM     20  C   UNL A   1      36.475  23.310  24.781  1.00  0.00     0.160 A 
ATOM     21  C   UNL A   1      35.590  23.604  25.819  1.00  0.00     0.052 A 
ATOM     22  C   UNL A   1      35.976  23.155  23.490  1.00  0.00     0.159 A 
ATOM     23  C   UNL A   1      34.207  23.631  25.586  1.00  0.00     0.030 A 
ATOM     24  C   UNL A   1      34.607  23.176  23.254  1.00  0.00     0.076 A 
BRANCH  20  25
ATOM     25  O   UNL A   1      37.809  23.239  25.082  1.00  0.00    -0.493 OA
ATOM     26  C   UNL A   1      38.171  22.024  25.746  1.00  0.00     0.278 C 
ENDBRANCH  20  25
BRANCH  22  27
ATOM     27  O   UNL A   1      36.797  23.013  22.409  1.00  0.00    -0.504 OA
ATOM     28  H   UNL A   1      36.520  23.318  21.568  1.00  0.00     0.293 HD
ENDBRANCH  22  27
ENDBRANCH  16  19
ENDBRANCH   9  15
ENDBRANCH   5   8
ENDBRANCH   3   4
ENDBRANCH   2   3
ENDBRANCH   1   2
BRANCH   1  29
ATOM     29  C   UNL A   1      31.397  31.125  26.156  1.00  0.00     0.002 C 
BRANCH  29  30
ATOM     30  C   UNL A   1      31.360  32.614  26.505  1.00  0.00     0.021 C 
BRANCH  30  31
ATOM     31  C   UNL A   1      32.564  33.105  27.302  1.00  0.00     0.116 C 
BRANCH  31  32
ATOM     32  N   UNL A   1      32.400  34.480  27.745  1.00  0.00    -0.352 N 
ATOM     33  C   UNL A   1      33.027  35.129  28.777  1.00  0.00     0.251 C 
ATOM     34  H   UNL A   1      31.752  35.017  27.234  1.00  0.00     0.163 HD
ATOM     35  O   UNL A   1      32.620  36.221  29.169  1.00  0.00    -0.269 OA
BRANCH  33  36
ATOM     36  C   UNL A   1      34.191  34.499  29.433  1.00  0.00     0.039 A 
ATOM     37  C   UNL A   1      33.995  33.762  30.603  1.00  0.00     0.014 A 
ATOM     38  C   UNL A   1      35.469  34.628  28.884  1.00  0.00     0.014 A 
ATOM     39  C   UNL A   1      35.077  33.104  31.191  1.00  0.00     0.010 A 
ATOM     40  C   UNL A   1      36.532  33.912  29.429  1.00  0.00     0.010 A 
ATOM     41  C   UNL A   1      36.347  33.146  30.591  1.00  0.00    -0.014 A 
BRANCH  41  42
ATOM     42  C   UNL A   1      37.493  32.396  31.168  1.00  0.00     0.031 A 
ATOM     43  C   UNL A   1      38.019  32.753  32.531  1.00  0.00     0.074 A 
ATOM     44  C   UNL A   1      38.090  31.430  30.445  1.00  0.00     0.049 A 
ATOM     45  N   UNL A   1      39.039  32.254  33.182  1.00  0.00    -0.248 NA
ATOM     46  C   UNL A   1      37.322  33.833  33.248  1.00  0.00     0.031 C 
ATOM     47  C   UNL A   1      37.700  31.019  29.095  1.00  0.00     0.029 A 
ATOM     48  N   UNL A   1      39.159  30.619  30.741  1.00  0.00    -0.354 N 
ATOM     49  C   UNL A   1      39.106  32.957  34.377  1.00  0.00     0.074 A 
ATOM     50  C   UNL A   1      38.067  33.961  34.336  1.00  0.00     0.031 C 
ATOM     51  C   UNL A   1      38.497  30.017  28.692  1.00  0.00     0.029 A 
ATOM     52  C   UNL A   1      39.482  29.744  29.733  1.00  0.00     0.049 A 
ATOM     53  H   UNL A   1      39.646  30.662  31.595  1.00  0.00     0.167 HD
ATOM     54  C   UNL A   1      39.944  32.766  35.425  1.00  0.00     0.037 A 
ATOM     55  C   UNL A   1      40.468  28.829  29.656  1.00  0.00     0.037 A 
ATOM     56  C   UNL A   1      40.967  31.755  35.468  1.00  0.00     0.049 A 
ATOM     57  C   UNL A   1      41.403  28.658  30.824  1.00  0.00     0.074 A 
ATOM     58  C   UNL A   1      41.838  31.452  36.502  1.00  0.00     0.029 A 
ATOM     59  N   UNL A   1      41.263  30.884  34.430  1.00  0.00    -0.354 N 
ATOM     60  N   UNL A   1      41.414  29.284  31.975  1.00  0.00    -0.248 NA
ATOM     61  C   UNL A   1      42.459  27.645  30.684  1.00  0.00     0.031 C 
ATOM     62  C   UNL A   1      42.693  30.435  36.068  1.00  0.00     0.029 A 
ATOM     63  C   UNL A   1      42.318  30.060  34.789  1.00  0.00     0.049 A 
ATOM     64  H   UNL A   1      40.793  30.856  33.566  1.00  0.00     0.167 HD
ATOM     65  C   UNL A   1      42.451  28.720  32.708  1.00  0.00     0.074 A 
ATOM     66  C   UNL A   1      43.034  27.689  31.877  1.00  0.00     0.031 C 
ATOM     67  C   UNL A   1      42.880  29.027  33.956  1.00  0.00     0.037 A 
BRANCH  54  68
ATOM     68  C   UNL A   1      39.785  33.666  36.617  1.00  0.00     0.064 A 
ATOM     69  C   UNL A   1      40.485  34.878  36.721  1.00  0.00     0.173 A 
ATOM     70  C   UNL A   1      38.889  33.337  37.646  1.00  0.00     0.173 A 
ATOM     71  F   UNL A   1      41.362  35.235  35.772  1.00  0.00    -0.203 F 
ATOM     72  C   UNL A   1      40.313  35.714  37.822  1.00  0.00     0.198 A 
ATOM     73  C   UNL A   1      38.695  34.191  38.728  1.00  0.00     0.198 A 
ATOM     74  F   UNL A   1      38.191  32.193  37.595  1.00  0.00    -0.203 F 
ATOM     75  F   UNL A   1      41.029  36.843  37.923  1.00  0.00    -0.200 F 
ATOM     76  C   UNL A   1      39.412  35.374  38.820  1.00  0.00     0.200 A 
ATOM     77  F   UNL A   1      37.813  33.868  39.684  1.00  0.00    -0.200 F 
ATOM     78  F   UNL A   1      39.239  36.184  39.873  1.00  0.00    -0.200 F 
ENDBRANCH  54  68
BRANCH  55  79
ATOM     79  C   UNL A   1      40.617  27.989  28.437  1.00  0.00     0.064 A 
ATOM     80  C   UNL A   1      40.029  26.718  28.359  1.00  0.00     0.173 A 
ATOM     81  C   UNL A   1      41.370  28.426  27.336  1.00  0.00     0.173 A 
ATOM     82  F   UNL A   1      39.317  26.247  29.394  1.00  0.00    -0.203 F 
ATOM     83  C   UNL A   1      40.214  25.904  27.243  1.00  0.00     0.198 A 
ATOM     84  C   UNL A   1      41.527  27.624  26.206  1.00  0.00     0.198 A 
ATOM     85  F   UNL A   1      41.949  29.635  27.354  1.00  0.00    -0.203 F 
ATOM     86  F   UNL A   1      39.691  24.671  27.223  1.00  0.00    -0.200 F 
ATOM     87  C   UNL A   1      40.959  26.360  26.167  1.00  0.00     0.200 A 
ATOM     88  F   UNL A   1      42.233  28.075  25.161  1.00  0.00    -0.200 F 
ATOM     89  F   UNL A   1      41.138  25.576  25.094  1.00  0.00    -0.200 F 
ENDBRANCH  55  79
BRANCH  67  90
ATOM     90  C   UNL A   1      44.006  28.209  34.520  1.00  0.00     0.064 A 
ATOM     91  C   UNL A   1      45.342  28.628  34.434  1.00  0.00     0.173 A 
ATOM     92  C   UNL A   1      43.739  27.006  35.193  1.00  0.00     0.173 A 
ATOM     93  F   UNL A   1      45.652  29.764  33.789  1.00  0.00    -0.203 F 
ATOM     94  C   UNL A   1      46.370  27.860  34.973  1.00  0.00     0.198 A 
ATOM     95  C   UNL A   1      44.765  26.258  35.761  1.00  0.00     0.198 A 
ATOM     96  F   UNL A   1      42.478  26.564  35.311  1.00  0.00    -0.203 F 
ATOM     97  F   UNL A   1      47.643  28.252  34.831  1.00  0.00    -0.200 F 
ATOM     98  C   UNL A   1      46.080  26.679  35.643  1.00  0.00     0.200 A 
ATOM     99  F   UNL A   1      44.481  25.127  36.421  1.00  0.00    -0.200 F 
ATOM    100  F   UNL A   1      47.071  25.945  36.168  1.00  0.00    -0.200 F 
ENDBRANCH  67  90
ENDBRANCH  41  42
ENDBRANCH  33  36
ENDBRANCH  31  32
ENDBRANCH  30  31
ENDBRANCH  29  30
ENDBRANCH   1  29
TORSDOF 17
ENDMDL
MODEL 3
REMARK VINA RESULT:     -12.2      5.139      9.773
REMARK SMILES COc1ccc(NC(=O)[C@@H]2[C@@H](C(=O)NCCCCCCNC(=O)c3ccc(-c4c5nc(c(-c6c(F)c(F)c(F)c(F)c6F)c6ccc([nH]6)c(-c6c(F)c(F)c(F)c(F)c6F)c6nc(c(-c7c(F)c(F)c(F)c(F)c7F)c7ccc4[nH]7)C=C6)C=C5)cc3)[C@H]3C=C[C@@H]2C3)cc1O
REMARK SMILES IDX 17 1 16 2 15 3 14 4 12 5 13 6 11 8 10 9 90 10 87 11 89 12
REMARK SMILES IDX 91 13 88 14 8 15 7 16 9 18 6 19 3 20 4 21 93 22 5 23 92 24
REMARK SMILES IDX 2 25 1 26 94 27 18 29 19 30 20 31 21 32 22 33 23 35 24 36
REMARK SMILES IDX 25 37 86 38 26 39 85 40 27 41 28 42 29 43 79 44 30 45 84 46
REMARK SMILES IDX 78 47 80 48 31 49 83 50 77 51 76 52 32 54 64 55 44 56 63 57
REMARK SMILES IDX 45 58 48 59 62 60 81 61 46 62 47 63 61 65 82 66 49 67 33 68
REMARK SMILES IDX 34 69 42 70 35 71 36 72 40 73 43 74 37 75 38 76 41 77 39 78
REMARK SMILES IDX 65 79 66 80 74 81 67 82 68 83 72 84 75 85 69 86 70 87 73 88
REMARK SMILES IDX 71 89 50 90 51 91 59 92 52 93 53 94 57 95 60 96 54 97 55 98
REMARK SMILES IDX 58 99 56 100
REMARK H PARENT 14 7 7 17 94 28 21 34 80 53 48 64
REMARK Flexibility Score: inf
ROOT
ATOM      1  C   UNL A   1      37.186  21.840  24.361  1.00  0.00     0.002 C 
ENDROOT
BRANCH   1   2
ATOM      2  C   UNL A   1      37.443  22.984  25.350  1.00  0.00     0.021 C 
BRANCH   2   3
ATOM      3  C   UNL A   1      36.297  23.981  25.480  1.00  0.00     0.116 C 
BRANCH   3   4
ATOM      4  N   UNL A   1      35.296  23.487  26.399  1.00  0.00    -0.356 N 
ATOM      5  C   UNL A   1      33.967  23.272  26.200  1.00  0.00     0.224 C 
ATOM      6  O   UNL A   1      33.273  23.095  27.202  1.00  0.00    -0.275 OA
ATOM      7  H   UNL A   1      35.624  23.274  27.301  1.00  0.00     0.163 HD
BRANCH   5   8
ATOM      8  C   UNL A   1      33.399  23.267  24.781  1.00  0.00     0.098 C 
ATOM      9  C   UNL A   1      31.824  23.216  24.784  1.00  0.00     0.099 C 
ATOM     10  C   UNL A   1      31.571  21.836  24.086  1.00  0.00     0.025 C 
ATOM     11  C   UNL A   1      33.795  21.969  24.018  1.00  0.00     0.025 C 
ATOM     12  C   UNL A   1      32.118  20.713  24.940  1.00  0.00    -0.027 C 
ATOM     13  C   UNL A   1      32.660  21.855  23.003  1.00  0.00     0.017 C 
ATOM     14  C   UNL A   1      33.455  20.771  24.872  1.00  0.00    -0.027 C 
BRANCH   9  15
ATOM     15  C   UNL A   1      31.071  24.281  23.978  1.00  0.00     0.228 C 
ATOM     16  N   UNL A   1      31.258  25.620  24.078  1.00  0.00    -0.326 N 
ATOM     17  H   UNL A   1      30.825  26.119  23.348  1.00  0.00     0.169 HD
ATOM     18  O   UNL A   1      30.237  23.935  23.129  1.00  0.00    -0.274 OA
BRANCH  16  19
ATOM     19  C   UNL A   1      31.924  26.454  24.978  1.00  0.00     0.045 A 
ATOM     20  C   UNL A   1      33.057  28.220  26.839  1.00  0.00     0.160 A 
ATOM     21  C   UNL A   1      33.797  27.786  25.739  1.00  0.00     0.052 A 
ATOM     22  C   UNL A   1      31.793  27.677  27.060  1.00  0.00     0.159 A 
ATOM     23  C   UNL A   1      33.232  26.901  24.808  1.00  0.00     0.030 A 
ATOM     24  C   UNL A   1      31.227  26.804  26.140  1.00  0.00     0.076 A 
BRANCH  20  25
ATOM     25  O   UNL A   1      33.640  29.129  27.679  1.00  0.00    -0.493 OA
ATOM     26  C   UNL A   1      33.380  30.487  27.306  1.00  0.00     0.278 C 
ENDBRANCH  20  25
BRANCH  22  27
ATOM     27  O   UNL A   1      31.078  27.946  28.192  1.00  0.00    -0.504 OA
ATOM     28  H   UNL A   1      31.504  27.941  29.026  1.00  0.00     0.293 HD
ENDBRANCH  22  27
ENDBRANCH  16  19
ENDBRANCH   9  15
ENDBRANCH   5   8
ENDBRANCH   3   4
ENDBRANCH   2   3
ENDBRANCH   1   2
BRANCH   1  29
ATOM     29  C   UNL A   1      37.013  20.465  25.009  1.00  0.00     0.002 C 
BRANCH  29  30
ATOM     30  C   UNL A   1      38.256  19.573  24.962  1.00  0.00     0.021 C 
BRANCH  30  31
ATOM     31  C   UNL A   1      39.347  19.960  25.954  1.00  0.00     0.116 C 
BRANCH  31  32
ATOM     32  N   UNL A   1      40.430  18.991  25.977  1.00  0.00    -0.352 N 
ATOM     33  C   UNL A   1      41.779  19.214  26.086  1.00  0.00     0.251 C 
ATOM     34  H   UNL A   1      40.159  18.048  25.906  1.00  0.00     0.163 HD
ATOM     35  O   UNL A   1      42.583  18.311  25.865  1.00  0.00    -0.269 OA
BRANCH  33  36
ATOM     36  C   UNL A   1      42.266  20.559  26.454  1.00  0.00     0.039 A 
ATOM     37  C   UNL A   1      42.655  21.441  25.444  1.00  0.00     0.014 A 
ATOM     38  C   UNL A   1      42.326  20.949  27.795  1.00  0.00     0.014 A 
ATOM     39  C   UNL A   1      43.051  22.738  25.777  1.00  0.00     0.010 A 
ATOM     40  C   UNL A   1      42.648  22.263  28.120  1.00  0.00     0.010 A 
ATOM     41  C   UNL A   1      43.018  23.171  27.115  1.00  0.00    -0.014 A 
BRANCH  41  42
ATOM     42  C   UNL A   1      43.372  24.567  27.477  1.00  0.00     0.031 A 
ATOM     43  C   UNL A   1      44.812  24.997  27.514  1.00  0.00     0.074 A 
ATOM     44  C   UNL A   1      42.400  25.434  27.821  1.00  0.00     0.049 A 
ATOM     45  N   UNL A   1      45.324  26.152  27.855  1.00  0.00    -0.248 NA
ATOM     46  C   UNL A   1      45.815  23.986  27.141  1.00  0.00     0.031 C 
ATOM     47  C   UNL A   1      40.969  25.127  27.864  1.00  0.00     0.029 A 
ATOM     48  N   UNL A   1      42.466  26.750  28.207  1.00  0.00    -0.354 N 
ATOM     49  C   UNL A   1      46.700  26.006  27.742  1.00  0.00     0.074 A 
ATOM     50  C   UNL A   1      46.949  24.633  27.363  1.00  0.00     0.031 C 
ATOM     51  C   UNL A   1      40.293  26.228  28.227  1.00  0.00     0.029 A 
ATOM     52  C   UNL A   1      41.242  27.307  28.484  1.00  0.00     0.049 A 
ATOM     53  H   UNL A   1      43.313  27.248  28.277  1.00  0.00     0.167 HD
ATOM     54  C   UNL A   1      47.667  26.938  27.915  1.00  0.00     0.037 A 
ATOM     55  C   UNL A   1      40.922  28.545  28.906  1.00  0.00     0.037 A 
ATOM     56  C   UNL A   1      47.414  28.309  28.277  1.00  0.00     0.049 A 
ATOM     57  C   UNL A   1      42.020  29.554  29.118  1.00  0.00     0.074 A 
ATOM     58  C   UNL A   1      48.323  29.342  28.432  1.00  0.00     0.029 A 
ATOM     59  N   UNL A   1      46.160  28.837  28.546  1.00  0.00    -0.354 N 
ATOM     60  N   UNL A   1      43.312  29.421  28.943  1.00  0.00    -0.248 NA
ATOM     61  C   UNL A   1      41.613  30.889  29.578  1.00  0.00     0.031 C 
ATOM     62  C   UNL A   1      47.623  30.480  28.847  1.00  0.00     0.029 A 
ATOM     63  C   UNL A   1      46.273  30.174  28.890  1.00  0.00     0.049 A 
ATOM     64  H   UNL A   1      45.314  28.335  28.500  1.00  0.00     0.167 HD
ATOM     65  C   UNL A   1      43.867  30.660  29.237  1.00  0.00     0.074 A 
ATOM     66  C   UNL A   1      42.769  31.536  29.586  1.00  0.00     0.031 C 
ATOM     67  C   UNL A   1      45.169  31.038  29.220  1.00  0.00     0.037 A 
BRANCH  54  68
ATOM     68  C   UNL A   1      49.092  26.512  27.707  1.00  0.00     0.064 A 
ATOM     69  C   UNL A   1      49.644  26.390  26.422  1.00  0.00     0.173 A 
ATOM     70  C   UNL A   1      49.932  26.269  28.805  1.00  0.00     0.173 A 
ATOM     71  F   UNL A   1      48.882  26.599  25.338  1.00  0.00    -0.203 F 
ATOM     72  C   UNL A   1      50.973  26.014  26.244  1.00  0.00     0.198 A 
ATOM     73  C   UNL A   1      51.269  25.926  28.624  1.00  0.00     0.198 A 
ATOM     74  F   UNL A   1      49.459  26.377  30.056  1.00  0.00    -0.203 F 
ATOM     75  F   UNL A   1      51.463  25.856  25.006  1.00  0.00    -0.200 F 
ATOM     76  C   UNL A   1      51.787  25.791  27.345  1.00  0.00     0.200 A 
ATOM     77  F   UNL A   1      52.058  25.726  29.689  1.00  0.00    -0.200 F 
ATOM     78  F   UNL A   1      53.068  25.441  27.172  1.00  0.00    -0.200 F 
ENDBRANCH  54  68
BRANCH  55  79
ATOM     79  C   UNL A   1      39.500  28.913  29.144  1.00  0.00     0.064 A 
ATOM     80  C   UNL A   1      38.704  29.425  28.108  1.00  0.00     0.173 A 
ATOM     81  C   UNL A   1      38.914  28.784  30.412  1.00  0.00     0.173 A 
ATOM     82  F   UNL A   1      39.225  29.586  26.882  1.00  0.00    -0.203 F 
ATOM     83  C   UNL A   1      37.389  29.825  28.339  1.00  0.00     0.198 A 
ATOM     84  C   UNL A   1      37.588  29.153  30.634  1.00  0.00     0.198 A 
ATOM     85  F   UNL A   1      39.627  28.294  31.437  1.00  0.00    -0.203 F 
ATOM     86  F   UNL A   1      36.674  30.367  27.346  1.00  0.00    -0.200 F 
ATOM     87  C   UNL A   1      36.831  29.684  29.600  1.00  0.00     0.200 A 
ATOM     88  F   UNL A   1      37.047  29.000  31.850  1.00  0.00    -0.200 F 
ATOM     89  F   UNL A   1      35.567  30.070  29.822  1.00  0.00    -0.200 F 
ENDBRANCH  55  79
BRANCH  67  90
ATOM     90  C   UNL A   1      45.475  32.473  29.542  1.00  0.00     0.064 A 
ATOM     91  C   UNL A   1      45.791  32.889  30.844  1.00  0.00     0.173 A 
ATOM     92  C   UNL A   1      45.492  33.439  28.523  1.00  0.00     0.173 A 
ATOM     93  F   UNL A   1      45.775  32.009  31.856  1.00  0.00    -0.203 F 
ATOM     94  C   UNL A   1      46.082  34.222  31.119  1.00  0.00     0.198 A 
ATOM     95  C   UNL A   1      45.817  34.764  28.795  1.00  0.00     0.198 A 
ATOM     96  F   UNL A   1      45.206  33.093  27.259  1.00  0.00    -0.203 F 
ATOM     97  F   UNL A   1      46.326  34.607  32.379  1.00  0.00    -0.200 F 
ATOM     98  C   UNL A   1      46.103  35.157  30.094  1.00  0.00     0.200 A 
ATOM     99  F   UNL A   1      45.853  35.661  27.801  1.00  0.00    -0.200 F 
ATOM    100  F   UNL A   1      46.391  36.438  30.359  1.00  0.00    -0.200 F 
ENDBRANCH  67  90
ENDBRANCH  41  42
ENDBRANCH  33  36
ENDBRANCH  31  32
ENDBRANCH  30  31
ENDBRANCH  29  30
ENDBRANCH   1  29
TORSDOF 17
ENDMDL
