MODEL 1
REMARK VINA RESULT:     -11.8      0.000      0.000
REMARK SMILES CCS(=O)(=O)N1CCC(C(=O)N[C@H](CO)C(=O)NCCCCCCNC(=O)c2ccc(-c3c4nc(c(-c5c(F)c(F)c(F)c(F)c5F)c5ccc([nH]5)c(-c5c(F)c(F)c(F)c(F)c5F)c5nc(c(-c6c(F)c(F)c(F)c(F)c6F)c6ccc3[nH]6)C=C5)C=C4)cc2)CC1
REMARK SMILES IDX 20 1 19 2 18 3 16 4 17 5 13 7 12 8 10 9 11 10 9 12 6 13 7 14
REMARK SMILES IDX 92 15 8 16 91 17 3 18 4 19 5 20 2 21 1 22 14 23 15 24 21 26
REMARK SMILES IDX 22 27 23 28 24 29 25 30 26 31 27 33 28 34 29 35 90 36 30 37
REMARK SMILES IDX 89 38 31 39 32 40 33 41 83 42 34 43 88 44 82 45 84 46 35 47
REMARK SMILES IDX 87 48 81 49 80 50 36 52 68 53 48 54 67 55 49 56 52 57 66 58
REMARK SMILES IDX 85 59 50 60 51 61 65 63 86 64 53 65 37 66 38 67 46 68 39 69
REMARK SMILES IDX 40 70 44 71 47 72 41 73 42 74 45 75 43 76 69 77 70 78 78 79
REMARK SMILES IDX 71 80 72 81 76 82 79 83 73 84 74 85 77 86 75 87 54 88 55 89
REMARK SMILES IDX 63 90 56 91 57 92 61 93 64 94 58 95 59 96 62 97 60 98
REMARK H PARENT 18 6 12 11 15 25 25 32 84 51 52 62
REMARK Flexibility Score: inf
ROOT
ATOM      1  C   UNL A   1      36.185  23.840  25.745  1.00  0.00     0.021 C 
ENDROOT
BRANCH   1   2
ATOM      2  C   UNL A   1      34.808  23.177  25.847  1.00  0.00     0.116 C 
BRANCH   2   3
ATOM      3  N   UNL A   1      34.129  23.168  24.564  1.00  0.00    -0.354 N 
ATOM      4  C   UNL A   1      32.809  23.301  24.270  1.00  0.00     0.244 C 
ATOM      5  O   UNL A   1      32.459  23.042  23.113  1.00  0.00    -0.273 OA
ATOM      6  H   UNL A   1      34.718  23.047  23.784  1.00  0.00     0.163 HD
BRANCH   4   7
ATOM      7  C   UNL A   1      31.757  23.535  25.359  1.00  0.00     0.197 C 
BRANCH   7   8
ATOM      8  N   UNL A   1      31.905  24.757  26.170  1.00  0.00    -0.342 N 
ATOM      9  C   UNL A   1      31.401  26.014  26.033  1.00  0.00     0.223 C 
ATOM     10  O   UNL A   1      31.382  26.697  27.064  1.00  0.00    -0.275 OA
ATOM     11  H   UNL A   1      32.476  24.641  26.964  1.00  0.00     0.164 HD
BRANCH   9  12
ATOM     12  C   UNL A   1      31.035  26.673  24.694  1.00  0.00     0.081 C 
ATOM     13  N   UNL A   1      29.237  28.719  23.643  1.00  0.00    -0.202 NA
ATOM     14  C   UNL A   1      28.811  27.310  23.470  1.00  0.00     0.103 C 
ATOM     15  C   UNL A   1      30.703  28.838  23.409  1.00  0.00     0.103 C 
ATOM     16  C   UNL A   1      29.565  26.376  24.401  1.00  0.00     0.030 C 
ATOM     17  C   UNL A   1      31.455  28.126  24.527  1.00  0.00     0.030 C 
BRANCH  13  18
ATOM     18  S   UNL A   1      28.290  29.847  22.754  1.00  0.00     0.213 S 
ATOM     19  O   UNL A   1      26.903  29.667  23.126  1.00  0.00    -0.212 OA
ATOM     20  O   UNL A   1      28.692  29.771  21.363  1.00  0.00    -0.212 OA
BRANCH  18  21
ATOM     21  C   UNL A   1      28.841  31.445  23.342  1.00  0.00     0.151 C 
ATOM     22  C   UNL A   1      28.564  32.617  22.428  1.00  0.00     0.022 C 
ENDBRANCH  18  21
ENDBRANCH  13  18
ENDBRANCH   9  12
ENDBRANCH   7   8
BRANCH   7  23
ATOM     23  C   UNL A   1      31.652  22.265  26.250  1.00  0.00     0.191 C 
BRANCH  23  24
ATOM     24  O   UNL A   1      31.780  21.018  25.573  1.00  0.00    -0.394 OA
ATOM     25  H   UNL A   1      31.214  21.018  24.784  1.00  0.00     0.210 HD
ENDBRANCH  23  24
ENDBRANCH   7  23
ENDBRANCH   4   7
ENDBRANCH   2   3
ENDBRANCH   1   2
BRANCH   1  26
ATOM     26  C   UNL A   1      37.373  22.877  25.615  1.00  0.00     0.002 C 
BRANCH  26  27
ATOM     27  C   UNL A   1      37.039  21.394  25.467  1.00  0.00     0.002 C 
BRANCH  27  28
ATOM     28  C   UNL A   1      38.178  20.493  25.029  1.00  0.00     0.021 C 
BRANCH  28  29
ATOM     29  C   UNL A   1      39.382  20.521  25.947  1.00  0.00     0.116 C 
BRANCH  29  30
ATOM     30  N   UNL A   1      40.167  19.293  25.925  1.00  0.00    -0.352 N 
ATOM     31  C   UNL A   1      41.524  19.169  26.113  1.00  0.00     0.251 C 
ATOM     32  H   UNL A   1      39.671  18.460  25.756  1.00  0.00     0.163 HD
ATOM     33  O   UNL A   1      42.095  18.092  25.990  1.00  0.00    -0.269 OA
BRANCH  31  34
ATOM     34  C   UNL A   1      42.285  20.394  26.419  1.00  0.00     0.039 A 
ATOM     35  C   UNL A   1      42.913  21.080  25.380  1.00  0.00     0.014 A 
ATOM     36  C   UNL A   1      42.233  20.931  27.708  1.00  0.00     0.014 A 
ATOM     37  C   UNL A   1      43.422  22.356  25.618  1.00  0.00     0.010 A 
ATOM     38  C   UNL A   1      42.646  22.238  27.916  1.00  0.00     0.010 A 
ATOM     39  C   UNL A   1      43.248  22.962  26.874  1.00  0.00    -0.014 A 
BRANCH  39  40
ATOM     40  C   UNL A   1      43.697  24.352  27.132  1.00  0.00     0.031 A 
ATOM     41  C   UNL A   1      42.706  25.367  27.627  1.00  0.00     0.074 A 
ATOM     42  C   UNL A   1      44.962  24.714  26.841  1.00  0.00     0.049 A 
ATOM     43  N   UNL A   1      42.865  26.651  27.827  1.00  0.00    -0.248 NA
ATOM     44  C   UNL A   1      41.339  24.886  27.893  1.00  0.00     0.031 C 
ATOM     45  C   UNL A   1      45.991  23.833  26.283  1.00  0.00     0.029 A 
ATOM     46  N   UNL A   1      45.596  25.925  26.960  1.00  0.00    -0.354 N 
ATOM     47  C   UNL A   1      41.619  27.127  28.210  1.00  0.00     0.074 A 
ATOM     48  C   UNL A   1      40.700  26.013  28.162  1.00  0.00     0.031 C 
ATOM     49  C   UNL A   1      47.130  24.527  26.127  1.00  0.00     0.029 A 
ATOM     50  C   UNL A   1      46.905  25.908  26.542  1.00  0.00     0.049 A 
ATOM     51  H   UNL A   1      45.153  26.731  27.311  1.00  0.00     0.167 HD
ATOM     52  C   UNL A   1      41.280  28.379  28.597  1.00  0.00     0.037 A 
ATOM     53  C   UNL A   1      47.815  26.900  26.497  1.00  0.00     0.037 A 
ATOM     54  C   UNL A   1      42.215  29.465  28.701  1.00  0.00     0.049 A 
ATOM     55  C   UNL A   1      47.422  28.271  26.981  1.00  0.00     0.074 A 
ATOM     56  C   UNL A   1      41.998  30.745  29.179  1.00  0.00     0.029 A 
ATOM     57  N   UNL A   1      43.548  29.397  28.324  1.00  0.00    -0.354 N 
ATOM     58  N   UNL A   1      46.264  28.688  27.433  1.00  0.00    -0.248 NA
ATOM     59  C   UNL A   1      48.463  29.308  26.957  1.00  0.00     0.031 C 
ATOM     60  C   UNL A   1      43.189  31.464  29.052  1.00  0.00     0.029 A 
ATOM     61  C   UNL A   1      44.160  30.619  28.539  1.00  0.00     0.049 A 
ATOM     62  H   UNL A   1      43.992  28.598  27.958  1.00  0.00     0.167 HD
ATOM     63  C   UNL A   1      46.443  30.021  27.770  1.00  0.00     0.074 A 
ATOM     64  C   UNL A   1      47.827  30.340  27.491  1.00  0.00     0.031 C 
ATOM     65  C   UNL A   1      45.543  30.907  28.264  1.00  0.00     0.037 A 
BRANCH  52  66
ATOM     66  C   UNL A   1      39.848  28.638  28.955  1.00  0.00     0.064 A 
ATOM     67  C   UNL A   1      39.368  28.445  30.260  1.00  0.00     0.173 A 
ATOM     68  C   UNL A   1      38.957  29.139  27.995  1.00  0.00     0.173 A 
ATOM     69  F   UNL A   1      40.177  27.954  31.210  1.00  0.00    -0.203 F 
ATOM     70  C   UNL A   1      38.045  28.728  30.584  1.00  0.00     0.198 A 
ATOM     71  C   UNL A   1      37.641  29.448  28.330  1.00  0.00     0.198 A 
ATOM     72  F   UNL A   1      39.365  29.341  26.733  1.00  0.00    -0.203 F 
ATOM     73  F   UNL A   1      37.599  28.499  31.828  1.00  0.00    -0.200 F 
ATOM     74  C   UNL A   1      37.186  29.238  29.624  1.00  0.00     0.200 A 
ATOM     75  F   UNL A   1      36.815  29.951  27.403  1.00  0.00    -0.200 F 
ATOM     76  F   UNL A   1      35.916  29.525  29.941  1.00  0.00    -0.200 F 
ENDBRANCH  52  66
BRANCH  53  77
ATOM     77  C   UNL A   1      49.190  26.637  25.995  1.00  0.00     0.064 A 
ATOM     78  C   UNL A   1      49.550  26.948  24.676  1.00  0.00     0.173 A 
ATOM     79  C   UNL A   1      50.164  26.042  26.812  1.00  0.00     0.173 A 
ATOM     80  F   UNL A   1      48.648  27.499  23.849  1.00  0.00    -0.203 F 
ATOM     81  C   UNL A   1      50.818  26.646  24.183  1.00  0.00     0.198 A 
ATOM     82  C   UNL A   1      51.442  25.769  26.326  1.00  0.00     0.198 A 
ATOM     83  F   UNL A   1      49.875  25.730  28.083  1.00  0.00    -0.203 F 
ATOM     84  F   UNL A   1      51.114  26.901  22.902  1.00  0.00    -0.200 F 
ATOM     85  C   UNL A   1      51.764  26.060  25.009  1.00  0.00     0.200 A 
ATOM     86  F   UNL A   1      52.357  25.214  27.133  1.00  0.00    -0.200 F 
ATOM     87  F   UNL A   1      52.981  25.766  24.534  1.00  0.00    -0.200 F 
ENDBRANCH  53  77
BRANCH  65  88
ATOM     88  C   UNL A   1      46.034  32.293  28.559  1.00  0.00     0.064 A 
ATOM     89  C   UNL A   1      46.592  32.625  29.801  1.00  0.00     0.173 A 
ATOM     90  C   UNL A   1      45.988  33.286  27.568  1.00  0.00     0.173 A 
ATOM     91  F   UNL A   1      46.644  31.712  30.783  1.00  0.00    -0.203 F 
ATOM     92  C   UNL A   1      47.066  33.909  30.050  1.00  0.00     0.198 A 
ATOM     93  C   UNL A   1      46.491  34.561  27.812  1.00  0.00     0.198 A 
ATOM     94  F   UNL A   1      45.472  33.015  26.361  1.00  0.00    -0.203 F 
ATOM     95  F   UNL A   1      47.554  34.218  31.260  1.00  0.00    -0.200 F 
ATOM     96  C   UNL A   1      47.023  34.873  29.054  1.00  0.00     0.200 A 
ATOM     97  F   UNL A   1      46.463  35.486  26.843  1.00  0.00    -0.200 F 
ATOM     98  F   UNL A   1      47.489  36.107  29.293  1.00  0.00    -0.200 F 
ENDBRANCH  65  88
ENDBRANCH  39  40
ENDBRANCH  31  34
ENDBRANCH  29  30
ENDBRANCH  28  29
ENDBRANCH  27  28
ENDBRANCH  26  27
ENDBRANCH   1  26
TORSDOF 19
ENDMDL
MODEL 2
REMARK VINA RESULT:     -11.7      5.678     10.297
REMARK SMILES CCS(=O)(=O)N1CCC(C(=O)N[C@H](CO)C(=O)NCCCCCCNC(=O)c2ccc(-c3c4nc(c(-c5c(F)c(F)c(F)c(F)c5F)c5ccc([nH]5)c(-c5c(F)c(F)c(F)c(F)c5F)c5nc(c(-c6c(F)c(F)c(F)c(F)c6F)c6ccc3[nH]6)C=C5)C=C4)cc2)CC1
REMARK SMILES IDX 20 1 19 2 18 3 16 4 17 5 13 7 12 8 10 9 11 10 9 12 6 13 7 14
REMARK SMILES IDX 92 15 8 16 91 17 3 18 4 19 5 20 2 21 1 22 14 23 15 24 21 26
REMARK SMILES IDX 22 27 23 28 24 29 25 30 26 31 27 33 28 34 29 35 90 36 30 37
REMARK SMILES IDX 89 38 31 39 32 40 33 41 83 42 34 43 88 44 82 45 84 46 35 47
REMARK SMILES IDX 87 48 81 49 80 50 36 52 68 53 48 54 67 55 49 56 52 57 66 58
REMARK SMILES IDX 85 59 50 60 51 61 65 63 86 64 53 65 37 66 38 67 46 68 39 69
REMARK SMILES IDX 40 70 44 71 47 72 41 73 42 74 45 75 43 76 69 77 70 78 78 79
REMARK SMILES IDX 71 80 72 81 76 82 79 83 73 84 74 85 77 86 75 87 54 88 55 89
REMARK SMILES IDX 63 90 56 91 57 92 61 93 64 94 58 95 59 96 62 97 60 98
REMARK H PARENT 18 6 12 11 15 25 25 32 84 51 52 62
REMARK Flexibility Score: inf
ROOT
ATOM      1  C   UNL A   1      33.413  28.852  27.292  1.00  0.00     0.021 C 
ENDROOT
BRANCH   1   2
ATOM      2  C   UNL A   1      32.620  28.769  25.984  1.00  0.00     0.116 C 
BRANCH   2   3
ATOM      3  N   UNL A   1      33.372  29.324  24.874  1.00  0.00    -0.354 N 
ATOM      4  C   UNL A   1      33.344  29.008  23.552  1.00  0.00     0.244 C 
ATOM      5  O   UNL A   1      34.239  29.478  22.840  1.00  0.00    -0.273 OA
ATOM      6  H   UNL A   1      34.001  30.042  25.116  1.00  0.00     0.163 HD
BRANCH   4   7
ATOM      7  C   UNL A   1      32.397  27.941  22.994  1.00  0.00     0.197 C 
BRANCH   7   8
ATOM      8  N   UNL A   1      32.951  27.032  21.975  1.00  0.00    -0.342 N 
ATOM      9  C   UNL A   1      32.911  25.678  21.837  1.00  0.00     0.223 C 
ATOM     10  O   UNL A   1      33.122  25.252  20.695  1.00  0.00    -0.275 OA
ATOM     11  H   UNL A   1      33.442  27.492  21.256  1.00  0.00     0.164 HD
BRANCH   9  12
ATOM     12  C   UNL A   1      32.804  24.679  22.999  1.00  0.00     0.081 C 
ATOM     13  N   UNL A   1      34.460  22.741  24.423  1.00  0.00    -0.202 NA
ATOM     14  C   UNL A   1      33.530  22.197  23.405  1.00  0.00     0.103 C 
ATOM     15  C   UNL A   1      33.796  23.839  25.180  1.00  0.00     0.103 C 
ATOM     16  C   UNL A   1      33.051  23.276  22.448  1.00  0.00     0.030 C 
ATOM     17  C   UNL A   1      33.580  25.033  24.259  1.00  0.00     0.030 C 
BRANCH  13  18
ATOM     18  S   UNL A   1      35.182  21.539  25.418  1.00  0.00     0.213 S 
ATOM     19  O   UNL A   1      34.936  20.245  24.816  1.00  0.00    -0.212 OA
ATOM     20  O   UNL A   1      34.789  21.796  26.790  1.00  0.00    -0.212 OA
BRANCH  18  21
ATOM     21  C   UNL A   1      36.935  21.889  25.330  1.00  0.00     0.151 C 
ATOM     22  C   UNL A   1      37.324  23.347  25.437  1.00  0.00     0.022 C 
ENDBRANCH  18  21
ENDBRANCH  13  18
ENDBRANCH   9  12
ENDBRANCH   7   8
BRANCH   7  23
ATOM     23  C   UNL A   1      31.090  28.627  22.500  1.00  0.00     0.191 C 
BRANCH  23  24
ATOM     24  O   UNL A   1      31.264  29.800  21.711  1.00  0.00    -0.394 OA
ATOM     25  H   UNL A   1      31.324  29.554  20.774  1.00  0.00     0.210 HD
ENDBRANCH  23  24
ENDBRANCH   7  23
ENDBRANCH   4   7
ENDBRANCH   2   3
ENDBRANCH   1   2
BRANCH   1  26
ATOM     26  C   UNL A   1      34.577  29.852  27.296  1.00  0.00     0.002 C 
BRANCH  26  27
ATOM     27  C   UNL A   1      34.405  31.100  28.157  1.00  0.00     0.002 C 
BRANCH  27  28
ATOM     28  C   UNL A   1      33.223  31.989  27.818  1.00  0.00     0.021 C 
BRANCH  28  29
ATOM     29  C   UNL A   1      33.604  33.338  27.245  1.00  0.00     0.116 C 
BRANCH  29  30
ATOM     30  N   UNL A   1      32.884  34.455  27.844  1.00  0.00    -0.352 N 
ATOM     31  C   UNL A   1      33.139  35.058  29.054  1.00  0.00     0.251 C 
ATOM     32  H   UNL A   1      32.131  34.819  27.324  1.00  0.00     0.163 HD
ATOM     33  O   UNL A   1      32.415  35.940  29.499  1.00  0.00    -0.269 OA
BRANCH  31  34
ATOM     34  C   UNL A   1      34.294  34.569  29.830  1.00  0.00     0.039 A 
ATOM     35  C   UNL A   1      34.067  33.803  30.973  1.00  0.00     0.014 A 
ATOM     36  C   UNL A   1      35.584  34.743  29.324  1.00  0.00     0.014 A 
ATOM     37  C   UNL A   1      35.138  33.137  31.567  1.00  0.00     0.010 A 
ATOM     38  C   UNL A   1      36.627  33.999  29.854  1.00  0.00     0.010 A 
ATOM     39  C   UNL A   1      36.415  33.192  30.983  1.00  0.00    -0.014 A 
BRANCH  39  40
ATOM     40  C   UNL A   1      37.554  32.423  31.540  1.00  0.00     0.031 A 
ATOM     41  C   UNL A   1      38.105  32.795  32.888  1.00  0.00     0.074 A 
ATOM     42  C   UNL A   1      38.139  31.459  30.802  1.00  0.00     0.049 A 
ATOM     43  N   UNL A   1      39.150  32.318  33.516  1.00  0.00    -0.248 NA
ATOM     44  C   UNL A   1      37.418  33.879  33.611  1.00  0.00     0.031 C 
ATOM     45  C   UNL A   1      37.739  31.063  29.450  1.00  0.00     0.029 A 
ATOM     46  N   UNL A   1      39.207  30.644  31.080  1.00  0.00    -0.354 N 
ATOM     47  C   UNL A   1      39.256  33.060  34.683  1.00  0.00     0.074 A 
ATOM     48  C   UNL A   1      38.210  34.056  34.656  1.00  0.00     0.031 C 
ATOM     49  C   UNL A   1      38.538  30.070  29.026  1.00  0.00     0.029 A 
ATOM     50  C   UNL A   1      39.526  29.780  30.060  1.00  0.00     0.049 A 
ATOM     51  H   UNL A   1      39.701  30.676  31.932  1.00  0.00     0.167 HD
ATOM     52  C   UNL A   1      40.134  32.904  35.702  1.00  0.00     0.037 A 
ATOM     53  C   UNL A   1      40.508  28.864  29.972  1.00  0.00     0.037 A 
ATOM     54  C   UNL A   1      41.131  31.870  35.749  1.00  0.00     0.049 A 
ATOM     55  C   UNL A   1      41.437  28.679  31.142  1.00  0.00     0.074 A 
ATOM     56  C   UNL A   1      42.000  31.559  36.778  1.00  0.00     0.029 A 
ATOM     57  N   UNL A   1      41.387  30.975  34.721  1.00  0.00    -0.354 N 
ATOM     58  N   UNL A   1      41.468  29.324  32.284  1.00  0.00    -0.248 NA
ATOM     59  C   UNL A   1      42.463  27.633  31.018  1.00  0.00     0.031 C 
ATOM     60  C   UNL A   1      42.813  30.503  36.357  1.00  0.00     0.029 A 
ATOM     61  C   UNL A   1      42.417  30.126  35.083  1.00  0.00     0.049 A 
ATOM     62  H   UNL A   1      40.907  30.949  33.862  1.00  0.00     0.167 HD
ATOM     63  C   UNL A   1      42.493  28.748  33.020  1.00  0.00     0.074 A 
ATOM     64  C   UNL A   1      43.047  27.687  32.206  1.00  0.00     0.031 C 
ATOM     65  C   UNL A   1      42.942  29.069  34.259  1.00  0.00     0.037 A 
BRANCH  52  66
ATOM     66  C   UNL A   1      40.042  33.855  36.857  1.00  0.00     0.064 A 
ATOM     67  C   UNL A   1      40.791  35.041  36.896  1.00  0.00     0.173 A 
ATOM     68  C   UNL A   1      39.153  33.604  37.912  1.00  0.00     0.173 A 
ATOM     69  F   UNL A   1      41.666  35.319  35.919  1.00  0.00    -0.203 F 
ATOM     70  C   UNL A   1      40.665  35.932  37.958  1.00  0.00     0.198 A 
ATOM     71  C   UNL A   1      39.008  34.512  38.959  1.00  0.00     0.198 A 
ATOM     72  F   UNL A   1      38.414  32.484  37.924  1.00  0.00    -0.203 F 
ATOM     73  F   UNL A   1      41.419  37.040  37.993  1.00  0.00    -0.200 F 
ATOM     74  C   UNL A   1      39.767  35.672  38.982  1.00  0.00     0.200 A 
ATOM     75  F   UNL A   1      38.133  34.264  39.943  1.00  0.00    -0.200 F 
ATOM     76  F   UNL A   1      39.635  36.539  39.997  1.00  0.00    -0.200 F 
ENDBRANCH  52  66
BRANCH  53  77
ATOM     77  C   UNL A   1      40.657  28.036  28.745  1.00  0.00     0.064 A 
ATOM     78  C   UNL A   1      41.445  28.473  27.671  1.00  0.00     0.173 A 
ATOM     79  C   UNL A   1      39.994  26.808  28.608  1.00  0.00     0.173 A 
ATOM     80  F   UNL A   1      42.084  29.650  27.744  1.00  0.00    -0.203 F 
ATOM     81  C   UNL A   1      41.538  27.730  26.495  1.00  0.00     0.198 A 
ATOM     82  C   UNL A   1      40.112  26.051  27.443  1.00  0.00     0.198 A 
ATOM     83  F   UNL A   1      39.232  26.340  29.608  1.00  0.00    -0.203 F 
ATOM     84  F   UNL A   1      42.251  28.201  25.463  1.00  0.00    -0.200 F 
ATOM     85  C   UNL A   1      40.875  26.518  26.384  1.00  0.00     0.200 A 
ATOM     86  F   UNL A   1      39.479  24.874  27.345  1.00  0.00    -0.200 F 
ATOM     87  F   UNL A   1      40.960  25.807  25.252  1.00  0.00    -0.200 F 
ENDBRANCH  53  77
BRANCH  65  88
ATOM     88  C   UNL A   1      44.065  28.247  34.817  1.00  0.00     0.064 A 
ATOM     89  C   UNL A   1      43.825  27.059  35.522  1.00  0.00     0.173 A 
ATOM     90  C   UNL A   1      45.398  28.630  34.602  1.00  0.00     0.173 A 
ATOM     91  F   UNL A   1      42.567  26.660  35.764  1.00  0.00    -0.203 F 
ATOM     92  C   UNL A   1      44.879  26.295  36.013  1.00  0.00     0.198 A 
ATOM     93  C   UNL A   1      46.449  27.847  35.069  1.00  0.00     0.198 A 
ATOM     94  F   UNL A   1      45.679  29.754  33.926  1.00  0.00    -0.203 F 
ATOM     95  F   UNL A   1      44.626  25.187  36.723  1.00  0.00    -0.200 F 
ATOM     96  C   UNL A   1      46.190  26.685  35.778  1.00  0.00     0.200 A 
ATOM     97  F   UNL A   1      47.715  28.217  34.827  1.00  0.00    -0.200 F 
ATOM     98  F   UNL A   1      47.204  25.942  36.243  1.00  0.00    -0.200 F 
ENDBRANCH  65  88
ENDBRANCH  39  40
ENDBRANCH  31  34
ENDBRANCH  29  30
ENDBRANCH  28  29
ENDBRANCH  27  28
ENDBRANCH  26  27
ENDBRANCH   1  26
TORSDOF 19
ENDMDL
MODEL 3
REMARK VINA RESULT:     -11.7      1.567      2.132
REMARK SMILES CCS(=O)(=O)N1CCC(C(=O)N[C@H](CO)C(=O)NCCCCCCNC(=O)c2ccc(-c3c4nc(c(-c5c(F)c(F)c(F)c(F)c5F)c5ccc([nH]5)c(-c5c(F)c(F)c(F)c(F)c5F)c5nc(c(-c6c(F)c(F)c(F)c(F)c6F)c6ccc3[nH]6)C=C5)C=C4)cc2)CC1
REMARK SMILES IDX 20 1 19 2 18 3 16 4 17 5 13 7 12 8 10 9 11 10 9 12 6 13 7 14
REMARK SMILES IDX 92 15 8 16 91 17 3 18 4 19 5 20 2 21 1 22 14 23 15 24 21 26
REMARK SMILES IDX 22 27 23 28 24 29 25 30 26 31 27 33 28 34 29 35 90 36 30 37
REMARK SMILES IDX 89 38 31 39 32 40 33 41 83 42 34 43 88 44 82 45 84 46 35 47
REMARK SMILES IDX 87 48 81 49 80 50 36 52 68 53 48 54 67 55 49 56 52 57 66 58
REMARK SMILES IDX 85 59 50 60 51 61 65 63 86 64 53 65 37 66 38 67 46 68 39 69
REMARK SMILES IDX 40 70 44 71 47 72 41 73 42 74 45 75 43 76 69 77 70 78 78 79
REMARK SMILES IDX 71 80 72 81 76 82 79 83 73 84 74 85 77 86 75 87 54 88 55 89
REMARK SMILES IDX 63 90 56 91 57 92 61 93 64 94 58 95 59 96 62 97 60 98
REMARK H PARENT 18 6 12 11 15 25 25 32 84 51 52 62
REMARK Flexibility Score: inf
ROOT
ATOM      1  C   UNL A   1      36.860  22.983  24.569  1.00  0.00     0.021 C 
ENDROOT
BRANCH   1   2
ATOM      2  C   UNL A   1      35.803  21.883  24.703  1.00  0.00     0.116 C 
BRANCH   2   3
ATOM      3  N   UNL A   1      35.532  21.577  26.096  1.00  0.00    -0.354 N 
ATOM      4  C   UNL A   1      34.351  21.526  26.767  1.00  0.00     0.244 C 
ATOM      5  O   UNL A   1      34.405  21.453  28.000  1.00  0.00    -0.273 OA
ATOM      6  H   UNL A   1      36.327  21.375  26.639  1.00  0.00     0.163 HD
BRANCH   4   7
ATOM      7  C   UNL A   1      33.010  21.775  26.069  1.00  0.00     0.197 C 
BRANCH   7   8
ATOM      8  N   UNL A   1      31.981  22.487  26.848  1.00  0.00    -0.342 N 
ATOM      9  C   UNL A   1      31.198  23.564  26.563  1.00  0.00     0.223 C 
ATOM     10  O   UNL A   1      30.176  23.678  27.249  1.00  0.00    -0.275 OA
ATOM     11  H   UNL A   1      31.830  22.112  27.746  1.00  0.00     0.164 HD
BRANCH   9  12
ATOM     12  C   UNL A   1      31.582  24.699  25.600  1.00  0.00     0.081 C 
ATOM     13  N   UNL A   1      31.823  27.609  25.580  1.00  0.00    -0.202 NA
ATOM     14  C   UNL A   1      30.591  27.042  24.982  1.00  0.00     0.103 C 
ATOM     15  C   UNL A   1      32.998  26.770  25.211  1.00  0.00     0.103 C 
ATOM     16  C   UNL A   1      30.365  25.604  25.419  1.00  0.00     0.030 C 
ATOM     17  C   UNL A   1      32.891  25.415  25.899  1.00  0.00     0.030 C 
BRANCH  13  18
ATOM     18  S   UNL A   1      32.035  29.288  25.275  1.00  0.00     0.213 S 
ATOM     19  O   UNL A   1      30.841  29.784  24.625  1.00  0.00    -0.212 OA
ATOM     20  O   UNL A   1      33.335  29.472  24.660  1.00  0.00    -0.212 OA
BRANCH  18  21
ATOM     21  C   UNL A   1      32.149  30.020  26.905  1.00  0.00     0.151 C 
ATOM     22  C   UNL A   1      33.435  30.753  27.212  1.00  0.00     0.022 C 
ENDBRANCH  18  21
ENDBRANCH  13  18
ENDBRANCH   9  12
ENDBRANCH   7   8
BRANCH   7  23
ATOM     23  C   UNL A   1      32.471  20.430  25.503  1.00  0.00     0.191 C 
BRANCH  23  24
ATOM     24  O   UNL A   1      33.026  19.248  26.073  1.00  0.00    -0.394 OA
ATOM     25  H   UNL A   1      33.480  19.471  26.902  1.00  0.00     0.210 HD
ENDBRANCH  23  24
ENDBRANCH   7  23
ENDBRANCH   4   7
ENDBRANCH   2   3
ENDBRANCH   1   2
BRANCH   1  26
ATOM     26  C   UNL A   1      37.533  23.415  25.880  1.00  0.00     0.002 C 
BRANCH  26  27
ATOM     27  C   UNL A   1      38.946  22.893  26.128  1.00  0.00     0.002 C 
BRANCH  27  28
ATOM     28  C   UNL A   1      39.215  21.462  25.702  1.00  0.00     0.021 C 
BRANCH  28  29
ATOM     29  C   UNL A   1      39.611  20.541  26.837  1.00  0.00     0.116 C 
BRANCH  29  30
ATOM     30  N   UNL A   1      40.417  19.402  26.415  1.00  0.00    -0.352 N 
ATOM     31  C   UNL A   1      41.773  19.380  26.185  1.00  0.00     0.251 C 
ATOM     32  H   UNL A   1      39.937  18.553  26.279  1.00  0.00     0.163 HD
ATOM     33  O   UNL A   1      42.337  18.383  25.751  1.00  0.00    -0.269 OA
BRANCH  31  34
ATOM     34  C   UNL A   1      42.526  20.624  26.431  1.00  0.00     0.039 A 
ATOM     35  C   UNL A   1      42.946  21.389  25.343  1.00  0.00     0.014 A 
ATOM     36  C   UNL A   1      42.667  21.094  27.739  1.00  0.00     0.014 A 
ATOM     37  C   UNL A   1      43.437  22.674  25.566  1.00  0.00     0.010 A 
ATOM     38  C   UNL A   1      43.059  22.407  27.949  1.00  0.00     0.010 A 
ATOM     39  C   UNL A   1      43.450  23.209  26.865  1.00  0.00    -0.014 A 
BRANCH  39  40
ATOM     40  C   UNL A   1      43.882  24.604  27.123  1.00  0.00     0.031 A 
ATOM     41  C   UNL A   1      42.879  25.606  27.621  1.00  0.00     0.074 A 
ATOM     42  C   UNL A   1      45.142  24.983  26.830  1.00  0.00     0.049 A 
ATOM     43  N   UNL A   1      43.022  26.892  27.821  1.00  0.00    -0.248 NA
ATOM     44  C   UNL A   1      41.519  25.107  27.889  1.00  0.00     0.031 C 
ATOM     45  C   UNL A   1      46.182  24.116  26.270  1.00  0.00     0.029 A 
ATOM     46  N   UNL A   1      45.760  26.202  26.949  1.00  0.00    -0.354 N 
ATOM     47  C   UNL A   1      41.770  27.351  28.208  1.00  0.00     0.074 A 
ATOM     48  C   UNL A   1      40.866  26.226  28.160  1.00  0.00     0.031 C 
ATOM     49  C   UNL A   1      47.311  24.825  26.113  1.00  0.00     0.029 A 
ATOM     50  C   UNL A   1      47.069  26.203  26.530  1.00  0.00     0.049 A 
ATOM     51  H   UNL A   1      45.307  27.003  27.302  1.00  0.00     0.167 HD
ATOM     52  C   UNL A   1      41.416  28.599  28.596  1.00  0.00     0.037 A 
ATOM     53  C   UNL A   1      47.966  27.206  26.484  1.00  0.00     0.037 A 
ATOM     54  C   UNL A   1      42.336  29.697  28.699  1.00  0.00     0.049 A 
ATOM     55  C   UNL A   1      47.555  28.571  26.969  1.00  0.00     0.074 A 
ATOM     56  C   UNL A   1      42.103  30.973  29.179  1.00  0.00     0.029 A 
ATOM     57  N   UNL A   1      43.669  29.646  28.320  1.00  0.00    -0.354 N 
ATOM     58  N   UNL A   1      46.393  28.973  27.424  1.00  0.00    -0.248 NA
ATOM     59  C   UNL A   1      48.583  29.622  26.944  1.00  0.00     0.031 C 
ATOM     60  C   UNL A   1      43.285  31.708  29.051  1.00  0.00     0.029 A 
ATOM     61  C   UNL A   1      44.266  30.876  28.535  1.00  0.00     0.049 A 
ATOM     62  H   UNL A   1      44.123  28.854  27.953  1.00  0.00     0.167 HD
ATOM     63  C   UNL A   1      46.555  30.309  27.762  1.00  0.00     0.074 A 
ATOM     64  C   UNL A   1      47.934  30.646  27.480  1.00  0.00     0.031 C 
ATOM     65  C   UNL A   1      45.645  31.182  28.258  1.00  0.00     0.037 A 
BRANCH  52  66
ATOM     66  C   UNL A   1      39.981  28.838  28.957  1.00  0.00     0.064 A 
ATOM     67  C   UNL A   1      39.037  29.240  28.000  1.00  0.00     0.173 A 
ATOM     68  C   UNL A   1      39.533  28.610  30.266  1.00  0.00     0.173 A 
ATOM     69  F   UNL A   1      39.419  29.486  26.738  1.00  0.00    -0.203 F 
ATOM     70  C   UNL A   1      37.700  29.420  28.345  1.00  0.00     0.198 A 
ATOM     71  C   UNL A   1      38.190  28.763  30.601  1.00  0.00     0.198 A 
ATOM     72  F   UNL A   1      40.395  28.225  31.220  1.00  0.00    -0.203 F 
ATOM     73  F   UNL A   1      36.824  29.842  27.422  1.00  0.00    -0.200 F 
ATOM     74  C   UNL A   1      37.276  29.172  29.641  1.00  0.00     0.200 A 
ATOM     75  F   UNL A   1      37.779  28.513  31.852  1.00  0.00    -0.200 F 
ATOM     76  F   UNL A   1      35.986  29.331  29.968  1.00  0.00    -0.200 F 
ENDBRANCH  52  66
BRANCH  53  77
ATOM     77  C   UNL A   1      49.343  26.961  25.979  1.00  0.00     0.064 A 
ATOM     78  C   UNL A   1      49.658  27.137  24.624  1.00  0.00     0.173 A 
ATOM     79  C   UNL A   1      50.365  26.519  26.832  1.00  0.00     0.173 A 
ATOM     80  F   UNL A   1      48.711  27.539  23.764  1.00  0.00    -0.203 F 
ATOM     81  C   UNL A   1      50.931  26.849  24.136  1.00  0.00     0.198 A 
ATOM     82  C   UNL A   1      51.647  26.261  26.348  1.00  0.00     0.198 A 
ATOM     83  F   UNL A   1      50.120  26.341  28.139  1.00  0.00    -0.203 F 
ATOM     84  F   UNL A   1      51.186  26.970  22.826  1.00  0.00    -0.200 F 
ATOM     85  C   UNL A   1      51.925  26.415  24.998  1.00  0.00     0.200 A 
ATOM     86  F   UNL A   1      52.608  25.854  27.188  1.00  0.00    -0.200 F 
ATOM     87  F   UNL A   1      53.148  26.134  24.528  1.00  0.00    -0.200 F 
ENDBRANCH  53  77
BRANCH  65  88
ATOM     88  C   UNL A   1      46.118  32.574  28.553  1.00  0.00     0.064 A 
ATOM     89  C   UNL A   1      46.746  32.894  29.765  1.00  0.00     0.173 A 
ATOM     90  C   UNL A   1      45.984  33.587  27.591  1.00  0.00     0.173 A 
ATOM     91  F   UNL A   1      46.884  31.962  30.720  1.00  0.00    -0.203 F 
ATOM     92  C   UNL A   1      47.202  34.185  30.013  1.00  0.00     0.198 A 
ATOM     93  C   UNL A   1      46.469  34.869  27.832  1.00  0.00     0.198 A 
ATOM     94  F   UNL A   1      45.398  33.328  26.412  1.00  0.00    -0.203 F 
ATOM     95  F   UNL A   1      47.758  34.480  31.196  1.00  0.00    -0.200 F 
ATOM     96  C   UNL A   1      47.071  35.169  29.044  1.00  0.00     0.200 A 
ATOM     97  F   UNL A   1      46.355  35.814  26.888  1.00  0.00    -0.200 F 
ATOM     98  F   UNL A   1      47.519  36.409  29.282  1.00  0.00    -0.200 F 
ENDBRANCH  65  88
ENDBRANCH  39  40
ENDBRANCH  31  34
ENDBRANCH  29  30
ENDBRANCH  28  29
ENDBRANCH  27  28
ENDBRANCH  26  27
ENDBRANCH   1  26
TORSDOF 19
ENDMDL
