MODEL 1
REMARK VINA RESULT:     -11.7      0.000      0.000
REMARK SMILES Cn1ccnc1SCC[C@@H]1CCC[C@]1([NH3+])C(=O)NCCCCCCNC(=O)c1ccc(-c2c3nc(c(-c4c(F)c(F)c(F)c(F)c4F)c4ccc([nH]4)c(-c4c(F)c(F)c(F)c(F)c4F)c4nc(c(-c5c(F)c(F)c(F)c(F)c5F)c5ccc2[nH]5)C=C4)C=C3)cc1
REMARK SMILES IDX 20 1 19 2 18 3 16 4 17 5 14 7 10 8 11 9 12 10 13 11 9 12
REMARK SMILES IDX 8 13 7 14 6 15 1 16 2 17 3 18 4 19 5 20 15 21 21 25 22 26
REMARK SMILES IDX 23 27 24 28 25 29 26 30 27 32 28 33 29 34 90 35 30 36 89 37
REMARK SMILES IDX 31 38 32 39 33 40 83 41 34 42 88 43 82 44 84 45 35 46 87 47
REMARK SMILES IDX 81 48 80 49 36 51 68 52 48 53 67 54 49 55 52 56 66 57 85 58
REMARK SMILES IDX 50 59 51 60 65 62 86 63 53 64 37 65 38 66 46 67 39 68 40 69
REMARK SMILES IDX 44 70 47 71 41 72 42 73 45 74 43 75 69 76 70 77 78 78 71 79
REMARK SMILES IDX 72 80 76 81 79 82 73 83 74 84 77 85 75 86 54 87 55 88 63 89
REMARK SMILES IDX 56 90 57 91 61 92 64 93 58 94 59 95 62 96 60 97
REMARK H PARENT 18 6 15 22 15 23 15 24 25 31 84 50 52 61
REMARK Flexibility Score: inf
ROOT
ATOM      1  C   UNL A   1      31.616  28.368  27.686  1.00  0.00     0.021 C 
ENDROOT
BRANCH   1   2
ATOM      2  C   UNL A   1      31.072  27.466  26.584  1.00  0.00     0.116 C 
BRANCH   2   3
ATOM      3  N   UNL A   1      31.519  26.106  26.783  1.00  0.00    -0.351 N 
ATOM      4  C   UNL A   1      31.983  25.183  25.895  1.00  0.00     0.281 C 
ATOM      5  O   UNL A   1      32.189  24.053  26.348  1.00  0.00    -0.268 OA
ATOM      6  H   UNL A   1      31.481  25.794  27.716  1.00  0.00     0.163 HD
BRANCH   4   7
ATOM      7  C   UNL A   1      32.304  25.562  24.402  1.00  0.00     0.176 C 
ATOM      8  C   UNL A   1      31.076  25.824  23.482  1.00  0.00     0.061 C 
ATOM      9  C   UNL A   1      30.476  24.417  23.351  1.00  0.00     0.011 C 
ATOM     10  C   UNL A   1      31.677  23.486  23.238  1.00  0.00     0.008 C 
ATOM     11  C   UNL A   1      32.886  24.299  23.707  1.00  0.00     0.079 C 
BRANCH   8  12
ATOM     12  C   UNL A   1      29.961  26.824  23.821  1.00  0.00     0.022 C 
BRANCH  12  13
ATOM     13  C   UNL A   1      29.707  28.000  22.869  1.00  0.00     0.079 C 
BRANCH  13  14
ATOM     14  S   UNL A   1      28.038  28.707  22.763  1.00  0.00    -0.088 SA
BRANCH  14  15
ATOM     15  C   UNL A   1      28.217  30.256  22.025  1.00  0.00     0.167 A 
ATOM     16  C   UNL A   1      29.018  31.615  24.018  1.00  0.00     0.152 C 
ATOM     17  N   UNL A   1      28.645  31.403  22.645  1.00  0.00    -0.329 N 
ATOM     18  C   UNL A   1      28.651  32.398  21.696  1.00  0.00     0.108 A 
ATOM     19  C   UNL A   1      28.131  31.818  20.563  1.00  0.00     0.132 A 
ATOM     20  N   UNL A   1      27.875  30.491  20.777  1.00  0.00    -0.231 NA
ENDBRANCH  14  15
ENDBRANCH  13  14
ENDBRANCH  12  13
ENDBRANCH   8  12
BRANCH   7  21
ATOM     21  N   UNL A   1      33.345  26.618  24.392  1.00  0.00    -0.345 N 
ATOM     22  H   UNL A   1      33.021  27.422  24.930  1.00  0.00     0.345 HD
ATOM     23  H   UNL A   1      33.528  26.906  23.430  1.00  0.00     0.345 HD
ATOM     24  H   UNL A   1      34.203  26.254  24.806  1.00  0.00     0.345 HD
ENDBRANCH   7  21
ENDBRANCH   4   7
ENDBRANCH   2   3
ENDBRANCH   1   2
BRANCH   1  25
ATOM     25  C   UNL A   1      32.638  29.386  27.178  1.00  0.00     0.002 C 
BRANCH  25  26
ATOM     26  C   UNL A   1      32.060  30.429  26.218  1.00  0.00     0.002 C 
BRANCH  26  27
ATOM     27  C   UNL A   1      31.683  31.759  26.875  1.00  0.00     0.021 C 
BRANCH  27  28
ATOM     28  C   UNL A   1      32.870  32.562  27.396  1.00  0.00     0.116 C 
BRANCH  28  29
ATOM     29  N   UNL A   1      32.525  33.958  27.620  1.00  0.00    -0.352 N 
ATOM     30  C   UNL A   1      33.011  34.832  28.560  1.00  0.00     0.251 C 
ATOM     31  H   UNL A   1      31.847  34.328  27.009  1.00  0.00     0.163 HD
ATOM     32  O   UNL A   1      32.467  35.907  28.759  1.00  0.00    -0.269 OA
BRANCH  30  33
ATOM     33  C   UNL A   1      34.193  34.439  29.351  1.00  0.00     0.039 A 
ATOM     34  C   UNL A   1      34.006  33.909  30.629  1.00  0.00     0.014 A 
ATOM     35  C   UNL A   1      35.474  34.554  28.807  1.00  0.00     0.014 A 
ATOM     36  C   UNL A   1      35.103  33.414  31.331  1.00  0.00     0.010 A 
ATOM     37  C   UNL A   1      36.556  33.995  29.477  1.00  0.00     0.010 A 
ATOM     38  C   UNL A   1      36.378  33.408  30.739  1.00  0.00    -0.014 A 
BRANCH  38  39
ATOM     39  C   UNL A   1      37.529  32.745  31.398  1.00  0.00     0.031 A 
ATOM     40  C   UNL A   1      38.197  31.568  30.750  1.00  0.00     0.074 A 
ATOM     41  C   UNL A   1      37.911  33.155  32.622  1.00  0.00     0.049 A 
ATOM     42  N   UNL A   1      39.158  30.807  31.209  1.00  0.00    -0.248 NA
ATOM     43  C   UNL A   1      37.705  31.179  29.420  1.00  0.00     0.031 C 
ATOM     44  C   UNL A   1      37.313  34.265  33.367  1.00  0.00     0.029 A 
ATOM     45  N   UNL A   1      38.883  32.677  33.465  1.00  0.00    -0.354 N 
ATOM     46  C   UNL A   1      39.373  29.842  30.235  1.00  0.00     0.074 A 
ATOM     47  C   UNL A   1      38.414  30.086  29.179  1.00  0.00     0.031 C 
ATOM     48  C   UNL A   1      37.948  34.401  34.540  1.00  0.00     0.029 A 
ATOM     49  C   UNL A   1      38.961  33.357  34.656  1.00  0.00     0.049 A 
ATOM     50  H   UNL A   1      39.470  31.921  33.237  1.00  0.00     0.167 HD
ATOM     51  C   UNL A   1      40.298  28.853  30.220  1.00  0.00     0.037 A 
ATOM     52  C   UNL A   1      39.750  33.151  35.728  1.00  0.00     0.037 A 
ATOM     53  C   UNL A   1      41.258  28.628  31.270  1.00  0.00     0.049 A 
ATOM     54  C   UNL A   1      40.735  32.014  35.703  1.00  0.00     0.074 A 
ATOM     55  C   UNL A   1      42.289  27.706  31.313  1.00  0.00     0.029 A 
ATOM     56  N   UNL A   1      41.293  29.324  32.471  1.00  0.00    -0.354 N 
ATOM     57  N   UNL A   1      40.991  31.162  34.740  1.00  0.00    -0.248 NA
ATOM     58  C   UNL A   1      41.538  31.808  36.916  1.00  0.00     0.031 C 
ATOM     59  C   UNL A   1      42.901  27.795  32.566  1.00  0.00     0.029 A 
ATOM     60  C   UNL A   1      42.297  28.816  33.282  1.00  0.00     0.049 A 
ATOM     61  H   UNL A   1      40.694  30.066  32.712  1.00  0.00     0.167 HD
ATOM     62  C   UNL A   1      42.000  30.337  35.220  1.00  0.00     0.074 A 
ATOM     63  C   UNL A   1      42.320  30.801  36.553  1.00  0.00     0.031 C 
ATOM     64  C   UNL A   1      42.604  29.288  34.609  1.00  0.00     0.037 A 
BRANCH  51  65
ATOM     65  C   UNL A   1      40.306  27.924  29.040  1.00  0.00     0.064 A 
ATOM     66  C   UNL A   1      39.565  26.734  29.028  1.00  0.00     0.173 A 
ATOM     67  C   UNL A   1      41.038  28.250  27.888  1.00  0.00     0.173 A 
ATOM     68  F   UNL A   1      38.852  26.369  30.106  1.00  0.00    -0.203 F 
ATOM     69  C   UNL A   1      39.583  25.887  27.921  1.00  0.00     0.198 A 
ATOM     70  C   UNL A   1      41.027  27.419  26.771  1.00  0.00     0.198 A 
ATOM     71  F   UNL A   1      41.760  29.380  27.841  1.00  0.00    -0.203 F 
ATOM     72  F   UNL A   1      38.909  24.729  27.955  1.00  0.00    -0.200 F 
ATOM     73  C   UNL A   1      40.308  26.234  26.792  1.00  0.00     0.200 A 
ATOM     74  F   UNL A   1      41.716  27.764  25.673  1.00  0.00    -0.200 F 
ATOM     75  F   UNL A   1      40.318  25.424  25.724  1.00  0.00    -0.200 F 
ENDBRANCH  51  65
BRANCH  52  76
ATOM     76  C   UNL A   1      39.651  34.049  36.909  1.00  0.00     0.064 A 
ATOM     77  C   UNL A   1      40.368  35.253  36.953  1.00  0.00     0.173 A 
ATOM     78  C   UNL A   1      38.847  33.728  38.011  1.00  0.00     0.173 A 
ATOM     79  F   UNL A   1      41.168  35.594  35.932  1.00  0.00    -0.203 F 
ATOM     80  C   UNL A   1      40.297  36.093  38.062  1.00  0.00     0.198 A 
ATOM     81  C   UNL A   1      38.752  34.583  39.107  1.00  0.00     0.198 A 
ATOM     82  F   UNL A   1      38.136  32.590  38.018  1.00  0.00    -0.203 F 
ATOM     83  F   UNL A   1      41.027  37.215  38.097  1.00  0.00    -0.200 F 
ATOM     84  C   UNL A   1      39.484  35.761  39.136  1.00  0.00     0.200 A 
ATOM     85  F   UNL A   1      37.951  34.267  40.134  1.00  0.00    -0.200 F 
ATOM     86  F   UNL A   1      39.410  36.572  40.199  1.00  0.00    -0.200 F 
ENDBRANCH  52  76
BRANCH  64  87
ATOM     87  C   UNL A   1      43.692  28.581  35.366  1.00  0.00     0.064 A 
ATOM     88  C   UNL A   1      45.041  28.941  35.225  1.00  0.00     0.173 A 
ATOM     89  C   UNL A   1      43.377  27.567  36.283  1.00  0.00     0.173 A 
ATOM     90  F   UNL A   1      45.398  29.892  34.347  1.00  0.00    -0.203 F 
ATOM     91  C   UNL A   1      46.034  28.298  35.960  1.00  0.00     0.198 A 
ATOM     92  C   UNL A   1      44.368  26.951  37.041  1.00  0.00     0.198 A 
ATOM     93  F   UNL A   1      42.102  27.187  36.460  1.00  0.00    -0.203 F 
ATOM     94  F   UNL A   1      47.320  28.628  35.775  1.00  0.00    -0.200 F 
ATOM     95  C   UNL A   1      45.696  27.313  36.874  1.00  0.00     0.200 A 
ATOM     96  F   UNL A   1      44.038  26.009  37.936  1.00  0.00    -0.200 F 
ATOM     97  F   UNL A   1      46.652  26.706  37.592  1.00  0.00    -0.200 F 
ENDBRANCH  64  87
ENDBRANCH  38  39
ENDBRANCH  30  33
ENDBRANCH  28  29
ENDBRANCH  27  28
ENDBRANCH  26  27
ENDBRANCH  25  26
ENDBRANCH   1  25
TORSDOF 18
ENDMDL
MODEL 2
REMARK VINA RESULT:     -11.6      5.736     10.955
REMARK SMILES Cn1ccnc1SCC[C@@H]1CCC[C@]1([NH3+])C(=O)NCCCCCCNC(=O)c1ccc(-c2c3nc(c(-c4c(F)c(F)c(F)c(F)c4F)c4ccc([nH]4)c(-c4c(F)c(F)c(F)c(F)c4F)c4nc(c(-c5c(F)c(F)c(F)c(F)c5F)c5ccc2[nH]5)C=C4)C=C3)cc1
REMARK SMILES IDX 20 1 19 2 18 3 16 4 17 5 14 7 10 8 11 9 12 10 13 11 9 12
REMARK SMILES IDX 8 13 7 14 6 15 1 16 2 17 3 18 4 19 5 20 15 21 21 25 22 26
REMARK SMILES IDX 23 27 24 28 25 29 26 30 27 32 28 33 29 34 90 35 30 36 89 37
REMARK SMILES IDX 31 38 32 39 33 40 83 41 34 42 88 43 82 44 84 45 35 46 87 47
REMARK SMILES IDX 81 48 80 49 36 51 68 52 48 53 67 54 49 55 52 56 66 57 85 58
REMARK SMILES IDX 50 59 51 60 65 62 86 63 53 64 37 65 38 66 46 67 39 68 40 69
REMARK SMILES IDX 44 70 47 71 41 72 42 73 45 74 43 75 69 76 70 77 78 78 71 79
REMARK SMILES IDX 72 80 76 81 79 82 73 83 74 84 77 85 75 86 54 87 55 88 63 89
REMARK SMILES IDX 56 90 57 91 61 92 64 93 58 94 59 95 62 96 60 97
REMARK H PARENT 18 6 15 22 15 23 15 24 25 31 84 50 52 61
REMARK Flexibility Score: inf
ROOT
ATOM      1  C   UNL A   1      36.375  23.696  25.444  1.00  0.00     0.021 C 
ENDROOT
BRANCH   1   2
ATOM      2  C   UNL A   1      35.084  23.236  24.775  1.00  0.00     0.116 C 
BRANCH   2   3
ATOM      3  N   UNL A   1      34.851  23.990  23.564  1.00  0.00    -0.351 N 
ATOM      4  C   UNL A   1      33.788  24.750  23.180  1.00  0.00     0.281 C 
ATOM      5  O   UNL A   1      33.827  25.191  22.028  1.00  0.00    -0.268 OA
ATOM      6  H   UNL A   1      35.583  23.947  22.907  1.00  0.00     0.163 HD
BRANCH   4   7
ATOM      7  C   UNL A   1      32.621  25.100  24.175  1.00  0.00     0.176 C 
ATOM      8  C   UNL A   1      31.884  26.447  23.921  1.00  0.00     0.061 C 
ATOM      9  C   UNL A   1      32.965  27.472  24.297  1.00  0.00     0.011 C 
ATOM     10  C   UNL A   1      33.658  26.882  25.520  1.00  0.00     0.008 C 
ATOM     11  C   UNL A   1      33.255  25.406  25.562  1.00  0.00     0.079 C 
BRANCH   8  12
ATOM     12  C   UNL A   1      31.263  26.833  22.570  1.00  0.00     0.022 C 
BRANCH  12  13
ATOM     13  C   UNL A   1      30.744  28.263  22.377  1.00  0.00     0.079 C 
BRANCH  13  14
ATOM     14  S   UNL A   1      29.021  28.644  22.807  1.00  0.00    -0.088 SA
BRANCH  14  15
ATOM     15  C   UNL A   1      28.673  30.174  22.091  1.00  0.00     0.167 A 
ATOM     16  C   UNL A   1      29.151  31.712  24.058  1.00  0.00     0.152 C 
ATOM     17  N   UNL A   1      28.772  31.396  22.706  1.00  0.00    -0.329 N 
ATOM     18  C   UNL A   1      28.413  32.346  21.779  1.00  0.00     0.108 A 
ATOM     19  C   UNL A   1      28.021  31.636  20.669  1.00  0.00     0.132 A 
ATOM     20  N   UNL A   1      28.195  30.294  20.872  1.00  0.00    -0.231 NA
ENDBRANCH  14  15
ENDBRANCH  13  14
ENDBRANCH  12  13
ENDBRANCH   8  12
BRANCH   7  21
ATOM     21  N   UNL A   1      31.745  23.911  24.318  1.00  0.00    -0.345 N 
ATOM     22  H   UNL A   1      31.999  23.214  23.619  1.00  0.00     0.345 HD
ATOM     23  H   UNL A   1      30.772  24.187  24.183  1.00  0.00     0.345 HD
ATOM     24  H   UNL A   1      31.860  23.515  25.251  1.00  0.00     0.345 HD
ENDBRANCH   7  21
ENDBRANCH   4   7
ENDBRANCH   2   3
ENDBRANCH   1   2
BRANCH   1  25
ATOM     25  C   UNL A   1      37.451  22.611  25.479  1.00  0.00     0.002 C 
BRANCH  25  26
ATOM     26  C   UNL A   1      37.084  21.340  24.709  1.00  0.00     0.002 C 
BRANCH  26  27
ATOM     27  C   UNL A   1      37.983  20.136  25.000  1.00  0.00     0.021 C 
BRANCH  27  28
ATOM     28  C   UNL A   1      39.228  20.464  25.818  1.00  0.00     0.116 C 
BRANCH  28  29
ATOM     29  N   UNL A   1      40.113  19.316  25.944  1.00  0.00    -0.352 N 
ATOM     30  C   UNL A   1      41.475  19.284  26.110  1.00  0.00     0.251 C 
ATOM     31  H   UNL A   1      39.672  18.437  25.905  1.00  0.00     0.163 HD
ATOM     32  O   UNL A   1      42.099  18.242  25.984  1.00  0.00    -0.269 OA
BRANCH  30  33
ATOM     33  C   UNL A   1      42.182  20.541  26.422  1.00  0.00     0.039 A 
ATOM     34  C   UNL A   1      42.708  21.298  25.374  1.00  0.00     0.014 A 
ATOM     35  C   UNL A   1      42.279  20.987  27.742  1.00  0.00     0.014 A 
ATOM     36  C   UNL A   1      43.260  22.549  25.644  1.00  0.00     0.010 A 
ATOM     37  C   UNL A   1      42.764  22.263  28.001  1.00  0.00     0.010 A 
ATOM     38  C   UNL A   1      43.247  23.061  26.953  1.00  0.00    -0.014 A 
BRANCH  38  39
ATOM     39  C   UNL A   1      43.681  24.449  27.241  1.00  0.00     0.031 A 
ATOM     40  C   UNL A   1      42.693  25.467  27.730  1.00  0.00     0.074 A 
ATOM     41  C   UNL A   1      44.952  24.809  26.975  1.00  0.00     0.049 A 
ATOM     42  N   UNL A   1      42.864  26.745  27.954  1.00  0.00    -0.248 NA
ATOM     43  C   UNL A   1      41.323  24.990  27.978  1.00  0.00     0.031 C 
ATOM     44  C   UNL A   1      45.993  23.916  26.462  1.00  0.00     0.029 A 
ATOM     45  N   UNL A   1      45.581  26.023  27.083  1.00  0.00    -0.354 N 
ATOM     46  C   UNL A   1      41.625  27.227  28.351  1.00  0.00     0.074 A 
ATOM     47  C   UNL A   1      40.701  26.115  28.297  1.00  0.00     0.031 C 
ATOM     48  C   UNL A   1      47.136  24.604  26.328  1.00  0.00     0.029 A 
ATOM     49  C   UNL A   1      46.898  25.996  26.693  1.00  0.00     0.049 A 
ATOM     50  H   UNL A   1      45.133  26.836  27.411  1.00  0.00     0.167 HD
ATOM     51  C   UNL A   1      41.297  28.482  28.741  1.00  0.00     0.037 A 
ATOM     52  C   UNL A   1      47.807  26.988  26.622  1.00  0.00     0.037 A 
ATOM     53  C   UNL A   1      42.228  29.578  28.806  1.00  0.00     0.049 A 
ATOM     54  C   UNL A   1      47.400  28.383  27.014  1.00  0.00     0.074 A 
ATOM     55  C   UNL A   1      42.014  30.866  29.265  1.00  0.00     0.029 A 
ATOM     56  N   UNL A   1      43.549  29.519  28.382  1.00  0.00    -0.354 N 
ATOM     57  N   UNL A   1      46.249  28.811  27.474  1.00  0.00    -0.248 NA
ATOM     58  C   UNL A   1      48.418  29.433  26.874  1.00  0.00     0.031 C 
ATOM     59  C   UNL A   1      43.181  31.604  29.053  1.00  0.00     0.029 A 
ATOM     60  C   UNL A   1      44.147  30.762  28.524  1.00  0.00     0.049 A 
ATOM     61  H   UNL A   1      43.995  28.715  28.033  1.00  0.00     0.167 HD
ATOM     62  C   UNL A   1      46.411  30.171  27.702  1.00  0.00     0.074 A 
ATOM     63  C   UNL A   1      47.777  30.493  27.345  1.00  0.00     0.031 C 
ATOM     64  C   UNL A   1      45.507  31.070  28.164  1.00  0.00     0.037 A 
BRANCH  51  65
ATOM     65  C   UNL A   1      39.864  28.745  29.109  1.00  0.00     0.064 A 
ATOM     66  C   UNL A   1      38.915  29.147  28.158  1.00  0.00     0.173 A 
ATOM     67  C   UNL A   1      39.426  28.553  30.429  1.00  0.00     0.173 A 
ATOM     68  F   UNL A   1      39.281  29.352  26.883  1.00  0.00    -0.203 F 
ATOM     69  C   UNL A   1      37.590  29.383  28.520  1.00  0.00     0.198 A 
ATOM     70  C   UNL A   1      38.094  28.755  30.781  1.00  0.00     0.198 A 
ATOM     71  F   UNL A   1      40.289  28.161  31.378  1.00  0.00    -0.203 F 
ATOM     72  F   UNL A   1      36.715  29.819  27.604  1.00  0.00    -0.200 F 
ATOM     73  C   UNL A   1      37.180  29.179  29.829  1.00  0.00     0.200 A 
ATOM     74  F   UNL A   1      37.696  28.543  32.043  1.00  0.00    -0.200 F 
ATOM     75  F   UNL A   1      35.903  29.397  30.174  1.00  0.00    -0.200 F 
ENDBRANCH  51  65
BRANCH  52  76
ATOM     76  C   UNL A   1      49.194  26.696  26.174  1.00  0.00     0.064 A 
ATOM     77  C   UNL A   1      49.563  26.869  24.833  1.00  0.00     0.173 A 
ATOM     78  C   UNL A   1      50.174  26.240  27.067  1.00  0.00     0.173 A 
ATOM     79  F   UNL A   1      48.656  27.282  23.937  1.00  0.00    -0.203 F 
ATOM     80  C   UNL A   1      50.855  26.580  24.399  1.00  0.00     0.198 A 
ATOM     81  C   UNL A   1      51.475  25.982  26.639  1.00  0.00     0.198 A 
ATOM     82  F   UNL A   1      49.875  26.063  28.363  1.00  0.00    -0.203 F 
ATOM     83  F   UNL A   1      51.169  26.711  23.103  1.00  0.00    -0.200 F 
ATOM     84  C   UNL A   1      51.812  26.144  25.303  1.00  0.00     0.200 A 
ATOM     85  F   UNL A   1      52.401  25.577  27.519  1.00  0.00    -0.200 F 
ATOM     86  F   UNL A   1      53.057  25.874  24.887  1.00  0.00    -0.200 F 
ENDBRANCH  52  76
BRANCH  64  87
ATOM     87  C   UNL A   1      45.971  32.489  28.334  1.00  0.00     0.064 A 
ATOM     88  C   UNL A   1      46.680  32.900  29.472  1.00  0.00     0.173 A 
ATOM     89  C   UNL A   1      45.749  33.436  27.322  1.00  0.00     0.173 A 
ATOM     90  F   UNL A   1      46.903  32.038  30.477  1.00  0.00    -0.203 F 
ATOM     91  C   UNL A   1      47.132  34.211  29.599  1.00  0.00     0.198 A 
ATOM     92  C   UNL A   1      46.232  34.735  27.437  1.00  0.00     0.198 A 
ATOM     93  F   UNL A   1      45.080  33.093  26.210  1.00  0.00    -0.203 F 
ATOM     94  F   UNL A   1      47.768  34.593  30.715  1.00  0.00    -0.200 F 
ATOM     95  C   UNL A   1      46.918  35.124  28.578  1.00  0.00     0.200 A 
ATOM     96  F   UNL A   1      46.037  35.612  26.442  1.00  0.00    -0.200 F 
ATOM     97  F   UNL A   1      47.367  36.381  28.695  1.00  0.00    -0.200 F 
ENDBRANCH  64  87
ENDBRANCH  38  39
ENDBRANCH  30  33
ENDBRANCH  28  29
ENDBRANCH  27  28
ENDBRANCH  26  27
ENDBRANCH  25  26
ENDBRANCH   1  25
TORSDOF 18
ENDMDL
MODEL 3
REMARK VINA RESULT:     -11.5      2.156      4.523
REMARK SMILES Cn1ccnc1SCC[C@@H]1CCC[C@]1([NH3+])C(=O)NCCCCCCNC(=O)c1ccc(-c2c3nc(c(-c4c(F)c(F)c(F)c(F)c4F)c4ccc([nH]4)c(-c4c(F)c(F)c(F)c(F)c4F)c4nc(c(-c5c(F)c(F)c(F)c(F)c5F)c5ccc2[nH]5)C=C4)C=C3)cc1
REMARK SMILES IDX 20 1 19 2 18 3 16 4 17 5 14 7 10 8 11 9 12 10 13 11 9 12
REMARK SMILES IDX 8 13 7 14 6 15 1 16 2 17 3 18 4 19 5 20 15 21 21 25 22 26
REMARK SMILES IDX 23 27 24 28 25 29 26 30 27 32 28 33 29 34 90 35 30 36 89 37
REMARK SMILES IDX 31 38 32 39 33 40 83 41 34 42 88 43 82 44 84 45 35 46 87 47
REMARK SMILES IDX 81 48 80 49 36 51 68 52 48 53 67 54 49 55 52 56 66 57 85 58
REMARK SMILES IDX 50 59 51 60 65 62 86 63 53 64 37 65 38 66 46 67 39 68 40 69
REMARK SMILES IDX 44 70 47 71 41 72 42 73 45 74 43 75 69 76 70 77 78 78 71 79
REMARK SMILES IDX 72 80 76 81 79 82 73 83 74 84 77 85 75 86 54 87 55 88 63 89
REMARK SMILES IDX 56 90 57 91 61 92 64 93 58 94 59 95 62 96 60 97
REMARK H PARENT 18 6 15 22 15 23 15 24 25 31 84 50 52 61
REMARK Flexibility Score: inf
ROOT
ATOM      1  C   UNL A   1      31.075  29.377  24.562  1.00  0.00     0.021 C 
ENDROOT
BRANCH   1   2
ATOM      2  C   UNL A   1      30.788  27.948  24.111  1.00  0.00     0.116 C 
BRANCH   2   3
ATOM      3  N   UNL A   1      30.582  27.092  25.257  1.00  0.00    -0.351 N 
ATOM      4  C   UNL A   1      30.933  25.794  25.472  1.00  0.00     0.281 C 
ATOM      5  O   UNL A   1      30.521  25.289  26.521  1.00  0.00    -0.268 OA
ATOM      6  H   UNL A   1      30.108  27.519  26.008  1.00  0.00     0.163 HD
BRANCH   4   7
ATOM      7  C   UNL A   1      31.868  25.016  24.475  1.00  0.00     0.176 C 
ATOM      8  C   UNL A   1      32.882  24.024  25.117  1.00  0.00     0.061 C 
ATOM      9  C   UNL A   1      33.858  24.982  25.816  1.00  0.00     0.011 C 
ATOM     10  C   UNL A   1      34.019  26.151  24.853  1.00  0.00     0.008 C 
ATOM     11  C   UNL A   1      32.862  26.040  23.857  1.00  0.00     0.079 C 
BRANCH   8  12
ATOM     12  C   UNL A   1      32.475  22.909  26.093  1.00  0.00     0.022 C 
BRANCH  12  13
ATOM     13  C   UNL A   1      31.781  21.659  25.538  1.00  0.00     0.079 C 
BRANCH  13  14
ATOM     14  S   UNL A   1      32.501  20.812  24.102  1.00  0.00    -0.088 SA
BRANCH  14  15
ATOM     15  C   UNL A   1      32.603  19.143  24.529  1.00  0.00     0.167 A 
ATOM     16  C   UNL A   1      32.401  18.077  22.231  1.00  0.00     0.152 C 
ATOM     17  N   UNL A   1      32.559  18.082  23.661  1.00  0.00    -0.329 N 
ATOM     18  C   UNL A   1      32.683  16.938  24.413  1.00  0.00     0.108 A 
ATOM     19  C   UNL A   1      32.699  17.366  25.719  1.00  0.00     0.132 A 
ATOM     20  N   UNL A   1      32.657  18.733  25.777  1.00  0.00    -0.231 NA
ENDBRANCH  14  15
ENDBRANCH  13  14
ENDBRANCH  12  13
ENDBRANCH   8  12
BRANCH   7  21
ATOM     21  N   UNL A   1      31.038  24.458  23.380  1.00  0.00    -0.345 N 
ATOM     22  H   UNL A   1      30.276  25.102  23.168  1.00  0.00     0.345 HD
ATOM     23  H   UNL A   1      30.651  23.559  23.670  1.00  0.00     0.345 HD
ATOM     24  H   UNL A   1      31.614  24.327  22.549  1.00  0.00     0.345 HD
ENDBRANCH   7  21
ENDBRANCH   4   7
ENDBRANCH   2   3
ENDBRANCH   1   2
BRANCH   1  25
ATOM     25  C   UNL A   1      32.260  29.474  25.524  1.00  0.00     0.002 C 
BRANCH  25  26
ATOM     26  C   UNL A   1      31.927  30.131  26.865  1.00  0.00     0.002 C 
BRANCH  26  27
ATOM     27  C   UNL A   1      31.736  31.648  26.801  1.00  0.00     0.021 C 
BRANCH  27  28
ATOM     28  C   UNL A   1      32.922  32.454  27.322  1.00  0.00     0.116 C 
BRANCH  28  29
ATOM     29  N   UNL A   1      32.574  33.847  27.553  1.00  0.00    -0.352 N 
ATOM     30  C   UNL A   1      33.052  34.716  28.502  1.00  0.00     0.251 C 
ATOM     31  H   UNL A   1      31.899  34.220  26.941  1.00  0.00     0.163 HD
ATOM     32  O   UNL A   1      32.505  35.788  28.705  1.00  0.00    -0.269 OA
BRANCH  30  33
ATOM     33  C   UNL A   1      34.230  34.320  29.297  1.00  0.00     0.039 A 
ATOM     34  C   UNL A   1      34.037  33.614  30.486  1.00  0.00     0.014 A 
ATOM     35  C   UNL A   1      35.518  34.607  28.839  1.00  0.00     0.014 A 
ATOM     36  C   UNL A   1      35.144  33.122  31.176  1.00  0.00     0.010 A 
ATOM     37  C   UNL A   1      36.616  34.056  29.489  1.00  0.00     0.010 A 
ATOM     38  C   UNL A   1      36.438  33.296  30.655  1.00  0.00    -0.014 A 
BRANCH  38  39
ATOM     39  C   UNL A   1      37.614  32.648  31.284  1.00  0.00     0.031 A 
ATOM     40  C   UNL A   1      38.278  31.477  30.620  1.00  0.00     0.074 A 
ATOM     41  C   UNL A   1      38.024  33.065  32.497  1.00  0.00     0.049 A 
ATOM     42  N   UNL A   1      39.260  30.728  31.055  1.00  0.00    -0.248 NA
ATOM     43  C   UNL A   1      37.754  31.079  29.305  1.00  0.00     0.031 C 
ATOM     44  C   UNL A   1      37.433  34.169  33.255  1.00  0.00     0.029 A 
ATOM     45  N   UNL A   1      39.024  32.600  33.313  1.00  0.00    -0.354 N 
ATOM     46  C   UNL A   1      39.459  29.764  30.076  1.00  0.00     0.074 A 
ATOM     47  C   UNL A   1      38.469  29.995  29.047  1.00  0.00     0.031 C 
ATOM     48  C   UNL A   1      38.099  34.315  34.411  1.00  0.00     0.029 A 
ATOM     49  C   UNL A   1      39.126  33.284  34.501  1.00  0.00     0.049 A 
ATOM     50  H   UNL A   1      39.614  31.850  33.071  1.00  0.00     0.167 HD
ATOM     51  C   UNL A   1      40.395  28.786  30.038  1.00  0.00     0.037 A 
ATOM     52  C   UNL A   1      39.947  33.088  35.551  1.00  0.00     0.037 A 
ATOM     53  C   UNL A   1      41.386  28.574  31.062  1.00  0.00     0.049 A 
ATOM     54  C   UNL A   1      40.944  31.963  35.501  1.00  0.00     0.074 A 
ATOM     55  C   UNL A   1      42.428  27.665  31.078  1.00  0.00     0.029 A 
ATOM     56  N   UNL A   1      41.445  29.273  32.261  1.00  0.00    -0.354 N 
ATOM     57  N   UNL A   1      41.184  31.112  34.534  1.00  0.00    -0.248 NA
ATOM     58  C   UNL A   1      41.782  31.769  36.693  1.00  0.00     0.031 C 
ATOM     59  C   UNL A   1      43.073  27.763  32.315  1.00  0.00     0.029 A 
ATOM     60  C   UNL A   1      42.477  28.779  33.045  1.00  0.00     0.049 A 
ATOM     61  H   UNL A   1      40.844  30.009  32.516  1.00  0.00     0.167 HD
ATOM     62  C   UNL A   1      42.215  30.300  34.987  1.00  0.00     0.074 A 
ATOM     63  C   UNL A   1      42.565  30.770  36.310  1.00  0.00     0.031 C 
ATOM     64  C   UNL A   1      42.814  29.256  34.361  1.00  0.00     0.037 A 
BRANCH  51  65
ATOM     65  C   UNL A   1      40.382  27.854  28.860  1.00  0.00     0.064 A 
ATOM     66  C   UNL A   1      41.116  28.122  27.695  1.00  0.00     0.173 A 
ATOM     67  C   UNL A   1      39.655  26.655  28.914  1.00  0.00     0.173 A 
ATOM     68  F   UNL A   1      41.824  29.257  27.586  1.00  0.00    -0.203 F 
ATOM     69  C   UNL A   1      41.094  27.242  26.614  1.00  0.00     0.198 A 
ATOM     70  C   UNL A   1      39.662  25.762  27.846  1.00  0.00     0.198 A 
ATOM     71  F   UNL A   1      38.941  26.345  30.006  1.00  0.00    -0.203 F 
ATOM     72  F   UNL A   1      41.760  27.546  25.492  1.00  0.00    -0.200 F 
ATOM     73  C   UNL A   1      40.373  26.060  26.694  1.00  0.00     0.200 A 
ATOM     74  F   UNL A   1      38.978  24.612  27.931  1.00  0.00    -0.200 F 
ATOM     75  F   UNL A   1      40.360  25.210  25.658  1.00  0.00    -0.200 F 
ENDBRANCH  51  65
BRANCH  52  76
ATOM     76  C   UNL A   1      39.869  33.988  36.733  1.00  0.00     0.064 A 
ATOM     77  C   UNL A   1      39.029  33.680  37.811  1.00  0.00     0.173 A 
ATOM     78  C   UNL A   1      40.626  35.166  36.811  1.00  0.00     0.173 A 
ATOM     79  F   UNL A   1      38.269  32.576  37.774  1.00  0.00    -0.203 F 
ATOM     80  C   UNL A   1      38.935  34.525  38.915  1.00  0.00     0.198 A 
ATOM     81  C   UNL A   1      40.555  35.994  37.928  1.00  0.00     0.198 A 
ATOM     82  F   UNL A   1      41.450  35.505  35.808  1.00  0.00    -0.203 F 
ATOM     83  F   UNL A   1      38.090  34.229  39.912  1.00  0.00    -0.200 F 
ATOM     84  C   UNL A   1      39.703  35.678  38.976  1.00  0.00     0.200 A 
ATOM     85  F   UNL A   1      41.313  37.098  37.992  1.00  0.00    -0.200 F 
ATOM     86  F   UNL A   1      39.619  36.486  40.041  1.00  0.00    -0.200 F 
ENDBRANCH  52  76
BRANCH  64  87
ATOM     87  C   UNL A   1      43.931  28.564  35.090  1.00  0.00     0.064 A 
ATOM     88  C   UNL A   1      43.698  27.435  35.891  1.00  0.00     0.173 A 
ATOM     89  C   UNL A   1      45.255  29.002  34.943  1.00  0.00     0.173 A 
ATOM     90  F   UNL A   1      42.447  26.987  36.079  1.00  0.00    -0.203 F 
ATOM     91  C   UNL A   1      44.749  26.784  36.533  1.00  0.00     0.198 A 
ATOM     92  C   UNL A   1      46.307  28.328  35.558  1.00  0.00     0.198 A 
ATOM     93  F   UNL A   1      45.533  30.074  34.185  1.00  0.00    -0.203 F 
ATOM     94  F   UNL A   1      44.498  25.736  37.329  1.00  0.00    -0.200 F 
ATOM     95  C   UNL A   1      46.051  27.224  36.357  1.00  0.00     0.200 A 
ATOM     96  F   UNL A   1      47.567  28.746  35.375  1.00  0.00    -0.200 F 
ATOM     97  F   UNL A   1      47.063  26.587  36.964  1.00  0.00    -0.200 F 
ENDBRANCH  64  87
ENDBRANCH  38  39
ENDBRANCH  30  33
ENDBRANCH  28  29
ENDBRANCH  27  28
ENDBRANCH  26  27
ENDBRANCH  25  26
ENDBRANCH   1  25
TORSDOF 18
ENDMDL
