MODEL 1
REMARK VINA RESULT:     -14.6      0.000      0.000
REMARK SMILES CC[C@@H](C)[C@@H](NC(=O)CCn1ccc2ccc(Br)cc21)C(=O)NCCCCCCNC(=O)c1ccc(-c2c3nc(c(-c4c(F)c(F)c(F)c(F)c4F)c4ccc([nH]4)c(-c4c(F)c(F)c(F)c(F)c4F)c4nc(c(-c5c(F)c(F)c(F)c(F)c5F)c5ccc2[nH]5)C=C4)C=C3)cc1
REMARK SMILES IDX 25 1 24 2 23 3 21 4 22 5 5 7 3 8 4 9 2 10 1 11 6 12 7 13
REMARK SMILES IDX 8 15 9 16 10 17 11 18 12 19 20 20 13 21 14 22 19 23 15 24
REMARK SMILES IDX 17 25 16 26 18 27 26 28 27 29 28 30 29 31 30 32 31 33 32 35
REMARK SMILES IDX 33 36 34 37 95 38 35 39 94 40 36 41 37 42 38 43 88 44 39 45
REMARK SMILES IDX 93 46 87 47 89 48 40 49 92 50 86 51 85 52 41 54 73 55 53 56
REMARK SMILES IDX 72 57 54 58 57 59 71 60 90 61 55 62 56 63 70 65 91 66 58 67
REMARK SMILES IDX 42 68 43 69 51 70 44 71 45 72 49 73 52 74 46 75 47 76 50 77
REMARK SMILES IDX 48 78 74 79 75 80 83 81 76 82 77 83 81 84 84 85 78 86 79 87
REMARK SMILES IDX 82 88 80 89 59 90 60 91 68 92 61 93 62 94 66 95 69 96 63 97
REMARK SMILES IDX 64 98 67 99 65 100
REMARK H PARENT 23 6 6 14 30 34 89 53 57 64
REMARK Flexibility Score: inf
ROOT
ATOM      1  C   UNL A   1      36.397  23.606  24.282  1.00  0.00     0.021 C 
ENDROOT
BRANCH   1   2
ATOM      2  C   UNL A   1      35.028  23.804  23.523  1.00  0.00     0.116 C 
BRANCH   2   3
ATOM      3  N   UNL A   1      33.662  22.972  22.921  1.00  0.00    -0.354 N 
ATOM      4  C   UNL A   1      32.568  21.806  23.316  1.00  0.00     0.242 C 
ATOM      5  O   UNL A   1      31.482  22.038  22.736  1.00  0.00    -0.273 OA
ATOM      6  H   UNL A   1      33.457  23.307  22.018  1.00  0.00     0.163 HD
BRANCH   4   7
ATOM      7  C   UNL A   1      32.622  20.258  24.583  1.00  0.00     0.174 C 
BRANCH   7   8
ATOM      8  C   UNL A   1      32.435  18.400  24.396  1.00  0.00     0.018 C 
ATOM      9  C   UNL A   1      32.596  17.268  25.499  1.00  0.00     0.010 C 
BRANCH   8  10
ATOM     10  C   UNL A   1      33.023  17.717  23.127  1.00  0.00     0.002 C 
ATOM     11  C   UNL A   1      34.028  16.576  23.501  1.00  0.00     0.004 C 
ENDBRANCH   8  10
ENDBRANCH   7   8
BRANCH   7  12
ATOM     12  N   UNL A   1      33.804  20.360  25.411  1.00  0.00    -0.344 N 
ATOM     13  C   UNL A   1      33.765  21.290  26.360  1.00  0.00     0.222 C 
ATOM     14  H   UNL A   1      34.587  19.777  25.281  1.00  0.00     0.164 HD
ATOM     15  O   UNL A   1      34.748  21.584  27.079  1.00  0.00    -0.275 OA
BRANCH  13  16
ATOM     16  C   UNL A   1      32.385  21.795  26.532  1.00  0.00     0.122 C 
BRANCH  16  17
ATOM     17  C   UNL A   1      32.233  23.574  26.681  1.00  0.00     0.132 C 
BRANCH  17  18
ATOM     18  N   UNL A   1      31.998  24.921  25.493  1.00  0.00    -0.347 N 
ATOM     19  C   UNL A   1      31.045  24.978  24.453  1.00  0.00     0.087 A 
ATOM     20  C   UNL A   1      32.557  26.392  25.353  1.00  0.00     0.049 A 
ATOM     21  C   UNL A   1      30.785  26.279  24.045  1.00  0.00     0.028 A 
ATOM     22  C   UNL A   1      31.502  27.165  24.861  1.00  0.00    -0.000 A 
ATOM     23  C   UNL A   1      33.745  27.174  25.641  1.00  0.00     0.042 A 
ATOM     24  C   UNL A   1      31.404  28.531  25.244  1.00  0.00     0.011 A 
ATOM     25  C   UNL A   1      33.581  28.459  26.182  1.00  0.00     0.020 A 
ATOM     26  C   UNL A   1      32.379  29.108  26.065  1.00  0.00     0.016 A 
ATOM     27  Br  UNL A   1      34.964  29.206  27.255  1.00  0.00    -0.051 Br
ENDBRANCH  17  18
ENDBRANCH  16  17
ENDBRANCH  13  16
ENDBRANCH   7  12
ENDBRANCH   4   7
ENDBRANCH   2   3
ENDBRANCH   1   2
BRANCH   1  28
ATOM     28  C   UNL A   1      37.023  22.230  24.220  1.00  0.00     0.002 C 
BRANCH  28  29
ATOM     29  C   UNL A   1      37.894  21.825  25.417  1.00  0.00     0.002 C 
BRANCH  29  30
ATOM     30  C   UNL A   1      38.755  22.888  26.134  1.00  0.00     0.021 C 
BRANCH  30  31
ATOM     31  C   UNL A   1      39.988  22.386  26.885  1.00  0.00     0.116 C 
BRANCH  31  32
ATOM     32  N   UNL A   1      41.209  22.494  26.122  1.00  0.00    -0.352 N 
ATOM     33  C   UNL A   1      42.140  23.458  25.895  1.00  0.00     0.251 C 
ATOM     34  H   UNL A   1      41.420  21.659  25.644  1.00  0.00     0.163 HD
ATOM     35  O   UNL A   1      42.982  23.198  25.032  1.00  0.00    -0.269 OA
BRANCH  33  36
ATOM     36  C   UNL A   1      42.174  24.790  26.542  1.00  0.00     0.039 A 
ATOM     37  C   UNL A   1      42.943  25.147  27.649  1.00  0.00     0.014 A 
ATOM     38  C   UNL A   1      41.316  25.750  25.971  1.00  0.00     0.014 A 
ATOM     39  C   UNL A   1      42.712  26.359  28.285  1.00  0.00     0.010 A 
ATOM     40  C   UNL A   1      41.137  26.986  26.559  1.00  0.00     0.010 A 
ATOM     41  C   UNL A   1      41.760  27.245  27.769  1.00  0.00    -0.014 A 
BRANCH  41  42
ATOM     42  C   UNL A   1      41.524  28.506  28.454  1.00  0.00     0.031 A 
ATOM     43  C   UNL A   1      42.576  29.521  28.173  1.00  0.00     0.074 A 
ATOM     44  C   UNL A   1      40.418  28.740  29.192  1.00  0.00     0.049 A 
ATOM     45  N   UNL A   1      43.421  30.022  29.011  1.00  0.00    -0.248 NA
ATOM     46  C   UNL A   1      42.848  29.874  26.768  1.00  0.00     0.031 C 
ATOM     47  C   UNL A   1      39.237  27.891  29.376  1.00  0.00     0.029 A 
ATOM     48  N   UNL A   1      40.090  29.856  29.903  1.00  0.00    -0.354 N 
ATOM     49  C   UNL A   1      44.207  30.906  28.278  1.00  0.00     0.074 A 
ATOM     50  C   UNL A   1      43.923  30.655  26.890  1.00  0.00     0.031 C 
ATOM     51  C   UNL A   1      38.238  28.612  29.939  1.00  0.00     0.029 A 
ATOM     52  C   UNL A   1      38.752  29.918  30.298  1.00  0.00     0.049 A 
ATOM     53  H   UNL A   1      40.743  30.560  30.121  1.00  0.00     0.167 HD
ATOM     54  C   UNL A   1      44.845  31.939  28.892  1.00  0.00     0.037 A 
ATOM     55  C   UNL A   1      38.130  31.001  30.838  1.00  0.00     0.037 A 
ATOM     56  C   UNL A   1      44.975  31.702  30.305  1.00  0.00     0.049 A 
ATOM     57  C   UNL A   1      39.200  31.861  31.412  1.00  0.00     0.074 A 
ATOM     58  C   UNL A   1      45.644  30.771  31.075  1.00  0.00     0.029 A 
ATOM     59  N   UNL A   1      44.028  32.257  31.129  1.00  0.00    -0.354 N 
ATOM     60  N   UNL A   1      39.932  31.500  32.430  1.00  0.00    -0.248 NA
ATOM     61  C   UNL A   1      39.786  32.861  30.532  1.00  0.00     0.031 C 
ATOM     62  C   UNL A   1      44.754  30.472  32.148  1.00  0.00     0.029 A 
ATOM     63  C   UNL A   1      43.635  31.294  32.024  1.00  0.00     0.049 A 
ATOM     64  H   UNL A   1      43.690  33.182  31.087  1.00  0.00     0.167 HD
ATOM     65  C   UNL A   1      41.219  31.884  32.086  1.00  0.00     0.074 A 
ATOM     66  C   UNL A   1      41.060  32.748  30.915  1.00  0.00     0.031 C 
ATOM     67  C   UNL A   1      42.308  31.232  32.586  1.00  0.00     0.037 A 
BRANCH  54  68
ATOM     68  C   UNL A   1      44.972  33.314  28.291  1.00  0.00     0.064 A 
ATOM     69  C   UNL A   1      46.252  33.870  28.105  1.00  0.00     0.173 A 
ATOM     70  C   UNL A   1      43.892  34.220  28.194  1.00  0.00     0.173 A 
ATOM     71  F   UNL A   1      47.350  33.104  28.204  1.00  0.00    -0.203 F 
ATOM     72  C   UNL A   1      46.438  35.241  27.905  1.00  0.00     0.198 A 
ATOM     73  C   UNL A   1      44.078  35.577  27.947  1.00  0.00     0.198 A 
ATOM     74  F   UNL A   1      42.631  33.855  28.450  1.00  0.00    -0.203 F 
ATOM     75  F   UNL A   1      47.678  35.744  27.856  1.00  0.00    -0.200 F 
ATOM     76  C   UNL A   1      45.350  36.094  27.833  1.00  0.00     0.200 A 
ATOM     77  F   UNL A   1      43.013  36.390  27.907  1.00  0.00    -0.200 F 
ATOM     78  F   UNL A   1      45.528  37.414  27.704  1.00  0.00    -0.200 F 
ENDBRANCH  54  68
BRANCH  55  79
ATOM     79  C   UNL A   1      36.793  31.552  30.485  1.00  0.00     0.064 A 
ATOM     80  C   UNL A   1      35.887  31.955  31.482  1.00  0.00     0.173 A 
ATOM     81  C   UNL A   1      36.504  31.982  29.175  1.00  0.00     0.173 A 
ATOM     82  F   UNL A   1      36.111  31.633  32.765  1.00  0.00    -0.203 F 
ATOM     83  C   UNL A   1      34.780  32.764  31.192  1.00  0.00     0.198 A 
ATOM     84  C   UNL A   1      35.399  32.789  28.886  1.00  0.00     0.198 A 
ATOM     85  F   UNL A   1      37.341  31.713  28.164  1.00  0.00    -0.203 F 
ATOM     86  F   UNL A   1      33.975  33.181  32.181  1.00  0.00    -0.200 F 
ATOM     87  C   UNL A   1      34.545  33.192  29.895  1.00  0.00     0.200 A 
ATOM     88  F   UNL A   1      35.208  33.228  27.635  1.00  0.00    -0.200 F 
ATOM     89  F   UNL A   1      33.528  34.021  29.626  1.00  0.00    -0.200 F 
ENDBRANCH  55  79
BRANCH  67  90
ATOM     90  C   UNL A   1      42.085  30.222  33.679  1.00  0.00     0.064 A 
ATOM     91  C   UNL A   1      41.785  28.867  33.453  1.00  0.00     0.173 A 
ATOM     92  C   UNL A   1      42.354  30.611  34.996  1.00  0.00     0.173 A 
ATOM     93  F   UNL A   1      41.604  28.398  32.212  1.00  0.00    -0.203 F 
ATOM     94  C   UNL A   1      41.734  27.952  34.506  1.00  0.00     0.198 A 
ATOM     95  C   UNL A   1      42.336  29.691  36.040  1.00  0.00     0.198 A 
ATOM     96  F   UNL A   1      42.697  31.880  35.262  1.00  0.00    -0.203 F 
ATOM     97  F   UNL A   1      41.452  26.662  34.267  1.00  0.00    -0.200 F 
ATOM     98  C   UNL A   1      42.020  28.364  35.798  1.00  0.00     0.200 A 
ATOM     99  F   UNL A   1      42.662  30.086  37.278  1.00  0.00    -0.200 F 
ATOM    100  F   UNL A   1      42.020  27.479  36.804  1.00  0.00    -0.200 F 
ENDBRANCH  67  90
ENDBRANCH  41  42
ENDBRANCH  33  36
ENDBRANCH  31  32
ENDBRANCH  30  31
ENDBRANCH  29  30
ENDBRANCH  28  29
ENDBRANCH   1  28
TORSDOF 19
ENDMDL
MODEL 2
REMARK VINA RESULT:     -14.5      1.866      4.257
REMARK SMILES CC[C@@H](C)[C@@H](NC(=O)CCn1ccc2ccc(Br)cc21)C(=O)NCCCCCCNC(=O)c1ccc(-c2c3nc(c(-c4c(F)c(F)c(F)c(F)c4F)c4ccc([nH]4)c(-c4c(F)c(F)c(F)c(F)c4F)c4nc(c(-c5c(F)c(F)c(F)c(F)c5F)c5ccc2[nH]5)C=C4)C=C3)cc1
REMARK SMILES IDX 25 1 24 2 23 3 21 4 22 5 5 7 3 8 4 9 2 10 1 11 6 12 7 13
REMARK SMILES IDX 8 15 9 16 10 17 11 18 12 19 20 20 13 21 14 22 19 23 15 24
REMARK SMILES IDX 17 25 16 26 18 27 26 28 27 29 28 30 29 31 30 32 31 33 32 35
REMARK SMILES IDX 33 36 34 37 95 38 35 39 94 40 36 41 37 42 38 43 88 44 39 45
REMARK SMILES IDX 93 46 87 47 89 48 40 49 92 50 86 51 85 52 41 54 73 55 53 56
REMARK SMILES IDX 72 57 54 58 57 59 71 60 90 61 55 62 56 63 70 65 91 66 58 67
REMARK SMILES IDX 42 68 43 69 51 70 44 71 45 72 49 73 52 74 46 75 47 76 50 77
REMARK SMILES IDX 48 78 74 79 75 80 83 81 76 82 77 83 81 84 84 85 78 86 79 87
REMARK SMILES IDX 82 88 80 89 59 90 60 91 68 92 61 93 62 94 66 95 69 96 63 97
REMARK SMILES IDX 64 98 67 99 65 100
REMARK H PARENT 23 6 6 14 30 34 89 53 57 64
REMARK Flexibility Score: inf
ROOT
ATOM      1  C   UNL A   1      34.692  24.531  25.094  1.00  0.00     0.021 C 
ENDROOT
BRANCH   1   2
ATOM      2  C   UNL A   1      34.065  25.666  25.993  1.00  0.00     0.116 C 
BRANCH   2   3
ATOM      3  N   UNL A   1      33.318  27.202  25.937  1.00  0.00    -0.354 N 
ATOM      4  C   UNL A   1      32.123  28.044  25.178  1.00  0.00     0.242 C 
ATOM      5  O   UNL A   1      31.673  28.920  25.953  1.00  0.00    -0.273 OA
ATOM      6  H   UNL A   1      33.760  27.795  26.589  1.00  0.00     0.163 HD
BRANCH   4   7
ATOM      7  C   UNL A   1      31.230  27.839  23.400  1.00  0.00     0.174 C 
BRANCH   7   8
ATOM      8  C   UNL A   1      29.752  28.647  22.571  1.00  0.00     0.018 C 
ATOM      9  C   UNL A   1      29.569  30.159  22.119  1.00  0.00     0.010 C 
BRANCH   8  10
ATOM     10  C   UNL A   1      28.324  28.269  23.062  1.00  0.00     0.002 C 
ATOM     11  C   UNL A   1      27.341  29.484  22.962  1.00  0.00     0.004 C 
ENDBRANCH   8  10
ENDBRANCH   7   8
BRANCH   7  12
ATOM     12  N   UNL A   1      32.228  27.894  22.354  1.00  0.00    -0.344 N 
ATOM     13  C   UNL A   1      32.746  26.724  21.991  1.00  0.00     0.222 C 
ATOM     14  H   UNL A   1      32.506  28.741  21.938  1.00  0.00     0.164 HD
ATOM     15  O   UNL A   1      33.701  26.613  21.189  1.00  0.00    -0.275 OA
BRANCH  13  16
ATOM     16  C   UNL A   1      31.944  25.610  22.541  1.00  0.00     0.122 C 
BRANCH  16  17
ATOM     17  C   UNL A   1      32.514  23.967  22.108  1.00  0.00     0.132 C 
BRANCH  17  18
ATOM     18  N   UNL A   1      32.182  22.309  22.757  1.00  0.00    -0.347 N 
ATOM     19  C   UNL A   1      31.921  21.141  22.008  1.00  0.00     0.087 A 
ATOM     20  C   UNL A   1      32.264  21.635  24.183  1.00  0.00     0.049 A 
ATOM     21  C   UNL A   1      32.187  19.983  22.725  1.00  0.00     0.028 A 
ATOM     22  C   UNL A   1      32.721  20.331  23.973  1.00  0.00    -0.000 A 
ATOM     23  C   UNL A   1      32.102  21.958  25.589  1.00  0.00     0.042 A 
ATOM     24  C   UNL A   1      33.528  19.709  24.965  1.00  0.00     0.011 A 
ATOM     25  C   UNL A   1      33.039  21.448  26.502  1.00  0.00     0.020 A 
ATOM     26  C   UNL A   1      33.822  20.376  26.159  1.00  0.00     0.016 A 
ATOM     27  Br  UNL A   1      33.362  22.379  28.130  1.00  0.00    -0.051 Br
ENDBRANCH  17  18
ENDBRANCH  16  17
ENDBRANCH  13  16
ENDBRANCH   7  12
ENDBRANCH   4   7
ENDBRANCH   2   3
ENDBRANCH   1   2
BRANCH   1  28
ATOM     28  C   UNL A   1      35.986  23.913  25.573  1.00  0.00     0.002 C 
BRANCH  28  29
ATOM     29  C   UNL A   1      36.321  22.520  25.019  1.00  0.00     0.002 C 
BRANCH  29  30
ATOM     30  C   UNL A   1      37.787  22.036  24.992  1.00  0.00     0.021 C 
BRANCH  30  31
ATOM     31  C   UNL A   1      38.665  22.424  26.180  1.00  0.00     0.116 C 
BRANCH  31  32
ATOM     32  N   UNL A   1      40.053  22.065  26.011  1.00  0.00    -0.352 N 
ATOM     33  C   UNL A   1      41.254  22.660  26.240  1.00  0.00     0.251 C 
ATOM     34  H   UNL A   1      40.156  21.161  25.634  1.00  0.00     0.163 HD
ATOM     35  O   UNL A   1      42.241  22.061  25.804  1.00  0.00    -0.269 OA
BRANCH  33  36
ATOM     36  C   UNL A   1      41.452  23.973  26.896  1.00  0.00     0.039 A 
ATOM     37  C   UNL A   1      42.025  24.189  28.149  1.00  0.00     0.014 A 
ATOM     38  C   UNL A   1      40.980  25.080  26.164  1.00  0.00     0.014 A 
ATOM     39  C   UNL A   1      41.947  25.445  28.734  1.00  0.00     0.010 A 
ATOM     40  C   UNL A   1      40.966  26.346  26.714  1.00  0.00     0.010 A 
ATOM     41  C   UNL A   1      41.356  26.502  28.034  1.00  0.00    -0.014 A 
BRANCH  41  42
ATOM     42  C   UNL A   1      41.274  27.809  28.666  1.00  0.00     0.031 A 
ATOM     43  C   UNL A   1      42.406  28.702  28.297  1.00  0.00     0.074 A 
ATOM     44  C   UNL A   1      40.229  28.184  29.435  1.00  0.00     0.049 A 
ATOM     45  N   UNL A   1      43.331  29.154  29.076  1.00  0.00    -0.248 NA
ATOM     46  C   UNL A   1      42.649  28.965  26.867  1.00  0.00     0.031 C 
ATOM     47  C   UNL A   1      38.981  27.464  29.706  1.00  0.00     0.029 A 
ATOM     48  N   UNL A   1      40.042  29.357  30.105  1.00  0.00    -0.354 N 
ATOM     49  C   UNL A   1      44.167  29.922  28.273  1.00  0.00     0.074 A 
ATOM     50  C   UNL A   1      43.799  29.642  26.910  1.00  0.00     0.031 C 
ATOM     51  C   UNL A   1      38.081  28.304  30.272  1.00  0.00     0.029 A 
ATOM     52  C   UNL A   1      38.735  29.567  30.548  1.00  0.00     0.049 A 
ATOM     53  H   UNL A   1      40.769  30.002  30.264  1.00  0.00     0.167 HD
ATOM     54  C   UNL A   1      44.928  30.913  28.811  1.00  0.00     0.037 A 
ATOM     55  C   UNL A   1      38.245  30.729  31.060  1.00  0.00     0.037 A 
ATOM     56  C   UNL A   1      45.096  30.727  30.228  1.00  0.00     0.049 A 
ATOM     57  C   UNL A   1      39.417  31.503  31.550  1.00  0.00     0.074 A 
ATOM     58  C   UNL A   1      45.704  29.768  31.014  1.00  0.00     0.029 A 
ATOM     59  N   UNL A   1      44.243  31.408  31.061  1.00  0.00    -0.354 N 
ATOM     60  N   UNL A   1      40.155  31.116  32.555  1.00  0.00    -0.248 NA
ATOM     61  C   UNL A   1      40.058  32.401  30.601  1.00  0.00     0.031 C 
ATOM     62  C   UNL A   1      44.837  29.606  32.134  1.00  0.00     0.029 A 
ATOM     63  C   UNL A   1      43.799  30.528  32.015  1.00  0.00     0.049 A 
ATOM     64  H   UNL A   1      43.996  32.358  30.988  1.00  0.00     0.167 HD
ATOM     65  C   UNL A   1      41.456  31.356  32.143  1.00  0.00     0.074 A 
ATOM     66  C   UNL A   1      41.331  32.179  30.940  1.00  0.00     0.031 C 
ATOM     67  C   UNL A   1      42.497  30.622  32.631  1.00  0.00     0.037 A 
BRANCH  54  68
ATOM     68  C   UNL A   1      45.162  32.242  28.141  1.00  0.00     0.064 A 
ATOM     69  C   UNL A   1      44.072  33.107  27.926  1.00  0.00     0.173 A 
ATOM     70  C   UNL A   1      46.339  32.552  27.424  1.00  0.00     0.173 A 
ATOM     71  F   UNL A   1      42.897  32.888  28.535  1.00  0.00    -0.203 F 
ATOM     72  C   UNL A   1      44.138  34.160  27.010  1.00  0.00     0.198 A 
ATOM     73  C   UNL A   1      46.416  33.631  26.549  1.00  0.00     0.198 A 
ATOM     74  F   UNL A   1      47.417  31.761  27.449  1.00  0.00    -0.203 F 
ATOM     75  F   UNL A   1      43.041  34.882  26.746  1.00  0.00    -0.200 F 
ATOM     76  C   UNL A   1      45.308  34.417  26.317  1.00  0.00     0.200 A 
ATOM     77  F   UNL A   1      47.550  33.846  25.868  1.00  0.00    -0.200 F 
ATOM     78  F   UNL A   1      45.355  35.386  25.395  1.00  0.00    -0.200 F 
ENDBRANCH  54  68
BRANCH  55  79
ATOM     79  C   UNL A   1      36.953  31.393  30.734  1.00  0.00     0.064 A 
ATOM     80  C   UNL A   1      36.041  31.746  31.745  1.00  0.00     0.173 A 
ATOM     81  C   UNL A   1      36.730  31.973  29.470  1.00  0.00     0.173 A 
ATOM     82  F   UNL A   1      36.206  31.280  32.992  1.00  0.00    -0.203 F 
ATOM     83  C   UNL A   1      34.992  32.646  31.513  1.00  0.00     0.198 A 
ATOM     84  C   UNL A   1      35.684  32.871  29.240  1.00  0.00     0.198 A 
ATOM     85  F   UNL A   1      37.582  31.760  28.457  1.00  0.00    -0.203 F 
ATOM     86  F   UNL A   1      34.182  33.006  32.520  1.00  0.00    -0.200 F 
ATOM     87  C   UNL A   1      34.823  33.218  30.264  1.00  0.00     0.200 A 
ATOM     88  F   UNL A   1      35.557  33.448  28.037  1.00  0.00    -0.200 F 
ATOM     89  F   UNL A   1      33.865  34.132  30.058  1.00  0.00    -0.200 F 
ENDBRANCH  55  79
BRANCH  67  90
ATOM     90  C   UNL A   1      42.225  29.687  33.778  1.00  0.00     0.064 A 
ATOM     91  C   UNL A   1      41.764  28.367  33.630  1.00  0.00     0.173 A 
ATOM     92  C   UNL A   1      42.610  30.094  35.060  1.00  0.00     0.173 A 
ATOM     93  F   UNL A   1      41.462  27.874  32.422  1.00  0.00    -0.203 F 
ATOM     94  C   UNL A   1      41.671  27.506  34.724  1.00  0.00     0.198 A 
ATOM     95  C   UNL A   1      42.548  29.224  36.145  1.00  0.00     0.198 A 
ATOM     96  F   UNL A   1      43.107  31.326  35.251  1.00  0.00    -0.203 F 
ATOM     97  F   UNL A   1      41.234  26.248  34.559  1.00  0.00    -0.200 F 
ATOM     98  C   UNL A   1      42.073  27.933  35.980  1.00  0.00     0.200 A 
ATOM     99  F   UNL A   1      42.986  29.627  37.345  1.00  0.00    -0.200 F 
ATOM    100  F   UNL A   1      42.031  27.093  37.023  1.00  0.00    -0.200 F 
ENDBRANCH  67  90
ENDBRANCH  41  42
ENDBRANCH  33  36
ENDBRANCH  31  32
ENDBRANCH  30  31
ENDBRANCH  29  30
ENDBRANCH  28  29
ENDBRANCH   1  28
TORSDOF 19
ENDMDL
MODEL 3
REMARK VINA RESULT:     -14.5      1.908      4.105
REMARK SMILES CC[C@@H](C)[C@@H](NC(=O)CCn1ccc2ccc(Br)cc21)C(=O)NCCCCCCNC(=O)c1ccc(-c2c3nc(c(-c4c(F)c(F)c(F)c(F)c4F)c4ccc([nH]4)c(-c4c(F)c(F)c(F)c(F)c4F)c4nc(c(-c5c(F)c(F)c(F)c(F)c5F)c5ccc2[nH]5)C=C4)C=C3)cc1
REMARK SMILES IDX 25 1 24 2 23 3 21 4 22 5 5 7 3 8 4 9 2 10 1 11 6 12 7 13
REMARK SMILES IDX 8 15 9 16 10 17 11 18 12 19 20 20 13 21 14 22 19 23 15 24
REMARK SMILES IDX 17 25 16 26 18 27 26 28 27 29 28 30 29 31 30 32 31 33 32 35
REMARK SMILES IDX 33 36 34 37 95 38 35 39 94 40 36 41 37 42 38 43 88 44 39 45
REMARK SMILES IDX 93 46 87 47 89 48 40 49 92 50 86 51 85 52 41 54 73 55 53 56
REMARK SMILES IDX 72 57 54 58 57 59 71 60 90 61 55 62 56 63 70 65 91 66 58 67
REMARK SMILES IDX 42 68 43 69 51 70 44 71 45 72 49 73 52 74 46 75 47 76 50 77
REMARK SMILES IDX 48 78 74 79 75 80 83 81 76 82 77 83 81 84 84 85 78 86 79 87
REMARK SMILES IDX 82 88 80 89 59 90 60 91 68 92 61 93 62 94 66 95 69 96 63 97
REMARK SMILES IDX 64 98 67 99 65 100
REMARK H PARENT 23 6 6 14 30 34 89 53 57 64
REMARK Flexibility Score: inf
ROOT
ATOM      1  C   UNL A   1      35.374  24.192  24.558  1.00  0.00     0.021 C 
ENDROOT
BRANCH   1   2
ATOM      2  C   UNL A   1      34.399  25.392  24.871  1.00  0.00     0.116 C 
BRANCH   2   3
ATOM      3  N   UNL A   1      34.002  26.990  24.412  1.00  0.00    -0.354 N 
ATOM      4  C   UNL A   1      32.724  28.014  24.226  1.00  0.00     0.242 C 
ATOM      5  O   UNL A   1      33.100  29.191  24.431  1.00  0.00    -0.273 OA
ATOM      6  H   UNL A   1      34.829  27.468  24.174  1.00  0.00     0.163 HD
BRANCH   4   7
ATOM      7  C   UNL A   1      30.776  27.714  23.884  1.00  0.00     0.174 C 
BRANCH   7   8
ATOM      8  C   UNL A   1      29.366  28.797  23.282  1.00  0.00     0.018 C 
ATOM      9  C   UNL A   1      27.834  28.421  23.095  1.00  0.00     0.010 C 
BRANCH   8  10
ATOM     10  C   UNL A   1      29.625  29.756  22.083  1.00  0.00     0.002 C 
ATOM     11  C   UNL A   1      28.410  30.715  21.842  1.00  0.00     0.004 C 
ENDBRANCH   8  10
ENDBRANCH   7   8
BRANCH   7  12
ATOM     12  N   UNL A   1      30.610  26.526  23.076  1.00  0.00    -0.344 N 
ATOM     13  C   UNL A   1      30.464  25.388  23.748  1.00  0.00     0.222 C 
ATOM     14  H   UNL A   1      30.604  26.557  22.092  1.00  0.00     0.164 HD
ATOM     15  O   UNL A   1      30.430  24.263  23.199  1.00  0.00    -0.275 OA
BRANCH  13  16
ATOM     16  C   UNL A   1      30.202  25.662  25.177  1.00  0.00     0.122 C 
BRANCH  16  17
ATOM     17  C   UNL A   1      30.709  24.369  26.311  1.00  0.00     0.132 C 
BRANCH  17  18
ATOM     18  N   UNL A   1      32.077  23.182  26.334  1.00  0.00    -0.347 N 
ATOM     19  C   UNL A   1      32.889  22.845  27.438  1.00  0.00     0.087 A 
ATOM     20  C   UNL A   1      32.628  22.100  25.324  1.00  0.00     0.049 A 
ATOM     21  C   UNL A   1      33.495  21.605  27.290  1.00  0.00     0.028 A 
ATOM     22  C   UNL A   1      33.044  21.016  26.102  1.00  0.00    -0.000 A 
ATOM     23  C   UNL A   1      32.756  21.856  23.898  1.00  0.00     0.042 A 
ATOM     24  C   UNL A   1      32.940  19.700  25.571  1.00  0.00     0.011 A 
ATOM     25  C   UNL A   1      32.471  20.570  23.415  1.00  0.00     0.020 A 
ATOM     26  C   UNL A   1      32.472  19.497  24.269  1.00  0.00     0.016 A 
ATOM     27  Br  UNL A   1      31.880  20.355  21.618  1.00  0.00    -0.051 Br
ENDBRANCH  17  18
ENDBRANCH  16  17
ENDBRANCH  13  16
ENDBRANCH   7  12
ENDBRANCH   4   7
ENDBRANCH   2   3
ENDBRANCH   1   2
BRANCH   1  28
ATOM     28  C   UNL A   1      36.172  23.637  25.717  1.00  0.00     0.002 C 
BRANCH  28  29
ATOM     29  C   UNL A   1      36.643  22.182  25.582  1.00  0.00     0.002 C 
BRANCH  29  30
ATOM     30  C   UNL A   1      38.114  21.881  25.222  1.00  0.00     0.021 C 
BRANCH  30  31
ATOM     31  C   UNL A   1      39.085  21.686  26.385  1.00  0.00     0.116 C 
BRANCH  31  32
ATOM     32  N   UNL A   1      40.460  21.956  26.037  1.00  0.00    -0.352 N 
ATOM     33  C   UNL A   1      41.308  23.013  26.145  1.00  0.00     0.251 C 
ATOM     34  H   UNL A   1      40.893  21.179  25.614  1.00  0.00     0.163 HD
ATOM     35  O   UNL A   1      42.394  22.890  25.572  1.00  0.00    -0.269 OA
BRANCH  33  36
ATOM     36  C   UNL A   1      41.004  24.294  26.825  1.00  0.00     0.039 A 
ATOM     37  C   UNL A   1      40.004  25.197  26.466  1.00  0.00     0.014 A 
ATOM     38  C   UNL A   1      41.842  24.603  27.913  1.00  0.00     0.014 A 
ATOM     39  C   UNL A   1      39.974  26.456  27.049  1.00  0.00     0.010 A 
ATOM     40  C   UNL A   1      41.767  25.827  28.546  1.00  0.00     0.010 A 
ATOM     41  C   UNL A   1      40.902  26.785  28.044  1.00  0.00    -0.014 A 
BRANCH  41  42
ATOM     42  C   UNL A   1      40.861  28.111  28.637  1.00  0.00     0.031 A 
ATOM     43  C   UNL A   1      41.968  28.988  28.170  1.00  0.00     0.074 A 
ATOM     44  C   UNL A   1      39.866  28.514  29.457  1.00  0.00     0.049 A 
ATOM     45  N   UNL A   1      42.941  29.462  28.875  1.00  0.00    -0.248 NA
ATOM     46  C   UNL A   1      42.123  29.204  26.720  1.00  0.00     0.031 C 
ATOM     47  C   UNL A   1      38.636  27.807  29.828  1.00  0.00     0.029 A 
ATOM     48  N   UNL A   1      39.722  29.708  30.098  1.00  0.00    -0.354 N 
ATOM     49  C   UNL A   1      43.725  30.202  27.997  1.00  0.00     0.074 A 
ATOM     50  C   UNL A   1      43.274  29.878  26.669  1.00  0.00     0.031 C 
ATOM     51  C   UNL A   1      37.774  28.667  30.421  1.00  0.00     0.029 A 
ATOM     52  C   UNL A   1      38.445  29.937  30.615  1.00  0.00     0.049 A 
ATOM     53  H   UNL A   1      40.458  30.356  30.191  1.00  0.00     0.167 HD
ATOM     54  C   UNL A   1      44.520  31.207  28.455  1.00  0.00     0.037 A 
ATOM     55  C   UNL A   1      37.989  31.116  31.118  1.00  0.00     0.037 A 
ATOM     56  C   UNL A   1      44.775  31.066  29.863  1.00  0.00     0.049 A 
ATOM     57  C   UNL A   1      39.190  31.902  31.510  1.00  0.00     0.074 A 
ATOM     58  C   UNL A   1      45.430  30.132  30.641  1.00  0.00     0.029 A 
ATOM     59  N   UNL A   1      43.977  31.777  30.725  1.00  0.00    -0.354 N 
ATOM     60  N   UNL A   1      39.988  31.546  32.479  1.00  0.00    -0.248 NA
ATOM     61  C   UNL A   1      39.772  32.767  30.494  1.00  0.00     0.031 C 
ATOM     62  C   UNL A   1      44.633  30.008  31.818  1.00  0.00     0.029 A 
ATOM     63  C   UNL A   1      43.591  30.930  31.733  1.00  0.00     0.049 A 
ATOM     64  H   UNL A   1      43.726  32.725  30.636  1.00  0.00     0.167 HD
ATOM     65  C   UNL A   1      41.262  31.768  31.979  1.00  0.00     0.074 A 
ATOM     66  C   UNL A   1      41.063  32.553  30.760  1.00  0.00     0.031 C 
ATOM     67  C   UNL A   1      42.330  31.047  32.425  1.00  0.00     0.037 A 
BRANCH  54  68
ATOM     68  C   UNL A   1      44.713  32.513  27.729  1.00  0.00     0.064 A 
ATOM     69  C   UNL A   1      45.900  32.731  27.005  1.00  0.00     0.173 A 
ATOM     70  C   UNL A   1      43.930  33.662  27.979  1.00  0.00     0.173 A 
ATOM     71  F   UNL A   1      46.732  31.713  26.735  1.00  0.00    -0.203 F 
ATOM     72  C   UNL A   1      46.306  34.013  26.624  1.00  0.00     0.198 A 
ATOM     73  C   UNL A   1      44.313  34.931  27.556  1.00  0.00     0.198 A 
ATOM     74  F   UNL A   1      42.832  33.623  28.742  1.00  0.00    -0.203 F 
ATOM     75  F   UNL A   1      47.501  34.189  26.046  1.00  0.00    -0.200 F 
ATOM     76  C   UNL A   1      45.514  35.113  26.905  1.00  0.00     0.200 A 
ATOM     77  F   UNL A   1      43.545  35.987  27.863  1.00  0.00    -0.200 F 
ATOM     78  F   UNL A   1      45.928  36.348  26.597  1.00  0.00    -0.200 F 
ENDBRANCH  54  68
BRANCH  55  79
ATOM     79  C   UNL A   1      36.680  31.774  30.851  1.00  0.00     0.064 A 
ATOM     80  C   UNL A   1      35.816  32.126  31.903  1.00  0.00     0.173 A 
ATOM     81  C   UNL A   1      36.395  32.347  29.597  1.00  0.00     0.173 A 
ATOM     82  F   UNL A   1      36.042  31.666  33.143  1.00  0.00    -0.203 F 
ATOM     83  C   UNL A   1      34.753  33.021  31.718  1.00  0.00     0.198 A 
ATOM     84  C   UNL A   1      35.334  33.240  29.413  1.00  0.00     0.198 A 
ATOM     85  F   UNL A   1      37.198  32.134  28.546  1.00  0.00    -0.203 F 
ATOM     86  F   UNL A   1      33.990  33.381  32.761  1.00  0.00    -0.200 F 
ATOM     87  C   UNL A   1      34.522  33.587  30.476  1.00  0.00     0.200 A 
ATOM     88  F   UNL A   1      35.148  33.812  28.216  1.00  0.00    -0.200 F 
ATOM     89  F   UNL A   1      33.551  34.496  30.313  1.00  0.00    -0.200 F 
ENDBRANCH  55  79
BRANCH  67  90
ATOM     90  C   UNL A   1      42.129  30.151  33.616  1.00  0.00     0.064 A 
ATOM     91  C   UNL A   1      41.718  28.808  33.536  1.00  0.00     0.173 A 
ATOM     92  C   UNL A   1      42.534  30.625  34.869  1.00  0.00     0.173 A 
ATOM     93  F   UNL A   1      41.401  28.254  32.359  1.00  0.00    -0.203 F 
ATOM     94  C   UNL A   1      41.691  27.991  34.666  1.00  0.00     0.198 A 
ATOM     95  C   UNL A   1      42.538  29.799  35.990  1.00  0.00     0.198 A 
ATOM     96  F   UNL A   1      42.986  31.882  34.995  1.00  0.00    -0.203 F 
ATOM     97  F   UNL A   1      41.300  26.711  34.565  1.00  0.00    -0.200 F 
ATOM     98  C   UNL A   1      42.111  28.485  35.891  1.00  0.00     0.200 A 
ATOM     99  F   UNL A   1      42.994  30.269  37.159  1.00  0.00    -0.200 F 
ATOM    100  F   UNL A   1      42.133  27.688  36.968  1.00  0.00    -0.200 F 
ENDBRANCH  67  90
ENDBRANCH  41  42
ENDBRANCH  33  36
ENDBRANCH  31  32
ENDBRANCH  30  31
ENDBRANCH  29  30
ENDBRANCH  28  29
ENDBRANCH   1  28
TORSDOF 19
ENDMDL
