MODEL 1
REMARK VINA RESULT:     -12.2      0.000      0.000
REMARK SMILES COc1ccccc1OC1CCN(c2cccc(C(=O)NCCCCCCNC(=O)c3ccc(-c4c5nc(c(-c6c(F)c(F)c(F)c(F)c6F)c6ccc([nH]6)c(-c6c(F)c(F)c(F)c(F)c6F)c6nc(c(-c7c(F)c(F)c(F)c(F)c7F)c7ccc4[nH]7)C=C6)C=C5)cc3)n2)CC1
REMARK SMILES IDX 23 1 22 2 21 3 19 4 20 5 18 7 14 8 15 9 94 10 16 11 17 12
REMARK SMILES IDX 13 13 10 14 11 15 96 16 12 17 95 18 9 19 8 20 3 21 4 22 5 23
REMARK SMILES IDX 7 24 6 25 2 26 1 27 24 28 25 29 26 30 27 31 28 32 29 33
REMARK SMILES IDX 30 35 31 36 32 37 93 38 33 39 92 40 34 41 35 42 36 43 86 44
REMARK SMILES IDX 37 45 91 46 85 47 87 48 38 49 90 50 84 51 83 52 39 54 71 55
REMARK SMILES IDX 51 56 70 57 52 58 55 59 69 60 88 61 53 62 54 63 68 65 89 66
REMARK SMILES IDX 56 67 40 68 41 69 49 70 42 71 43 72 47 73 50 74 44 75 45 76
REMARK SMILES IDX 48 77 46 78 72 79 73 80 81 81 74 82 75 83 79 84 82 85 76 86
REMARK SMILES IDX 77 87 80 88 78 89 57 90 58 91 66 92 59 93 60 94 64 95 67 96
REMARK SMILES IDX 61 97 62 98 65 99 63 100
REMARK H PARENT 21 6 28 34 87 53 55 64
REMARK Flexibility Score: inf
ROOT
ATOM      1  C   UNL A   1      39.478  24.874  26.555  1.00  0.00     0.021 C 
ENDROOT
BRANCH   1   2
ATOM      2  C   UNL A   1      38.340  23.865  26.492  1.00  0.00     0.116 C 
BRANCH   2   3
ATOM      3  N   UNL A   1      37.822  23.730  25.155  1.00  0.00    -0.351 N 
ATOM      4  C   UNL A   1      36.582  23.493  24.618  1.00  0.00     0.269 C 
ATOM      5  O   UNL A   1      36.578  23.347  23.389  1.00  0.00    -0.268 OA
ATOM      6  H   UNL A   1      38.518  23.832  24.466  1.00  0.00     0.163 HD
BRANCH   4   7
ATOM      7  C   UNL A   1      35.278  23.428  25.378  1.00  0.00     0.130 A 
ATOM      8  C   UNL A   1      33.234  24.516  25.586  1.00  0.00     0.129 A 
ATOM      9  C   UNL A   1      32.915  23.792  26.723  1.00  0.00     0.047 A 
ATOM     10  N   UNL A   1      34.361  24.300  24.891  1.00  0.00    -0.226 NA
ATOM     11  C   UNL A   1      33.802  22.839  27.181  1.00  0.00     0.006 A 
ATOM     12  C   UNL A   1      35.019  22.688  26.526  1.00  0.00     0.034 A 
BRANCH   8  13
ATOM     13  N   UNL A   1      32.464  25.591  25.229  1.00  0.00    -0.356 N 
ATOM     14  C   UNL A   1      31.086  28.638  23.458  1.00  0.00     0.177 C 
ATOM     15  C   UNL A   1      30.489  26.848  22.972  1.00  0.00     0.066 C 
ATOM     16  C   UNL A   1      32.612  28.783  24.655  1.00  0.00     0.066 C 
ATOM     17  C   UNL A   1      31.087  25.335  24.039  1.00  0.00     0.122 C 
ATOM     18  C   UNL A   1      33.130  27.236  25.703  1.00  0.00     0.122 C 
BRANCH  14  19
ATOM     19  O   UNL A   1      29.979  29.261  24.175  1.00  0.00    -0.486 OA
BRANCH  19  20
ATOM     20  C   UNL A   1      29.383  30.185  23.340  1.00  0.00     0.161 A 
ATOM     21  C   UNL A   1      29.371  31.540  23.703  1.00  0.00     0.160 A 
ATOM     22  C   UNL A   1      28.754  32.468  22.869  1.00  0.00     0.050 A 
ATOM     23  C   UNL A   1      28.216  32.053  21.648  1.00  0.00     0.004 A 
ATOM     24  C   UNL A   1      28.843  29.762  22.132  1.00  0.00     0.050 A 
ATOM     25  C   UNL A   1      28.274  30.707  21.276  1.00  0.00     0.004 A 
BRANCH  21  26
ATOM     26  O   UNL A   1      30.085  31.748  24.866  1.00  0.00    -0.493 OA
ATOM     27  C   UNL A   1      31.138  31.956  26.378  1.00  0.00     0.278 C 
ENDBRANCH  21  26
ENDBRANCH  19  20
ENDBRANCH  14  19
ENDBRANCH   8  13
ENDBRANCH   4   7
ENDBRANCH   2   3
ENDBRANCH   1   2
BRANCH   1  28
ATOM     28  C   UNL A   1      40.852  24.241  26.769  1.00  0.00     0.002 C 
BRANCH  28  29
ATOM     29  C   UNL A   1      40.859  22.710  26.867  1.00  0.00     0.002 C 
BRANCH  29  30
ATOM     30  C   UNL A   1      41.965  22.005  26.072  1.00  0.00     0.021 C 
BRANCH  30  31
ATOM     31  C   UNL A   1      42.916  22.947  25.344  1.00  0.00     0.116 C 
BRANCH  31  32
ATOM     32  N   UNL A   1      44.298  22.700  25.712  1.00  0.00    -0.352 N 
ATOM     33  C   UNL A   1      45.103  23.389  26.580  1.00  0.00     0.251 C 
ATOM     34  H   UNL A   1      44.719  21.925  25.273  1.00  0.00     0.163 HD
ATOM     35  O   UNL A   1      46.315  23.203  26.579  1.00  0.00    -0.269 OA
BRANCH  33  36
ATOM     36  C   UNL A   1      44.509  24.366  27.514  1.00  0.00     0.039 A 
ATOM     37  C   UNL A   1      43.901  23.898  28.682  1.00  0.00     0.014 A 
ATOM     38  C   UNL A   1      44.526  25.734  27.227  1.00  0.00     0.014 A 
ATOM     39  C   UNL A   1      43.356  24.809  29.587  1.00  0.00     0.010 A 
ATOM     40  C   UNL A   1      44.041  26.644  28.163  1.00  0.00     0.010 A 
ATOM     41  C   UNL A   1      43.448  26.190  29.350  1.00  0.00    -0.014 A 
BRANCH  41  42
ATOM     42  C   UNL A   1      42.944  27.172  30.340  1.00  0.00     0.031 A 
ATOM     43  C   UNL A   1      43.614  27.313  31.678  1.00  0.00     0.074 A 
ATOM     44  C   UNL A   1      41.843  27.893  30.051  1.00  0.00     0.049 A 
ATOM     45  N   UNL A   1      43.281  28.069  32.694  1.00  0.00    -0.248 NA
ATOM     46  C   UNL A   1      44.800  26.476  31.918  1.00  0.00     0.031 C 
ATOM     47  C   UNL A   1      41.080  27.807  28.804  1.00  0.00     0.029 A 
ATOM     48  N   UNL A   1      41.165  28.830  30.789  1.00  0.00    -0.354 N 
ATOM     49  C   UNL A   1      44.204  27.789  33.693  1.00  0.00     0.074 A 
ATOM     50  C   UNL A   1      45.085  26.762  33.181  1.00  0.00     0.031 C 
ATOM     51  C   UNL A   1      40.052  28.668  28.857  1.00  0.00     0.029 A 
ATOM     52  C   UNL A   1      40.058  29.339  30.153  1.00  0.00     0.049 A 
ATOM     53  H   UNL A   1      41.446  29.113  31.690  1.00  0.00     0.167 HD
ATOM     54  C   UNL A   1      44.315  28.354  34.918  1.00  0.00     0.037 A 
ATOM     55  C   UNL A   1      39.146  30.234  30.576  1.00  0.00     0.037 A 
ATOM     56  C   UNL A   1      43.456  29.400  35.408  1.00  0.00     0.049 A 
ATOM     57  C   UNL A   1      39.297  30.842  31.944  1.00  0.00     0.074 A 
ATOM     58  C   UNL A   1      43.538  30.093  36.603  1.00  0.00     0.029 A 
ATOM     59  N   UNL A   1      42.356  29.903  34.728  1.00  0.00    -0.354 N 
ATOM     60  N   UNL A   1      40.225  30.630  32.847  1.00  0.00    -0.248 NA
ATOM     61  C   UNL A   1      38.276  31.817  32.352  1.00  0.00     0.031 C 
ATOM     62  C   UNL A   1      42.456  30.978  36.670  1.00  0.00     0.029 A 
ATOM     63  C   UNL A   1      41.733  30.875  35.493  1.00  0.00     0.049 A 
ATOM     64  H   UNL A   1      42.062  29.611  33.835  1.00  0.00     0.167 HD
ATOM     65  C   UNL A   1      39.917  31.464  33.912  1.00  0.00     0.074 A 
ATOM     66  C   UNL A   1      38.728  32.201  33.537  1.00  0.00     0.031 C 
ATOM     67  C   UNL A   1      40.557  31.606  35.098  1.00  0.00     0.037 A 
BRANCH  54  68
ATOM     68  C   UNL A   1      45.409  27.867  35.822  1.00  0.00     0.064 A 
ATOM     69  C   UNL A   1      46.679  28.465  35.830  1.00  0.00     0.173 A 
ATOM     70  C   UNL A   1      45.160  26.845  36.751  1.00  0.00     0.173 A 
ATOM     71  F   UNL A   1      46.971  29.439  34.956  1.00  0.00    -0.203 F 
ATOM     72  C   UNL A   1      47.661  28.048  36.724  1.00  0.00     0.198 A 
ATOM     73  C   UNL A   1      46.134  26.450  37.662  1.00  0.00     0.198 A 
ATOM     74  F   UNL A   1      43.960  26.245  36.789  1.00  0.00    -0.203 F 
ATOM     75  F   UNL A   1      48.876  28.613  36.693  1.00  0.00    -0.200 F 
ATOM     76  C   UNL A   1      47.385  27.049  37.647  1.00  0.00     0.200 A 
ATOM     77  F   UNL A   1      45.862  25.495  38.561  1.00  0.00    -0.200 F 
ATOM     78  F   UNL A   1      48.325  26.663  38.520  1.00  0.00    -0.200 F 
ENDBRANCH  54  68
BRANCH  55  79
ATOM     79  C   UNL A   1      38.011  30.621  29.697  1.00  0.00     0.064 A 
ATOM     80  C   UNL A   1      37.935  31.904  29.138  1.00  0.00     0.173 A 
ATOM     81  C   UNL A   1      36.961  29.730  29.426  1.00  0.00     0.173 A 
ATOM     82  F   UNL A   1      38.904  32.798  29.384  1.00  0.00    -0.203 F 
ATOM     83  C   UNL A   1      36.840  32.294  28.371  1.00  0.00     0.198 A 
ATOM     84  C   UNL A   1      35.881  30.110  28.632  1.00  0.00     0.198 A 
ATOM     85  F   UNL A   1      36.986  28.488  29.930  1.00  0.00    -0.203 F 
ATOM     86  F   UNL A   1      36.765  33.547  27.902  1.00  0.00    -0.200 F 
ATOM     87  C   UNL A   1      35.814  31.395  28.116  1.00  0.00     0.200 A 
ATOM     88  F   UNL A   1      34.900  29.234  28.376  1.00  0.00    -0.200 F 
ATOM     89  F   UNL A   1      34.758  31.771  27.383  1.00  0.00    -0.200 F 
ENDBRANCH  55  79
BRANCH  67  90
ATOM     90  C   UNL A   1      40.006  32.618  36.060  1.00  0.00     0.064 A 
ATOM     91  C   UNL A   1      38.942  32.313  36.920  1.00  0.00     0.173 A 
ATOM     92  C   UNL A   1      40.575  33.899  36.146  1.00  0.00     0.173 A 
ATOM     93  F   UNL A   1      38.353  31.108  36.864  1.00  0.00    -0.203 F 
ATOM     94  C   UNL A   1      38.448  33.261  37.811  1.00  0.00     0.198 A 
ATOM     95  C   UNL A   1      40.100  34.832  37.061  1.00  0.00     0.198 A 
ATOM     96  F   UNL A   1      41.601  34.239  35.351  1.00  0.00    -0.203 F 
ATOM     97  F   UNL A   1      37.395  32.964  38.586  1.00  0.00    -0.200 F 
ATOM     98  C   UNL A   1      39.032  34.516  37.887  1.00  0.00     0.200 A 
ATOM     99  F   UNL A   1      40.676  36.040  37.143  1.00  0.00    -0.200 F 
ATOM    100  F   UNL A   1      38.559  35.425  38.751  1.00  0.00    -0.200 F 
ENDBRANCH  67  90
ENDBRANCH  41  42
ENDBRANCH  33  36
ENDBRANCH  31  32
ENDBRANCH  30  31
ENDBRANCH  29  30
ENDBRANCH  28  29
ENDBRANCH   1  28
TORSDOF 17
ENDMDL
MODEL 2
REMARK VINA RESULT:     -11.8      4.008      7.077
REMARK SMILES COc1ccccc1OC1CCN(c2cccc(C(=O)NCCCCCCNC(=O)c3ccc(-c4c5nc(c(-c6c(F)c(F)c(F)c(F)c6F)c6ccc([nH]6)c(-c6c(F)c(F)c(F)c(F)c6F)c6nc(c(-c7c(F)c(F)c(F)c(F)c7F)c7ccc4[nH]7)C=C6)C=C5)cc3)n2)CC1
REMARK SMILES IDX 23 1 22 2 21 3 19 4 20 5 18 7 14 8 15 9 94 10 16 11 17 12
REMARK SMILES IDX 13 13 10 14 11 15 96 16 12 17 95 18 9 19 8 20 3 21 4 22 5 23
REMARK SMILES IDX 7 24 6 25 2 26 1 27 24 28 25 29 26 30 27 31 28 32 29 33
REMARK SMILES IDX 30 35 31 36 32 37 93 38 33 39 92 40 34 41 35 42 36 43 86 44
REMARK SMILES IDX 37 45 91 46 85 47 87 48 38 49 90 50 84 51 83 52 39 54 71 55
REMARK SMILES IDX 51 56 70 57 52 58 55 59 69 60 88 61 53 62 54 63 68 65 89 66
REMARK SMILES IDX 56 67 40 68 41 69 49 70 42 71 43 72 47 73 50 74 44 75 45 76
REMARK SMILES IDX 48 77 46 78 72 79 73 80 81 81 74 82 75 83 79 84 82 85 76 86
REMARK SMILES IDX 77 87 80 88 78 89 57 90 58 91 66 92 59 93 60 94 64 95 67 96
REMARK SMILES IDX 61 97 62 98 65 99 63 100
REMARK H PARENT 21 6 28 34 87 53 55 64
REMARK Flexibility Score: inf
ROOT
ATOM      1  C   UNL A   1      33.672  22.155  23.664  1.00  0.00     0.021 C 
ENDROOT
BRANCH   1   2
ATOM      2  C   UNL A   1      32.818  22.305  22.413  1.00  0.00     0.116 C 
BRANCH   2   3
ATOM      3  N   UNL A   1      33.151  23.499  21.681  1.00  0.00    -0.351 N 
ATOM      4  C   UNL A   1      32.708  24.797  21.695  1.00  0.00     0.269 C 
ATOM      5  O   UNL A   1      33.199  25.513  20.813  1.00  0.00    -0.268 OA
ATOM      6  H   UNL A   1      33.862  23.350  21.016  1.00  0.00     0.163 HD
BRANCH   4   7
ATOM      7  C   UNL A   1      31.733  25.397  22.682  1.00  0.00     0.130 A 
ATOM      8  C   UNL A   1      31.543  27.106  24.246  1.00  0.00     0.129 A 
ATOM      9  C   UNL A   1      30.357  26.585  24.735  1.00  0.00     0.047 A 
ATOM     10  N   UNL A   1      32.189  26.563  23.203  1.00  0.00    -0.226 NA
ATOM     11  C   UNL A   1      29.836  25.445  24.157  1.00  0.00     0.006 A 
ATOM     12  C   UNL A   1      30.558  24.818  23.147  1.00  0.00     0.034 A 
BRANCH   8  13
ATOM     13  N   UNL A   1      32.171  28.116  24.926  1.00  0.00    -0.356 N 
ATOM     14  C   UNL A   1      33.145  30.671  27.541  1.00  0.00     0.177 C 
ATOM     15  C   UNL A   1      33.953  28.898  27.530  1.00  0.00     0.066 C 
ATOM     16  C   UNL A   1      31.624  30.973  26.366  1.00  0.00     0.066 C 
ATOM     17  C   UNL A   1      33.557  27.692  26.055  1.00  0.00     0.122 C 
ATOM     18  C   UNL A   1      31.312  29.739  24.904  1.00  0.00     0.122 C 
BRANCH  14  19
ATOM     19  O   UNL A   1      34.174  31.595  27.079  1.00  0.00    -0.486 OA
BRANCH  19  20
ATOM     20  C   UNL A   1      34.247  32.649  27.969  1.00  0.00     0.161 A 
ATOM     21  C   UNL A   1      35.303  32.704  28.890  1.00  0.00     0.160 A 
ATOM     22  C   UNL A   1      35.365  33.757  29.799  1.00  0.00     0.050 A 
ATOM     23  C   UNL A   1      34.418  34.782  29.738  1.00  0.00     0.004 A 
ATOM     24  C   UNL A   1      33.296  33.659  27.906  1.00  0.00     0.050 A 
ATOM     25  C   UNL A   1      33.396  34.740  28.785  1.00  0.00     0.004 A 
BRANCH  21  26
ATOM     26  O   UNL A   1      36.202  31.678  28.677  1.00  0.00    -0.493 OA
ATOM     27  C   UNL A   1      37.429  30.348  28.275  1.00  0.00     0.278 C 
ENDBRANCH  21  26
ENDBRANCH  19  20
ENDBRANCH  14  19
ENDBRANCH   8  13
ENDBRANCH   4   7
ENDBRANCH   2   3
ENDBRANCH   1   2
BRANCH   1  28
ATOM     28  C   UNL A   1      33.070  22.816  24.904  1.00  0.00     0.002 C 
BRANCH  28  29
ATOM     29  C   UNL A   1      33.924  23.922  25.536  1.00  0.00     0.002 C 
BRANCH  29  30
ATOM     30  C   UNL A   1      35.396  23.943  25.108  1.00  0.00     0.021 C 
BRANCH  30  31
ATOM     31  C   UNL A   1      36.386  23.712  26.244  1.00  0.00     0.116 C 
BRANCH  31  32
ATOM     32  N   UNL A   1      37.126  22.477  26.064  1.00  0.00    -0.352 N 
ATOM     33  C   UNL A   1      38.479  22.262  26.089  1.00  0.00     0.251 C 
ATOM     34  H   UNL A   1      36.577  21.677  25.898  1.00  0.00     0.163 HD
ATOM     35  O   UNL A   1      38.947  21.212  25.664  1.00  0.00    -0.269 OA
BRANCH  33  36
ATOM     36  C   UNL A   1      39.378  23.306  26.623  1.00  0.00     0.039 A 
ATOM     37  C   UNL A   1      39.343  24.581  26.053  1.00  0.00     0.014 A 
ATOM     38  C   UNL A   1      40.269  23.021  27.662  1.00  0.00     0.014 A 
ATOM     39  C   UNL A   1      40.167  25.586  26.562  1.00  0.00     0.010 A 
ATOM     40  C   UNL A   1      41.041  24.041  28.211  1.00  0.00     0.010 A 
ATOM     41  C   UNL A   1      41.000  25.332  27.663  1.00  0.00    -0.014 A 
BRANCH  41  42
ATOM     42  C   UNL A   1      41.823  26.410  28.264  1.00  0.00     0.031 A 
ATOM     43  C   UNL A   1      43.296  26.489  27.977  1.00  0.00     0.074 A 
ATOM     44  C   UNL A   1      41.248  27.281  29.116  1.00  0.00     0.049 A 
ATOM     45  N   UNL A   1      44.189  27.318  28.457  1.00  0.00    -0.248 NA
ATOM     46  C   UNL A   1      43.847  25.489  27.048  1.00  0.00     0.031 C 
ATOM     47  C   UNL A   1      39.837  27.273  29.508  1.00  0.00     0.029 A 
ATOM     48  N   UNL A   1      41.780  28.333  29.818  1.00  0.00    -0.354 N 
ATOM     49  C   UNL A   1      45.401  26.932  27.902  1.00  0.00     0.074 A 
ATOM     50  C   UNL A   1      45.142  25.768  27.084  1.00  0.00     0.031 C 
ATOM     51  C   UNL A   1      39.612  28.282  30.364  1.00  0.00     0.029 A 
ATOM     52  C   UNL A   1      40.867  28.984  30.613  1.00  0.00     0.049 A 
ATOM     53  H   UNL A   1      42.727  28.598  29.757  1.00  0.00     0.167 HD
ATOM     54  C   UNL A   1      46.616  27.512  28.048  1.00  0.00     0.037 A 
ATOM     55  C   UNL A   1      41.030  30.021  31.456  1.00  0.00     0.037 A 
ATOM     56  C   UNL A   1      46.860  28.692  28.836  1.00  0.00     0.049 A 
ATOM     57  C   UNL A   1      42.394  30.641  31.598  1.00  0.00     0.074 A 
ATOM     58  C   UNL A   1      48.040  29.401  28.983  1.00  0.00     0.029 A 
ATOM     59  N   UNL A   1      45.908  29.335  29.613  1.00  0.00    -0.354 N 
ATOM     60  N   UNL A   1      43.517  30.318  31.001  1.00  0.00    -0.248 NA
ATOM     61  C   UNL A   1      42.514  31.772  32.528  1.00  0.00     0.031 C 
ATOM     62  C   UNL A   1      47.814  30.442  29.890  1.00  0.00     0.029 A 
ATOM     63  C   UNL A   1      46.481  30.414  30.265  1.00  0.00     0.049 A 
ATOM     64  H   UNL A   1      44.965  29.063  29.690  1.00  0.00     0.167 HD
ATOM     65  C   UNL A   1      44.464  31.223  31.459  1.00  0.00     0.074 A 
ATOM     66  C   UNL A   1      43.782  32.120  32.368  1.00  0.00     0.031 C 
ATOM     67  C   UNL A   1      45.783  31.302  31.158  1.00  0.00     0.037 A 
BRANCH  54  68
ATOM     68  C   UNL A   1      47.783  26.893  27.337  1.00  0.00     0.064 A 
ATOM     69  C   UNL A   1      48.155  27.294  26.045  1.00  0.00     0.173 A 
ATOM     70  C   UNL A   1      48.590  25.946  27.987  1.00  0.00     0.173 A 
ATOM     71  F   UNL A   1      47.412  28.189  25.377  1.00  0.00    -0.203 F 
ATOM     72  C   UNL A   1      49.282  26.761  25.426  1.00  0.00     0.198 A 
ATOM     73  C   UNL A   1      49.731  25.435  27.377  1.00  0.00     0.198 A 
ATOM     74  F   UNL A   1      48.281  25.533  29.227  1.00  0.00    -0.203 F 
ATOM     75  F   UNL A   1      49.601  27.136  24.179  1.00  0.00    -0.200 F 
ATOM     76  C   UNL A   1      50.075  25.840  26.096  1.00  0.00     0.200 A 
ATOM     77  F   UNL A   1      50.504  24.558  28.030  1.00  0.00    -0.200 F 
ATOM     78  F   UNL A   1      51.170  25.343  25.506  1.00  0.00    -0.200 F 
ENDBRANCH  54  68
BRANCH  55  79
ATOM     79  C   UNL A   1      39.875  30.548  32.230  1.00  0.00     0.064 A 
ATOM     80  C   UNL A   1      39.056  31.559  31.705  1.00  0.00     0.173 A 
ATOM     81  C   UNL A   1      39.586  30.080  33.520  1.00  0.00     0.173 A 
ATOM     82  F   UNL A   1      39.305  32.053  30.484  1.00  0.00    -0.203 F 
ATOM     83  C   UNL A   1      38.016  32.105  32.453  1.00  0.00     0.198 A 
ATOM     84  C   UNL A   1      38.525  30.605  34.255  1.00  0.00     0.198 A 
ATOM     85  F   UNL A   1      40.333  29.110  34.068  1.00  0.00    -0.203 F 
ATOM     86  F   UNL A   1      37.289  33.112  31.951  1.00  0.00    -0.200 F 
ATOM     87  C   UNL A   1      37.748  31.625  33.727  1.00  0.00     0.200 A 
ATOM     88  F   UNL A   1      38.260  30.127  35.479  1.00  0.00    -0.200 F 
ATOM     89  F   UNL A   1      36.751  32.153  34.449  1.00  0.00    -0.200 F 
ENDBRANCH  55  79
BRANCH  67  90
ATOM     90  C   UNL A   1      46.566  32.416  31.790  1.00  0.00     0.064 A 
ATOM     91  C   UNL A   1      46.679  33.674  31.180  1.00  0.00     0.173 A 
ATOM     92  C   UNL A   1      47.181  32.233  33.038  1.00  0.00     0.173 A 
ATOM     93  F   UNL A   1      46.123  33.894  29.979  1.00  0.00    -0.203 F 
ATOM     94  C   UNL A   1      47.402  34.699  31.783  1.00  0.00     0.198 A 
ATOM     95  C   UNL A   1      47.875  33.270  33.653  1.00  0.00     0.198 A 
ATOM     96  F   UNL A   1      47.096  31.052  33.668  1.00  0.00    -0.203 F 
ATOM     97  F   UNL A   1      47.541  35.876  31.157  1.00  0.00    -0.200 F 
ATOM     98  C   UNL A   1      47.993  34.499  33.022  1.00  0.00     0.200 A 
ATOM     99  F   UNL A   1      48.433  33.080  34.857  1.00  0.00    -0.200 F 
ATOM    100  F   UNL A   1      48.683  35.489  33.604  1.00  0.00    -0.200 F 
ENDBRANCH  67  90
ENDBRANCH  41  42
ENDBRANCH  33  36
ENDBRANCH  31  32
ENDBRANCH  30  31
ENDBRANCH  29  30
ENDBRANCH  28  29
ENDBRANCH   1  28
TORSDOF 17
ENDMDL
MODEL 3
REMARK VINA RESULT:     -11.7      1.159      2.124
REMARK SMILES COc1ccccc1OC1CCN(c2cccc(C(=O)NCCCCCCNC(=O)c3ccc(-c4c5nc(c(-c6c(F)c(F)c(F)c(F)c6F)c6ccc([nH]6)c(-c6c(F)c(F)c(F)c(F)c6F)c6nc(c(-c7c(F)c(F)c(F)c(F)c7F)c7ccc4[nH]7)C=C6)C=C5)cc3)n2)CC1
REMARK SMILES IDX 23 1 22 2 21 3 19 4 20 5 18 7 14 8 15 9 94 10 16 11 17 12
REMARK SMILES IDX 13 13 10 14 11 15 96 16 12 17 95 18 9 19 8 20 3 21 4 22 5 23
REMARK SMILES IDX 7 24 6 25 2 26 1 27 24 28 25 29 26 30 27 31 28 32 29 33
REMARK SMILES IDX 30 35 31 36 32 37 93 38 33 39 92 40 34 41 35 42 36 43 86 44
REMARK SMILES IDX 37 45 91 46 85 47 87 48 38 49 90 50 84 51 83 52 39 54 71 55
REMARK SMILES IDX 51 56 70 57 52 58 55 59 69 60 88 61 53 62 54 63 68 65 89 66
REMARK SMILES IDX 56 67 40 68 41 69 49 70 42 71 43 72 47 73 50 74 44 75 45 76
REMARK SMILES IDX 48 77 46 78 72 79 73 80 81 81 74 82 75 83 79 84 82 85 76 86
REMARK SMILES IDX 77 87 80 88 78 89 57 90 58 91 66 92 59 93 60 94 64 95 67 96
REMARK SMILES IDX 61 97 62 98 65 99 63 100
REMARK H PARENT 21 6 28 34 87 53 55 64
REMARK Flexibility Score: inf
ROOT
ATOM      1  C   UNL A   1      37.852  21.299  24.934  1.00  0.00     0.021 C 
ENDROOT
BRANCH   1   2
ATOM      2  C   UNL A   1      37.089  22.456  25.562  1.00  0.00     0.116 C 
BRANCH   2   3
ATOM      3  N   UNL A   1      36.094  21.993  26.496  1.00  0.00    -0.351 N 
ATOM      4  C   UNL A   1      34.741  21.779  26.439  1.00  0.00     0.269 C 
ATOM      5  O   UNL A   1      34.229  21.464  27.520  1.00  0.00    -0.268 OA
ATOM      6  H   UNL A   1      36.473  21.782  27.379  1.00  0.00     0.163 HD
BRANCH   4   7
ATOM      7  C   UNL A   1      33.875  21.867  25.204  1.00  0.00     0.130 A 
ATOM      8  C   UNL A   1      32.547  23.358  24.012  1.00  0.00     0.129 A 
ATOM      9  C   UNL A   1      32.040  22.341  23.221  1.00  0.00     0.047 A 
ATOM     10  N   UNL A   1      33.488  23.141  24.943  1.00  0.00    -0.226 NA
ATOM     11  C   UNL A   1      32.488  21.051  23.419  1.00  0.00     0.006 A 
ATOM     12  C   UNL A   1      33.383  20.805  24.454  1.00  0.00     0.034 A 
BRANCH   8  13
ATOM     13  N   UNL A   1      31.979  24.604  23.963  1.00  0.00    -0.356 N 
ATOM     14  C   UNL A   1      29.886  27.600  22.984  1.00  0.00     0.177 C 
ATOM     15  C   UNL A   1      29.239  26.320  24.302  1.00  0.00     0.066 C 
ATOM     16  C   UNL A   1      31.486  27.128  21.983  1.00  0.00     0.066 C 
ATOM     17  C   UNL A   1      30.431  24.906  24.906  1.00  0.00     0.122 C 
ATOM     18  C   UNL A   1      32.636  25.723  22.664  1.00  0.00     0.122 C 
BRANCH  14  19
ATOM     19  O   UNL A   1      30.240  28.807  23.721  1.00  0.00    -0.486 OA
BRANCH  19  20
ATOM     20  C   UNL A   1      29.508  29.861  23.211  1.00  0.00     0.161 A 
ATOM     21  C   UNL A   1      29.513  31.094  23.880  1.00  0.00     0.160 A 
ATOM     22  C   UNL A   1      28.759  32.151  23.375  1.00  0.00     0.050 A 
ATOM     23  C   UNL A   1      28.066  31.994  22.172  1.00  0.00     0.004 A 
ATOM     24  C   UNL A   1      28.815  29.695  22.019  1.00  0.00     0.050 A 
ATOM     25  C   UNL A   1      28.107  30.775  21.490  1.00  0.00     0.004 A 
BRANCH  21  26
ATOM     26  O   UNL A   1      30.378  31.073  24.956  1.00  0.00    -0.493 OA
ATOM     27  C   UNL A   1      31.636  31.063  26.317  1.00  0.00     0.278 C 
ENDBRANCH  21  26
ENDBRANCH  19  20
ENDBRANCH  14  19
ENDBRANCH   8  13
ENDBRANCH   4   7
ENDBRANCH   2   3
ENDBRANCH   1   2
BRANCH   1  28
ATOM     28  C   UNL A   1      38.986  20.761  25.807  1.00  0.00     0.002 C 
BRANCH  28  29
ATOM     29  C   UNL A   1      39.865  21.830  26.468  1.00  0.00     0.002 C 
BRANCH  29  30
ATOM     30  C   UNL A   1      41.373  21.680  26.232  1.00  0.00     0.021 C 
BRANCH  30  31
ATOM     31  C   UNL A   1      42.039  22.905  25.616  1.00  0.00     0.116 C 
BRANCH  31  32
ATOM     32  N   UNL A   1      43.484  22.774  25.599  1.00  0.00    -0.352 N 
ATOM     33  C   UNL A   1      44.433  23.532  26.232  1.00  0.00     0.251 C 
ATOM     34  H   UNL A   1      43.833  22.034  25.052  1.00  0.00     0.163 HD
ATOM     35  O   UNL A   1      45.612  23.446  25.906  1.00  0.00    -0.269 OA
BRANCH  33  36
ATOM     36  C   UNL A   1      44.033  24.463  27.306  1.00  0.00     0.039 A 
ATOM     37  C   UNL A   1      44.469  25.789  27.246  1.00  0.00     0.014 A 
ATOM     38  C   UNL A   1      43.253  24.025  28.381  1.00  0.00     0.014 A 
ATOM     39  C   UNL A   1      44.079  26.689  28.240  1.00  0.00     0.010 A 
ATOM     40  C   UNL A   1      42.811  24.938  29.334  1.00  0.00     0.010 A 
ATOM     41  C   UNL A   1      43.223  26.278  29.274  1.00  0.00    -0.014 A 
BRANCH  41  42
ATOM     42  C   UNL A   1      42.737  27.241  30.293  1.00  0.00     0.031 A 
ATOM     43  C   UNL A   1      43.423  27.345  31.626  1.00  0.00     0.074 A 
ATOM     44  C   UNL A   1      41.639  27.977  30.032  1.00  0.00     0.049 A 
ATOM     45  N   UNL A   1      43.107  28.080  32.663  1.00  0.00    -0.248 NA
ATOM     46  C   UNL A   1      44.605  26.493  31.834  1.00  0.00     0.031 C 
ATOM     47  C   UNL A   1      40.862  27.926  28.793  1.00  0.00     0.029 A 
ATOM     48  N   UNL A   1      40.977  28.903  30.800  1.00  0.00    -0.354 N 
ATOM     49  C   UNL A   1      44.039  27.769  33.644  1.00  0.00     0.074 A 
ATOM     50  C   UNL A   1      44.906  26.748  33.099  1.00  0.00     0.031 C 
ATOM     51  C   UNL A   1      39.842  28.794  28.876  1.00  0.00     0.029 A 
ATOM     52  C   UNL A   1      39.868  29.434  30.188  1.00  0.00     0.049 A 
ATOM     53  H   UNL A   1      41.271  29.162  31.703  1.00  0.00     0.167 HD
ATOM     54  C   UNL A   1      44.168  28.306  34.881  1.00  0.00     0.037 A 
ATOM     55  C   UNL A   1      38.968  30.327  30.641  1.00  0.00     0.037 A 
ATOM     56  C   UNL A   1      43.324  29.347  35.404  1.00  0.00     0.049 A 
ATOM     57  C   UNL A   1      39.139  30.901  32.021  1.00  0.00     0.074 A 
ATOM     58  C   UNL A   1      43.424  30.011  36.614  1.00  0.00     0.029 A 
ATOM     59  N   UNL A   1      42.220  29.874  34.749  1.00  0.00    -0.354 N 
ATOM     60  N   UNL A   1      40.074  30.661  32.908  1.00  0.00    -0.248 NA
ATOM     61  C   UNL A   1      38.130  31.875  32.463  1.00  0.00     0.031 C 
ATOM     62  C   UNL A   1      42.351  30.903  36.713  1.00  0.00     0.029 A 
ATOM     63  C   UNL A   1      41.614  30.833  35.543  1.00  0.00     0.049 A 
ATOM     64  H   UNL A   1      41.914  29.605  33.853  1.00  0.00     0.167 HD
ATOM     65  C   UNL A   1      39.785  31.473  33.996  1.00  0.00     0.074 A 
ATOM     66  C   UNL A   1      38.598  32.228  33.651  1.00  0.00     0.031 C 
ATOM     67  C   UNL A   1      40.439  31.582  35.178  1.00  0.00     0.037 A 
BRANCH  54  68
ATOM     68  C   UNL A   1      45.268  27.789  35.762  1.00  0.00     0.064 A 
ATOM     69  C   UNL A   1      45.077  26.685  36.606  1.00  0.00     0.173 A 
ATOM     70  C   UNL A   1      46.552  28.354  35.700  1.00  0.00     0.173 A 
ATOM     71  F   UNL A   1      43.867  26.116  36.709  1.00  0.00    -0.203 F 
ATOM     72  C   UNL A   1      46.127  26.174  37.365  1.00  0.00     0.198 A 
ATOM     73  C   UNL A   1      47.605  27.823  36.438  1.00  0.00     0.198 A 
ATOM     74  F   UNL A   1      46.789  29.408  34.903  1.00  0.00    -0.203 F 
ATOM     75  F   UNL A   1      45.913  25.138  38.188  1.00  0.00    -0.200 F 
ATOM     76  C   UNL A   1      47.392  26.737  37.273  1.00  0.00     0.200 A 
ATOM     77  F   UNL A   1      48.829  28.358  36.337  1.00  0.00    -0.200 F 
ATOM     78  F   UNL A   1      48.405  26.231  37.989  1.00  0.00    -0.200 F 
ENDBRANCH  54  68
BRANCH  55  79
ATOM     79  C   UNL A   1      37.826  30.743  29.784  1.00  0.00     0.064 A 
ATOM     80  C   UNL A   1      36.772  29.861  29.507  1.00  0.00     0.173 A 
ATOM     81  C   UNL A   1      37.781  32.016  29.196  1.00  0.00     0.173 A 
ATOM     82  F   UNL A   1      36.781  28.626  30.030  1.00  0.00    -0.203 F 
ATOM     83  C   UNL A   1      35.737  30.221  28.649  1.00  0.00     0.198 A 
ATOM     84  C   UNL A   1      36.728  32.387  28.363  1.00  0.00     0.198 A 
ATOM     85  F   UNL A   1      38.760  32.902  29.432  1.00  0.00    -0.203 F 
ATOM     86  F   UNL A   1      34.776  29.335  28.353  1.00  0.00    -0.200 F 
ATOM     87  C   UNL A   1      35.713  31.486  28.079  1.00  0.00     0.200 A 
ATOM     88  F   UNL A   1      36.701  33.616  27.828  1.00  0.00    -0.200 F 
ATOM     89  F   UNL A   1      34.720  31.831  27.250  1.00  0.00    -0.200 F 
ENDBRANCH  55  79
BRANCH  67  90
ATOM     90  C   UNL A   1      39.908  32.576  36.169  1.00  0.00     0.064 A 
ATOM     91  C   UNL A   1      38.832  32.269  37.014  1.00  0.00     0.173 A 
ATOM     92  C   UNL A   1      40.506  33.840  36.298  1.00  0.00     0.173 A 
ATOM     93  F   UNL A   1      38.215  31.081  36.917  1.00  0.00    -0.203 F 
ATOM     94  C   UNL A   1      38.356  33.200  37.932  1.00  0.00     0.198 A 
ATOM     95  C   UNL A   1      40.048  34.755  37.240  1.00  0.00     0.198 A 
ATOM     96  F   UNL A   1      41.543  34.180  35.519  1.00  0.00    -0.203 F 
ATOM     97  F   UNL A   1      37.292  32.904  38.693  1.00  0.00    -0.200 F 
ATOM     98  C   UNL A   1      38.968  34.438  38.051  1.00  0.00     0.200 A 
ATOM     99  F   UNL A   1      40.651  35.945  37.363  1.00  0.00    -0.200 F 
ATOM    100  F   UNL A   1      38.513  35.330  38.941  1.00  0.00    -0.200 F 
ENDBRANCH  67  90
ENDBRANCH  41  42
ENDBRANCH  33  36
ENDBRANCH  31  32
ENDBRANCH  30  31
ENDBRANCH  29  30
ENDBRANCH  28  29
ENDBRANCH   1  28
TORSDOF 17
ENDMDL
