MODEL 1
REMARK VINA RESULT:     -13.9      0.000      0.000
REMARK SMILES Cc1cc(C(=O)NCCCCCCNC(=O)c2ccc(-c3c4nc(c(-c5c(F)c(F)c(F)c(F)c5F)c5ccc([nH]5)c(-c5c(F)c(F)c(F)c(F)c5F)c5nc(c(-c6c(F)c(F)c(F)c(F)c6F)c6ccc3[nH]6)C=C5)C=C4)cc2)ccc1NS(=O)(=O)c1c(F)cccc1F
REMARK SMILES IDX 10 1 9 2 8 3 7 4 5 5 6 6 4 8 1 9 2 10 3 11 82 12 81 13 80 14
REMARK SMILES IDX 83 15 84 17 85 18 86 19 87 20 88 21 93 22 89 23 90 24 92 25
REMARK SMILES IDX 94 26 91 27 11 28 12 29 13 30 14 31 15 32 16 34 17 35 18 36
REMARK SMILES IDX 79 37 19 38 78 39 20 40 21 41 22 42 72 43 23 44 77 45 71 46
REMARK SMILES IDX 73 47 24 48 76 49 70 50 69 51 25 53 57 54 37 55 56 56 38 57
REMARK SMILES IDX 41 58 55 59 74 60 39 61 40 62 54 64 75 65 42 66 26 67 27 68
REMARK SMILES IDX 35 69 28 70 29 71 33 72 36 73 30 74 31 75 34 76 32 77 58 78
REMARK SMILES IDX 59 79 67 80 60 81 61 82 65 83 68 84 62 85 63 86 66 87 64 88
REMARK SMILES IDX 43 89 44 90 52 91 45 92 46 93 50 94 53 95 47 96 48 97 51 98
REMARK SMILES IDX 49 99
REMARK H PARENT 7 7 83 16 14 33 73 52 41 63
REMARK Flexibility Score: inf
ROOT
ATOM      1  C   UNL A   1      35.669  22.900  25.372  1.00  0.00     0.002 C 
ENDROOT
BRANCH   1   2
ATOM      2  C   UNL A   1      35.439  21.535  26.032  1.00  0.00     0.021 C 
BRANCH   2   3
ATOM      3  C   UNL A   1      35.432  20.301  25.127  1.00  0.00     0.116 C 
BRANCH   3   4
ATOM      4  N   UNL A   1      34.307  19.409  25.336  1.00  0.00    -0.352 N 
ATOM      5  C   UNL A   1      32.977  19.540  25.000  1.00  0.00     0.251 C 
ATOM      6  O   UNL A   1      32.199  18.639  25.305  1.00  0.00    -0.269 OA
ATOM      7  H   UNL A   1      34.531  18.568  25.798  1.00  0.00     0.163 HD
BRANCH   5   8
ATOM      8  C   UNL A   1      32.440  20.770  24.354  1.00  0.00     0.040 A 
ATOM      9  C   UNL A   1      30.821  23.978  25.581  1.00  0.00     0.046 C 
ATOM     10  C   UNL A   1      31.538  23.016  24.672  1.00  0.00    -0.026 A 
ATOM     11  C   UNL A   1      31.880  21.751  25.181  1.00  0.00     0.019 A 
ATOM     12  C   UNL A   1      31.850  23.311  23.335  1.00  0.00     0.052 A 
ATOM     13  C   UNL A   1      32.141  22.255  22.467  1.00  0.00     0.028 A 
ATOM     14  C   UNL A   1      32.441  20.986  22.977  1.00  0.00     0.016 A 
BRANCH  12  15
ATOM     15  N   UNL A   1      32.011  24.683  22.979  1.00  0.00    -0.279 N 
ATOM     16  H   UNL A   1      31.194  25.231  22.994  1.00  0.00     0.180 HD
BRANCH  15  17
ATOM     17  S   UNL A   1      33.417  25.472  22.539  1.00  0.00     0.267 S 
ATOM     18  O   UNL A   1      34.492  24.500  22.725  1.00  0.00    -0.201 OA
ATOM     19  O   UNL A   1      33.152  26.058  21.258  1.00  0.00    -0.201 OA
BRANCH  17  20
ATOM     20  C   UNL A   1      33.716  26.794  23.650  1.00  0.00     0.158 A 
ATOM     21  C   UNL A   1      33.729  26.503  25.009  1.00  0.00     0.146 A 
ATOM     22  C   UNL A   1      33.816  28.116  23.242  1.00  0.00     0.146 A 
ATOM     23  F   UNL A   1      33.727  25.238  25.448  1.00  0.00    -0.205 F 
ATOM     24  C   UNL A   1      33.750  27.524  25.959  1.00  0.00     0.041 A 
ATOM     25  C   UNL A   1      33.809  29.149  24.184  1.00  0.00     0.041 A 
ATOM     26  F   UNL A   1      33.891  28.453  21.948  1.00  0.00    -0.205 F 
ATOM     27  C   UNL A   1      33.757  28.854  25.547  1.00  0.00     0.006 A 
ENDBRANCH  17  20
ENDBRANCH  15  17
ENDBRANCH  12  15
ENDBRANCH   5   8
ENDBRANCH   3   4
ENDBRANCH   2   3
ENDBRANCH   1   2
BRANCH   1  28
ATOM     28  C   UNL A   1      37.042  23.566  25.554  1.00  0.00     0.002 C 
BRANCH  28  29
ATOM     29  C   UNL A   1      38.276  22.674  25.405  1.00  0.00     0.021 C 
BRANCH  29  30
ATOM     30  C   UNL A   1      39.161  22.581  26.642  1.00  0.00     0.116 C 
BRANCH  30  31
ATOM     31  N   UNL A   1      40.576  22.848  26.400  1.00  0.00    -0.352 N 
ATOM     32  C   UNL A   1      41.244  24.059  26.385  1.00  0.00     0.251 C 
ATOM     33  H   UNL A   1      41.131  22.055  26.222  1.00  0.00     0.163 HD
ATOM     34  O   UNL A   1      42.441  24.108  26.125  1.00  0.00    -0.269 OA
BRANCH  32  35
ATOM     35  C   UNL A   1      40.529  25.286  26.808  1.00  0.00     0.039 A 
ATOM     36  C   UNL A   1      40.804  26.481  26.132  1.00  0.00     0.014 A 
ATOM     37  C   UNL A   1      39.755  25.298  27.964  1.00  0.00     0.014 A 
ATOM     38  C   UNL A   1      40.520  27.696  26.753  1.00  0.00     0.010 A 
ATOM     39  C   UNL A   1      39.561  26.495  28.625  1.00  0.00     0.010 A 
ATOM     40  C   UNL A   1      40.009  27.688  28.050  1.00  0.00    -0.014 A 
BRANCH  40  41
ATOM     41  C   UNL A   1      40.011  28.857  28.924  1.00  0.00     0.031 A 
ATOM     42  C   UNL A   1      38.957  29.886  28.813  1.00  0.00     0.074 A 
ATOM     43  C   UNL A   1      40.936  28.938  29.907  1.00  0.00     0.049 A 
ATOM     44  N   UNL A   1      39.050  31.078  29.297  1.00  0.00    -0.248 NA
ATOM     45  C   UNL A   1      37.705  29.648  28.106  1.00  0.00     0.031 C 
ATOM     46  C   UNL A   1      40.955  29.860  31.040  1.00  0.00     0.029 A 
ATOM     47  N   UNL A   1      42.197  28.321  29.942  1.00  0.00    -0.354 N 
ATOM     48  C   UNL A   1      37.822  31.685  29.176  1.00  0.00     0.074 A 
ATOM     49  C   UNL A   1      37.026  30.761  28.400  1.00  0.00     0.031 C 
ATOM     50  C   UNL A   1      42.223  30.000  31.458  1.00  0.00     0.029 A 
ATOM     51  C   UNL A   1      43.063  29.285  30.514  1.00  0.00     0.049 A 
ATOM     52  H   UNL A   1      42.429  27.414  29.636  1.00  0.00     0.167 HD
ATOM     53  C   UNL A   1      37.591  32.862  29.828  1.00  0.00     0.037 A 
ATOM     54  C   UNL A   1      44.073  29.836  29.779  1.00  0.00     0.037 A 
ATOM     55  C   UNL A   1      38.798  33.359  30.483  1.00  0.00     0.049 A 
ATOM     56  C   UNL A   1      43.983  31.337  29.605  1.00  0.00     0.074 A 
ATOM     57  C   UNL A   1      39.304  33.282  31.771  1.00  0.00     0.029 A 
ATOM     58  N   UNL A   1      39.837  33.806  29.690  1.00  0.00    -0.354 N 
ATOM     59  N   UNL A   1      42.967  32.063  29.982  1.00  0.00    -0.248 NA
ATOM     60  C   UNL A   1      44.994  32.122  28.891  1.00  0.00     0.031 C 
ATOM     61  C   UNL A   1      40.676  33.657  31.730  1.00  0.00     0.029 A 
ATOM     62  C   UNL A   1      40.997  33.967  30.421  1.00  0.00     0.049 A 
ATOM     63  H   UNL A   1      39.760  33.987  28.725  1.00  0.00     0.167 HD
ATOM     64  C   UNL A   1      43.145  33.346  29.546  1.00  0.00     0.074 A 
ATOM     65  C   UNL A   1      44.426  33.339  28.866  1.00  0.00     0.031 C 
ATOM     66  C   UNL A   1      42.219  34.327  29.731  1.00  0.00     0.037 A 
BRANCH  53  67
ATOM     67  C   UNL A   1      36.222  33.460  30.045  1.00  0.00     0.064 A 
ATOM     68  C   UNL A   1      35.485  33.978  28.958  1.00  0.00     0.173 A 
ATOM     69  C   UNL A   1      35.599  33.593  31.298  1.00  0.00     0.173 A 
ATOM     70  F   UNL A   1      35.907  33.838  27.695  1.00  0.00    -0.203 F 
ATOM     71  C   UNL A   1      34.284  34.672  29.129  1.00  0.00     0.198 A 
ATOM     72  C   UNL A   1      34.431  34.340  31.478  1.00  0.00     0.198 A 
ATOM     73  F   UNL A   1      36.068  32.956  32.378  1.00  0.00    -0.203 F 
ATOM     74  F   UNL A   1      33.630  35.142  28.058  1.00  0.00    -0.200 F 
ATOM     75  C   UNL A   1      33.778  34.889  30.394  1.00  0.00     0.200 A 
ATOM     76  F   UNL A   1      33.942  34.523  32.713  1.00  0.00    -0.200 F 
ATOM     77  F   UNL A   1      32.656  35.601  30.563  1.00  0.00    -0.200 F 
ENDBRANCH  53  67
BRANCH  54  78
ATOM     78  C   UNL A   1      44.625  28.899  28.763  1.00  0.00     0.064 A 
ATOM     79  C   UNL A   1      45.457  27.848  29.198  1.00  0.00     0.173 A 
ATOM     80  C   UNL A   1      44.075  28.801  27.481  1.00  0.00     0.173 A 
ATOM     81  F   UNL A   1      46.011  27.892  30.421  1.00  0.00    -0.203 F 
ATOM     82  C   UNL A   1      45.618  26.693  28.439  1.00  0.00     0.198 A 
ATOM     83  C   UNL A   1      44.262  27.652  26.712  1.00  0.00     0.198 A 
ATOM     84  F   UNL A   1      43.259  29.757  27.014  1.00  0.00    -0.203 F 
ATOM     85  F   UNL A   1      46.305  25.655  28.938  1.00  0.00    -0.200 F 
ATOM     86  C   UNL A   1      44.998  26.585  27.206  1.00  0.00     0.200 A 
ATOM     87  F   UNL A   1      43.640  27.538  25.529  1.00  0.00    -0.200 F 
ATOM     88  F   UNL A   1      45.071  25.441  26.514  1.00  0.00    -0.200 F 
ENDBRANCH  54  78
BRANCH  66  89
ATOM     89  C   UNL A   1      42.426  35.730  29.263  1.00  0.00     0.064 A 
ATOM     90  C   UNL A   1      41.870  36.196  28.062  1.00  0.00     0.173 A 
ATOM     91  C   UNL A   1      43.284  36.609  29.950  1.00  0.00     0.173 A 
ATOM     92  F   UNL A   1      41.067  35.409  27.331  1.00  0.00    -0.203 F 
ATOM     93  C   UNL A   1      42.140  37.480  27.589  1.00  0.00     0.198 A 
ATOM     94  C   UNL A   1      43.588  37.873  29.451  1.00  0.00     0.198 A 
ATOM     95  F   UNL A   1      43.829  36.266  31.127  1.00  0.00    -0.203 F 
ATOM     96  F   UNL A   1      41.559  37.908  26.459  1.00  0.00    -0.200 F 
ATOM     97  C   UNL A   1      43.010  38.312  28.275  1.00  0.00     0.200 A 
ATOM     98  F   UNL A   1      44.441  38.663  30.118  1.00  0.00    -0.200 F 
ATOM     99  F   UNL A   1      43.285  39.536  27.806  1.00  0.00    -0.200 F 
ENDBRANCH  66  89
ENDBRANCH  40  41
ENDBRANCH  32  35
ENDBRANCH  30  31
ENDBRANCH  29  30
ENDBRANCH  28  29
ENDBRANCH   1  28
TORSDOF 16
ENDMDL
MODEL 2
REMARK VINA RESULT:     -13.8      3.856      9.732
REMARK SMILES Cc1cc(C(=O)NCCCCCCNC(=O)c2ccc(-c3c4nc(c(-c5c(F)c(F)c(F)c(F)c5F)c5ccc([nH]5)c(-c5c(F)c(F)c(F)c(F)c5F)c5nc(c(-c6c(F)c(F)c(F)c(F)c6F)c6ccc3[nH]6)C=C5)C=C4)cc2)ccc1NS(=O)(=O)c1c(F)cccc1F
REMARK SMILES IDX 10 1 9 2 8 3 7 4 5 5 6 6 4 8 1 9 2 10 3 11 82 12 81 13 80 14
REMARK SMILES IDX 83 15 84 17 85 18 86 19 87 20 88 21 93 22 89 23 90 24 92 25
REMARK SMILES IDX 94 26 91 27 11 28 12 29 13 30 14 31 15 32 16 34 17 35 18 36
REMARK SMILES IDX 79 37 19 38 78 39 20 40 21 41 22 42 72 43 23 44 77 45 71 46
REMARK SMILES IDX 73 47 24 48 76 49 70 50 69 51 25 53 57 54 37 55 56 56 38 57
REMARK SMILES IDX 41 58 55 59 74 60 39 61 40 62 54 64 75 65 42 66 26 67 27 68
REMARK SMILES IDX 35 69 28 70 29 71 33 72 36 73 30 74 31 75 34 76 32 77 58 78
REMARK SMILES IDX 59 79 67 80 60 81 61 82 65 83 68 84 62 85 63 86 66 87 64 88
REMARK SMILES IDX 43 89 44 90 52 91 45 92 46 93 50 94 53 95 47 96 48 97 51 98
REMARK SMILES IDX 49 99
REMARK H PARENT 7 7 83 16 14 33 73 52 41 63
REMARK Flexibility Score: inf
ROOT
ATOM      1  C   UNL A   1      31.221  27.925  26.187  1.00  0.00     0.002 C 
ENDROOT
BRANCH   1   2
ATOM      2  C   UNL A   1      31.196  26.423  26.494  1.00  0.00     0.021 C 
BRANCH   2   3
ATOM      3  C   UNL A   1      30.201  25.556  25.719  1.00  0.00     0.116 C 
BRANCH   3   4
ATOM      4  N   UNL A   1      29.520  24.559  26.522  1.00  0.00    -0.352 N 
ATOM      5  C   UNL A   1      29.930  23.319  26.961  1.00  0.00     0.251 C 
ATOM      6  O   UNL A   1      29.151  22.639  27.626  1.00  0.00    -0.269 OA
ATOM      7  H   UNL A   1      28.608  24.810  26.799  1.00  0.00     0.163 HD
BRANCH   5   8
ATOM      8  C   UNL A   1      31.252  22.744  26.588  1.00  0.00     0.040 A 
ATOM      9  C   UNL A   1      32.556  20.593  23.743  1.00  0.00     0.046 C 
ATOM     10  C   UNL A   1      32.558  21.546  24.908  1.00  0.00    -0.026 A 
ATOM     11  C   UNL A   1      31.319  21.954  25.433  1.00  0.00     0.019 A 
ATOM     12  C   UNL A   1      33.734  22.018  25.511  1.00  0.00     0.052 A 
ATOM     13  C   UNL A   1      33.656  22.558  26.797  1.00  0.00     0.028 A 
ATOM     14  C   UNL A   1      32.416  22.926  27.333  1.00  0.00     0.016 A 
BRANCH  12  15
ATOM     15  N   UNL A   1      34.915  22.068  24.713  1.00  0.00    -0.279 N 
ATOM     16  H   UNL A   1      35.394  21.216  24.597  1.00  0.00     0.180 HD
BRANCH  15  17
ATOM     17  S   UNL A   1      35.585  23.396  23.951  1.00  0.00     0.267 S 
ATOM     18  O   UNL A   1      36.370  24.085  24.972  1.00  0.00    -0.201 OA
ATOM     19  O   UNL A   1      36.191  22.894  22.753  1.00  0.00    -0.201 OA
BRANCH  17  20
ATOM     20  C   UNL A   1      34.308  24.489  23.454  1.00  0.00     0.158 A 
ATOM     21  C   UNL A   1      33.584  24.159  22.315  1.00  0.00     0.146 A 
ATOM     22  C   UNL A   1      34.076  25.711  24.070  1.00  0.00     0.146 A 
ATOM     23  F   UNL A   1      33.707  22.956  21.739  1.00  0.00    -0.205 F 
ATOM     24  C   UNL A   1      32.702  25.071  21.738  1.00  0.00     0.041 A 
ATOM     25  C   UNL A   1      33.216  26.645  23.486  1.00  0.00     0.041 A 
ATOM     26  F   UNL A   1      34.682  26.052  25.214  1.00  0.00    -0.205 F 
ATOM     27  C   UNL A   1      32.540  26.332  22.306  1.00  0.00     0.006 A 
ENDBRANCH  17  20
ENDBRANCH  15  17
ENDBRANCH  12  15
ENDBRANCH   5   8
ENDBRANCH   3   4
ENDBRANCH   2   3
ENDBRANCH   1   2
BRANCH   1  28
ATOM     28  C   UNL A   1      31.638  28.884  27.313  1.00  0.00     0.002 C 
BRANCH  28  29
ATOM     29  C   UNL A   1      32.741  29.896  26.995  1.00  0.00     0.021 C 
BRANCH  29  30
ATOM     30  C   UNL A   1      34.086  29.617  27.655  1.00  0.00     0.116 C 
BRANCH  30  31
ATOM     31  N   UNL A   1      34.660  30.752  28.371  1.00  0.00    -0.352 N 
ATOM     32  C   UNL A   1      35.914  30.879  28.942  1.00  0.00     0.251 C 
ATOM     33  H   UNL A   1      34.073  31.537  28.460  1.00  0.00     0.163 HD
ATOM     34  O   UNL A   1      36.225  31.900  29.545  1.00  0.00    -0.269 OA
BRANCH  32  35
ATOM     35  C   UNL A   1      36.925  29.819  28.713  1.00  0.00     0.039 A 
ATOM     36  C   UNL A   1      37.158  28.892  29.736  1.00  0.00     0.014 A 
ATOM     37  C   UNL A   1      37.757  29.857  27.599  1.00  0.00     0.014 A 
ATOM     38  C   UNL A   1      38.360  28.187  29.756  1.00  0.00     0.010 A 
ATOM     39  C   UNL A   1      38.989  29.237  27.666  1.00  0.00     0.010 A 
ATOM     40  C   UNL A   1      39.318  28.459  28.780  1.00  0.00    -0.014 A 
BRANCH  40  41
ATOM     41  C   UNL A   1      40.720  28.069  28.896  1.00  0.00     0.031 A 
ATOM     42  C   UNL A   1      41.197  26.788  28.337  1.00  0.00     0.074 A 
ATOM     43  C   UNL A   1      41.599  28.943  29.436  1.00  0.00     0.049 A 
ATOM     44  N   UNL A   1      42.308  26.221  28.665  1.00  0.00    -0.248 NA
ATOM     45  C   UNL A   1      40.424  26.022  27.368  1.00  0.00     0.031 C 
ATOM     46  C   UNL A   1      43.059  28.874  29.403  1.00  0.00     0.029 A 
ATOM     47  N   UNL A   1      41.322  29.982  30.339  1.00  0.00    -0.354 N 
ATOM     48  C   UNL A   1      42.514  25.160  27.815  1.00  0.00     0.074 A 
ATOM     49  C   UNL A   1      41.295  25.062  27.043  1.00  0.00     0.031 C 
ATOM     50  C   UNL A   1      43.543  29.568  30.445  1.00  0.00     0.029 A 
ATOM     51  C   UNL A   1      42.407  29.977  31.251  1.00  0.00     0.049 A 
ATOM     52  H   UNL A   1      40.542  30.583  30.339  1.00  0.00     0.167 HD
ATOM     53  C   UNL A   1      43.731  24.543  27.797  1.00  0.00     0.037 A 
ATOM     54  C   UNL A   1      42.211  29.656  32.563  1.00  0.00     0.037 A 
ATOM     55  C   UNL A   1      44.617  25.074  28.829  1.00  0.00     0.049 A 
ATOM     56  C   UNL A   1      42.977  28.440  33.039  1.00  0.00     0.074 A 
ATOM     57  C   UNL A   1      45.621  26.030  28.847  1.00  0.00     0.029 A 
ATOM     58  N   UNL A   1      44.314  24.812  30.151  1.00  0.00    -0.354 N 
ATOM     59  N   UNL A   1      43.660  27.649  32.259  1.00  0.00    -0.248 NA
ATOM     60  C   UNL A   1      42.940  27.962  34.423  1.00  0.00     0.031 C 
ATOM     61  C   UNL A   1      45.890  26.362  30.205  1.00  0.00     0.029 A 
ATOM     62  C   UNL A   1      45.055  25.604  31.005  1.00  0.00     0.049 A 
ATOM     63  H   UNL A   1      43.654  24.144  30.447  1.00  0.00     0.167 HD
ATOM     64  C   UNL A   1      44.101  26.576  32.983  1.00  0.00     0.074 A 
ATOM     65  C   UNL A   1      43.625  26.811  34.333  1.00  0.00     0.031 C 
ATOM     66  C   UNL A   1      44.792  25.541  32.429  1.00  0.00     0.037 A 
BRANCH  53  67
ATOM     67  C   UNL A   1      44.191  23.600  26.712  1.00  0.00     0.064 A 
ATOM     68  C   UNL A   1      43.661  22.295  26.624  1.00  0.00     0.173 A 
ATOM     69  C   UNL A   1      45.178  23.903  25.757  1.00  0.00     0.173 A 
ATOM     70  F   UNL A   1      42.648  21.895  27.403  1.00  0.00    -0.203 F 
ATOM     71  C   UNL A   1      44.162  21.341  25.732  1.00  0.00     0.198 A 
ATOM     72  C   UNL A   1      45.722  22.934  24.909  1.00  0.00     0.198 A 
ATOM     73  F   UNL A   1      45.606  25.158  25.575  1.00  0.00    -0.203 F 
ATOM     74  F   UNL A   1      43.618  20.117  25.696  1.00  0.00    -0.200 F 
ATOM     75  C   UNL A   1      45.221  21.649  24.904  1.00  0.00     0.200 A 
ATOM     76  F   UNL A   1      46.738  23.256  24.095  1.00  0.00    -0.200 F 
ATOM     77  F   UNL A   1      45.737  20.719  24.088  1.00  0.00    -0.200 F 
ENDBRANCH  53  67
BRANCH  54  78
ATOM     78  C   UNL A   1      40.867  30.056  33.061  1.00  0.00     0.064 A 
ATOM     79  C   UNL A   1      40.581  31.430  33.199  1.00  0.00     0.173 A 
ATOM     80  C   UNL A   1      39.787  29.168  33.048  1.00  0.00     0.173 A 
ATOM     81  F   UNL A   1      41.582  32.325  33.217  1.00  0.00    -0.203 F 
ATOM     82  C   UNL A   1      39.271  31.900  33.187  1.00  0.00     0.198 A 
ATOM     83  C   UNL A   1      38.474  29.643  33.064  1.00  0.00     0.198 A 
ATOM     84  F   UNL A   1      39.988  27.852  32.900  1.00  0.00    -0.203 F 
ATOM     85  F   UNL A   1      39.034  33.220  33.184  1.00  0.00    -0.200 F 
ATOM     86  C   UNL A   1      38.218  31.006  33.093  1.00  0.00     0.200 A 
ATOM     87  F   UNL A   1      37.456  28.779  32.947  1.00  0.00    -0.200 F 
ATOM     88  F   UNL A   1      36.962  31.457  32.985  1.00  0.00    -0.200 F 
ENDBRANCH  54  78
BRANCH  66  89
ATOM     89  C   UNL A   1      45.281  24.378  33.227  1.00  0.00     0.064 A 
ATOM     90  C   UNL A   1      44.487  23.239  33.433  1.00  0.00     0.173 A 
ATOM     91  C   UNL A   1      46.513  24.426  33.905  1.00  0.00     0.173 A 
ATOM     92  F   UNL A   1      43.285  23.131  32.850  1.00  0.00    -0.203 F 
ATOM     93  C   UNL A   1      44.916  22.196  34.253  1.00  0.00     0.198 A 
ATOM     94  C   UNL A   1      46.918  23.402  34.758  1.00  0.00     0.198 A 
ATOM     95  F   UNL A   1      47.357  25.455  33.737  1.00  0.00    -0.203 F 
ATOM     96  F   UNL A   1      44.152  21.104  34.395  1.00  0.00    -0.200 F 
ATOM     97  C   UNL A   1      46.124  22.284  34.926  1.00  0.00     0.200 A 
ATOM     98  F   UNL A   1      48.083  23.506  35.414  1.00  0.00    -0.200 F 
ATOM     99  F   UNL A   1      46.524  21.290  35.730  1.00  0.00    -0.200 F 
ENDBRANCH  66  89
ENDBRANCH  40  41
ENDBRANCH  32  35
ENDBRANCH  30  31
ENDBRANCH  29  30
ENDBRANCH  28  29
ENDBRANCH   1  28
TORSDOF 16
ENDMDL
MODEL 3
REMARK VINA RESULT:     -13.7      3.902     10.155
REMARK SMILES Cc1cc(C(=O)NCCCCCCNC(=O)c2ccc(-c3c4nc(c(-c5c(F)c(F)c(F)c(F)c5F)c5ccc([nH]5)c(-c5c(F)c(F)c(F)c(F)c5F)c5nc(c(-c6c(F)c(F)c(F)c(F)c6F)c6ccc3[nH]6)C=C5)C=C4)cc2)ccc1NS(=O)(=O)c1c(F)cccc1F
REMARK SMILES IDX 10 1 9 2 8 3 7 4 5 5 6 6 4 8 1 9 2 10 3 11 82 12 81 13 80 14
REMARK SMILES IDX 83 15 84 17 85 18 86 19 87 20 88 21 93 22 89 23 90 24 92 25
REMARK SMILES IDX 94 26 91 27 11 28 12 29 13 30 14 31 15 32 16 34 17 35 18 36
REMARK SMILES IDX 79 37 19 38 78 39 20 40 21 41 22 42 72 43 23 44 77 45 71 46
REMARK SMILES IDX 73 47 24 48 76 49 70 50 69 51 25 53 57 54 37 55 56 56 38 57
REMARK SMILES IDX 41 58 55 59 74 60 39 61 40 62 54 64 75 65 42 66 26 67 27 68
REMARK SMILES IDX 35 69 28 70 29 71 33 72 36 73 30 74 31 75 34 76 32 77 58 78
REMARK SMILES IDX 59 79 67 80 60 81 61 82 65 83 68 84 62 85 63 86 66 87 64 88
REMARK SMILES IDX 43 89 44 90 52 91 45 92 46 93 50 94 53 95 47 96 48 97 51 98
REMARK SMILES IDX 49 99
REMARK H PARENT 7 7 83 16 14 33 73 52 41 63
REMARK Flexibility Score: inf
ROOT
ATOM      1  C   UNL A   1      31.404  28.906  25.163  1.00  0.00     0.002 C 
ENDROOT
BRANCH   1   2
ATOM      2  C   UNL A   1      30.576  29.096  23.886  1.00  0.00     0.021 C 
BRANCH   2   3
ATOM      3  C   UNL A   1      30.917  28.215  22.681  1.00  0.00     0.116 C 
BRANCH   3   4
ATOM      4  N   UNL A   1      32.236  28.445  22.123  1.00  0.00    -0.352 N 
ATOM      5  C   UNL A   1      33.387  27.689  22.188  1.00  0.00     0.251 C 
ATOM      6  O   UNL A   1      34.403  28.111  21.639  1.00  0.00    -0.269 OA
ATOM      7  H   UNL A   1      32.325  29.283  21.613  1.00  0.00     0.163 HD
BRANCH   5   8
ATOM      8  C   UNL A   1      33.460  26.423  22.968  1.00  0.00     0.040 A 
ATOM      9  C   UNL A   1      32.836  22.752  22.224  1.00  0.00     0.046 C 
ATOM     10  C   UNL A   1      33.349  23.984  22.920  1.00  0.00    -0.026 A 
ATOM     11  C   UNL A   1      33.114  25.232  22.317  1.00  0.00     0.019 A 
ATOM     12  C   UNL A   1      34.019  23.947  24.152  1.00  0.00     0.052 A 
ATOM     13  C   UNL A   1      34.102  25.121  24.905  1.00  0.00     0.028 A 
ATOM     14  C   UNL A   1      33.828  26.359  24.311  1.00  0.00     0.016 A 
BRANCH  12  15
ATOM     15  N   UNL A   1      34.719  22.751  24.491  1.00  0.00    -0.279 N 
ATOM     16  H   UNL A   1      35.556  22.587  24.001  1.00  0.00     0.180 HD
BRANCH  15  17
ATOM     17  S   UNL A   1      34.291  21.595  25.619  1.00  0.00     0.267 S 
ATOM     18  O   UNL A   1      35.449  21.453  26.500  1.00  0.00    -0.201 OA
ATOM     19  O   UNL A   1      33.011  21.996  26.125  1.00  0.00    -0.201 OA
BRANCH  17  20
ATOM     20  C   UNL A   1      34.059  20.054  24.817  1.00  0.00     0.158 A 
ATOM     21  C   UNL A   1      32.769  19.722  24.420  1.00  0.00     0.146 A 
ATOM     22  C   UNL A   1      35.071  19.115  24.674  1.00  0.00     0.146 A 
ATOM     23  F   UNL A   1      31.780  20.623  24.453  1.00  0.00    -0.205 F 
ATOM     24  C   UNL A   1      32.467  18.437  23.969  1.00  0.00     0.041 A 
ATOM     25  C   UNL A   1      34.775  17.816  24.251  1.00  0.00     0.041 A 
ATOM     26  F   UNL A   1      36.347  19.402  24.962  1.00  0.00    -0.205 F 
ATOM     27  C   UNL A   1      33.467  17.470  23.915  1.00  0.00     0.006 A 
ENDBRANCH  17  20
ENDBRANCH  15  17
ENDBRANCH  12  15
ENDBRANCH   5   8
ENDBRANCH   3   4
ENDBRANCH   2   3
ENDBRANCH   1   2
BRANCH   1  28
ATOM     28  C   UNL A   1      32.449  29.977  25.511  1.00  0.00     0.002 C 
BRANCH  28  29
ATOM     29  C   UNL A   1      32.620  30.333  26.989  1.00  0.00     0.021 C 
BRANCH  29  30
ATOM     30  C   UNL A   1      33.972  29.970  27.591  1.00  0.00     0.116 C 
BRANCH  30  31
ATOM     31  N   UNL A   1      34.527  30.978  28.489  1.00  0.00    -0.352 N 
ATOM     32  C   UNL A   1      35.725  30.963  29.181  1.00  0.00     0.251 C 
ATOM     33  H   UNL A   1      33.972  31.780  28.621  1.00  0.00     0.163 HD
ATOM     34  O   UNL A   1      36.025  31.886  29.931  1.00  0.00    -0.269 OA
BRANCH  32  35
ATOM     35  C   UNL A   1      36.702  29.880  28.916  1.00  0.00     0.039 A 
ATOM     36  C   UNL A   1      36.988  28.977  29.947  1.00  0.00     0.014 A 
ATOM     37  C   UNL A   1      37.459  29.873  27.749  1.00  0.00     0.014 A 
ATOM     38  C   UNL A   1      38.178  28.252  29.907  1.00  0.00     0.010 A 
ATOM     39  C   UNL A   1      38.683  29.234  27.751  1.00  0.00     0.010 A 
ATOM     40  C   UNL A   1      39.073  28.481  28.863  1.00  0.00    -0.014 A 
BRANCH  40  41
ATOM     41  C   UNL A   1      40.474  28.071  28.897  1.00  0.00     0.031 A 
ATOM     42  C   UNL A   1      40.891  26.763  28.352  1.00  0.00     0.074 A 
ATOM     43  C   UNL A   1      41.401  28.946  29.345  1.00  0.00     0.049 A 
ATOM     44  N   UNL A   1      42.013  26.188  28.623  1.00  0.00    -0.248 NA
ATOM     45  C   UNL A   1      40.042  25.979  27.464  1.00  0.00     0.031 C 
ATOM     46  C   UNL A   1      42.854  28.851  29.215  1.00  0.00     0.029 A 
ATOM     47  N   UNL A   1      41.203  30.019  30.229  1.00  0.00    -0.354 N 
ATOM     48  C   UNL A   1      42.143  25.095  27.798  1.00  0.00     0.074 A 
ATOM     49  C   UNL A   1      40.873  24.993  27.114  1.00  0.00     0.031 C 
ATOM     50  C   UNL A   1      43.419  29.570  30.197  1.00  0.00     0.029 A 
ATOM     51  C   UNL A   1      42.347  30.026  31.064  1.00  0.00     0.049 A 
ATOM     52  H   UNL A   1      40.434  30.634  30.261  1.00  0.00     0.167 HD
ATOM     53  C   UNL A   1      43.347  24.457  27.718  1.00  0.00     0.037 A 
ATOM     54  C   UNL A   1      42.237  29.753  32.397  1.00  0.00     0.037 A 
ATOM     55  C   UNL A   1      44.310  25.006  28.669  1.00  0.00     0.049 A 
ATOM     56  C   UNL A   1      43.015  28.540  32.861  1.00  0.00     0.074 A 
ATOM     57  C   UNL A   1      45.328  25.943  28.585  1.00  0.00     0.029 A 
ATOM     58  N   UNL A   1      44.095  24.794  30.017  1.00  0.00    -0.354 N 
ATOM     59  N   UNL A   1      43.631  27.711  32.065  1.00  0.00    -0.248 NA
ATOM     60  C   UNL A   1      43.065  28.110  34.260  1.00  0.00     0.031 C 
ATOM     61  C   UNL A   1      45.694  26.317  29.909  1.00  0.00     0.029 A 
ATOM     62  C   UNL A   1      44.905  25.601  30.791  1.00  0.00     0.049 A 
ATOM     63  H   UNL A   1      43.446  24.148  30.380  1.00  0.00     0.167 HD
ATOM     64  C   UNL A   1      44.103  26.655  32.794  1.00  0.00     0.074 A 
ATOM     65  C   UNL A   1      43.725  26.944  34.164  1.00  0.00     0.031 C 
ATOM     66  C   UNL A   1      44.738  25.591  32.230  1.00  0.00     0.037 A 
BRANCH  53  67
ATOM     67  C   UNL A   1      43.717  23.469  26.638  1.00  0.00     0.064 A 
ATOM     68  C   UNL A   1      43.196  22.158  26.656  1.00  0.00     0.173 A 
ATOM     69  C   UNL A   1      44.610  23.737  25.585  1.00  0.00     0.173 A 
ATOM     70  F   UNL A   1      42.263  21.786  27.541  1.00  0.00    -0.203 F 
ATOM     71  C   UNL A   1      43.624  21.169  25.765  1.00  0.00     0.198 A 
ATOM     72  C   UNL A   1      45.085  22.735  24.733  1.00  0.00     0.198 A 
ATOM     73  F   UNL A   1      45.005  24.986  25.309  1.00  0.00    -0.203 F 
ATOM     74  F   UNL A   1      43.094  19.940  25.832  1.00  0.00    -0.200 F 
ATOM     75  C   UNL A   1      44.600  21.447  24.830  1.00  0.00     0.200 A 
ATOM     76  F   UNL A   1      46.018  23.028  23.816  1.00  0.00    -0.200 F 
ATOM     77  F   UNL A   1      45.049  20.486  24.012  1.00  0.00    -0.200 F 
ENDBRANCH  53  67
BRANCH  54  78
ATOM     78  C   UNL A   1      40.937  30.193  32.971  1.00  0.00     0.064 A 
ATOM     79  C   UNL A   1      40.685  31.576  33.086  1.00  0.00     0.173 A 
ATOM     80  C   UNL A   1      39.843  29.327  33.057  1.00  0.00     0.173 A 
ATOM     81  F   UNL A   1      41.700  32.452  33.010  1.00  0.00    -0.203 F 
ATOM     82  C   UNL A   1      39.385  32.071  33.146  1.00  0.00     0.198 A 
ATOM     83  C   UNL A   1      38.543  29.827  33.146  1.00  0.00     0.198 A 
ATOM     84  F   UNL A   1      40.010  28.003  32.936  1.00  0.00    -0.203 F 
ATOM     85  F   UNL A   1      39.172  33.394  33.119  1.00  0.00    -0.200 F 
ATOM     86  C   UNL A   1      38.313  31.196  33.150  1.00  0.00     0.200 A 
ATOM     87  F   UNL A   1      37.504  28.980  33.122  1.00  0.00    -0.200 F 
ATOM     88  F   UNL A   1      37.060  31.667  33.112  1.00  0.00    -0.200 F 
ENDBRANCH  54  78
BRANCH  66  89
ATOM     89  C   UNL A   1      45.263  24.446  33.033  1.00  0.00     0.064 A 
ATOM     90  C   UNL A   1      44.469  23.327  33.328  1.00  0.00     0.173 A 
ATOM     91  C   UNL A   1      46.538  24.496  33.627  1.00  0.00     0.173 A 
ATOM     92  F   UNL A   1      43.230  23.219  32.828  1.00  0.00    -0.203 F 
ATOM     93  C   UNL A   1      44.937  22.304  34.153  1.00  0.00     0.198 A 
ATOM     94  C   UNL A   1      46.984  23.495  34.486  1.00  0.00     0.198 A 
ATOM     95  F   UNL A   1      47.382  25.506  33.370  1.00  0.00    -0.203 F 
ATOM     96  F   UNL A   1      44.169  21.230  34.380  1.00  0.00    -0.200 F 
ATOM     97  C   UNL A   1      46.187  22.395  34.743  1.00  0.00     0.200 A 
ATOM     98  F   UNL A   1      48.190  23.601  35.061  1.00  0.00    -0.200 F 
ATOM     99  F   UNL A   1      46.625  21.421  35.551  1.00  0.00    -0.200 F 
ENDBRANCH  66  89
ENDBRANCH  40  41
ENDBRANCH  32  35
ENDBRANCH  30  31
ENDBRANCH  29  30
ENDBRANCH  28  29
ENDBRANCH   1  28
TORSDOF 16
ENDMDL
