MODEL 1
REMARK VINA RESULT:     -11.3      0.000      0.000
REMARK SMILES COc1cc(NC(=O)[C@@H]2CC=CC[C@H]2C(=O)NCCCCCCNC(=O)c2ccc(-c3c4nc(c(-c5c(F)c(F)c(F)c(F)c5F)c5ccc([nH]5)c(-c5c(F)c(F)c(F)c(F)c5F)c5nc(c(-c6c(F)c(F)c(F)c(F)c6F)c6ccc3[nH]6)C=C5)C=C4)cc2)c(OC)cc1Cl
REMARK SMILES IDX 20 1 19 2 18 3 17 4 15 5 16 6 14 8 9 9 10 10 11 11 13 12
REMARK SMILES IDX 12 13 7 14 6 15 8 17 5 18 3 19 4 20 94 21 93 22 95 23 90 24
REMARK SMILES IDX 2 25 1 26 91 27 92 28 21 29 22 30 23 31 24 32 25 33 26 35
REMARK SMILES IDX 27 36 28 37 89 38 29 39 88 40 30 41 31 42 32 43 82 44 33 45
REMARK SMILES IDX 87 46 81 47 83 48 34 49 86 50 80 51 79 52 35 54 67 55 47 56
REMARK SMILES IDX 66 57 48 58 51 59 65 60 84 61 49 62 50 63 64 65 85 66 52 67
REMARK SMILES IDX 36 68 37 69 45 70 38 71 39 72 43 73 46 74 40 75 41 76 44 77
REMARK SMILES IDX 42 78 68 79 69 80 77 81 70 82 71 83 75 84 78 85 72 86 73 87
REMARK SMILES IDX 76 88 74 89 53 90 54 91 62 92 55 93 56 94 60 95 63 96 57 97
REMARK SMILES IDX 58 98 61 99 59 100
REMARK H PARENT 17 7 6 16 24 34 83 53 51 64
REMARK Flexibility Score: inf
ROOT
ATOM      1  C   UNL A   1      38.216  23.377  26.059  1.00  0.00     0.002 C 
ENDROOT
BRANCH   1   2
ATOM      2  C   UNL A   1      37.269  22.844  24.978  1.00  0.00     0.021 C 
BRANCH   2   3
ATOM      3  C   UNL A   1      35.830  23.325  25.126  1.00  0.00     0.116 C 
BRANCH   3   4
ATOM      4  N   UNL A   1      35.399  23.267  26.507  1.00  0.00    -0.356 N 
ATOM      5  C   UNL A   1      34.382  22.586  27.101  1.00  0.00     0.224 C 
ATOM      6  O   UNL A   1      34.346  22.596  28.334  1.00  0.00    -0.275 OA
ATOM      7  H   UNL A   1      35.935  23.816  27.124  1.00  0.00     0.163 HD
BRANCH   5   8
ATOM      8  C   UNL A   1      33.409  21.730  26.291  1.00  0.00     0.095 C 
ATOM      9  C   UNL A   1      32.465  22.521  25.320  1.00  0.00     0.095 C 
ATOM     10  C   UNL A   1      31.786  21.563  24.348  1.00  0.00     0.041 C 
ATOM     11  C   UNL A   1      32.564  20.378  23.877  1.00  0.00    -0.030 C 
ATOM     12  C   UNL A   1      34.248  20.584  25.685  1.00  0.00     0.041 C 
ATOM     13  C   UNL A   1      33.676  19.942  24.471  1.00  0.00    -0.030 C 
BRANCH   9  14
ATOM     14  C   UNL A   1      31.503  23.410  26.147  1.00  0.00     0.228 C 
ATOM     15  N   UNL A   1      31.259  24.737  26.003  1.00  0.00    -0.323 N 
ATOM     16  H   UNL A   1      30.973  25.104  26.870  1.00  0.00     0.170 HD
ATOM     17  O   UNL A   1      31.011  22.948  27.188  1.00  0.00    -0.274 OA
BRANCH  15  18
ATOM     18  C   UNL A   1      31.269  25.776  25.051  1.00  0.00     0.087 A 
ATOM     19  C   UNL A   1      31.236  26.718  22.805  1.00  0.00     0.139 A 
ATOM     20  C   UNL A   1      31.291  25.616  23.672  1.00  0.00     0.078 A 
ATOM     21  C   UNL A   1      31.073  28.004  23.314  1.00  0.00     0.086 A 
ATOM     22  C   UNL A   1      30.997  28.189  24.693  1.00  0.00     0.073 A 
ATOM     23  Cl  UNL A   1      30.869  29.382  22.297  1.00  0.00    -0.080 Cl
ATOM     24  C   UNL A   1      31.081  27.088  25.557  1.00  0.00     0.144 A 
BRANCH  19  25
ATOM     25  O   UNL A   1      31.232  26.424  21.466  1.00  0.00    -0.495 OA
ATOM     26  C   UNL A   1      32.431  25.764  21.056  1.00  0.00     0.278 C 
ENDBRANCH  19  25
BRANCH  24  27
ATOM     27  O   UNL A   1      30.971  27.188  26.929  1.00  0.00    -0.495 OA
ATOM     28  C   UNL A   1      31.694  28.245  27.556  1.00  0.00     0.278 C 
ENDBRANCH  24  27
ENDBRANCH  15  18
ENDBRANCH   9  14
ENDBRANCH   5   8
ENDBRANCH   3   4
ENDBRANCH   2   3
ENDBRANCH   1   2
BRANCH   1  29
ATOM     29  C   UNL A   1      39.327  22.411  26.484  1.00  0.00     0.002 C 
BRANCH  29  30
ATOM     30  C   UNL A   1      39.428  21.131  25.650  1.00  0.00     0.021 C 
BRANCH  30  31
ATOM     31  C   UNL A   1      39.773  19.877  26.446  1.00  0.00     0.116 C 
BRANCH  31  32
ATOM     32  N   UNL A   1      40.949  19.201  25.924  1.00  0.00    -0.352 N 
ATOM     33  C   UNL A   1      42.217  19.677  25.732  1.00  0.00     0.251 C 
ATOM     34  H   UNL A   1      40.813  18.260  25.670  1.00  0.00     0.163 HD
ATOM     35  O   UNL A   1      43.035  19.005  25.099  1.00  0.00    -0.269 OA
BRANCH  33  36
ATOM     36  C   UNL A   1      42.613  20.998  26.261  1.00  0.00     0.039 A 
ATOM     37  C   UNL A   1      42.984  21.995  25.356  1.00  0.00     0.014 A 
ATOM     38  C   UNL A   1      42.649  21.251  27.636  1.00  0.00     0.014 A 
ATOM     39  C   UNL A   1      43.341  23.260  25.825  1.00  0.00     0.010 A 
ATOM     40  C   UNL A   1      42.936  22.534  28.099  1.00  0.00     0.010 A 
ATOM     41  C   UNL A   1      43.289  23.549  27.199  1.00  0.00    -0.014 A 
BRANCH  41  42
ATOM     42  C   UNL A   1      43.589  24.917  27.690  1.00  0.00     0.031 A 
ATOM     43  C   UNL A   1      45.008  25.377  27.872  1.00  0.00     0.074 A 
ATOM     44  C   UNL A   1      42.570  25.740  28.004  1.00  0.00     0.049 A 
ATOM     45  N   UNL A   1      45.456  26.541  28.272  1.00  0.00    -0.248 NA
ATOM     46  C   UNL A   1      46.064  24.391  27.593  1.00  0.00     0.031 C 
ATOM     47  C   UNL A   1      41.151  25.386  27.937  1.00  0.00     0.029 A 
ATOM     48  N   UNL A   1      42.569  27.040  28.443  1.00  0.00    -0.354 N 
ATOM     49  C   UNL A   1      46.839  26.429  28.289  1.00  0.00     0.074 A 
ATOM     50  C   UNL A   1      47.156  25.064  27.925  1.00  0.00     0.031 C 
ATOM     51  C   UNL A   1      40.417  26.451  28.293  1.00  0.00     0.029 A 
ATOM     52  C   UNL A   1      41.310  27.551  28.639  1.00  0.00     0.049 A 
ATOM     53  H   UNL A   1      43.392  27.555  28.602  1.00  0.00     0.167 HD
ATOM     54  C   UNL A   1      47.763  27.385  28.555  1.00  0.00     0.037 A 
ATOM     55  C   UNL A   1      40.920  28.772  29.047  1.00  0.00     0.037 A 
ATOM     56  C   UNL A   1      47.444  28.743  28.914  1.00  0.00     0.049 A 
ATOM     57  C   UNL A   1      41.962  29.821  29.323  1.00  0.00     0.074 A 
ATOM     58  C   UNL A   1      48.306  29.798  29.160  1.00  0.00     0.029 A 
ATOM     59  N   UNL A   1      46.157  29.233  29.084  1.00  0.00    -0.354 N 
ATOM     60  N   UNL A   1      43.268  29.725  29.262  1.00  0.00    -0.248 NA
ATOM     61  C   UNL A   1      41.474  31.151  29.709  1.00  0.00     0.031 C 
ATOM     62  C   UNL A   1      47.542  30.913  29.523  1.00  0.00     0.029 A 
ATOM     63  C   UNL A   1      46.201  30.569  29.453  1.00  0.00     0.049 A 
ATOM     64  H   UNL A   1      45.333  28.708  28.962  1.00  0.00     0.167 HD
ATOM     65  C   UNL A   1      43.758  30.982  29.588  1.00  0.00     0.074 A 
ATOM     66  C   UNL A   1      42.606  31.831  29.815  1.00  0.00     0.031 C 
ATOM     67  C   UNL A   1      45.046  31.396  29.694  1.00  0.00     0.037 A 
BRANCH  54  68
ATOM     68  C   UNL A   1      49.210  26.988  28.463  1.00  0.00     0.064 A 
ATOM     69  C   UNL A   1      49.910  27.040  27.246  1.00  0.00     0.173 A 
ATOM     70  C   UNL A   1      49.913  26.569  29.603  1.00  0.00     0.173 A 
ATOM     71  F   UNL A   1      49.283  27.422  26.123  1.00  0.00    -0.203 F 
ATOM     72  C   UNL A   1      51.244  26.652  27.167  1.00  0.00     0.198 A 
ATOM     73  C   UNL A   1      51.257  26.214  29.526  1.00  0.00     0.198 A 
ATOM     74  F   UNL A   1      49.297  26.506  30.792  1.00  0.00    -0.203 F 
ATOM     75  F   UNL A   1      51.873  26.655  25.983  1.00  0.00    -0.200 F 
ATOM     76  C   UNL A   1      51.919  26.246  28.308  1.00  0.00     0.200 A 
ATOM     77  F   UNL A   1      51.912  25.833  30.632  1.00  0.00    -0.200 F 
ATOM     78  F   UNL A   1      53.205  25.875  28.232  1.00  0.00    -0.200 F 
ENDBRANCH  54  68
BRANCH  55  79
ATOM     79  C   UNL A   1      39.472  29.072  29.185  1.00  0.00     0.064 A 
ATOM     80  C   UNL A   1      38.829  28.973  30.427  1.00  0.00     0.173 A 
ATOM     81  C   UNL A   1      38.707  29.482  28.083  1.00  0.00     0.173 A 
ATOM     82  F   UNL A   1      39.513  28.568  31.505  1.00  0.00    -0.203 F 
ATOM     83  C   UNL A   1      37.470  29.257  30.557  1.00  0.00     0.198 A 
ATOM     84  C   UNL A   1      37.356  29.793  28.221  1.00  0.00     0.198 A 
ATOM     85  F   UNL A   1      39.279  29.600  26.876  1.00  0.00    -0.203 F 
ATOM     86  F   UNL A   1      36.870  29.115  31.746  1.00  0.00    -0.200 F 
ATOM     87  C   UNL A   1      36.737  29.673  29.455  1.00  0.00     0.200 A 
ATOM     88  F   UNL A   1      36.657  30.212  27.157  1.00  0.00    -0.200 F 
ATOM     89  F   UNL A   1      35.434  29.955  29.584  1.00  0.00    -0.200 F 
ENDBRANCH  55  79
BRANCH  67  90
ATOM     90  C   UNL A   1      45.267  32.834  30.067  1.00  0.00     0.064 A 
ATOM     91  C   UNL A   1      45.417  33.232  31.404  1.00  0.00     0.173 A 
ATOM     92  C   UNL A   1      45.333  33.826  29.077  1.00  0.00     0.173 A 
ATOM     93  F   UNL A   1      45.346  32.324  32.390  1.00  0.00    -0.203 F 
ATOM     94  C   UNL A   1      45.584  34.574  31.739  1.00  0.00     0.198 A 
ATOM     95  C   UNL A   1      45.533  35.162  29.413  1.00  0.00     0.198 A 
ATOM     96  F   UNL A   1      45.205  33.500  27.782  1.00  0.00    -0.203 F 
ATOM     97  F   UNL A   1      45.659  34.937  33.027  1.00  0.00    -0.200 F 
ATOM     98  C   UNL A   1      45.646  35.536  30.743  1.00  0.00     0.200 A 
ATOM     99  F   UNL A   1      45.606  36.090  28.449  1.00  0.00    -0.200 F 
ATOM    100  F   UNL A   1      45.802  36.827  31.067  1.00  0.00    -0.200 F 
ENDBRANCH  67  90
ENDBRANCH  41  42
ENDBRANCH  33  36
ENDBRANCH  31  32
ENDBRANCH  30  31
ENDBRANCH  29  30
ENDBRANCH   1  29
TORSDOF 17
ENDMDL
MODEL 2
REMARK VINA RESULT:     -11.3      1.684      2.393
REMARK SMILES COc1cc(NC(=O)[C@@H]2CC=CC[C@H]2C(=O)NCCCCCCNC(=O)c2ccc(-c3c4nc(c(-c5c(F)c(F)c(F)c(F)c5F)c5ccc([nH]5)c(-c5c(F)c(F)c(F)c(F)c5F)c5nc(c(-c6c(F)c(F)c(F)c(F)c6F)c6ccc3[nH]6)C=C5)C=C4)cc2)c(OC)cc1Cl
REMARK SMILES IDX 20 1 19 2 18 3 17 4 15 5 16 6 14 8 9 9 10 10 11 11 13 12
REMARK SMILES IDX 12 13 7 14 6 15 8 17 5 18 3 19 4 20 94 21 93 22 95 23 90 24
REMARK SMILES IDX 2 25 1 26 91 27 92 28 21 29 22 30 23 31 24 32 25 33 26 35
REMARK SMILES IDX 27 36 28 37 89 38 29 39 88 40 30 41 31 42 32 43 82 44 33 45
REMARK SMILES IDX 87 46 81 47 83 48 34 49 86 50 80 51 79 52 35 54 67 55 47 56
REMARK SMILES IDX 66 57 48 58 51 59 65 60 84 61 49 62 50 63 64 65 85 66 52 67
REMARK SMILES IDX 36 68 37 69 45 70 38 71 39 72 43 73 46 74 40 75 41 76 44 77
REMARK SMILES IDX 42 78 68 79 69 80 77 81 70 82 71 83 75 84 78 85 72 86 73 87
REMARK SMILES IDX 76 88 74 89 53 90 54 91 62 92 55 93 56 94 60 95 63 96 57 97
REMARK SMILES IDX 58 98 61 99 59 100
REMARK H PARENT 17 7 6 16 24 34 83 53 51 64
REMARK Flexibility Score: inf
ROOT
ATOM      1  C   UNL A   1      37.074  21.598  25.170  1.00  0.00     0.002 C 
ENDROOT
BRANCH   1   2
ATOM      2  C   UNL A   1      36.865  22.385  23.870  1.00  0.00     0.021 C 
BRANCH   2   3
ATOM      3  C   UNL A   1      36.025  23.645  24.040  1.00  0.00     0.116 C 
BRANCH   3   4
ATOM      4  N   UNL A   1      34.917  23.665  23.107  1.00  0.00    -0.356 N 
ATOM      5  C   UNL A   1      33.573  23.630  23.311  1.00  0.00     0.224 C 
ATOM      6  O   UNL A   1      32.852  23.824  22.329  1.00  0.00    -0.275 OA
ATOM      7  H   UNL A   1      35.183  23.710  22.160  1.00  0.00     0.163 HD
BRANCH   5   8
ATOM      8  C   UNL A   1      32.977  23.499  24.712  1.00  0.00     0.095 C 
ATOM      9  C   UNL A   1      32.183  24.750  25.225  1.00  0.00     0.095 C 
ATOM     10  C   UNL A   1      31.375  24.390  26.467  1.00  0.00     0.041 C 
ATOM     11  C   UNL A   1      30.792  23.016  26.546  1.00  0.00    -0.030 C 
ATOM     12  C   UNL A   1      32.250  22.137  24.743  1.00  0.00     0.041 C 
ATOM     13  C   UNL A   1      31.178  22.005  25.767  1.00  0.00    -0.030 C 
BRANCH   9  14
ATOM     14  C   UNL A   1      33.156  25.943  25.397  1.00  0.00     0.228 C 
ATOM     15  N   UNL A   1      33.034  27.201  24.900  1.00  0.00    -0.323 N 
ATOM     16  H   UNL A   1      33.932  27.588  24.793  1.00  0.00     0.170 HD
ATOM     17  O   UNL A   1      34.278  25.732  25.882  1.00  0.00    -0.274 OA
BRANCH  15  18
ATOM     18  C   UNL A   1      32.076  28.146  24.483  1.00  0.00     0.087 A 
ATOM     19  C   UNL A   1      30.096  28.910  23.290  1.00  0.00     0.139 A 
ATOM     20  C   UNL A   1      31.037  27.915  23.592  1.00  0.00     0.078 A 
ATOM     21  C   UNL A   1      30.135  30.138  23.947  1.00  0.00     0.086 A 
ATOM     22  C   UNL A   1      31.138  30.379  24.884  1.00  0.00     0.073 A 
ATOM     23  Cl  UNL A   1      28.932  31.351  23.714  1.00  0.00    -0.080 Cl
ATOM     24  C   UNL A   1      32.094  29.392  25.163  1.00  0.00     0.144 A 
BRANCH  19  25
ATOM     25  O   UNL A   1      29.101  28.546  22.420  1.00  0.00    -0.495 OA
ATOM     26  C   UNL A   1      27.939  28.068  23.100  1.00  0.00     0.278 C 
ENDBRANCH  19  25
BRANCH  24  27
ATOM     27  O   UNL A   1      33.089  29.543  26.107  1.00  0.00    -0.495 OA
ATOM     28  C   UNL A   1      32.914  30.584  27.065  1.00  0.00     0.278 C 
ENDBRANCH  24  27
ENDBRANCH  15  18
ENDBRANCH   9  14
ENDBRANCH   5   8
ENDBRANCH   3   4
ENDBRANCH   2   3
ENDBRANCH   1   2
BRANCH   1  29
ATOM     29  C   UNL A   1      36.824  20.090  25.065  1.00  0.00     0.002 C 
BRANCH  29  30
ATOM     30  C   UNL A   1      38.086  19.222  25.051  1.00  0.00     0.021 C 
BRANCH  30  31
ATOM     31  C   UNL A   1      39.299  19.850  25.728  1.00  0.00     0.116 C 
BRANCH  31  32
ATOM     32  N   UNL A   1      40.409  18.918  25.837  1.00  0.00    -0.352 N 
ATOM     33  C   UNL A   1      41.738  19.164  26.049  1.00  0.00     0.251 C 
ATOM     34  H   UNL A   1      40.170  17.968  25.746  1.00  0.00     0.163 HD
ATOM     35  O   UNL A   1      42.559  18.252  25.922  1.00  0.00    -0.269 OA
BRANCH  33  36
ATOM     36  C   UNL A   1      42.205  20.518  26.411  1.00  0.00     0.039 A 
ATOM     37  C   UNL A   1      42.632  21.372  25.390  1.00  0.00     0.014 A 
ATOM     38  C   UNL A   1      42.252  20.941  27.743  1.00  0.00     0.014 A 
ATOM     39  C   UNL A   1      43.056  22.664  25.700  1.00  0.00     0.010 A 
ATOM     40  C   UNL A   1      42.607  22.254  28.044  1.00  0.00     0.010 A 
ATOM     41  C   UNL A   1      43.018  23.127  27.027  1.00  0.00    -0.014 A 
BRANCH  41  42
ATOM     42  C   UNL A   1      43.390  24.528  27.344  1.00  0.00     0.031 A 
ATOM     43  C   UNL A   1      44.794  25.019  27.128  1.00  0.00     0.074 A 
ATOM     44  C   UNL A   1      42.461  25.354  27.861  1.00  0.00     0.049 A 
ATOM     45  N   UNL A   1      45.293  26.213  27.332  1.00  0.00    -0.248 NA
ATOM     46  C   UNL A   1      45.773  24.034  26.645  1.00  0.00     0.031 C 
ATOM     47  C   UNL A   1      41.083  24.975  28.181  1.00  0.00     0.029 A 
ATOM     48  N   UNL A   1      42.532  26.679  28.209  1.00  0.00    -0.354 N 
ATOM     49  C   UNL A   1      46.638  26.123  27.000  1.00  0.00     0.074 A 
ATOM     50  C   UNL A   1      46.892  24.742  26.646  1.00  0.00     0.031 C 
ATOM     51  C   UNL A   1      40.432  26.049  28.652  1.00  0.00     0.029 A 
ATOM     52  C   UNL A   1      41.350  27.182  28.692  1.00  0.00     0.049 A 
ATOM     53  H   UNL A   1      43.352  27.216  28.122  1.00  0.00     0.167 HD
ATOM     54  C   UNL A   1      47.569  27.107  26.964  1.00  0.00     0.037 A 
ATOM     55  C   UNL A   1      41.039  28.421  29.116  1.00  0.00     0.037 A 
ATOM     56  C   UNL A   1      47.311  28.481  27.313  1.00  0.00     0.049 A 
ATOM     57  C   UNL A   1      42.085  29.501  29.054  1.00  0.00     0.074 A 
ATOM     58  C   UNL A   1      48.174  29.562  27.268  1.00  0.00     0.029 A 
ATOM     59  N   UNL A   1      46.095  28.961  27.780  1.00  0.00    -0.354 N 
ATOM     60  N   UNL A   1      43.334  29.421  28.665  1.00  0.00    -0.248 NA
ATOM     61  C   UNL A   1      41.670  30.845  29.474  1.00  0.00     0.031 C 
ATOM     62  C   UNL A   1      47.494  30.687  27.750  1.00  0.00     0.029 A 
ATOM     63  C   UNL A   1      46.191  30.319  28.046  1.00  0.00     0.049 A 
ATOM     64  H   UNL A   1      45.284  28.418  27.904  1.00  0.00     0.167 HD
ATOM     65  C   UNL A   1      43.852  30.703  28.781  1.00  0.00     0.074 A 
ATOM     66  C   UNL A   1      42.771  31.547  29.246  1.00  0.00     0.031 C 
ATOM     67  C   UNL A   1      45.111  31.142  28.528  1.00  0.00     0.037 A 
BRANCH  54  68
ATOM     68  C   UNL A   1      48.956  26.728  26.526  1.00  0.00     0.064 A 
ATOM     69  C   UNL A   1      49.375  26.887  25.194  1.00  0.00     0.173 A 
ATOM     70  C   UNL A   1      49.884  26.217  27.446  1.00  0.00     0.173 A 
ATOM     71  F   UNL A   1      48.525  27.360  24.271  1.00  0.00    -0.203 F 
ATOM     72  C   UNL A   1      50.656  26.514  24.795  1.00  0.00     0.198 A 
ATOM     73  C   UNL A   1      51.174  25.876  27.049  1.00  0.00     0.198 A 
ATOM     74  F   UNL A   1      49.540  26.049  28.731  1.00  0.00    -0.203 F 
ATOM     75  F   UNL A   1      51.012  26.621  23.507  1.00  0.00    -0.200 F 
ATOM     76  C   UNL A   1      51.556  26.015  25.723  1.00  0.00     0.200 A 
ATOM     77  F   UNL A   1      52.048  25.405  27.950  1.00  0.00    -0.200 F 
ATOM     78  F   UNL A   1      52.790  25.659  25.338  1.00  0.00    -0.200 F 
ENDBRANCH  54  68
BRANCH  55  79
ATOM     79  C   UNL A   1      39.666  28.708  29.604  1.00  0.00     0.064 A 
ATOM     80  C   UNL A   1      38.679  29.199  28.738  1.00  0.00     0.173 A 
ATOM     81  C   UNL A   1      39.309  28.479  30.941  1.00  0.00     0.173 A 
ATOM     82  F   UNL A   1      38.978  29.450  27.456  1.00  0.00    -0.203 F 
ATOM     83  C   UNL A   1      37.390  29.466  29.196  1.00  0.00     0.198 A 
ATOM     84  C   UNL A   1      38.012  28.719  31.389  1.00  0.00     0.198 A 
ATOM     85  F   UNL A   1      40.215  28.002  31.806  1.00  0.00    -0.203 F 
ATOM     86  F   UNL A   1      36.477  29.973  28.357  1.00  0.00    -0.200 F 
ATOM     87  C   UNL A   1      37.056  29.220  30.519  1.00  0.00     0.200 A 
ATOM     88  F   UNL A   1      37.690  28.463  32.665  1.00  0.00    -0.200 F 
ATOM     89  F   UNL A   1      35.814  29.467  30.955  1.00  0.00    -0.200 F 
ENDBRANCH  55  79
BRANCH  67  90
ATOM     90  C   UNL A   1      45.375  32.604  28.748  1.00  0.00     0.064 A 
ATOM     91  C   UNL A   1      45.858  33.088  29.974  1.00  0.00     0.173 A 
ATOM     92  C   UNL A   1      45.148  33.533  27.721  1.00  0.00     0.173 A 
ATOM     93  F   UNL A   1      46.078  32.243  30.993  1.00  0.00    -0.203 F 
ATOM     94  C   UNL A   1      46.064  34.450  30.177  1.00  0.00     0.198 A 
ATOM     95  C   UNL A   1      45.385  34.891  27.917  1.00  0.00     0.198 A 
ATOM     96  F   UNL A   1      44.694  33.124  26.527  1.00  0.00    -0.203 F 
ATOM     97  F   UNL A   1      46.463  34.895  31.376  1.00  0.00    -0.200 F 
ATOM     98  C   UNL A   1      45.831  35.350  29.147  1.00  0.00     0.200 A 
ATOM     99  F   UNL A   1      45.173  35.758  26.917  1.00  0.00    -0.200 F 
ATOM    100  F   UNL A   1      46.025  36.660  29.345  1.00  0.00    -0.200 F 
ENDBRANCH  67  90
ENDBRANCH  41  42
ENDBRANCH  33  36
ENDBRANCH  31  32
ENDBRANCH  30  31
ENDBRANCH  29  30
ENDBRANCH   1  29
TORSDOF 17
ENDMDL
MODEL 3
REMARK VINA RESULT:     -11.2      1.800      7.450
REMARK SMILES COc1cc(NC(=O)[C@@H]2CC=CC[C@H]2C(=O)NCCCCCCNC(=O)c2ccc(-c3c4nc(c(-c5c(F)c(F)c(F)c(F)c5F)c5ccc([nH]5)c(-c5c(F)c(F)c(F)c(F)c5F)c5nc(c(-c6c(F)c(F)c(F)c(F)c6F)c6ccc3[nH]6)C=C5)C=C4)cc2)c(OC)cc1Cl
REMARK SMILES IDX 20 1 19 2 18 3 17 4 15 5 16 6 14 8 9 9 10 10 11 11 13 12
REMARK SMILES IDX 12 13 7 14 6 15 8 17 5 18 3 19 4 20 94 21 93 22 95 23 90 24
REMARK SMILES IDX 2 25 1 26 91 27 92 28 21 29 22 30 23 31 24 32 25 33 26 35
REMARK SMILES IDX 27 36 28 37 89 38 29 39 88 40 30 41 31 42 32 43 82 44 33 45
REMARK SMILES IDX 87 46 81 47 83 48 34 49 86 50 80 51 79 52 35 54 67 55 47 56
REMARK SMILES IDX 66 57 48 58 51 59 65 60 84 61 49 62 50 63 64 65 85 66 52 67
REMARK SMILES IDX 36 68 37 69 45 70 38 71 39 72 43 73 46 74 40 75 41 76 44 77
REMARK SMILES IDX 42 78 68 79 69 80 77 81 70 82 71 83 75 84 78 85 72 86 73 87
REMARK SMILES IDX 76 88 74 89 53 90 54 91 62 92 55 93 56 94 60 95 63 96 57 97
REMARK SMILES IDX 58 98 61 99 59 100
REMARK H PARENT 17 7 6 16 24 34 83 53 51 64
REMARK Flexibility Score: inf
ROOT
ATOM      1  C   UNL A   1      36.797  21.278  25.318  1.00  0.00     0.002 C 
ENDROOT
BRANCH   1   2
ATOM      2  C   UNL A   1      36.950  22.665  24.682  1.00  0.00     0.021 C 
BRANCH   2   3
ATOM      3  C   UNL A   1      35.640  23.262  24.179  1.00  0.00     0.116 C 
BRANCH   3   4
ATOM      4  N   UNL A   1      34.685  22.224  23.850  1.00  0.00    -0.356 N 
ATOM      5  C   UNL A   1      33.346  22.136  24.069  1.00  0.00     0.224 C 
ATOM      6  O   UNL A   1      32.751  21.199  23.531  1.00  0.00    -0.275 OA
ATOM      7  H   UNL A   1      35.074  21.446  23.387  1.00  0.00     0.163 HD
BRANCH   5   8
ATOM      8  C   UNL A   1      32.584  23.222  24.826  1.00  0.00     0.095 C 
ATOM      9  C   UNL A   1      31.513  24.002  23.986  1.00  0.00     0.095 C 
ATOM     10  C   UNL A   1      30.609  24.813  24.908  1.00  0.00     0.041 C 
ATOM     11  C   UNL A   1      30.274  24.235  26.244  1.00  0.00    -0.030 C 
ATOM     12  C   UNL A   1      32.113  22.574  26.146  1.00  0.00     0.041 C 
ATOM     13  C   UNL A   1      30.943  23.223  26.798  1.00  0.00    -0.030 C 
BRANCH   9  14
ATOM     14  C   UNL A   1      32.223  24.818  22.877  1.00  0.00     0.228 C 
ATOM     15  N   UNL A   1      32.118  26.146  22.619  1.00  0.00    -0.323 N 
ATOM     16  H   UNL A   1      32.308  26.300  21.666  1.00  0.00     0.170 HD
ATOM     17  O   UNL A   1      32.827  24.207  21.981  1.00  0.00    -0.274 OA
BRANCH  15  18
ATOM     18  C   UNL A   1      31.833  27.382  23.233  1.00  0.00     0.087 A 
ATOM     19  C   UNL A   1      30.469  29.331  23.752  1.00  0.00     0.139 A 
ATOM     20  C   UNL A   1      30.686  28.141  23.043  1.00  0.00     0.078 A 
ATOM     21  C   UNL A   1      31.369  29.739  24.733  1.00  0.00     0.086 A 
ATOM     22  C   UNL A   1      32.505  28.969  24.981  1.00  0.00     0.073 A 
ATOM     23  Cl  UNL A   1      31.092  31.121  25.727  1.00  0.00    -0.080 Cl
ATOM     24  C   UNL A   1      32.733  27.795  24.250  1.00  0.00     0.144 A 
BRANCH  19  25
ATOM     25  O   UNL A   1      29.283  29.970  23.497  1.00  0.00    -0.495 OA
ATOM     26  C   UNL A   1      29.263  30.573  22.202  1.00  0.00     0.278 C 
ENDBRANCH  19  25
BRANCH  24  27
ATOM     27  O   UNL A   1      33.810  26.961  24.468  1.00  0.00    -0.495 OA
ATOM     28  C   UNL A   1      33.976  26.459  25.792  1.00  0.00     0.278 C 
ENDBRANCH  24  27
ENDBRANCH  15  18
ENDBRANCH   9  14
ENDBRANCH   5   8
ENDBRANCH   3   4
ENDBRANCH   2   3
ENDBRANCH   1   2
BRANCH   1  29
ATOM     29  C   UNL A   1      37.403  20.124  24.513  1.00  0.00     0.002 C 
BRANCH  29  30
ATOM     30  C   UNL A   1      38.289  19.167  25.316  1.00  0.00     0.021 C 
BRANCH  30  31
ATOM     31  C   UNL A   1      39.546  19.801  25.900  1.00  0.00     0.116 C 
BRANCH  31  32
ATOM     32  N   UNL A   1      40.655  18.864  25.965  1.00  0.00    -0.352 N 
ATOM     33  C   UNL A   1      41.997  19.104  26.079  1.00  0.00     0.251 C 
ATOM     34  H   UNL A   1      40.403  17.913  25.919  1.00  0.00     0.163 HD
ATOM     35  O   UNL A   1      42.801  18.181  25.925  1.00  0.00    -0.269 OA
BRANCH  33  36
ATOM     36  C   UNL A   1      42.496  20.464  26.366  1.00  0.00     0.039 A 
ATOM     37  C   UNL A   1      42.977  21.236  25.306  1.00  0.00     0.014 A 
ATOM     38  C   UNL A   1      42.520  20.972  27.669  1.00  0.00     0.014 A 
ATOM     39  C   UNL A   1      43.434  22.533  25.544  1.00  0.00     0.010 A 
ATOM     40  C   UNL A   1      42.908  22.291  27.895  1.00  0.00     0.010 A 
ATOM     41  C   UNL A   1      43.374  23.083  26.836  1.00  0.00    -0.014 A 
BRANCH  41  42
ATOM     42  C   UNL A   1      43.782  24.490  27.073  1.00  0.00     0.031 A 
ATOM     43  C   UNL A   1      42.789  25.508  27.558  1.00  0.00     0.074 A 
ATOM     44  C   UNL A   1      45.052  24.857  26.817  1.00  0.00     0.049 A 
ATOM     45  N   UNL A   1      42.972  26.775  27.837  1.00  0.00    -0.248 NA
ATOM     46  C   UNL A   1      41.401  25.051  27.729  1.00  0.00     0.031 C 
ATOM     47  C   UNL A   1      46.090  23.977  26.277  1.00  0.00     0.029 A 
ATOM     48  N   UNL A   1      45.685  26.064  26.975  1.00  0.00    -0.354 N 
ATOM     49  C   UNL A   1      41.729  27.263  28.217  1.00  0.00     0.074 A 
ATOM     50  C   UNL A   1      40.787  26.174  28.069  1.00  0.00     0.031 C 
ATOM     51  C   UNL A   1      47.237  24.665  26.176  1.00  0.00     0.029 A 
ATOM     52  C   UNL A   1      47.010  26.037  26.616  1.00  0.00     0.049 A 
ATOM     53  H   UNL A   1      45.234  26.870  27.313  1.00  0.00     0.167 HD
ATOM     54  C   UNL A   1      41.408  28.497  28.676  1.00  0.00     0.037 A 
ATOM     55  C   UNL A   1      47.940  27.010  26.644  1.00  0.00     0.037 A 
ATOM     56  C   UNL A   1      42.350  29.577  28.825  1.00  0.00     0.049 A 
ATOM     57  C   UNL A   1      47.564  28.368  27.170  1.00  0.00     0.074 A 
ATOM     58  C   UNL A   1      42.135  30.851  29.322  1.00  0.00     0.029 A 
ATOM     59  N   UNL A   1      43.690  29.510  28.470  1.00  0.00    -0.354 N 
ATOM     60  N   UNL A   1      46.401  28.797  27.599  1.00  0.00    -0.248 NA
ATOM     61  C   UNL A   1      48.634  29.371  27.231  1.00  0.00     0.031 C 
ATOM     62  C   UNL A   1      43.333  31.568  29.226  1.00  0.00     0.029 A 
ATOM     63  C   UNL A   1      44.309  30.726  28.717  1.00  0.00     0.049 A 
ATOM     64  H   UNL A   1      44.136  28.716  28.097  1.00  0.00     0.167 HD
ATOM     65  C   UNL A   1      46.602  30.112  27.992  1.00  0.00     0.074 A 
ATOM     66  C   UNL A   1      48.005  30.400  27.780  1.00  0.00     0.031 C 
ATOM     67  C   UNL A   1      45.704  31.004  28.482  1.00  0.00     0.037 A 
BRANCH  54  68
ATOM     68  C   UNL A   1      39.974  28.740  29.053  1.00  0.00     0.064 A 
ATOM     69  C   UNL A   1      39.040  29.222  28.120  1.00  0.00     0.173 A 
ATOM     70  C   UNL A   1      39.519  28.472  30.353  1.00  0.00     0.173 A 
ATOM     71  F   UNL A   1      39.425  29.505  26.866  1.00  0.00    -0.203 F 
ATOM     72  C   UNL A   1      37.718  29.462  28.484  1.00  0.00     0.198 A 
ATOM     73  C   UNL A   1      38.187  28.682  30.704  1.00  0.00     0.198 A 
ATOM     74  F   UNL A   1      40.364  28.006  31.283  1.00  0.00    -0.203 F 
ATOM     75  F   UNL A   1      36.862  29.977  27.591  1.00  0.00    -0.200 F 
ATOM     76  C   UNL A   1      37.291  29.186  29.773  1.00  0.00     0.200 A 
ATOM     77  F   UNL A   1      37.773  28.404  31.948  1.00  0.00    -0.200 F 
ATOM     78  F   UNL A   1      36.017  29.415  30.122  1.00  0.00    -0.200 F 
ENDBRANCH  54  68
BRANCH  55  79
ATOM     79  C   UNL A   1      49.323  26.718  26.187  1.00  0.00     0.064 A 
ATOM     80  C   UNL A   1      49.716  26.972  24.866  1.00  0.00     0.173 A 
ATOM     81  C   UNL A   1      50.282  26.198  27.068  1.00  0.00     0.173 A 
ATOM     82  F   UNL A   1      48.829  27.452  23.984  1.00  0.00    -0.203 F 
ATOM     83  C   UNL A   1      51.014  26.699  24.438  1.00  0.00     0.198 A 
ATOM     84  C   UNL A   1      51.587  25.954  26.645  1.00  0.00     0.198 A 
ATOM     85  F   UNL A   1      49.956  25.947  28.344  1.00  0.00    -0.203 F 
ATOM     86  F   UNL A   1      51.353  26.912  23.160  1.00  0.00    -0.200 F 
ATOM     87  C   UNL A   1      51.950  26.197  25.330  1.00  0.00     0.200 A 
ATOM     88  F   UNL A   1      52.492  25.485  27.516  1.00  0.00    -0.200 F 
ATOM     89  F   UNL A   1      53.200  25.946  24.920  1.00  0.00    -0.200 F 
ENDBRANCH  55  79
BRANCH  67  90
ATOM     90  C   UNL A   1      46.223  32.371  28.824  1.00  0.00     0.064 A 
ATOM     91  C   UNL A   1      46.214  33.416  27.887  1.00  0.00     0.173 A 
ATOM     92  C   UNL A   1      46.733  32.642  30.103  1.00  0.00     0.173 A 
ATOM     93  F   UNL A   1      45.751  33.205  26.646  1.00  0.00    -0.203 F 
ATOM     94  C   UNL A   1      46.733  34.669  28.205  1.00  0.00     0.198 A 
ATOM     95  C   UNL A   1      47.221  33.905  30.427  1.00  0.00     0.198 A 
ATOM     96  F   UNL A   1      46.758  31.681  31.039  1.00  0.00    -0.203 F 
ATOM     97  F   UNL A   1      46.773  35.632  27.274  1.00  0.00    -0.200 F 
ATOM     98  C   UNL A   1      47.232  34.913  29.476  1.00  0.00     0.200 A 
ATOM     99  F   UNL A   1      47.691  34.143  31.660  1.00  0.00    -0.200 F 
ATOM    100  F   UNL A   1      47.735  36.117  29.779  1.00  0.00    -0.200 F 
ENDBRANCH  67  90
ENDBRANCH  41  42
ENDBRANCH  33  36
ENDBRANCH  31  32
ENDBRANCH  30  31
ENDBRANCH  29  30
ENDBRANCH   1  29
TORSDOF 17
ENDMDL
