MODEL 1
REMARK VINA RESULT:     -12.4      0.000      0.000
REMARK SMILES Cc1ccc(-c2nn(CCC(=O)NCCCCCCNC(=O)c3ccc(-c4c5nc(c(-c6c(F)c(F)c(F)c(F)c6F)c6ccc([nH]6)c(-c6c(F)c(F)c(F)c(F)c6F)c6nc(c(-c7c(F)c(F)c(F)c(F)c7F)c7ccc4[nH]7)C=C6)C=C5)cc3)c(=O)c3noc(C)c23)cc1C
REMARK SMILES IDX 16 1 15 2 14 3 13 4 11 5 12 6 10 8 9 9 8 10 6 11 7 12 93 13
REMARK SMILES IDX 88 14 91 15 86 16 89 17 90 18 92 19 87 20 5 21 1 22 2 23
REMARK SMILES IDX 3 24 95 25 4 26 94 27 96 28 17 29 18 30 19 31 20 32 21 33
REMARK SMILES IDX 22 35 23 36 24 37 85 38 25 39 84 40 26 41 27 42 28 43 78 44
REMARK SMILES IDX 29 45 83 46 77 47 79 48 30 49 82 50 76 51 75 52 31 54 63 55
REMARK SMILES IDX 43 56 62 57 44 58 47 59 61 60 80 61 45 62 46 63 60 65 81 66
REMARK SMILES IDX 48 67 32 68 33 69 41 70 34 71 35 72 39 73 42 74 36 75 37 76
REMARK SMILES IDX 40 77 38 78 64 79 65 80 73 81 66 82 67 83 71 84 74 85 68 86
REMARK SMILES IDX 69 87 72 88 70 89 49 90 50 91 58 92 51 93 52 94 56 95 59 96
REMARK SMILES IDX 53 97 54 98 57 99 55 100
REMARK H PARENT 13 7 20 34 79 53 47 64
REMARK Flexibility Score: inf
ROOT
ATOM      1  C   UNL A   1      35.581  20.002  25.003  1.00  0.00     0.002 C 
ENDROOT
BRANCH   1   2
ATOM      2  C   UNL A   1      34.091  19.665  25.035  1.00  0.00     0.021 C 
BRANCH   2   3
ATOM      3  C   UNL A   1      33.264  19.954  23.780  1.00  0.00     0.116 C 
BRANCH   3   4
ATOM      4  N   UNL A   1      32.221  20.929  24.052  1.00  0.00    -0.356 N 
ATOM      5  C   UNL A   1      32.041  22.192  23.574  1.00  0.00     0.221 C 
ATOM      6  O   UNL A   1      31.130  22.872  24.052  1.00  0.00    -0.275 OA
ATOM      7  H   UNL A   1      31.531  20.626  24.686  1.00  0.00     0.163 HD
BRANCH   5   8
ATOM      8  C   UNL A   1      32.898  22.740  22.452  1.00  0.00     0.124 C 
BRANCH   8   9
ATOM      9  C   UNL A   1      33.994  23.682  22.943  1.00  0.00     0.158 C 
BRANCH   9  10
ATOM     10  N   UNL A   1      33.483  24.873  23.626  1.00  0.00    -0.227 N 
ATOM     11  C   UNL A   1      31.932  26.643  23.511  1.00  0.00     0.104 A 
ATOM     12  N   UNL A   1      32.419  25.556  22.978  1.00  0.00    -0.169 NA
ATOM     13  C   UNL A   1      32.544  27.198  24.681  1.00  0.00     0.078 A 
ATOM     14  C   UNL A   1      33.463  26.449  25.419  1.00  0.00     0.183 A 
ATOM     15  C   UNL A   1      32.478  28.413  25.317  1.00  0.00     0.143 A 
ATOM     16  C   UNL A   1      33.948  25.167  24.935  1.00  0.00     0.296 A 
ATOM     17  N   UNL A   1      33.898  27.118  26.494  1.00  0.00    -0.074 NA
ATOM     18  O   UNL A   1      33.271  28.357  26.427  1.00  0.00    -0.360 OA
ATOM     19  C   UNL A   1      31.820  29.708  25.051  1.00  0.00     0.091 C 
ATOM     20  O   UNL A   1      34.728  24.462  25.560  1.00  0.00    -0.265 OA
BRANCH  11  21
ATOM     21  C   UNL A   1      30.640  27.221  23.106  1.00  0.00     0.003 A 
ATOM     22  C   UNL A   1      26.889  29.322  23.086  1.00  0.00     0.044 C 
ATOM     23  C   UNL A   1      28.204  28.591  23.023  1.00  0.00    -0.048 A 
ATOM     24  C   UNL A   1      28.317  27.379  23.721  1.00  0.00     0.004 A 
ATOM     25  C   UNL A   1      29.322  29.098  22.320  1.00  0.00    -0.048 A 
ATOM     26  C   UNL A   1      29.526  26.698  23.765  1.00  0.00     0.011 A 
ATOM     27  C   UNL A   1      30.543  28.395  22.358  1.00  0.00     0.014 A 
ATOM     28  C   UNL A   1      29.291  30.431  21.617  1.00  0.00     0.044 C 
ENDBRANCH  11  21
ENDBRANCH   9  10
ENDBRANCH   8   9
ENDBRANCH   5   8
ENDBRANCH   3   4
ENDBRANCH   2   3
ENDBRANCH   1   2
BRANCH   1  29
ATOM     29  C   UNL A   1      35.936  21.465  24.705  1.00  0.00     0.002 C 
BRANCH  29  30
ATOM     30  C   UNL A   1      37.429  21.829  24.557  1.00  0.00     0.021 C 
BRANCH  30  31
ATOM     31  C   UNL A   1      38.104  22.597  25.713  1.00  0.00     0.116 C 
BRANCH  31  32
ATOM     32  N   UNL A   1      38.935  21.739  26.534  1.00  0.00    -0.352 N 
ATOM     33  C   UNL A   1      40.084  21.936  27.250  1.00  0.00     0.251 C 
ATOM     34  H   UNL A   1      38.601  20.814  26.587  1.00  0.00     0.163 HD
ATOM     35  O   UNL A   1      40.629  20.932  27.717  1.00  0.00    -0.269 OA
BRANCH  33  36
ATOM     36  C   UNL A   1      40.736  23.248  27.509  1.00  0.00     0.039 A 
ATOM     37  C   UNL A   1      39.905  24.253  28.030  1.00  0.00     0.014 A 
ATOM     38  C   UNL A   1      42.014  23.602  27.060  1.00  0.00     0.014 A 
ATOM     39  C   UNL A   1      40.321  25.585  28.082  1.00  0.00     0.010 A 
ATOM     40  C   UNL A   1      42.437  24.950  27.120  1.00  0.00     0.010 A 
ATOM     41  C   UNL A   1      41.588  25.954  27.616  1.00  0.00    -0.014 A 
BRANCH  41  42
ATOM     42  C   UNL A   1      41.969  27.377  27.790  1.00  0.00     0.031 A 
ATOM     43  C   UNL A   1      40.852  28.370  27.710  1.00  0.00     0.074 A 
ATOM     44  C   UNL A   1      43.098  27.759  28.434  1.00  0.00     0.049 A 
ATOM     45  N   UNL A   1      40.079  28.664  28.716  1.00  0.00    -0.248 NA
ATOM     46  C   UNL A   1      40.401  28.939  26.441  1.00  0.00     0.031 C 
ATOM     47  C   UNL A   1      43.626  27.100  29.633  1.00  0.00     0.029 A 
ATOM     48  N   UNL A   1      43.880  28.891  28.305  1.00  0.00    -0.354 N 
ATOM     49  C   UNL A   1      39.038  29.435  28.230  1.00  0.00     0.074 A 
ATOM     50  C   UNL A   1      39.275  29.572  26.809  1.00  0.00     0.031 C 
ATOM     51  C   UNL A   1      44.526  27.917  30.220  1.00  0.00     0.029 A 
ATOM     52  C   UNL A   1      44.753  29.091  29.376  1.00  0.00     0.049 A 
ATOM     53  H   UNL A   1      43.828  29.497  27.531  1.00  0.00     0.167 HD
ATOM     54  C   UNL A   1      38.061  29.941  29.029  1.00  0.00     0.037 A 
ATOM     55  C   UNL A   1      45.139  30.310  29.854  1.00  0.00     0.037 A 
ATOM     56  C   UNL A   1      38.213  29.669  30.429  1.00  0.00     0.049 A 
ATOM     57  C   UNL A   1      43.856  30.782  30.495  1.00  0.00     0.074 A 
ATOM     58  C   UNL A   1      37.761  28.754  31.354  1.00  0.00     0.029 A 
ATOM     59  N   UNL A   1      39.055  30.489  31.141  1.00  0.00    -0.354 N 
ATOM     60  N   UNL A   1      43.379  30.390  31.647  1.00  0.00    -0.248 NA
ATOM     61  C   UNL A   1      42.884  31.440  29.620  1.00  0.00     0.031 C 
ATOM     62  C   UNL A   1      38.723  28.788  32.417  1.00  0.00     0.029 A 
ATOM     63  C   UNL A   1      39.711  29.696  32.044  1.00  0.00     0.049 A 
ATOM     64  H   UNL A   1      39.165  31.461  31.025  1.00  0.00     0.167 HD
ATOM     65  C   UNL A   1      41.992  30.499  31.525  1.00  0.00     0.074 A 
ATOM     66  C   UNL A   1      41.757  31.159  30.258  1.00  0.00     0.031 C 
ATOM     67  C   UNL A   1      41.106  29.886  32.361  1.00  0.00     0.037 A 
BRANCH  54  68
ATOM     68  C   UNL A   1      37.009  30.899  28.628  1.00  0.00     0.064 A 
ATOM     69  C   UNL A   1      37.268  32.266  28.819  1.00  0.00     0.173 A 
ATOM     70  C   UNL A   1      35.695  30.509  28.356  1.00  0.00     0.173 A 
ATOM     71  F   UNL A   1      38.520  32.679  29.081  1.00  0.00    -0.203 F 
ATOM     72  C   UNL A   1      36.242  33.202  28.821  1.00  0.00     0.198 A 
ATOM     73  C   UNL A   1      34.668  31.455  28.335  1.00  0.00     0.198 A 
ATOM     74  F   UNL A   1      35.394  29.215  28.171  1.00  0.00    -0.203 F 
ATOM     75  F   UNL A   1      36.515  34.486  29.090  1.00  0.00    -0.200 F 
ATOM     76  C   UNL A   1      34.940  32.794  28.592  1.00  0.00     0.200 A 
ATOM     77  F   UNL A   1      33.405  31.066  28.110  1.00  0.00    -0.200 F 
ATOM     78  F   UNL A   1      33.943  33.689  28.637  1.00  0.00    -0.200 F 
ENDBRANCH  54  68
BRANCH  55  79
ATOM     79  C   UNL A   1      45.962  31.164  28.933  1.00  0.00     0.064 A 
ATOM     80  C   UNL A   1      47.321  31.370  29.252  1.00  0.00     0.173 A 
ATOM     81  C   UNL A   1      45.509  31.796  27.764  1.00  0.00     0.173 A 
ATOM     82  F   UNL A   1      47.813  30.928  30.420  1.00  0.00    -0.203 F 
ATOM     83  C   UNL A   1      48.199  32.018  28.381  1.00  0.00     0.198 A 
ATOM     84  C   UNL A   1      46.392  32.419  26.876  1.00  0.00     0.198 A 
ATOM     85  F   UNL A   1      44.209  31.812  27.443  1.00  0.00    -0.203 F 
ATOM     86  F   UNL A   1      49.492  32.141  28.704  1.00  0.00    -0.200 F 
ATOM     87  C   UNL A   1      47.740  32.506  27.171  1.00  0.00     0.200 A 
ATOM     88  F   UNL A   1      45.932  32.906  25.715  1.00  0.00    -0.200 F 
ATOM     89  F   UNL A   1      48.591  33.059  26.298  1.00  0.00    -0.200 F 
ENDBRANCH  55  79
BRANCH  67  90
ATOM     90  C   UNL A   1      41.688  29.196  33.544  1.00  0.00     0.064 A 
ATOM     91  C   UNL A   1      41.837  29.879  34.757  1.00  0.00     0.173 A 
ATOM     92  C   UNL A   1      42.027  27.835  33.504  1.00  0.00     0.173 A 
ATOM     93  F   UNL A   1      41.515  31.179  34.847  1.00  0.00    -0.203 F 
ATOM     94  C   UNL A   1      42.280  29.215  35.896  1.00  0.00     0.198 A 
ATOM     95  C   UNL A   1      42.441  27.168  34.651  1.00  0.00     0.198 A 
ATOM     96  F   UNL A   1      41.924  27.135  32.362  1.00  0.00    -0.203 F 
ATOM     97  F   UNL A   1      42.403  29.882  37.052  1.00  0.00    -0.200 F 
ATOM     98  C   UNL A   1      42.564  27.858  35.847  1.00  0.00     0.200 A 
ATOM     99  F   UNL A   1      42.693  25.853  34.607  1.00  0.00    -0.200 F 
ATOM    100  F   UNL A   1      42.939  27.210  36.958  1.00  0.00    -0.200 F 
ENDBRANCH  67  90
ENDBRANCH  41  42
ENDBRANCH  33  36
ENDBRANCH  31  32
ENDBRANCH  30  31
ENDBRANCH  29  30
ENDBRANCH   1  29
TORSDOF 16
ENDMDL
MODEL 2
REMARK VINA RESULT:     -11.8      5.523      9.504
REMARK SMILES Cc1ccc(-c2nn(CCC(=O)NCCCCCCNC(=O)c3ccc(-c4c5nc(c(-c6c(F)c(F)c(F)c(F)c6F)c6ccc([nH]6)c(-c6c(F)c(F)c(F)c(F)c6F)c6nc(c(-c7c(F)c(F)c(F)c(F)c7F)c7ccc4[nH]7)C=C6)C=C5)cc3)c(=O)c3noc(C)c23)cc1C
REMARK SMILES IDX 16 1 15 2 14 3 13 4 11 5 12 6 10 8 9 9 8 10 6 11 7 12 93 13
REMARK SMILES IDX 88 14 91 15 86 16 89 17 90 18 92 19 87 20 5 21 1 22 2 23
REMARK SMILES IDX 3 24 95 25 4 26 94 27 96 28 17 29 18 30 19 31 20 32 21 33
REMARK SMILES IDX 22 35 23 36 24 37 85 38 25 39 84 40 26 41 27 42 28 43 78 44
REMARK SMILES IDX 29 45 83 46 77 47 79 48 30 49 82 50 76 51 75 52 31 54 63 55
REMARK SMILES IDX 43 56 62 57 44 58 47 59 61 60 80 61 45 62 46 63 60 65 81 66
REMARK SMILES IDX 48 67 32 68 33 69 41 70 34 71 35 72 39 73 42 74 36 75 37 76
REMARK SMILES IDX 40 77 38 78 64 79 65 80 73 81 66 82 67 83 71 84 74 85 68 86
REMARK SMILES IDX 69 87 72 88 70 89 49 90 50 91 58 92 51 93 52 94 56 95 59 96
REMARK SMILES IDX 53 97 54 98 57 99 55 100
REMARK H PARENT 13 7 20 34 79 53 47 64
REMARK Flexibility Score: inf
ROOT
ATOM      1  C   UNL A   1      45.173  27.712  28.981  1.00  0.00     0.002 C 
ENDROOT
BRANCH   1   2
ATOM      2  C   UNL A   1      43.772  27.652  28.374  1.00  0.00     0.021 C 
BRANCH   2   3
ATOM      3  C   UNL A   1      42.651  27.039  29.217  1.00  0.00     0.116 C 
BRANCH   3   4
ATOM      4  N   UNL A   1      41.356  27.584  28.844  1.00  0.00    -0.356 N 
ATOM      5  C   UNL A   1      40.238  26.968  28.368  1.00  0.00     0.221 C 
ATOM      6  O   UNL A   1      39.292  27.673  28.010  1.00  0.00    -0.275 OA
ATOM      7  H   UNL A   1      41.274  28.560  28.952  1.00  0.00     0.163 HD
BRANCH   5   8
ATOM      8  C   UNL A   1      40.129  25.458  28.321  1.00  0.00     0.124 C 
BRANCH   8   9
ATOM      9  C   UNL A   1      40.106  24.904  26.900  1.00  0.00     0.158 C 
BRANCH   9  10
ATOM     10  N   UNL A   1      41.291  24.115  26.556  1.00  0.00    -0.227 N 
ATOM     11  C   UNL A   1      43.612  24.199  26.160  1.00  0.00     0.104 A 
ATOM     12  N   UNL A   1      42.518  24.828  26.488  1.00  0.00    -0.169 NA
ATOM     13  C   UNL A   1      43.550  22.824  25.763  1.00  0.00     0.078 A 
ATOM     14  C   UNL A   1      42.395  22.073  25.996  1.00  0.00     0.183 A 
ATOM     15  C   UNL A   1      44.410  21.969  25.120  1.00  0.00     0.143 A 
ATOM     16  C   UNL A   1      41.178  22.700  26.484  1.00  0.00     0.296 A 
ATOM     17  N   UNL A   1      42.539  20.805  25.591  1.00  0.00    -0.074 NA
ATOM     18  O   UNL A   1      43.814  20.743  25.041  1.00  0.00    -0.360 OA
ATOM     19  C   UNL A   1      45.737  22.088  24.483  1.00  0.00     0.091 C 
ATOM     20  O   UNL A   1      40.153  22.081  26.732  1.00  0.00    -0.265 OA
BRANCH  11  21
ATOM     21  C   UNL A   1      44.954  24.760  26.383  1.00  0.00     0.003 A 
ATOM     22  C   UNL A   1      49.206  25.230  26.821  1.00  0.00     0.044 C 
ATOM     23  C   UNL A   1      47.712  25.134  26.656  1.00  0.00    -0.048 A 
ATOM     24  C   UNL A   1      46.981  24.474  27.654  1.00  0.00     0.004 A 
ATOM     25  C   UNL A   1      47.039  25.653  25.525  1.00  0.00    -0.048 A 
ATOM     26  C   UNL A   1      45.612  24.285  27.520  1.00  0.00     0.011 A 
ATOM     27  C   UNL A   1      45.647  25.470  25.402  1.00  0.00     0.014 A 
ATOM     28  C   UNL A   1      47.774  26.302  24.381  1.00  0.00     0.044 C 
ENDBRANCH  11  21
ENDBRANCH   9  10
ENDBRANCH   8   9
ENDBRANCH   5   8
ENDBRANCH   3   4
ENDBRANCH   2   3
ENDBRANCH   1   2
BRANCH   1  29
ATOM     29  C   UNL A   1      46.291  28.200  28.049  1.00  0.00     0.002 C 
BRANCH  29  30
ATOM     30  C   UNL A   1      45.888  29.046  26.822  1.00  0.00     0.021 C 
BRANCH  30  31
ATOM     31  C   UNL A   1      46.750  30.279  26.480  1.00  0.00     0.116 C 
BRANCH  31  32
ATOM     32  N   UNL A   1      46.001  31.296  25.768  1.00  0.00    -0.352 N 
ATOM     33  C   UNL A   1      44.911  32.061  26.079  1.00  0.00     0.251 C 
ATOM     34  H   UNL A   1      46.352  31.473  24.866  1.00  0.00     0.163 HD
ATOM     35  O   UNL A   1      44.420  32.731  25.166  1.00  0.00    -0.269 OA
BRANCH  33  36
ATOM     36  C   UNL A   1      44.262  32.153  27.415  1.00  0.00     0.039 A 
ATOM     37  C   UNL A   1      44.760  33.150  28.270  1.00  0.00     0.014 A 
ATOM     38  C   UNL A   1      43.389  31.194  27.941  1.00  0.00     0.014 A 
ATOM     39  C   UNL A   1      44.419  33.182  29.624  1.00  0.00     0.010 A 
ATOM     40  C   UNL A   1      43.039  31.231  29.312  1.00  0.00     0.010 A 
ATOM     41  C   UNL A   1      43.564  32.216  30.166  1.00  0.00    -0.014 A 
BRANCH  41  42
ATOM     42  C   UNL A   1      43.196  32.381  31.594  1.00  0.00     0.031 A 
ATOM     43  C   UNL A   1      41.735  32.523  31.882  1.00  0.00     0.074 A 
ATOM     44  C   UNL A   1      43.994  31.969  32.608  1.00  0.00     0.049 A 
ATOM     45  N   UNL A   1      40.923  31.511  31.998  1.00  0.00    -0.248 NA
ATOM     46  C   UNL A   1      41.053  33.817  31.848  1.00  0.00     0.031 C 
ATOM     47  C   UNL A   1      44.785  30.735  32.584  1.00  0.00     0.029 A 
ATOM     48  N   UNL A   1      44.116  32.418  33.909  1.00  0.00    -0.354 N 
ATOM     49  C   UNL A   1      39.634  32.013  32.040  1.00  0.00     0.074 A 
ATOM     50  C   UNL A   1      39.764  33.450  31.933  1.00  0.00     0.031 C 
ATOM     51  C   UNL A   1      45.169  30.438  33.845  1.00  0.00     0.029 A 
ATOM     52  C   UNL A   1      44.783  31.523  34.748  1.00  0.00     0.049 A 
ATOM     53  H   UNL A   1      43.767  33.286  34.216  1.00  0.00     0.167 HD
ATOM     54  C   UNL A   1      38.539  31.220  32.188  1.00  0.00     0.037 A 
ATOM     55  C   UNL A   1      44.522  31.352  36.077  1.00  0.00     0.037 A 
ATOM     56  C   UNL A   1      38.814  29.824  32.361  1.00  0.00     0.049 A 
ATOM     57  C   UNL A   1      43.176  30.668  36.014  1.00  0.00     0.074 A 
ATOM     58  C   UNL A   1      38.878  28.685  31.588  1.00  0.00     0.029 A 
ATOM     59  N   UNL A   1      39.148  29.399  33.625  1.00  0.00    -0.354 N 
ATOM     60  N   UNL A   1      42.962  29.412  35.726  1.00  0.00    -0.248 NA
ATOM     61  C   UNL A   1      42.001  31.534  35.901  1.00  0.00     0.031 C 
ATOM     62  C   UNL A   1      39.705  27.775  32.327  1.00  0.00     0.029 A 
ATOM     63  C   UNL A   1      40.114  28.441  33.480  1.00  0.00     0.049 A 
ATOM     64  H   UNL A   1      38.763  29.722  34.473  1.00  0.00     0.167 HD
ATOM     65  C   UNL A   1      41.701  29.384  35.126  1.00  0.00     0.074 A 
ATOM     66  C   UNL A   1      41.163  30.720  35.275  1.00  0.00     0.031 C 
ATOM     67  C   UNL A   1      41.236  28.340  34.381  1.00  0.00     0.037 A 
BRANCH  54  68
ATOM     68  C   UNL A   1      37.149  31.676  32.402  1.00  0.00     0.064 A 
ATOM     69  C   UNL A   1      36.320  31.782  31.273  1.00  0.00     0.173 A 
ATOM     70  C   UNL A   1      36.725  32.275  33.590  1.00  0.00     0.173 A 
ATOM     71  F   UNL A   1      36.694  31.217  30.113  1.00  0.00    -0.203 F 
ATOM     72  C   UNL A   1      35.148  32.526  31.306  1.00  0.00     0.198 A 
ATOM     73  C   UNL A   1      35.534  33.004  33.627  1.00  0.00     0.198 A 
ATOM     74  F   UNL A   1      37.483  32.208  34.695  1.00  0.00    -0.203 F 
ATOM     75  F   UNL A   1      34.424  32.675  30.189  1.00  0.00    -0.200 F 
ATOM     76  C   UNL A   1      34.763  33.149  32.480  1.00  0.00     0.200 A 
ATOM     77  F   UNL A   1      35.154  33.606  34.763  1.00  0.00    -0.200 F 
ATOM     78  F   UNL A   1      33.656  33.905  32.502  1.00  0.00    -0.200 F 
ENDBRANCH  54  68
BRANCH  55  79
ATOM     79  C   UNL A   1      44.811  32.519  36.976  1.00  0.00     0.064 A 
ATOM     80  C   UNL A   1      45.629  32.303  38.106  1.00  0.00     0.173 A 
ATOM     81  C   UNL A   1      44.340  33.830  36.808  1.00  0.00     0.173 A 
ATOM     82  F   UNL A   1      46.011  31.059  38.432  1.00  0.00    -0.203 F 
ATOM     83  C   UNL A   1      46.077  33.353  38.909  1.00  0.00     0.198 A 
ATOM     84  C   UNL A   1      44.811  34.888  37.593  1.00  0.00     0.198 A 
ATOM     85  F   UNL A   1      43.428  34.126  35.872  1.00  0.00    -0.203 F 
ATOM     86  F   UNL A   1      46.896  33.103  39.939  1.00  0.00    -0.200 F 
ATOM     87  C   UNL A   1      45.700  34.652  38.626  1.00  0.00     0.200 A 
ATOM     88  F   UNL A   1      44.423  36.142  37.322  1.00  0.00    -0.200 F 
ATOM     89  F   UNL A   1      46.187  35.671  39.346  1.00  0.00    -0.200 F 
ENDBRANCH  55  79
BRANCH  67  90
ATOM     90  C   UNL A   1      42.090  27.122  34.354  1.00  0.00     0.064 A 
ATOM     91  C   UNL A   1      43.108  26.995  33.401  1.00  0.00     0.173 A 
ATOM     92  C   UNL A   1      41.956  26.112  35.318  1.00  0.00     0.173 A 
ATOM     93  F   UNL A   1      43.283  27.943  32.465  1.00  0.00    -0.203 F 
ATOM     94  C   UNL A   1      43.981  25.912  33.432  1.00  0.00     0.198 A 
ATOM     95  C   UNL A   1      42.848  25.046  35.363  1.00  0.00     0.198 A 
ATOM     96  F   UNL A   1      40.985  26.170  36.243  1.00  0.00    -0.203 F 
ATOM     97  F   UNL A   1      44.958  25.816  32.520  1.00  0.00    -0.200 F 
ATOM     98  C   UNL A   1      43.861  24.949  34.423  1.00  0.00     0.200 A 
ATOM     99  F   UNL A   1      42.745  24.129  36.335  1.00  0.00    -0.200 F 
ATOM    100  F   UNL A   1      44.735  23.935  34.482  1.00  0.00    -0.200 F 
ENDBRANCH  67  90
ENDBRANCH  41  42
ENDBRANCH  33  36
ENDBRANCH  31  32
ENDBRANCH  30  31
ENDBRANCH  29  30
ENDBRANCH   1  29
TORSDOF 16
ENDMDL
MODEL 3
REMARK VINA RESULT:     -11.7      3.129      7.862
REMARK SMILES Cc1ccc(-c2nn(CCC(=O)NCCCCCCNC(=O)c3ccc(-c4c5nc(c(-c6c(F)c(F)c(F)c(F)c6F)c6ccc([nH]6)c(-c6c(F)c(F)c(F)c(F)c6F)c6nc(c(-c7c(F)c(F)c(F)c(F)c7F)c7ccc4[nH]7)C=C6)C=C5)cc3)c(=O)c3noc(C)c23)cc1C
REMARK SMILES IDX 16 1 15 2 14 3 13 4 11 5 12 6 10 8 9 9 8 10 6 11 7 12 93 13
REMARK SMILES IDX 88 14 91 15 86 16 89 17 90 18 92 19 87 20 5 21 1 22 2 23
REMARK SMILES IDX 3 24 95 25 4 26 94 27 96 28 17 29 18 30 19 31 20 32 21 33
REMARK SMILES IDX 22 35 23 36 24 37 85 38 25 39 84 40 26 41 27 42 28 43 78 44
REMARK SMILES IDX 29 45 83 46 77 47 79 48 30 49 82 50 76 51 75 52 31 54 63 55
REMARK SMILES IDX 43 56 62 57 44 58 47 59 61 60 80 61 45 62 46 63 60 65 81 66
REMARK SMILES IDX 48 67 32 68 33 69 41 70 34 71 35 72 39 73 42 74 36 75 37 76
REMARK SMILES IDX 40 77 38 78 64 79 65 80 73 81 66 82 67 83 71 84 74 85 68 86
REMARK SMILES IDX 69 87 72 88 70 89 49 90 50 91 58 92 51 93 52 94 56 95 59 96
REMARK SMILES IDX 53 97 54 98 57 99 55 100
REMARK H PARENT 13 7 20 34 79 53 47 64
REMARK Flexibility Score: inf
ROOT
ATOM      1  C   UNL A   1      32.365  29.428  24.895  1.00  0.00     0.002 C 
ENDROOT
BRANCH   1   2
ATOM      2  C   UNL A   1      32.897  28.930  23.552  1.00  0.00     0.021 C 
BRANCH   2   3
ATOM      3  C   UNL A   1      33.750  27.659  23.546  1.00  0.00     0.116 C 
BRANCH   3   4
ATOM      4  N   UNL A   1      33.787  27.059  22.223  1.00  0.00    -0.356 N 
ATOM      5  C   UNL A   1      32.872  26.285  21.574  1.00  0.00     0.221 C 
ATOM      6  O   UNL A   1      33.190  25.793  20.489  1.00  0.00    -0.275 OA
ATOM      7  H   UNL A   1      34.610  27.240  21.713  1.00  0.00     0.163 HD
BRANCH   5   8
ATOM      8  C   UNL A   1      31.483  26.070  22.135  1.00  0.00     0.124 C 
BRANCH   8   9
ATOM      9  C   UNL A   1      31.201  24.613  22.492  1.00  0.00     0.158 C 
BRANCH   9  10
ATOM     10  N   UNL A   1      31.812  24.187  23.753  1.00  0.00    -0.227 N 
ATOM     11  C   UNL A   1      33.717  23.211  24.737  1.00  0.00     0.104 A 
ATOM     12  N   UNL A   1      33.119  23.639  23.660  1.00  0.00    -0.169 NA
ATOM     13  C   UNL A   1      33.011  23.193  25.984  1.00  0.00     0.078 A 
ATOM     14  C   UNL A   1      31.806  23.887  26.121  1.00  0.00     0.183 A 
ATOM     15  C   UNL A   1      33.216  22.585  27.197  1.00  0.00     0.143 A 
ATOM     16  C   UNL A   1      31.155  24.496  24.974  1.00  0.00     0.296 A 
ATOM     17  N   UNL A   1      31.315  23.784  27.363  1.00  0.00    -0.074 NA
ATOM     18  O   UNL A   1      32.211  22.964  28.040  1.00  0.00    -0.360 OA
ATOM     19  C   UNL A   1      34.196  21.626  27.744  1.00  0.00     0.091 C 
ATOM     20  O   UNL A   1      30.117  25.138  25.051  1.00  0.00    -0.265 OA
BRANCH  11  21
ATOM     21  C   UNL A   1      35.163  22.944  24.796  1.00  0.00     0.003 A 
ATOM     22  C   UNL A   1      39.149  22.111  26.177  1.00  0.00     0.044 C 
ATOM     23  C   UNL A   1      37.772  22.379  25.631  1.00  0.00    -0.048 A 
ATOM     24  C   UNL A   1      37.217  23.650  25.838  1.00  0.00     0.004 A 
ATOM     25  C   UNL A   1      37.019  21.391  24.954  1.00  0.00    -0.048 A 
ATOM     26  C   UNL A   1      35.922  23.933  25.426  1.00  0.00     0.011 A 
ATOM     27  C   UNL A   1      35.709  21.688  24.526  1.00  0.00     0.014 A 
ATOM     28  C   UNL A   1      37.524  19.983  24.768  1.00  0.00     0.044 C 
ENDBRANCH  11  21
ENDBRANCH   9  10
ENDBRANCH   8   9
ENDBRANCH   5   8
ENDBRANCH   3   4
ENDBRANCH   2   3
ENDBRANCH   1   2
BRANCH   1  29
ATOM     29  C   UNL A   1      32.782  28.615  26.129  1.00  0.00     0.002 C 
BRANCH  29  30
ATOM     30  C   UNL A   1      34.062  29.047  26.877  1.00  0.00     0.021 C 
BRANCH  30  31
ATOM     31  C   UNL A   1      33.923  30.093  28.003  1.00  0.00     0.116 C 
BRANCH  31  32
ATOM     32  N   UNL A   1      34.564  31.350  27.670  1.00  0.00    -0.352 N 
ATOM     33  C   UNL A   1      35.800  31.879  27.921  1.00  0.00     0.251 C 
ATOM     34  H   UNL A   1      33.983  31.953  27.152  1.00  0.00     0.163 HD
ATOM     35  O   UNL A   1      35.970  33.065  27.625  1.00  0.00    -0.269 OA
BRANCH  33  36
ATOM     36  C   UNL A   1      36.952  31.156  28.524  1.00  0.00     0.039 A 
ATOM     37  C   UNL A   1      37.757  31.907  29.397  1.00  0.00     0.014 A 
ATOM     38  C   UNL A   1      37.406  29.899  28.109  1.00  0.00     0.014 A 
ATOM     39  C   UNL A   1      38.998  31.433  29.829  1.00  0.00     0.010 A 
ATOM     40  C   UNL A   1      38.660  29.417  28.553  1.00  0.00     0.010 A 
ATOM     41  C   UNL A   1      39.472  30.187  29.403  1.00  0.00    -0.014 A 
BRANCH  41  42
ATOM     42  C   UNL A   1      40.761  29.735  29.981  1.00  0.00     0.031 A 
ATOM     43  C   UNL A   1      41.989  30.405  29.449  1.00  0.00     0.074 A 
ATOM     44  C   UNL A   1      40.851  29.143  31.196  1.00  0.00     0.049 A 
ATOM     45  N   UNL A   1      42.427  31.552  29.883  1.00  0.00    -0.248 NA
ATOM     46  C   UNL A   1      42.682  29.930  28.251  1.00  0.00     0.031 C 
ATOM     47  C   UNL A   1      40.054  29.532  32.363  1.00  0.00     0.029 A 
ATOM     48  N   UNL A   1      41.773  28.247  31.705  1.00  0.00    -0.354 N 
ATOM     49  C   UNL A   1      43.433  31.965  29.027  1.00  0.00     0.074 A 
ATOM     50  C   UNL A   1      43.550  30.930  28.023  1.00  0.00     0.031 C 
ATOM     51  C   UNL A   1      40.623  29.013  33.473  1.00  0.00     0.029 A 
ATOM     52  C   UNL A   1      41.734  28.138  33.096  1.00  0.00     0.049 A 
ATOM     53  H   UNL A   1      42.396  27.735  31.141  1.00  0.00     0.167 HD
ATOM     54  C   UNL A   1      44.130  33.118  29.212  1.00  0.00     0.037 A 
ATOM     55  C   UNL A   1      42.816  27.894  33.892  1.00  0.00     0.037 A 
ATOM     56  C   UNL A   1      43.792  33.855  30.394  1.00  0.00     0.049 A 
ATOM     57  C   UNL A   1      43.556  29.205  33.773  1.00  0.00     0.074 A 
ATOM     58  C   UNL A   1      42.982  34.910  30.752  1.00  0.00     0.029 A 
ATOM     59  N   UNL A   1      44.373  33.453  31.574  1.00  0.00    -0.354 N 
ATOM     60  N   UNL A   1      43.254  30.320  34.384  1.00  0.00    -0.248 NA
ATOM     61  C   UNL A   1      44.447  29.358  32.621  1.00  0.00     0.031 C 
ATOM     62  C   UNL A   1      42.761  34.754  32.160  1.00  0.00     0.029 A 
ATOM     63  C   UNL A   1      43.424  33.593  32.551  1.00  0.00     0.049 A 
ATOM     64  H   UNL A   1      45.295  33.129  31.693  1.00  0.00     0.167 HD
ATOM     65  C   UNL A   1      43.687  31.336  33.528  1.00  0.00     0.074 A 
ATOM     66  C   UNL A   1      44.419  30.673  32.468  1.00  0.00     0.031 C 
ATOM     67  C   UNL A   1      43.275  32.633  33.618  1.00  0.00     0.037 A 
BRANCH  54  68
ATOM     68  C   UNL A   1      45.318  33.556  28.448  1.00  0.00     0.064 A 
ATOM     69  C   UNL A   1      45.098  34.278  27.263  1.00  0.00     0.173 A 
ATOM     70  C   UNL A   1      46.596  33.044  28.680  1.00  0.00     0.173 A 
ATOM     71  F   UNL A   1      43.881  34.786  27.006  1.00  0.00    -0.203 F 
ATOM     72  C   UNL A   1      46.095  34.416  26.306  1.00  0.00     0.198 A 
ATOM     73  C   UNL A   1      47.605  33.204  27.727  1.00  0.00     0.198 A 
ATOM     74  F   UNL A   1      46.857  32.343  29.794  1.00  0.00    -0.203 F 
ATOM     75  F   UNL A   1      45.826  35.039  25.151  1.00  0.00    -0.200 F 
ATOM     76  C   UNL A   1      47.344  33.866  26.532  1.00  0.00     0.200 A 
ATOM     77  F   UNL A   1      48.818  32.677  27.942  1.00  0.00    -0.200 F 
ATOM     78  F   UNL A   1      48.295  33.960  25.592  1.00  0.00    -0.200 F 
ENDBRANCH  54  68
BRANCH  55  79
ATOM     79  C   UNL A   1      43.480  26.557  33.736  1.00  0.00     0.064 A 
ATOM     80  C   UNL A   1      43.523  25.699  34.856  1.00  0.00     0.173 A 
ATOM     81  C   UNL A   1      44.078  26.061  32.567  1.00  0.00     0.173 A 
ATOM     82  F   UNL A   1      43.107  26.136  36.054  1.00  0.00    -0.203 F 
ATOM     83  C   UNL A   1      43.979  24.383  34.766  1.00  0.00     0.198 A 
ATOM     84  C   UNL A   1      44.508  24.734  32.466  1.00  0.00     0.198 A 
ATOM     85  F   UNL A   1      44.246  26.839  31.490  1.00  0.00    -0.203 F 
ATOM     86  F   UNL A   1      43.949  23.590  35.845  1.00  0.00    -0.200 F 
ATOM     87  C   UNL A   1      44.433  23.888  33.557  1.00  0.00     0.200 A 
ATOM     88  F   UNL A   1      44.965  24.271  31.295  1.00  0.00    -0.200 F 
ATOM     89  F   UNL A   1      44.799  22.604  33.446  1.00  0.00    -0.200 F 
ENDBRANCH  55  79
BRANCH  67  90
ATOM     90  C   UNL A   1      42.435  32.975  34.798  1.00  0.00     0.064 A 
ATOM     91  C   UNL A   1      41.042  32.859  34.729  1.00  0.00     0.173 A 
ATOM     92  C   UNL A   1      43.010  33.343  36.023  1.00  0.00     0.173 A 
ATOM     93  F   UNL A   1      40.447  32.497  33.581  1.00  0.00    -0.203 F 
ATOM     94  C   UNL A   1      40.255  33.072  35.856  1.00  0.00     0.198 A 
ATOM     95  C   UNL A   1      42.223  33.527  37.154  1.00  0.00     0.198 A 
ATOM     96  F   UNL A   1      44.340  33.490  36.141  1.00  0.00    -0.203 F 
ATOM     97  F   UNL A   1      38.924  32.942  35.775  1.00  0.00    -0.200 F 
ATOM     98  C   UNL A   1      40.846  33.388  37.071  1.00  0.00     0.200 A 
ATOM     99  F   UNL A   1      42.798  33.809  38.331  1.00  0.00    -0.200 F 
ATOM    100  F   UNL A   1      40.090  33.541  38.166  1.00  0.00    -0.200 F 
ENDBRANCH  67  90
ENDBRANCH  41  42
ENDBRANCH  33  36
ENDBRANCH  31  32
ENDBRANCH  30  31
ENDBRANCH  29  30
ENDBRANCH   1  29
TORSDOF 16
ENDMDL
