MODEL 1
REMARK VINA RESULT:     -12.6      0.000      0.000
REMARK SMILES Cc1cc2nc(SCC(=O)NCCCCCCNC(=O)c3ccc(-c4c5nc(c(-c6c(F)c(F)c(F)c(F)c6F)c6ccc([nH]6)c(-c6c(F)c(F)c(F)c(F)c6F)c6nc(c(-c7c(F)c(F)c(F)c(F)c7F)c7ccc4[nH]7)C=C6)C=C5)cc3)n(CC(C)C)c(=O)c2[nH]1
REMARK SMILES IDX 13 1 12 2 11 3 9 4 10 5 8 7 7 8 6 9 1 10 2 11 3 12 92 13
REMARK SMILES IDX 4 14 91 15 5 17 89 18 84 19 90 20 85 21 86 22 87 23 88 24
REMARK SMILES IDX 14 25 15 26 16 27 17 28 18 29 19 30 20 32 21 33 22 34 83 35
REMARK SMILES IDX 23 36 82 37 24 38 25 39 26 40 76 41 27 42 81 43 75 44 77 45
REMARK SMILES IDX 28 46 80 47 74 48 73 49 29 51 61 52 41 53 60 54 42 55 45 56
REMARK SMILES IDX 59 57 78 58 43 59 44 60 58 62 79 63 46 64 30 65 31 66 39 67
REMARK SMILES IDX 32 68 33 69 37 70 40 71 34 72 35 73 38 74 36 75 62 76 63 77
REMARK SMILES IDX 71 78 64 79 65 80 69 81 72 82 66 83 67 84 70 85 68 86 47 87
REMARK SMILES IDX 48 88 56 89 49 90 50 91 54 92 57 93 51 94 52 95 55 96 53 97
REMARK H PARENT 11 6 92 16 18 31 77 50 45 61
REMARK Flexibility Score: inf
ROOT
ATOM      1  C   UNL A   1      34.729  21.632  25.653  1.00  0.00     0.021 C 
ENDROOT
BRANCH   1   2
ATOM      2  C   UNL A   1      33.292  22.003  25.303  1.00  0.00     0.116 C 
BRANCH   2   3
ATOM      3  N   UNL A   1      32.601  22.654  26.394  1.00  0.00    -0.355 N 
ATOM      4  C   UNL A   1      31.452  23.375  26.353  1.00  0.00     0.230 C 
ATOM      5  O   UNL A   1      30.782  23.417  27.387  1.00  0.00    -0.274 OA
ATOM      6  H   UNL A   1      33.018  22.561  27.282  1.00  0.00     0.163 HD
BRANCH   4   7
ATOM      7  C   UNL A   1      30.933  24.024  25.095  1.00  0.00     0.178 C 
BRANCH   7   8
ATOM      8  S   UNL A   1      30.139  25.592  25.266  1.00  0.00    -0.078 SA
BRANCH   8   9
ATOM      9  C   UNL A   1      30.510  26.868  24.132  1.00  0.00     0.172 A 
ATOM     10  C   UNL A   1      28.404  31.244  20.713  1.00  0.00     0.064 C 
ATOM     11  C   UNL A   1      28.999  30.238  21.627  1.00  0.00     0.014 A 
ATOM     12  C   UNL A   1      28.401  29.262  22.412  1.00  0.00     0.052 A 
ATOM     13  N   UNL A   1      30.365  30.134  21.800  1.00  0.00    -0.353 N 
ATOM     14  C   UNL A   1      29.446  28.531  22.989  1.00  0.00     0.097 A 
ATOM     15  C   UNL A   1      30.630  29.077  22.627  1.00  0.00     0.131 A 
ATOM     16  H   UNL A   1      31.040  30.725  21.395  1.00  0.00     0.166 HD
ATOM     17  N   UNL A   1      29.373  27.434  23.819  1.00  0.00    -0.222 NA
ATOM     18  C   UNL A   1      31.873  28.552  23.051  1.00  0.00     0.278 A 
ATOM     19  N   UNL A   1      31.773  27.297  23.686  1.00  0.00    -0.286 N 
ATOM     20  O   UNL A   1      32.929  29.159  22.855  1.00  0.00    -0.267 OA
BRANCH  19  21
ATOM     21  C   UNL A   1      33.069  26.618  23.812  1.00  0.00     0.131 C 
BRANCH  21  22
ATOM     22  C   UNL A   1      33.512  26.347  25.283  1.00  0.00     0.003 C 
ATOM     23  C   UNL A   1      34.698  25.383  25.424  1.00  0.00     0.009 C 
ATOM     24  C   UNL A   1      33.930  27.656  25.968  1.00  0.00     0.009 C 
ENDBRANCH  21  22
ENDBRANCH  19  21
ENDBRANCH   8   9
ENDBRANCH   7   8
ENDBRANCH   4   7
ENDBRANCH   2   3
ENDBRANCH   1   2
BRANCH   1  25
ATOM     25  C   UNL A   1      35.752  21.865  24.535  1.00  0.00     0.002 C 
BRANCH  25  26
ATOM     26  C   UNL A   1      37.053  22.579  24.936  1.00  0.00     0.002 C 
BRANCH  26  27
ATOM     27  C   UNL A   1      38.126  21.723  25.623  1.00  0.00     0.021 C 
BRANCH  27  28
ATOM     28  C   UNL A   1      39.133  22.532  26.417  1.00  0.00     0.116 C 
BRANCH  28  29
ATOM     29  N   UNL A   1      40.511  22.168  26.101  1.00  0.00    -0.352 N 
ATOM     30  C   UNL A   1      41.605  23.004  26.039  1.00  0.00     0.251 C 
ATOM     31  H   UNL A   1      40.678  21.217  25.910  1.00  0.00     0.163 HD
ATOM     32  O   UNL A   1      42.614  22.689  25.420  1.00  0.00    -0.269 OA
BRANCH  30  33
ATOM     33  C   UNL A   1      41.551  24.281  26.769  1.00  0.00     0.039 A 
ATOM     34  C   UNL A   1      42.081  24.418  28.055  1.00  0.00     0.014 A 
ATOM     35  C   UNL A   1      40.916  25.351  26.138  1.00  0.00     0.014 A 
ATOM     36  C   UNL A   1      41.978  25.652  28.688  1.00  0.00     0.010 A 
ATOM     37  C   UNL A   1      40.973  26.602  26.682  1.00  0.00     0.010 A 
ATOM     38  C   UNL A   1      41.410  26.728  27.990  1.00  0.00    -0.014 A 
BRANCH  38  39
ATOM     39  C   UNL A   1      41.283  28.044  28.583  1.00  0.00     0.031 A 
ATOM     40  C   UNL A   1      42.318  29.010  28.146  1.00  0.00     0.074 A 
ATOM     41  C   UNL A   1      40.183  28.402  29.280  1.00  0.00     0.049 A 
ATOM     42  N   UNL A   1      43.264  29.516  28.861  1.00  0.00    -0.248 NA
ATOM     43  C   UNL A   1      42.407  29.343  26.714  1.00  0.00     0.031 C 
ATOM     44  C   UNL A   1      38.943  27.648  29.503  1.00  0.00     0.029 A 
ATOM     45  N   UNL A   1      39.918  29.588  29.884  1.00  0.00    -0.354 N 
ATOM     46  C   UNL A   1      43.965  30.373  28.021  1.00  0.00     0.074 A 
ATOM     47  C   UNL A   1      43.508  30.096  26.682  1.00  0.00     0.031 C 
ATOM     48  C   UNL A   1      37.992  28.471  30.003  1.00  0.00     0.029 A 
ATOM     49  C   UNL A   1      38.598  29.759  30.287  1.00  0.00     0.049 A 
ATOM     50  H   UNL A   1      40.608  30.276  30.027  1.00  0.00     0.167 HD
ATOM     51  C   UNL A   1      44.701  31.402  28.524  1.00  0.00     0.037 A 
ATOM     52  C   UNL A   1      38.062  30.902  30.785  1.00  0.00     0.037 A 
ATOM     53  C   UNL A   1      44.900  31.250  29.943  1.00  0.00     0.049 A 
ATOM     54  C   UNL A   1      39.198  31.732  31.269  1.00  0.00     0.074 A 
ATOM     55  C   UNL A   1      45.551  30.324  30.734  1.00  0.00     0.029 A 
ATOM     56  N   UNL A   1      44.031  31.912  30.778  1.00  0.00    -0.354 N 
ATOM     57  N   UNL A   1      39.954  31.399  32.279  1.00  0.00    -0.248 NA
ATOM     58  C   UNL A   1      39.789  32.667  30.324  1.00  0.00     0.031 C 
ATOM     59  C   UNL A   1      44.705  30.148  31.868  1.00  0.00     0.029 A 
ATOM     60  C   UNL A   1      43.629  31.029  31.748  1.00  0.00     0.049 A 
ATOM     61  H   UNL A   1      43.748  32.851  30.693  1.00  0.00     0.167 HD
ATOM     62  C   UNL A   1      41.241  31.732  31.882  1.00  0.00     0.074 A 
ATOM     63  C   UNL A   1      41.068  32.569  30.694  1.00  0.00     0.031 C 
ATOM     64  C   UNL A   1      42.324  31.060  32.370  1.00  0.00     0.037 A 
BRANCH  51  65
ATOM     65  C   UNL A   1      44.944  32.705  27.818  1.00  0.00     0.064 A 
ATOM     66  C   UNL A   1      46.187  32.935  27.198  1.00  0.00     0.173 A 
ATOM     67  C   UNL A   1      44.114  33.836  27.965  1.00  0.00     0.173 A 
ATOM     68  F   UNL A   1      47.065  31.934  27.038  1.00  0.00    -0.203 F 
ATOM     69  C   UNL A   1      46.587  34.215  26.802  1.00  0.00     0.198 A 
ATOM     70  C   UNL A   1      44.493  35.101  27.520  1.00  0.00     0.198 A 
ATOM     71  F   UNL A   1      42.961  33.787  28.643  1.00  0.00    -0.203 F 
ATOM     72  F   UNL A   1      47.822  34.406  26.320  1.00  0.00    -0.200 F 
ATOM     73  C   UNL A   1      45.740  35.296  26.964  1.00  0.00     0.200 A 
ATOM     74  F   UNL A   1      43.667  36.140  27.707  1.00  0.00    -0.200 F 
ATOM     75  F   UNL A   1      46.139  36.530  26.632  1.00  0.00    -0.200 F 
ENDBRANCH  51  65
BRANCH  52  76
ATOM     76  C   UNL A   1      36.722  31.488  30.521  1.00  0.00     0.064 A 
ATOM     77  C   UNL A   1      35.884  31.872  31.582  1.00  0.00     0.173 A 
ATOM     78  C   UNL A   1      36.374  31.971  29.245  1.00  0.00     0.173 A 
ATOM     79  F   UNL A   1      36.166  31.488  32.836  1.00  0.00    -0.203 F 
ATOM     80  C   UNL A   1      34.791  32.724  31.386  1.00  0.00     0.198 A 
ATOM     81  C   UNL A   1      35.280  32.820  29.050  1.00  0.00     0.198 A 
ATOM     82  F   UNL A   1      37.146  31.715  28.179  1.00  0.00    -0.203 F 
ATOM     83  F   UNL A   1      34.058  33.126  32.435  1.00  0.00    -0.200 F 
ATOM     84  C   UNL A   1      34.501  33.210  30.122  1.00  0.00     0.200 A 
ATOM     85  F   UNL A   1      35.030  33.311  27.828  1.00  0.00    -0.200 F 
ATOM     86  F   UNL A   1      33.499  34.083  29.944  1.00  0.00    -0.200 F 
ENDBRANCH  52  76
BRANCH  64  87
ATOM     87  C   UNL A   1      42.101  30.110  33.518  1.00  0.00     0.064 A 
ATOM     88  C   UNL A   1      41.831  28.737  33.369  1.00  0.00     0.173 A 
ATOM     89  C   UNL A   1      42.327  30.578  34.818  1.00  0.00     0.173 A 
ATOM     90  F   UNL A   1      41.693  28.189  32.157  1.00  0.00    -0.203 F 
ATOM     91  C   UNL A   1      41.760  27.886  34.471  1.00  0.00     0.198 A 
ATOM     92  C   UNL A   1      42.293  29.721  35.914  1.00  0.00     0.198 A 
ATOM     93  F   UNL A   1      42.640  31.868  35.020  1.00  0.00    -0.203 F 
ATOM     94  F   UNL A   1      41.499  26.581  34.301  1.00  0.00    -0.200 F 
ATOM     95  C   UNL A   1      42.002  28.378  35.743  1.00  0.00     0.200 A 
ATOM     96  F   UNL A   1      42.575  30.193  37.137  1.00  0.00    -0.200 F 
ATOM     97  F   UNL A   1      41.981  27.553  36.800  1.00  0.00    -0.200 F 
ENDBRANCH  64  87
ENDBRANCH  38  39
ENDBRANCH  30  33
ENDBRANCH  28  29
ENDBRANCH  27  28
ENDBRANCH  26  27
ENDBRANCH  25  26
ENDBRANCH   1  25
TORSDOF 17
ENDMDL
MODEL 2
REMARK VINA RESULT:     -12.4      3.165      9.105
REMARK SMILES Cc1cc2nc(SCC(=O)NCCCCCCNC(=O)c3ccc(-c4c5nc(c(-c6c(F)c(F)c(F)c(F)c6F)c6ccc([nH]6)c(-c6c(F)c(F)c(F)c(F)c6F)c6nc(c(-c7c(F)c(F)c(F)c(F)c7F)c7ccc4[nH]7)C=C6)C=C5)cc3)n(CC(C)C)c(=O)c2[nH]1
REMARK SMILES IDX 13 1 12 2 11 3 9 4 10 5 8 7 7 8 6 9 1 10 2 11 3 12 92 13
REMARK SMILES IDX 4 14 91 15 5 17 89 18 84 19 90 20 85 21 86 22 87 23 88 24
REMARK SMILES IDX 14 25 15 26 16 27 17 28 18 29 19 30 20 32 21 33 22 34 83 35
REMARK SMILES IDX 23 36 82 37 24 38 25 39 26 40 76 41 27 42 81 43 75 44 77 45
REMARK SMILES IDX 28 46 80 47 74 48 73 49 29 51 61 52 41 53 60 54 42 55 45 56
REMARK SMILES IDX 59 57 78 58 43 59 44 60 58 62 79 63 46 64 30 65 31 66 39 67
REMARK SMILES IDX 32 68 33 69 37 70 40 71 34 72 35 73 38 74 36 75 62 76 63 77
REMARK SMILES IDX 71 78 64 79 65 80 69 81 72 82 66 83 67 84 70 85 68 86 47 87
REMARK SMILES IDX 48 88 56 89 49 90 50 91 54 92 57 93 51 94 52 95 55 96 53 97
REMARK H PARENT 11 6 92 16 18 31 77 50 45 61
REMARK Flexibility Score: inf
ROOT
ATOM      1  C   UNL A   1      30.979  28.762  23.473  1.00  0.00     0.021 C 
ENDROOT
BRANCH   1   2
ATOM      2  C   UNL A   1      30.792  27.567  22.543  1.00  0.00     0.116 C 
BRANCH   2   3
ATOM      3  N   UNL A   1      32.034  27.119  21.953  1.00  0.00    -0.355 N 
ATOM      4  C   UNL A   1      32.478  25.847  21.791  1.00  0.00     0.230 C 
ATOM      5  O   UNL A   1      33.269  25.645  20.868  1.00  0.00    -0.274 OA
ATOM      6  H   UNL A   1      32.634  27.828  21.625  1.00  0.00     0.163 HD
BRANCH   4   7
ATOM      7  C   UNL A   1      31.975  24.688  22.615  1.00  0.00     0.178 C 
BRANCH   7   8
ATOM      8  S   UNL A   1      32.885  23.178  22.523  1.00  0.00    -0.078 SA
BRANCH   8   9
ATOM      9  C   UNL A   1      32.833  22.064  23.867  1.00  0.00     0.172 A 
ATOM     10  C   UNL A   1      32.503  16.397  25.613  1.00  0.00     0.064 C 
ATOM     11  C   UNL A   1      32.695  17.820  25.238  1.00  0.00     0.014 A 
ATOM     12  C   UNL A   1      32.623  18.448  24.003  1.00  0.00     0.052 A 
ATOM     13  N   UNL A   1      32.978  18.787  26.183  1.00  0.00    -0.353 N 
ATOM     14  C   UNL A   1      32.789  19.816  24.251  1.00  0.00     0.097 A 
ATOM     15  C   UNL A   1      33.021  20.009  25.570  1.00  0.00     0.131 A 
ATOM     16  H   UNL A   1      33.124  18.624  27.143  1.00  0.00     0.166 HD
ATOM     17  N   UNL A   1      32.758  20.863  23.356  1.00  0.00    -0.222 NA
ATOM     18  C   UNL A   1      33.224  21.292  26.129  1.00  0.00     0.278 A 
ATOM     19  N   UNL A   1      32.941  22.350  25.240  1.00  0.00    -0.286 N 
ATOM     20  O   UNL A   1      33.602  21.435  27.295  1.00  0.00    -0.267 OA
BRANCH  19  21
ATOM     21  C   UNL A   1      32.826  23.648  25.918  1.00  0.00     0.131 C 
BRANCH  21  22
ATOM     22  C   UNL A   1      31.376  24.220  25.971  1.00  0.00     0.003 C 
ATOM     23  C   UNL A   1      30.383  23.365  26.768  1.00  0.00     0.009 C 
ATOM     24  C   UNL A   1      31.371  25.613  26.617  1.00  0.00     0.009 C 
ENDBRANCH  21  22
ENDBRANCH  19  21
ENDBRANCH   8   9
ENDBRANCH   7   8
ENDBRANCH   4   7
ENDBRANCH   2   3
ENDBRANCH   1   2
BRANCH   1  25
ATOM     25  C   UNL A   1      31.663  28.446  24.809  1.00  0.00     0.002 C 
BRANCH  25  26
ATOM     26  C   UNL A   1      32.705  29.463  25.301  1.00  0.00     0.002 C 
BRANCH  26  27
ATOM     27  C   UNL A   1      33.922  28.898  26.046  1.00  0.00     0.021 C 
BRANCH  27  28
ATOM     28  C   UNL A   1      34.179  29.565  27.383  1.00  0.00     0.116 C 
BRANCH  28  29
ATOM     29  N   UNL A   1      34.297  31.015  27.267  1.00  0.00    -0.352 N 
ATOM     30  C   UNL A   1      35.274  31.823  27.809  1.00  0.00     0.251 C 
ATOM     31  H   UNL A   1      33.598  31.469  26.743  1.00  0.00     0.163 HD
ATOM     32  O   UNL A   1      35.091  33.023  27.973  1.00  0.00    -0.269 OA
BRANCH  30  33
ATOM     33  C   UNL A   1      36.568  31.215  28.158  1.00  0.00     0.039 A 
ATOM     34  C   UNL A   1      37.437  31.807  29.078  1.00  0.00     0.014 A 
ATOM     35  C   UNL A   1      36.914  30.031  27.506  1.00  0.00     0.014 A 
ATOM     36  C   UNL A   1      38.650  31.181  29.345  1.00  0.00     0.010 A 
ATOM     37  C   UNL A   1      38.016  29.327  27.898  1.00  0.00     0.010 A 
ATOM     38  C   UNL A   1      38.927  29.949  28.737  1.00  0.00    -0.014 A 
BRANCH  38  39
ATOM     39  C   UNL A   1      40.164  29.235  28.979  1.00  0.00     0.031 A 
ATOM     40  C   UNL A   1      40.421  28.933  30.406  1.00  0.00     0.074 A 
ATOM     41  C   UNL A   1      40.881  28.699  27.968  1.00  0.00     0.049 A 
ATOM     42  N   UNL A   1      41.345  29.432  31.155  1.00  0.00    -0.248 NA
ATOM     43  C   UNL A   1      39.454  28.092  31.131  1.00  0.00     0.031 C 
ATOM     44  C   UNL A   1      40.561  28.642  26.535  1.00  0.00     0.029 A 
ATOM     45  N   UNL A   1      42.045  28.005  28.036  1.00  0.00    -0.354 N 
ATOM     46  C   UNL A   1      41.195  28.835  32.401  1.00  0.00     0.074 A 
ATOM     47  C   UNL A   1      39.921  28.162  32.379  1.00  0.00     0.031 C 
ATOM     48  C   UNL A   1      41.394  27.775  25.916  1.00  0.00     0.029 A 
ATOM     49  C   UNL A   1      42.403  27.343  26.866  1.00  0.00     0.049 A 
ATOM     50  H   UNL A   1      42.595  27.973  28.852  1.00  0.00     0.167 HD
ATOM     51  C   UNL A   1      42.238  28.757  33.271  1.00  0.00     0.037 A 
ATOM     52  C   UNL A   1      43.441  26.481  26.729  1.00  0.00     0.037 A 
ATOM     53  C   UNL A   1      43.316  29.624  32.869  1.00  0.00     0.049 A 
ATOM     54  C   UNL A   1      44.375  26.753  27.855  1.00  0.00     0.074 A 
ATOM     55  C   UNL A   1      43.457  30.991  32.735  1.00  0.00     0.029 A 
ATOM     56  N   UNL A   1      44.332  29.068  32.129  1.00  0.00    -0.354 N 
ATOM     57  N   UNL A   1      45.044  27.865  27.984  1.00  0.00    -0.248 NA
ATOM     58  C   UNL A   1      44.178  25.993  29.080  1.00  0.00     0.031 C 
ATOM     59  C   UNL A   1      44.234  31.168  31.552  1.00  0.00     0.029 A 
ATOM     60  C   UNL A   1      44.590  29.906  31.074  1.00  0.00     0.049 A 
ATOM     61  H   UNL A   1      44.792  28.219  32.322  1.00  0.00     0.167 HD
ATOM     62  C   UNL A   1      44.981  28.161  29.337  1.00  0.00     0.074 A 
ATOM     63  C   UNL A   1      44.490  26.938  29.972  1.00  0.00     0.031 C 
ATOM     64  C   UNL A   1      45.046  29.451  29.780  1.00  0.00     0.037 A 
BRANCH  51  65
ATOM     65  C   UNL A   1      42.431  27.660  34.279  1.00  0.00     0.064 A 
ATOM     66  C   UNL A   1      43.006  26.440  33.875  1.00  0.00     0.173 A 
ATOM     67  C   UNL A   1      41.822  27.657  35.552  1.00  0.00     0.173 A 
ATOM     68  F   UNL A   1      43.582  26.325  32.669  1.00  0.00    -0.203 F 
ATOM     69  C   UNL A   1      42.929  25.291  34.666  1.00  0.00     0.198 A 
ATOM     70  C   UNL A   1      41.796  26.524  36.363  1.00  0.00     0.198 A 
ATOM     71  F   UNL A   1      41.134  28.709  36.011  1.00  0.00    -0.203 F 
ATOM     72  F   UNL A   1      43.391  24.125  34.193  1.00  0.00    -0.200 F 
ATOM     73  C   UNL A   1      42.324  25.334  35.909  1.00  0.00     0.200 A 
ATOM     74  F   UNL A   1      41.184  26.581  37.555  1.00  0.00    -0.200 F 
ATOM     75  F   UNL A   1      42.206  24.224  36.648  1.00  0.00    -0.200 F 
ENDBRANCH  51  65
BRANCH  52  76
ATOM     76  C   UNL A   1      43.496  25.212  25.957  1.00  0.00     0.064 A 
ATOM     77  C   UNL A   1      44.593  24.922  25.128  1.00  0.00     0.173 A 
ATOM     78  C   UNL A   1      42.640  24.136  26.259  1.00  0.00     0.173 A 
ATOM     79  F   UNL A   1      45.479  25.882  24.822  1.00  0.00    -0.203 F 
ATOM     80  C   UNL A   1      44.844  23.625  24.665  1.00  0.00     0.198 A 
ATOM     81  C   UNL A   1      42.891  22.841  25.795  1.00  0.00     0.198 A 
ATOM     82  F   UNL A   1      41.603  24.294  27.093  1.00  0.00    -0.203 F 
ATOM     83  F   UNL A   1      45.942  23.374  23.936  1.00  0.00    -0.200 F 
ATOM     84  C   UNL A   1      44.002  22.583  25.014  1.00  0.00     0.200 A 
ATOM     85  F   UNL A   1      42.087  21.834  26.167  1.00  0.00    -0.200 F 
ATOM     86  F   UNL A   1      44.281  21.328  24.633  1.00  0.00    -0.200 F 
ENDBRANCH  52  76
BRANCH  64  87
ATOM     87  C   UNL A   1      45.419  30.516  28.783  1.00  0.00     0.064 A 
ATOM     88  C   UNL A   1      44.491  31.220  27.992  1.00  0.00     0.173 A 
ATOM     89  C   UNL A   1      46.750  30.949  28.742  1.00  0.00     0.173 A 
ATOM     90  F   UNL A   1      43.186  30.934  28.040  1.00  0.00    -0.203 F 
ATOM     91  C   UNL A   1      44.887  32.283  27.180  1.00  0.00     0.198 A 
ATOM     92  C   UNL A   1      47.137  32.033  27.960  1.00  0.00     0.198 A 
ATOM     93  F   UNL A   1      47.672  30.350  29.512  1.00  0.00    -0.203 F 
ATOM     94  F   UNL A   1      43.982  32.936  26.434  1.00  0.00    -0.200 F 
ATOM     95  C   UNL A   1      46.209  32.695  27.173  1.00  0.00     0.200 A 
ATOM     96  F   UNL A   1      48.408  32.457  27.994  1.00  0.00    -0.200 F 
ATOM     97  F   UNL A   1      46.583  33.746  26.430  1.00  0.00    -0.200 F 
ENDBRANCH  64  87
ENDBRANCH  38  39
ENDBRANCH  30  33
ENDBRANCH  28  29
ENDBRANCH  27  28
ENDBRANCH  26  27
ENDBRANCH  25  26
ENDBRANCH   1  25
TORSDOF 17
ENDMDL
MODEL 3
REMARK VINA RESULT:     -12.2      3.358      5.028
REMARK SMILES Cc1cc2nc(SCC(=O)NCCCCCCNC(=O)c3ccc(-c4c5nc(c(-c6c(F)c(F)c(F)c(F)c6F)c6ccc([nH]6)c(-c6c(F)c(F)c(F)c(F)c6F)c6nc(c(-c7c(F)c(F)c(F)c(F)c7F)c7ccc4[nH]7)C=C6)C=C5)cc3)n(CC(C)C)c(=O)c2[nH]1
REMARK SMILES IDX 13 1 12 2 11 3 9 4 10 5 8 7 7 8 6 9 1 10 2 11 3 12 92 13
REMARK SMILES IDX 4 14 91 15 5 17 89 18 84 19 90 20 85 21 86 22 87 23 88 24
REMARK SMILES IDX 14 25 15 26 16 27 17 28 18 29 19 30 20 32 21 33 22 34 83 35
REMARK SMILES IDX 23 36 82 37 24 38 25 39 26 40 76 41 27 42 81 43 75 44 77 45
REMARK SMILES IDX 28 46 80 47 74 48 73 49 29 51 61 52 41 53 60 54 42 55 45 56
REMARK SMILES IDX 59 57 78 58 43 59 44 60 58 62 79 63 46 64 30 65 31 66 39 67
REMARK SMILES IDX 32 68 33 69 37 70 40 71 34 72 35 73 38 74 36 75 62 76 63 77
REMARK SMILES IDX 71 78 64 79 65 80 69 81 72 82 66 83 67 84 70 85 68 86 47 87
REMARK SMILES IDX 48 88 56 89 49 90 50 91 54 92 57 93 51 94 52 95 55 96 53 97
REMARK H PARENT 11 6 92 16 18 31 77 50 45 61
REMARK Flexibility Score: inf
ROOT
ATOM      1  C   UNL A   1      40.420  20.986  26.616  1.00  0.00     0.021 C 
ENDROOT
BRANCH   1   2
ATOM      2  C   UNL A   1      39.240  21.409  25.748  1.00  0.00     0.116 C 
BRANCH   2   3
ATOM      3  N   UNL A   1      38.922  22.813  25.882  1.00  0.00    -0.355 N 
ATOM      4  C   UNL A   1      37.707  23.386  26.074  1.00  0.00     0.230 C 
ATOM      5  O   UNL A   1      37.689  24.480  26.641  1.00  0.00    -0.274 OA
ATOM      6  H   UNL A   1      39.685  23.433  25.827  1.00  0.00     0.163 HD
BRANCH   4   7
ATOM      7  C   UNL A   1      36.409  22.705  25.717  1.00  0.00     0.178 C 
BRANCH   7   8
ATOM      8  S   UNL A   1      35.244  23.635  24.771  1.00  0.00    -0.078 SA
BRANCH   8   9
ATOM      9  C   UNL A   1      33.954  24.478  25.592  1.00  0.00     0.172 A 
ATOM     10  C   UNL A   1      31.717  29.721  27.261  1.00  0.00     0.064 C 
ATOM     11  C   UNL A   1      32.169  28.392  26.780  1.00  0.00     0.014 A 
ATOM     12  C   UNL A   1      33.351  28.006  26.164  1.00  0.00     0.052 A 
ATOM     13  N   UNL A   1      31.387  27.263  26.926  1.00  0.00    -0.353 N 
ATOM     14  C   UNL A   1      33.282  26.615  26.025  1.00  0.00     0.097 A 
ATOM     15  C   UNL A   1      32.083  26.177  26.472  1.00  0.00     0.131 A 
ATOM     16  H   UNL A   1      30.475  27.242  27.298  1.00  0.00     0.166 HD
ATOM     17  N   UNL A   1      34.225  25.754  25.507  1.00  0.00    -0.222 NA
ATOM     18  C   UNL A   1      31.719  24.810  26.464  1.00  0.00     0.278 A 
ATOM     19  N   UNL A   1      32.787  23.940  26.165  1.00  0.00    -0.286 N 
ATOM     20  O   UNL A   1      30.566  24.449  26.713  1.00  0.00    -0.267 OA
BRANCH  19  21
ATOM     21  C   UNL A   1      32.488  22.539  26.489  1.00  0.00     0.131 C 
BRANCH  21  22
ATOM     22  C   UNL A   1      31.789  21.748  25.340  1.00  0.00     0.003 C 
ATOM     23  C   UNL A   1      31.823  22.448  23.975  1.00  0.00     0.009 C 
ATOM     24  C   UNL A   1      32.457  20.379  25.146  1.00  0.00     0.009 C 
ENDBRANCH  21  22
ENDBRANCH  19  21
ENDBRANCH   8   9
ENDBRANCH   7   8
ENDBRANCH   4   7
ENDBRANCH   2   3
ENDBRANCH   1   2
BRANCH   1  25
ATOM     25  C   UNL A   1      40.979  19.589  26.321  1.00  0.00     0.002 C 
BRANCH  25  26
ATOM     26  C   UNL A   1      42.320  19.234  26.984  1.00  0.00     0.002 C 
BRANCH  26  27
ATOM     27  C   UNL A   1      43.154  18.136  26.311  1.00  0.00     0.021 C 
BRANCH  27  28
ATOM     28  C   UNL A   1      44.599  18.528  26.074  1.00  0.00     0.116 C 
BRANCH  28  29
ATOM     29  N   UNL A   1      44.863  18.855  24.676  1.00  0.00    -0.352 N 
ATOM     30  C   UNL A   1      44.667  20.067  24.048  1.00  0.00     0.251 C 
ATOM     31  H   UNL A   1      45.222  18.128  24.118  1.00  0.00     0.163 HD
ATOM     32  O   UNL A   1      44.563  20.143  22.830  1.00  0.00    -0.269 OA
BRANCH  30  33
ATOM     33  C   UNL A   1      44.619  21.283  24.874  1.00  0.00     0.039 A 
ATOM     34  C   UNL A   1      45.688  21.661  25.691  1.00  0.00     0.014 A 
ATOM     35  C   UNL A   1      43.446  22.035  24.838  1.00  0.00     0.014 A 
ATOM     36  C   UNL A   1      45.564  22.816  26.456  1.00  0.00     0.010 A 
ATOM     37  C   UNL A   1      43.391  23.256  25.446  1.00  0.00     0.010 A 
ATOM     38  C   UNL A   1      44.404  23.594  26.329  1.00  0.00    -0.014 A 
BRANCH  38  39
ATOM     39  C   UNL A   1      44.213  24.815  27.085  1.00  0.00     0.031 A 
ATOM     40  C   UNL A   1      45.248  25.847  26.843  1.00  0.00     0.074 A 
ATOM     41  C   UNL A   1      43.068  25.057  27.759  1.00  0.00     0.049 A 
ATOM     42  N   UNL A   1      46.141  26.266  27.673  1.00  0.00    -0.248 NA
ATOM     43  C   UNL A   1      45.408  26.373  25.477  1.00  0.00     0.031 C 
ATOM     44  C   UNL A   1      41.835  24.260  27.805  1.00  0.00     0.029 A 
ATOM     45  N   UNL A   1      42.742  26.146  28.501  1.00  0.00    -0.354 N 
ATOM     46  C   UNL A   1      46.867  27.240  26.999  1.00  0.00     0.074 A 
ATOM     47  C   UNL A   1      46.492  27.140  25.611  1.00  0.00     0.031 C 
ATOM     48  C   UNL A   1      40.839  24.993  28.355  1.00  0.00     0.029 A 
ATOM     49  C   UNL A   1      41.397  26.239  28.845  1.00  0.00     0.049 A 
ATOM     50  H   UNL A   1      43.406  26.819  28.774  1.00  0.00     0.167 HD
ATOM     51  C   UNL A   1      47.549  28.203  27.678  1.00  0.00     0.037 A 
ATOM     52  C   UNL A   1      40.808  27.296  29.460  1.00  0.00     0.037 A 
ATOM     53  C   UNL A   1      47.672  27.863  29.072  1.00  0.00     0.049 A 
ATOM     54  C   UNL A   1      41.896  28.070  30.117  1.00  0.00     0.074 A 
ATOM     55  C   UNL A   1      48.300  26.849  29.768  1.00  0.00     0.029 A 
ATOM     56  N   UNL A   1      46.743  28.391  29.937  1.00  0.00    -0.354 N 
ATOM     57  N   UNL A   1      42.602  27.615  31.115  1.00  0.00    -0.248 NA
ATOM     58  C   UNL A   1      42.516  29.134  29.343  1.00  0.00     0.031 C 
ATOM     59  C   UNL A   1      47.396  26.507  30.817  1.00  0.00     0.029 A 
ATOM     60  C   UNL A   1      46.309  27.379  30.754  1.00  0.00     0.049 A 
ATOM     61  H   UNL A   1      46.443  29.329  29.963  1.00  0.00     0.167 HD
ATOM     62  C   UNL A   1      43.901  28.019  30.842  1.00  0.00     0.074 A 
ATOM     63  C   UNL A   1      43.775  29.007  29.770  1.00  0.00     0.031 C 
ATOM     64  C   UNL A   1      44.971  27.305  31.298  1.00  0.00     0.037 A 
BRANCH  51  65
ATOM     65  C   UNL A   1      47.800  29.594  27.169  1.00  0.00     0.064 A 
ATOM     66  C   UNL A   1      49.113  30.103  27.164  1.00  0.00     0.173 A 
ATOM     67  C   UNL A   1      46.776  30.538  26.949  1.00  0.00     0.173 A 
ATOM     68  F   UNL A   1      50.158  29.295  27.396  1.00  0.00    -0.203 F 
ATOM     69  C   UNL A   1      49.373  31.467  27.003  1.00  0.00     0.198 A 
ATOM     70  C   UNL A   1      47.042  31.889  26.734  1.00  0.00     0.198 A 
ATOM     71  F   UNL A   1      45.481  30.216  27.047  1.00  0.00    -0.203 F 
ATOM     72  F   UNL A   1      50.628  31.922  27.119  1.00  0.00    -0.200 F 
ATOM     73  C   UNL A   1      48.337  32.358  26.789  1.00  0.00     0.200 A 
ATOM     74  F   UNL A   1      46.023  32.740  26.550  1.00  0.00    -0.200 F 
ATOM     75  F   UNL A   1      48.580  33.670  26.683  1.00  0.00    -0.200 F 
ENDBRANCH  51  65
BRANCH  52  76
ATOM     76  C   UNL A   1      39.472  27.891  29.201  1.00  0.00     0.064 A 
ATOM     77  C   UNL A   1      38.556  28.087  30.249  1.00  0.00     0.173 A 
ATOM     78  C   UNL A   1      39.193  28.562  27.995  1.00  0.00     0.173 A 
ATOM     79  F   UNL A   1      38.767  27.515  31.443  1.00  0.00    -0.203 F 
ATOM     80  C   UNL A   1      37.453  28.939  30.113  1.00  0.00     0.198 A 
ATOM     81  C   UNL A   1      38.090  29.411  27.860  1.00  0.00     0.198 A 
ATOM     82  F   UNL A   1      40.039  28.492  26.957  1.00  0.00    -0.203 F 
ATOM     83  F   UNL A   1      36.643  29.156  31.159  1.00  0.00    -0.200 F 
ATOM     84  C   UNL A   1      37.231  29.612  28.924  1.00  0.00     0.200 A 
ATOM     85  F   UNL A   1      37.905  30.084  26.716  1.00  0.00    -0.200 F 
ATOM     86  F   UNL A   1      36.218  30.483  28.816  1.00  0.00    -0.200 F 
ENDBRANCH  52  76
BRANCH  64  87
ATOM     87  C   UNL A   1      44.707  26.204  32.292  1.00  0.00     0.064 A 
ATOM     88  C   UNL A   1      44.482  24.859  31.944  1.00  0.00     0.173 A 
ATOM     89  C   UNL A   1      44.845  26.496  33.655  1.00  0.00     0.173 A 
ATOM     90  F   UNL A   1      44.430  24.477  30.664  1.00  0.00    -0.203 F 
ATOM     91  C   UNL A   1      44.371  23.865  32.917  1.00  0.00     0.198 A 
ATOM     92  C   UNL A   1      44.770  25.498  34.622  1.00  0.00     0.198 A 
ATOM     93  F   UNL A   1      45.111  27.752  34.046  1.00  0.00    -0.203 F 
ATOM     94  F   UNL A   1      44.154  22.591  32.558  1.00  0.00    -0.200 F 
ATOM     95  C   UNL A   1      44.525  24.185  34.256  1.00  0.00     0.200 A 
ATOM     96  F   UNL A   1      44.967  25.806  35.912  1.00  0.00    -0.200 F 
ATOM     97  F   UNL A   1      44.465  23.225  35.189  1.00  0.00    -0.200 F 
ENDBRANCH  64  87
ENDBRANCH  38  39
ENDBRANCH  30  33
ENDBRANCH  28  29
ENDBRANCH  27  28
ENDBRANCH  26  27
ENDBRANCH  25  26
ENDBRANCH   1  25
TORSDOF 17
ENDMDL
