MODEL 1
REMARK VINA RESULT:     -10.7      0.000      0.000
REMARK SMILES CCSCC[C@@H]1CCC[C@@]1([NH3+])C(=O)NCCCCCCNC(=O)c1ccc(-c2c3nc(c(-c4c(F)c(F)c(F)c(F)c4F)c4ccc([nH]4)c(-c4c(F)c(F)c(F)c(F)c4F)c4nc(c(-c5c(F)c(F)c(F)c(F)c5F)c5ccc2[nH]5)C=C4)C=C3)cc1
REMARK SMILES IDX 16 1 15 2 14 3 12 4 13 5 10 7 6 8 7 9 8 10 9 11 5 12 4 13
REMARK SMILES IDX 3 14 2 15 1 16 11 17 17 21 18 22 19 23 20 24 21 25 22 26
REMARK SMILES IDX 23 28 24 29 25 30 86 31 26 32 85 33 27 34 28 35 29 36 79 37
REMARK SMILES IDX 30 38 84 39 78 40 80 41 31 42 83 43 77 44 76 45 32 47 64 48
REMARK SMILES IDX 44 49 63 50 45 51 48 52 62 53 81 54 46 55 47 56 61 58 82 59
REMARK SMILES IDX 49 60 33 61 34 62 42 63 35 64 36 65 40 66 43 67 37 68 38 69
REMARK SMILES IDX 41 70 39 71 65 72 66 73 74 74 67 75 68 76 72 77 75 78 69 79
REMARK SMILES IDX 70 80 73 81 71 82 50 83 51 84 59 85 52 86 53 87 57 88 60 89
REMARK SMILES IDX 54 90 55 91 58 92 56 93
REMARK H PARENT 14 6 11 18 11 19 11 20 21 27 80 46 48 57
REMARK Flexibility Score: inf
ROOT
ATOM      1  C   UNL A   1      37.505  23.010  25.253  1.00  0.00     0.021 C 
ENDROOT
BRANCH   1   2
ATOM      2  C   UNL A   1      36.390  23.922  25.759  1.00  0.00     0.116 C 
BRANCH   2   3
ATOM      3  N   UNL A   1      35.620  23.256  26.778  1.00  0.00    -0.351 N 
ATOM      4  C   UNL A   1      34.286  23.064  26.923  1.00  0.00     0.281 C 
ATOM      5  O   UNL A   1      33.962  22.468  27.950  1.00  0.00    -0.268 OA
ATOM      6  H   UNL A   1      36.162  22.870  27.504  1.00  0.00     0.163 HD
BRANCH   4   7
ATOM      7  C   UNL A   1      33.270  23.463  25.818  1.00  0.00     0.176 C 
ATOM      8  C   UNL A   1      32.523  22.243  25.200  1.00  0.00     0.061 C 
ATOM      9  C   UNL A   1      31.348  22.900  24.449  1.00  0.00     0.011 C 
ATOM     10  C   UNL A   1      30.986  24.135  25.269  1.00  0.00     0.008 C 
ATOM     11  C   UNL A   1      32.045  24.228  26.366  1.00  0.00     0.079 C 
BRANCH   8  12
ATOM     12  C   UNL A   1      33.287  21.259  24.298  1.00  0.00     0.021 C 
BRANCH  12  13
ATOM     13  C   UNL A   1      32.580  19.932  23.981  1.00  0.00     0.070 C 
BRANCH  13  14
ATOM     14  S   UNL A   1      32.954  18.513  25.080  1.00  0.00    -0.162 SA
BRANCH  14  15
ATOM     15  C   UNL A   1      34.410  17.723  24.312  1.00  0.00     0.066 C 
ATOM     16  C   UNL A   1      34.132  16.753  23.177  1.00  0.00     0.015 C 
ENDBRANCH  14  15
ENDBRANCH  13  14
ENDBRANCH  12  13
ENDBRANCH   8  12
BRANCH   7  17
ATOM     17  N   UNL A   1      33.960  24.253  24.771  1.00  0.00    -0.345 N 
ATOM     18  H   UNL A   1      33.307  24.461  24.016  1.00  0.00     0.345 HD
ATOM     19  H   UNL A   1      34.745  23.716  24.403  1.00  0.00     0.345 HD
ATOM     20  H   UNL A   1      34.303  25.126  25.174  1.00  0.00     0.345 HD
ENDBRANCH   7  17
ENDBRANCH   4   7
ENDBRANCH   2   3
ENDBRANCH   1   2
BRANCH   1  21
ATOM     21  C   UNL A   1      37.016  21.883  24.332  1.00  0.00     0.002 C 
BRANCH  21  22
ATOM     22  C   UNL A   1      36.873  20.512  25.004  1.00  0.00     0.002 C 
BRANCH  22  23
ATOM     23  C   UNL A   1      38.107  19.615  24.902  1.00  0.00     0.021 C 
BRANCH  23  24
ATOM     24  C   UNL A   1      39.283  20.074  25.750  1.00  0.00     0.116 C 
BRANCH  24  25
ATOM     25  N   UNL A   1      40.273  19.026  25.914  1.00  0.00    -0.352 N 
ATOM     26  C   UNL A   1      41.627  19.143  26.106  1.00  0.00     0.251 C 
ATOM     27  H   UNL A   1      39.927  18.105  25.883  1.00  0.00     0.163 HD
ATOM     28  O   UNL A   1      42.356  18.164  26.014  1.00  0.00    -0.269 OA
BRANCH  26  29
ATOM     29  C   UNL A   1      42.202  20.471  26.406  1.00  0.00     0.039 A 
ATOM     30  C   UNL A   1      42.688  21.248  25.352  1.00  0.00     0.014 A 
ATOM     31  C   UNL A   1      42.256  20.949  27.719  1.00  0.00     0.014 A 
ATOM     32  C   UNL A   1      43.181  22.528  25.611  1.00  0.00     0.010 A 
ATOM     33  C   UNL A   1      42.671  22.253  27.964  1.00  0.00     0.010 A 
ATOM     34  C   UNL A   1      43.147  23.053  26.914  1.00  0.00    -0.014 A 
BRANCH  34  35
ATOM     35  C   UNL A   1      43.613  24.434  27.197  1.00  0.00     0.031 A 
ATOM     36  C   UNL A   1      42.646  25.465  27.709  1.00  0.00     0.074 A 
ATOM     37  C   UNL A   1      44.893  24.770  26.946  1.00  0.00     0.049 A 
ATOM     38  N   UNL A   1      42.843  26.736  27.954  1.00  0.00    -0.248 NA
ATOM     39  C   UNL A   1      41.266  25.015  27.956  1.00  0.00     0.031 C 
ATOM     40  C   UNL A   1      45.915  23.869  26.411  1.00  0.00     0.029 A 
ATOM     41  N   UNL A   1      45.553  25.963  27.100  1.00  0.00    -0.354 N 
ATOM     42  C   UNL A   1      41.617  27.234  28.376  1.00  0.00     0.074 A 
ATOM     43  C   UNL A   1      40.667  26.147  28.297  1.00  0.00     0.031 C 
ATOM     44  C   UNL A   1      47.076  24.535  26.302  1.00  0.00     0.029 A 
ATOM     45  C   UNL A   1      46.872  25.918  26.718  1.00  0.00     0.049 A 
ATOM     46  H   UNL A   1      45.122  26.775  27.453  1.00  0.00     0.167 HD
ATOM     47  C   UNL A   1      41.319  28.479  28.819  1.00  0.00     0.037 A 
ATOM     48  C   UNL A   1      47.806  26.888  26.695  1.00  0.00     0.037 A 
ATOM     49  C   UNL A   1      42.272  29.552  28.915  1.00  0.00     0.049 A 
ATOM     50  C   UNL A   1      47.437  28.271  27.166  1.00  0.00     0.074 A 
ATOM     51  C   UNL A   1      42.077  30.839  29.389  1.00  0.00     0.029 A 
ATOM     52  N   UNL A   1      43.601  29.466  28.529  1.00  0.00    -0.354 N 
ATOM     53  N   UNL A   1      46.290  28.712  27.623  1.00  0.00    -0.248 NA
ATOM     54  C   UNL A   1      48.495  29.289  27.123  1.00  0.00     0.031 C 
ATOM     55  C   UNL A   1      43.275  31.544  29.242  1.00  0.00     0.029 A 
ATOM     56  C   UNL A   1      44.233  30.682  28.734  1.00  0.00     0.049 A 
ATOM     57  H   UNL A   1      44.032  28.659  28.163  1.00  0.00     0.167 HD
ATOM     58  C   UNL A   1      46.499  30.044  27.956  1.00  0.00     0.074 A 
ATOM     59  C   UNL A   1      47.886  30.334  27.665  1.00  0.00     0.031 C 
ATOM     60  C   UNL A   1      45.620  30.947  28.455  1.00  0.00     0.037 A 
BRANCH  47  61
ATOM     61  C   UNL A   1      39.905  28.749  29.246  1.00  0.00     0.064 A 
ATOM     62  C   UNL A   1      38.941  29.215  28.339  1.00  0.00     0.173 A 
ATOM     63  C   UNL A   1      39.492  28.477  30.559  1.00  0.00     0.173 A 
ATOM     64  F   UNL A   1      39.285  29.501  27.074  1.00  0.00    -0.203 F 
ATOM     65  C   UNL A   1      37.622  29.420  28.736  1.00  0.00     0.198 A 
ATOM     66  C   UNL A   1      38.166  28.653  30.945  1.00  0.00     0.198 A 
ATOM     67  F   UNL A   1      40.372  28.025  31.466  1.00  0.00    -0.203 F 
ATOM     68  F   UNL A   1      36.729  29.906  27.863  1.00  0.00    -0.200 F 
ATOM     69  C   UNL A   1      37.233  29.129  30.035  1.00  0.00     0.200 A 
ATOM     70  F   UNL A   1      37.789  28.358  32.196  1.00  0.00    -0.200 F 
ATOM     71  F   UNL A   1      35.961  29.312  30.412  1.00  0.00    -0.200 F 
ENDBRANCH  47  61
BRANCH  48  72
ATOM     72  C   UNL A   1      49.184  26.596  26.214  1.00  0.00     0.064 A 
ATOM     73  C   UNL A   1      50.156  26.075  27.080  1.00  0.00     0.173 A 
ATOM     74  C   UNL A   1      49.569  26.867  24.893  1.00  0.00     0.173 A 
ATOM     75  F   UNL A   1      49.843  25.816  28.358  1.00  0.00    -0.203 F 
ATOM     76  C   UNL A   1      51.468  25.874  26.656  1.00  0.00     0.198 A 
ATOM     77  C   UNL A   1      50.872  26.633  24.459  1.00  0.00     0.198 A 
ATOM     78  F   UNL A   1      48.677  27.359  24.020  1.00  0.00    -0.203 F 
ATOM     79  F   UNL A   1      52.392  25.440  27.523  1.00  0.00    -0.200 F 
ATOM     80  C   UNL A   1      51.824  26.150  25.344  1.00  0.00     0.200 A 
ATOM     81  F   UNL A   1      51.207  26.884  23.186  1.00  0.00    -0.200 F 
ATOM     82  F   UNL A   1      53.087  25.963  24.937  1.00  0.00    -0.200 F 
ENDBRANCH  48  72
BRANCH  60  83
ATOM     83  C   UNL A   1      46.144  32.321  28.765  1.00  0.00     0.064 A 
ATOM     84  C   UNL A   1      46.108  33.356  27.820  1.00  0.00     0.173 A 
ATOM     85  C   UNL A   1      46.655  32.613  30.039  1.00  0.00     0.173 A 
ATOM     86  F   UNL A   1      45.643  33.126  26.582  1.00  0.00    -0.203 F 
ATOM     87  C   UNL A   1      46.592  34.626  28.130  1.00  0.00     0.198 A 
ATOM     88  C   UNL A   1      47.104  33.891  30.356  1.00  0.00     0.198 A 
ATOM     89  F   UNL A   1      46.703  31.661  30.983  1.00  0.00    -0.203 F 
ATOM     90  F   UNL A   1      46.598  35.584  27.193  1.00  0.00    -0.200 F 
ATOM     91  C   UNL A   1      47.082  34.894  29.399  1.00  0.00     0.200 A 
ATOM     92  F   UNL A   1      47.561  34.153  31.589  1.00  0.00    -0.200 F 
ATOM     93  F   UNL A   1      47.538  36.117  29.697  1.00  0.00    -0.200 F 
ENDBRANCH  60  83
ENDBRANCH  34  35
ENDBRANCH  26  29
ENDBRANCH  24  25
ENDBRANCH  23  24
ENDBRANCH  22  23
ENDBRANCH  21  22
ENDBRANCH   1  21
TORSDOF 18
ENDMDL
MODEL 2
REMARK VINA RESULT:     -10.7      4.136      7.668
REMARK SMILES CCSCC[C@@H]1CCC[C@@]1([NH3+])C(=O)NCCCCCCNC(=O)c1ccc(-c2c3nc(c(-c4c(F)c(F)c(F)c(F)c4F)c4ccc([nH]4)c(-c4c(F)c(F)c(F)c(F)c4F)c4nc(c(-c5c(F)c(F)c(F)c(F)c5F)c5ccc2[nH]5)C=C4)C=C3)cc1
REMARK SMILES IDX 16 1 15 2 14 3 12 4 13 5 10 7 6 8 7 9 8 10 9 11 5 12 4 13
REMARK SMILES IDX 3 14 2 15 1 16 11 17 17 21 18 22 19 23 20 24 21 25 22 26
REMARK SMILES IDX 23 28 24 29 25 30 86 31 26 32 85 33 27 34 28 35 29 36 79 37
REMARK SMILES IDX 30 38 84 39 78 40 80 41 31 42 83 43 77 44 76 45 32 47 64 48
REMARK SMILES IDX 44 49 63 50 45 51 48 52 62 53 81 54 46 55 47 56 61 58 82 59
REMARK SMILES IDX 49 60 33 61 34 62 42 63 35 64 36 65 40 66 43 67 37 68 38 69
REMARK SMILES IDX 41 70 39 71 65 72 66 73 74 74 67 75 68 76 72 77 75 78 69 79
REMARK SMILES IDX 70 80 73 81 71 82 50 83 51 84 59 85 52 86 53 87 57 88 60 89
REMARK SMILES IDX 54 90 55 91 58 92 56 93
REMARK H PARENT 14 6 11 18 11 19 11 20 21 27 80 46 48 57
REMARK Flexibility Score: inf
ROOT
ATOM      1  C   UNL A   1      31.447  25.667  24.133  1.00  0.00     0.021 C 
ENDROOT
BRANCH   1   2
ATOM      2  C   UNL A   1      31.006  24.205  24.163  1.00  0.00     0.116 C 
BRANCH   2   3
ATOM      3  N   UNL A   1      30.426  23.881  25.441  1.00  0.00    -0.351 N 
ATOM      4  C   UNL A   1      30.918  23.216  26.514  1.00  0.00     0.281 C 
ATOM      5  O   UNL A   1      30.125  23.089  27.447  1.00  0.00    -0.268 OA
ATOM      6  H   UNL A   1      29.502  24.201  25.556  1.00  0.00     0.163 HD
BRANCH   4   7
ATOM      7  C   UNL A   1      32.401  22.759  26.595  1.00  0.00     0.176 C 
ATOM      8  C   UNL A   1      32.872  21.976  25.332  1.00  0.00     0.061 C 
ATOM      9  C   UNL A   1      34.406  21.978  25.477  1.00  0.00     0.011 C 
ATOM     10  C   UNL A   1      34.745  23.296  26.167  1.00  0.00     0.008 C 
ATOM     11  C   UNL A   1      33.402  23.932  26.525  1.00  0.00     0.079 C 
BRANCH   8  12
ATOM     12  C   UNL A   1      32.333  20.561  25.068  1.00  0.00     0.021 C 
BRANCH  12  13
ATOM     13  C   UNL A   1      33.311  19.400  25.312  1.00  0.00     0.070 C 
BRANCH  13  14
ATOM     14  S   UNL A   1      32.594  17.713  25.364  1.00  0.00    -0.162 SA
BRANCH  14  15
ATOM     15  C   UNL A   1      33.888  16.653  24.634  1.00  0.00     0.066 C 
ATOM     16  C   UNL A   1      34.121  16.803  23.141  1.00  0.00     0.015 C 
ENDBRANCH  14  15
ENDBRANCH  13  14
ENDBRANCH  12  13
ENDBRANCH   8  12
BRANCH   7  17
ATOM     17  N   UNL A   1      32.607  21.961  27.826  1.00  0.00    -0.345 N 
ATOM     18  H   UNL A   1      32.185  22.443  28.619  1.00  0.00     0.345 HD
ATOM     19  H   UNL A   1      33.608  21.845  27.991  1.00  0.00     0.345 HD
ATOM     20  H   UNL A   1      32.172  21.044  27.714  1.00  0.00     0.345 HD
ENDBRANCH   7  17
ENDBRANCH   4   7
ENDBRANCH   2   3
ENDBRANCH   1   2
BRANCH   1  21
ATOM     21  C   UNL A   1      30.727  26.555  25.157  1.00  0.00     0.002 C 
BRANCH  21  22
ATOM     22  C   UNL A   1      31.613  27.596  25.852  1.00  0.00     0.002 C 
BRANCH  22  23
ATOM     23  C   UNL A   1      33.105  27.479  25.538  1.00  0.00     0.021 C 
BRANCH  23  24
ATOM     24  C   UNL A   1      34.014  28.089  26.595  1.00  0.00     0.116 C 
BRANCH  24  25
ATOM     25  N   UNL A   1      33.653  29.463  26.891  1.00  0.00    -0.352 N 
ATOM     26  C   UNL A   1      34.315  30.378  27.670  1.00  0.00     0.251 C 
ATOM     27  H   UNL A   1      32.819  29.783  26.475  1.00  0.00     0.163 HD
ATOM     28  O   UNL A   1      33.774  31.428  27.993  1.00  0.00    -0.269 OA
BRANCH  26  29
ATOM     29  C   UNL A   1      35.685  30.075  28.135  1.00  0.00     0.039 A 
ATOM     30  C   UNL A   1      35.870  29.649  29.453  1.00  0.00     0.014 A 
ATOM     31  C   UNL A   1      36.779  30.204  27.275  1.00  0.00     0.014 A 
ATOM     32  C   UNL A   1      37.149  29.303  29.890  1.00  0.00     0.010 A 
ATOM     33  C   UNL A   1      38.037  29.781  27.688  1.00  0.00     0.010 A 
ATOM     34  C   UNL A   1      38.237  29.335  29.002  1.00  0.00    -0.014 A 
BRANCH  34  35
ATOM     35  C   UNL A   1      39.594  28.914  29.436  1.00  0.00     0.031 A 
ATOM     36  C   UNL A   1      40.394  29.789  30.361  1.00  0.00     0.074 A 
ATOM     37  C   UNL A   1      40.122  27.771  28.958  1.00  0.00     0.049 A 
ATOM     38  N   UNL A   1      41.616  29.629  30.801  1.00  0.00    -0.248 NA
ATOM     39  C   UNL A   1      39.742  31.021  30.837  1.00  0.00     0.031 C 
ATOM     40  C   UNL A   1      39.460  26.859  28.023  1.00  0.00     0.029 A 
ATOM     41  N   UNL A   1      41.341  27.183  29.185  1.00  0.00    -0.354 N 
ATOM     42  C   UNL A   1      41.880  30.737  31.596  1.00  0.00     0.074 A 
ATOM     43  C   UNL A   1      40.716  31.592  31.532  1.00  0.00     0.031 C 
ATOM     44  C   UNL A   1      40.271  25.818  27.774  1.00  0.00     0.029 A 
ATOM     45  C   UNL A   1      41.525  26.009  28.496  1.00  0.00     0.049 A 
ATOM     46  H   UNL A   1      42.020  27.567  29.785  1.00  0.00     0.167 HD
ATOM     47  C   UNL A   1      42.982  31.001  32.338  1.00  0.00     0.037 A 
ATOM     48  C   UNL A   1      42.590  25.187  28.443  1.00  0.00     0.037 A 
ATOM     49  C   UNL A   1      44.130  30.137  32.415  1.00  0.00     0.049 A 
ATOM     50  C   UNL A   1      43.813  25.522  29.256  1.00  0.00     0.074 A 
ATOM     51  C   UNL A   1      45.280  30.297  33.170  1.00  0.00     0.029 A 
ATOM     52  N   UNL A   1      44.275  28.951  31.712  1.00  0.00    -0.354 N 
ATOM     53  N   UNL A   1      44.024  26.540  30.055  1.00  0.00    -0.248 NA
ATOM     54  C   UNL A   1      44.944  24.589  29.166  1.00  0.00     0.031 C 
ATOM     55  C   UNL A   1      46.141  29.233  32.884  1.00  0.00     0.029 A 
ATOM     56  C   UNL A   1      45.504  28.378  31.999  1.00  0.00     0.049 A 
ATOM     57  H   UNL A   1      43.604  28.571  31.100  1.00  0.00     0.167 HD
ATOM     58  C   UNL A   1      45.293  26.351  30.588  1.00  0.00     0.074 A 
ATOM     59  C   UNL A   1      45.797  25.112  30.036  1.00  0.00     0.031 C 
ATOM     60  C   UNL A   1      45.981  27.134  31.454  1.00  0.00     0.037 A 
BRANCH  47  61
ATOM     61  C   UNL A   1      42.998  32.272  33.137  1.00  0.00     0.064 A 
ATOM     62  C   UNL A   1      43.405  33.490  32.570  1.00  0.00     0.173 A 
ATOM     63  C   UNL A   1      42.542  32.286  34.463  1.00  0.00     0.173 A 
ATOM     64  F   UNL A   1      43.861  33.530  31.310  1.00  0.00    -0.203 F 
ATOM     65  C   UNL A   1      43.375  34.670  33.309  1.00  0.00     0.198 A 
ATOM     66  C   UNL A   1      42.483  33.474  35.189  1.00  0.00     0.198 A 
ATOM     67  F   UNL A   1      42.137  31.151  35.053  1.00  0.00    -0.203 F 
ATOM     68  F   UNL A   1      43.807  35.813  32.760  1.00  0.00    -0.200 F 
ATOM     69  C   UNL A   1      42.904  34.663  34.613  1.00  0.00     0.200 A 
ATOM     70  F   UNL A   1      42.015  33.467  36.444  1.00  0.00    -0.200 F 
ATOM     71  F   UNL A   1      42.861  35.802  35.317  1.00  0.00    -0.200 F 
ENDBRANCH  47  61
BRANCH  48  72
ATOM     72  C   UNL A   1      42.557  23.963  27.597  1.00  0.00     0.064 A 
ATOM     73  C   UNL A   1      42.241  22.713  28.148  1.00  0.00     0.173 A 
ATOM     74  C   UNL A   1      42.877  24.010  26.233  1.00  0.00     0.173 A 
ATOM     75  F   UNL A   1      41.946  22.611  29.452  1.00  0.00    -0.203 F 
ATOM     76  C   UNL A   1      42.286  21.552  27.377  1.00  0.00     0.198 A 
ATOM     77  C   UNL A   1      42.887  22.854  25.454  1.00  0.00     0.198 A 
ATOM     78  F   UNL A   1      43.180  25.181  25.653  1.00  0.00    -0.203 F 
ATOM     79  F   UNL A   1      42.046  20.363  27.945  1.00  0.00    -0.200 F 
ATOM     80  C   UNL A   1      42.605  21.625  26.030  1.00  0.00     0.200 A 
ATOM     81  F   UNL A   1      43.179  22.932  24.149  1.00  0.00    -0.200 F 
ATOM     82  F   UNL A   1      42.654  20.509  25.290  1.00  0.00    -0.200 F 
ENDBRANCH  48  72
BRANCH  60  83
ATOM     83  C   UNL A   1      47.333  26.651  31.897  1.00  0.00     0.064 A 
ATOM     84  C   UNL A   1      47.482  25.729  32.944  1.00  0.00     0.173 A 
ATOM     85  C   UNL A   1      48.492  27.089  31.238  1.00  0.00     0.173 A 
ATOM     86  F   UNL A   1      46.406  25.291  33.616  1.00  0.00    -0.203 F 
ATOM     87  C   UNL A   1      48.744  25.288  33.334  1.00  0.00     0.198 A 
ATOM     88  C   UNL A   1      49.748  26.618  31.608  1.00  0.00     0.198 A 
ATOM     89  F   UNL A   1      48.405  27.963  30.224  1.00  0.00    -0.203 F 
ATOM     90  F   UNL A   1      48.865  24.450  34.373  1.00  0.00    -0.200 F 
ATOM     91  C   UNL A   1      49.874  25.726  32.661  1.00  0.00     0.200 A 
ATOM     92  F   UNL A   1      50.838  27.030  30.944  1.00  0.00    -0.200 F 
ATOM     93  F   UNL A   1      51.086  25.293  33.033  1.00  0.00    -0.200 F 
ENDBRANCH  60  83
ENDBRANCH  34  35
ENDBRANCH  26  29
ENDBRANCH  24  25
ENDBRANCH  23  24
ENDBRANCH  22  23
ENDBRANCH  21  22
ENDBRANCH   1  21
TORSDOF 18
ENDMDL
MODEL 3
REMARK VINA RESULT:     -10.7      5.918     11.168
REMARK SMILES CCSCC[C@@H]1CCC[C@@]1([NH3+])C(=O)NCCCCCCNC(=O)c1ccc(-c2c3nc(c(-c4c(F)c(F)c(F)c(F)c4F)c4ccc([nH]4)c(-c4c(F)c(F)c(F)c(F)c4F)c4nc(c(-c5c(F)c(F)c(F)c(F)c5F)c5ccc2[nH]5)C=C4)C=C3)cc1
REMARK SMILES IDX 16 1 15 2 14 3 12 4 13 5 10 7 6 8 7 9 8 10 9 11 5 12 4 13
REMARK SMILES IDX 3 14 2 15 1 16 11 17 17 21 18 22 19 23 20 24 21 25 22 26
REMARK SMILES IDX 23 28 24 29 25 30 86 31 26 32 85 33 27 34 28 35 29 36 79 37
REMARK SMILES IDX 30 38 84 39 78 40 80 41 31 42 83 43 77 44 76 45 32 47 64 48
REMARK SMILES IDX 44 49 63 50 45 51 48 52 62 53 81 54 46 55 47 56 61 58 82 59
REMARK SMILES IDX 49 60 33 61 34 62 42 63 35 64 36 65 40 66 43 67 37 68 38 69
REMARK SMILES IDX 41 70 39 71 65 72 66 73 74 74 67 75 68 76 72 77 75 78 69 79
REMARK SMILES IDX 70 80 73 81 71 82 50 83 51 84 59 85 52 86 53 87 57 88 60 89
REMARK SMILES IDX 54 90 55 91 58 92 56 93
REMARK H PARENT 14 6 11 18 11 19 11 20 21 27 80 46 48 57
REMARK Flexibility Score: inf
ROOT
ATOM      1  C   UNL A   1      33.650  29.281  26.476  1.00  0.00     0.021 C 
ENDROOT
BRANCH   1   2
ATOM      2  C   UNL A   1      33.386  28.015  25.665  1.00  0.00     0.116 C 
BRANCH   2   3
ATOM      3  N   UNL A   1      33.869  28.170  24.318  1.00  0.00    -0.351 N 
ATOM      4  C   UNL A   1      33.323  27.851  23.119  1.00  0.00     0.281 C 
ATOM      5  O   UNL A   1      34.038  28.097  22.147  1.00  0.00    -0.268 OA
ATOM      6  H   UNL A   1      34.761  28.582  24.256  1.00  0.00     0.163 HD
BRANCH   4   7
ATOM      7  C   UNL A   1      31.866  27.328  22.987  1.00  0.00     0.176 C 
ATOM      8  C   UNL A   1      31.570  26.099  23.899  1.00  0.00     0.061 C 
ATOM      9  C   UNL A   1      30.031  26.020  23.883  1.00  0.00     0.011 C 
ATOM     10  C   UNL A   1      29.554  27.465  23.763  1.00  0.00     0.008 C 
ATOM     11  C   UNL A   1      30.817  28.302  23.566  1.00  0.00     0.079 C 
BRANCH   8  12
ATOM     12  C   UNL A   1      32.207  24.738  23.573  1.00  0.00     0.021 C 
BRANCH  12  13
ATOM     13  C   UNL A   1      32.791  23.955  24.760  1.00  0.00     0.070 C 
BRANCH  13  14
ATOM     14  S   UNL A   1      34.034  22.666  24.367  1.00  0.00    -0.162 SA
BRANCH  14  15
ATOM     15  C   UNL A   1      35.533  23.610  23.924  1.00  0.00     0.066 C 
ATOM     16  C   UNL A   1      36.641  22.833  23.235  1.00  0.00     0.015 C 
ENDBRANCH  14  15
ENDBRANCH  13  14
ENDBRANCH  12  13
ENDBRANCH   8  12
BRANCH   7  17
ATOM     17  N   UNL A   1      31.576  27.022  21.567  1.00  0.00    -0.345 N 
ATOM     18  H   UNL A   1      31.887  26.075  21.353  1.00  0.00     0.345 HD
ATOM     19  H   UNL A   1      32.069  27.686  20.969  1.00  0.00     0.345 HD
ATOM     20  H   UNL A   1      30.571  27.096  21.402  1.00  0.00     0.345 HD
ENDBRANCH   7  17
ENDBRANCH   4   7
ENDBRANCH   2   3
ENDBRANCH   1   2
BRANCH   1  21
ATOM     21  C   UNL A   1      32.386  29.909  27.079  1.00  0.00     0.002 C 
BRANCH  21  22
ATOM     22  C   UNL A   1      31.562  30.768  26.111  1.00  0.00     0.002 C 
BRANCH  22  23
ATOM     23  C   UNL A   1      31.372  32.221  26.546  1.00  0.00     0.021 C 
BRANCH  23  24
ATOM     24  C   UNL A   1      32.567  32.815  27.277  1.00  0.00     0.116 C 
BRANCH  24  25
ATOM     25  N   UNL A   1      32.362  34.214  27.600  1.00  0.00    -0.352 N 
ATOM     26  C   UNL A   1      32.969  34.971  28.570  1.00  0.00     0.251 C 
ATOM     27  H   UNL A   1      31.696  34.685  27.048  1.00  0.00     0.163 HD
ATOM     28  O   UNL A   1      32.535  36.080  28.858  1.00  0.00    -0.269 OA
BRANCH  26  29
ATOM     29  C   UNL A   1      34.144  34.426  29.283  1.00  0.00     0.039 A 
ATOM     30  C   UNL A   1      33.949  33.775  30.503  1.00  0.00     0.014 A 
ATOM     31  C   UNL A   1      35.428  34.551  28.747  1.00  0.00     0.014 A 
ATOM     32  C   UNL A   1      35.039  33.204  31.160  1.00  0.00     0.010 A 
ATOM     33  C   UNL A   1      36.499  33.911  29.361  1.00  0.00     0.010 A 
ATOM     34  C   UNL A   1      36.318  33.239  30.579  1.00  0.00    -0.014 A 
BRANCH  34  35
ATOM     35  C   UNL A   1      37.478  32.586  31.236  1.00  0.00     0.031 A 
ATOM     36  C   UNL A   1      38.183  31.444  30.558  1.00  0.00     0.074 A 
ATOM     37  C   UNL A   1      37.863  32.988  32.463  1.00  0.00     0.049 A 
ATOM     38  N   UNL A   1      39.170  30.704  30.995  1.00  0.00    -0.248 NA
ATOM     39  C   UNL A   1      37.699  31.067  29.219  1.00  0.00     0.031 C 
ATOM     40  C   UNL A   1      37.232  34.057  33.240  1.00  0.00     0.029 A 
ATOM     41  N   UNL A   1      38.873  32.540  33.277  1.00  0.00    -0.354 N 
ATOM     42  C   UNL A   1      39.419  29.775  29.992  1.00  0.00     0.074 A 
ATOM     43  C   UNL A   1      38.442  30.004  28.950  1.00  0.00     0.031 C 
ATOM     44  C   UNL A   1      37.883  34.196  34.406  1.00  0.00     0.029 A 
ATOM     45  C   UNL A   1      38.947  33.201  34.480  1.00  0.00     0.049 A 
ATOM     46  H   UNL A   1      39.487  31.814  33.023  1.00  0.00     0.167 HD
ATOM     47  C   UNL A   1      40.394  28.837  29.933  1.00  0.00     0.037 A 
ATOM     48  C   UNL A   1      39.772  33.014  35.527  1.00  0.00     0.037 A 
ATOM     49  C   UNL A   1      41.377  28.627  30.963  1.00  0.00     0.049 A 
ATOM     50  C   UNL A   1      40.828  31.943  35.444  1.00  0.00     0.074 A 
ATOM     51  C   UNL A   1      42.430  27.728  30.979  1.00  0.00     0.029 A 
ATOM     52  N   UNL A   1      41.426  29.323  32.161  1.00  0.00    -0.354 N 
ATOM     53  N   UNL A   1      41.094  31.115  34.462  1.00  0.00    -0.248 NA
ATOM     54  C   UNL A   1      41.705  31.786  36.612  1.00  0.00     0.031 C 
ATOM     55  C   UNL A   1      43.086  27.846  32.208  1.00  0.00     0.029 A 
ATOM     56  C   UNL A   1      42.480  28.860  32.933  1.00  0.00     0.049 A 
ATOM     57  H   UNL A   1      40.805  30.040  32.425  1.00  0.00     0.167 HD
ATOM     58  C   UNL A   1      42.187  30.366  34.880  1.00  0.00     0.074 A 
ATOM     59  C   UNL A   1      42.546  30.850  36.196  1.00  0.00     0.031 C 
ATOM     60  C   UNL A   1      42.834  29.366  34.234  1.00  0.00     0.037 A 
BRANCH  47  61
ATOM     61  C   UNL A   1      40.457  27.971  28.708  1.00  0.00     0.064 A 
ATOM     62  C   UNL A   1      41.216  28.341  27.587  1.00  0.00     0.173 A 
ATOM     63  C   UNL A   1      39.806  26.729  28.678  1.00  0.00     0.173 A 
ATOM     64  F   UNL A   1      41.850  29.523  27.559  1.00  0.00    -0.203 F 
ATOM     65  C   UNL A   1      41.303  27.510  26.473  1.00  0.00     0.198 A 
ATOM     66  C   UNL A   1      39.920  25.886  27.575  1.00  0.00     0.198 A 
ATOM     67  F   UNL A   1      39.071  26.324  29.725  1.00  0.00    -0.203 F 
ATOM     68  F   UNL A   1      42.000  27.902  25.398  1.00  0.00    -0.200 F 
ATOM     69  C   UNL A   1      40.664  26.279  26.472  1.00  0.00     0.200 A 
ATOM     70  F   UNL A   1      39.314  24.691  27.582  1.00  0.00    -0.200 F 
ATOM     71  F   UNL A   1      40.761  25.473  25.407  1.00  0.00    -0.200 F 
ENDBRANCH  47  61
BRANCH  48  72
ATOM     72  C   UNL A   1      39.645  33.857  36.747  1.00  0.00     0.064 A 
ATOM     73  C   UNL A   1      38.861  33.442  37.833  1.00  0.00     0.173 A 
ATOM     74  C   UNL A   1      40.269  35.109  36.837  1.00  0.00     0.173 A 
ATOM     75  F   UNL A   1      38.228  32.261  37.788  1.00  0.00    -0.203 F 
ATOM     76  C   UNL A   1      38.675  34.262  38.944  1.00  0.00     0.198 A 
ATOM     77  C   UNL A   1      40.112  35.914  37.964  1.00  0.00     0.198 A 
ATOM     78  F   UNL A   1      41.037  35.553  35.830  1.00  0.00    -0.203 F 
ATOM     79  F   UNL A   1      37.866  33.869  39.937  1.00  0.00    -0.200 F 
ATOM     80  C   UNL A   1      39.303  35.496  39.010  1.00  0.00     0.200 A 
ATOM     81  F   UNL A   1      40.735  37.098  38.031  1.00  0.00    -0.200 F 
ATOM     82  F   UNL A   1      39.120  36.288  40.076  1.00  0.00    -0.200 F 
ENDBRANCH  48  72
BRANCH  60  83
ATOM     83  C   UNL A   1      44.026  28.760  34.918  1.00  0.00     0.064 A 
ATOM     84  C   UNL A   1      43.910  27.639  35.752  1.00  0.00     0.173 A 
ATOM     85  C   UNL A   1      45.309  29.289  34.704  1.00  0.00     0.173 A 
ATOM     86  F   UNL A   1      42.704  27.105  36.002  1.00  0.00    -0.203 F 
ATOM     87  C   UNL A   1      45.030  27.088  36.371  1.00  0.00     0.198 A 
ATOM     88  C   UNL A   1      46.429  28.714  35.295  1.00  0.00     0.198 A 
ATOM     89  F   UNL A   1      45.477  30.355  33.907  1.00  0.00    -0.203 F 
ATOM     90  F   UNL A   1      44.887  26.051  37.208  1.00  0.00    -0.200 F 
ATOM     91  C   UNL A   1      46.288  27.620  36.136  1.00  0.00     0.200 A 
ATOM     92  F   UNL A   1      47.647  29.219  35.052  1.00  0.00    -0.200 F 
ATOM     93  F   UNL A   1      47.365  27.083  36.725  1.00  0.00    -0.200 F 
ENDBRANCH  60  83
ENDBRANCH  34  35
ENDBRANCH  26  29
ENDBRANCH  24  25
ENDBRANCH  23  24
ENDBRANCH  22  23
ENDBRANCH  21  22
ENDBRANCH   1  21
TORSDOF 18
ENDMDL
