MODEL 1
REMARK VINA RESULT:     -11.7      0.000      0.000
REMARK SMILES Cc1[nH]c(=O)sc1S(=O)(=O)NC1(CC(=O)NCCCCCCNC(=O)c2ccc(-c3c4nc(c(-c5c(F)c(F)c(F)c(F)c5F)c5ccc([nH]5)c(-c5c(F)c(F)c(F)c(F)c5F)c5nc(c(-c6c(F)c(F)c(F)c(F)c6F)c6ccc3[nH]6)C=C5)C=C4)cc2)CCC1
REMARK SMILES IDX 18 1 17 2 16 3 14 4 15 5 13 7 12 8 89 9 91 10 90 11 11 12
REMARK SMILES IDX 8 14 9 15 10 16 7 17 1 18 2 19 3 20 4 21 6 23 5 24 19 25
REMARK SMILES IDX 20 26 21 27 22 28 23 29 24 30 25 32 26 33 27 34 88 35 28 36
REMARK SMILES IDX 87 37 29 38 30 39 31 40 81 41 32 42 86 43 80 44 82 45 33 46
REMARK SMILES IDX 85 47 79 48 78 49 34 51 66 52 46 53 65 54 47 55 50 56 64 57
REMARK SMILES IDX 83 58 48 59 49 60 63 62 84 63 51 64 35 65 36 66 44 67 37 68
REMARK SMILES IDX 38 69 42 70 45 71 39 72 40 73 43 74 41 75 67 76 68 77 76 78
REMARK SMILES IDX 69 79 70 80 74 81 77 82 71 83 72 84 75 85 73 86 52 87 53 88
REMARK SMILES IDX 61 89 54 90 55 91 59 92 62 93 56 94 57 95 60 96 58 97
REMARK H PARENT 16 6 11 13 3 22 23 31 82 50 50 61
REMARK Flexibility Score: inf
ROOT
ATOM      1  C   UNL A   1      31.660  28.323  27.630  1.00  0.00     0.021 C 
ENDROOT
BRANCH   1   2
ATOM      2  C   UNL A   1      31.037  27.433  26.553  1.00  0.00     0.116 C 
BRANCH   2   3
ATOM      3  N   UNL A   1      31.393  26.040  26.723  1.00  0.00    -0.356 N 
ATOM      4  C   UNL A   1      31.917  25.140  25.847  1.00  0.00     0.221 C 
ATOM      5  O   UNL A   1      32.379  24.092  26.306  1.00  0.00    -0.275 OA
ATOM      6  H   UNL A   1      31.229  25.684  27.626  1.00  0.00     0.163 HD
BRANCH   4   7
ATOM      7  C   UNL A   1      32.040  25.429  24.371  1.00  0.00     0.123 C 
BRANCH   7   8
ATOM      8  C   UNL A   1      33.410  25.779  23.761  1.00  0.00     0.042 C 
ATOM      9  C   UNL A   1      34.039  27.000  24.553  1.00  0.00     0.024 C 
ATOM     10  C   UNL A   1      33.362  26.738  22.536  1.00  0.00     0.024 C 
ATOM     11  C   UNL A   1      33.661  27.945  23.424  1.00  0.00     0.004 C 
BRANCH   8  12
ATOM     12  N   UNL A   1      34.432  24.663  23.803  1.00  0.00    -0.204 NA
ATOM     13  H   UNL A   1      35.296  25.152  23.566  1.00  0.00     0.142 HD
BRANCH  12  14
ATOM     14  S   UNL A   1      34.655  23.167  23.058  1.00  0.00     0.252 S 
ATOM     15  O   UNL A   1      36.077  23.045  22.836  1.00  0.00    -0.206 OA
ATOM     16  O   UNL A   1      33.768  23.246  21.912  1.00  0.00    -0.206 OA
BRANCH  14  17
ATOM     17  C   UNL A   1      34.135  21.836  24.030  1.00  0.00     0.158 A 
ATOM     18  C   UNL A   1      35.934  21.904  25.889  1.00  0.00     0.067 C 
ATOM     19  C   UNL A   1      34.730  21.411  25.159  1.00  0.00     0.046 A 
ATOM     20  N   UNL A   1      34.067  20.338  25.725  1.00  0.00    -0.315 N 
ATOM     21  C   UNL A   1      32.915  19.934  25.117  1.00  0.00     0.305 A 
ATOM     22  H   UNL A   1      34.412  19.886  26.530  1.00  0.00     0.170 HD
ATOM     23  S   UNL A   1      32.631  20.962  23.736  1.00  0.00    -0.061 S 
ATOM     24  O   UNL A   1      32.200  18.998  25.460  1.00  0.00    -0.257 OA
ENDBRANCH  14  17
ENDBRANCH  12  14
ENDBRANCH   8  12
ENDBRANCH   7   8
ENDBRANCH   4   7
ENDBRANCH   2   3
ENDBRANCH   1   2
BRANCH   1  25
ATOM     25  C   UNL A   1      31.963  29.754  27.181  1.00  0.00     0.002 C 
BRANCH  25  26
ATOM     26  C   UNL A   1      33.369  29.974  26.611  1.00  0.00     0.002 C 
BRANCH  26  27
ATOM     27  C   UNL A   1      34.458  30.322  27.639  1.00  0.00     0.021 C 
BRANCH  27  28
ATOM     28  C   UNL A   1      34.851  31.795  27.648  1.00  0.00     0.116 C 
BRANCH  28  29
ATOM     29  N   UNL A   1      34.483  32.451  28.897  1.00  0.00    -0.352 N 
ATOM     30  C   UNL A   1      34.995  32.254  30.159  1.00  0.00     0.251 C 
ATOM     31  H   UNL A   1      33.771  33.127  28.828  1.00  0.00     0.163 HD
ATOM     32  O   UNL A   1      34.366  32.614  31.148  1.00  0.00    -0.269 OA
BRANCH  30  33
ATOM     33  C   UNL A   1      36.309  31.607  30.322  1.00  0.00     0.039 A 
ATOM     34  C   UNL A   1      36.394  30.244  30.620  1.00  0.00     0.014 A 
ATOM     35  C   UNL A   1      37.463  32.379  30.223  1.00  0.00     0.014 A 
ATOM     36  C   UNL A   1      37.649  29.653  30.748  1.00  0.00     0.010 A 
ATOM     37  C   UNL A   1      38.705  31.786  30.272  1.00  0.00     0.010 A 
ATOM     38  C   UNL A   1      38.803  30.427  30.556  1.00  0.00    -0.014 A 
BRANCH  38  39
ATOM     39  C   UNL A   1      40.111  29.778  30.457  1.00  0.00     0.031 A 
ATOM     40  C   UNL A   1      40.791  29.594  31.774  1.00  0.00     0.074 A 
ATOM     41  C   UNL A   1      40.546  29.165  29.334  1.00  0.00     0.049 A 
ATOM     42  N   UNL A   1      41.959  30.008  32.140  1.00  0.00    -0.248 NA
ATOM     43  C   UNL A   1      40.020  28.965  32.862  1.00  0.00     0.031 C 
ATOM     44  C   UNL A   1      39.812  28.995  28.076  1.00  0.00     0.029 A 
ATOM     45  N   UNL A   1      41.688  28.451  29.116  1.00  0.00    -0.354 N 
ATOM     46  C   UNL A   1      42.146  29.542  33.443  1.00  0.00     0.074 A 
ATOM     47  C   UNL A   1      40.866  29.066  33.887  1.00  0.00     0.031 C 
ATOM     48  C   UNL A   1      40.417  28.051  27.324  1.00  0.00     0.029 A 
ATOM     49  C   UNL A   1      41.653  27.656  27.975  1.00  0.00     0.049 A 
ATOM     50  H   UNL A   1      42.470  28.495  29.713  1.00  0.00     0.167 HD
ATOM     51  C   UNL A   1      43.400  29.349  33.938  1.00  0.00     0.037 A 
ATOM     52  C   UNL A   1      42.553  26.709  27.607  1.00  0.00     0.037 A 
ATOM     53  C   UNL A   1      44.361  30.099  33.166  1.00  0.00     0.049 A 
ATOM     54  C   UNL A   1      43.795  26.959  28.372  1.00  0.00     0.074 A 
ATOM     55  C   UNL A   1      44.599  31.433  32.909  1.00  0.00     0.029 A 
ATOM     56  N   UNL A   1      45.058  29.396  32.218  1.00  0.00    -0.354 N 
ATOM     57  N   UNL A   1      44.577  27.982  28.183  1.00  0.00    -0.248 NA
ATOM     58  C   UNL A   1      43.990  26.247  29.626  1.00  0.00     0.031 C 
ATOM     59  C   UNL A   1      45.103  31.477  31.573  1.00  0.00     0.029 A 
ATOM     60  C   UNL A   1      45.203  30.168  31.101  1.00  0.00     0.049 A 
ATOM     61  H   UNL A   1      45.398  28.479  32.325  1.00  0.00     0.167 HD
ATOM     62  C   UNL A   1      45.029  28.310  29.449  1.00  0.00     0.074 A 
ATOM     63  C   UNL A   1      44.768  27.127  30.260  1.00  0.00     0.031 C 
ATOM     64  C   UNL A   1      45.287  29.612  29.770  1.00  0.00     0.037 A 
BRANCH  51  65
ATOM     65  C   UNL A   1      43.819  28.142  34.771  1.00  0.00     0.064 A 
ATOM     66  C   UNL A   1      43.540  26.851  34.266  1.00  0.00     0.173 A 
ATOM     67  C   UNL A   1      44.154  28.180  36.143  1.00  0.00     0.173 A 
ATOM     68  F   UNL A   1      43.232  26.671  32.972  1.00  0.00    -0.203 F 
ATOM     69  C   UNL A   1      43.452  25.728  35.095  1.00  0.00     0.198 A 
ATOM     70  C   UNL A   1      44.110  27.048  36.958  1.00  0.00     0.198 A 
ATOM     71  F   UNL A   1      44.442  29.315  36.787  1.00  0.00    -0.203 F 
ATOM     72  F   UNL A   1      43.025  24.561  34.592  1.00  0.00    -0.200 F 
ATOM     73  C   UNL A   1      43.717  25.832  36.445  1.00  0.00     0.200 A 
ATOM     74  F   UNL A   1      44.369  27.174  38.267  1.00  0.00    -0.200 F 
ATOM     75  F   UNL A   1      43.555  24.781  37.259  1.00  0.00    -0.200 F 
ENDBRANCH  51  65
BRANCH  52  76
ATOM     76  C   UNL A   1      42.361  25.468  26.819  1.00  0.00     0.064 A 
ATOM     77  C   UNL A   1      43.226  25.141  25.759  1.00  0.00     0.173 A 
ATOM     78  C   UNL A   1      41.510  24.440  27.267  1.00  0.00     0.173 A 
ATOM     79  F   UNL A   1      44.101  26.047  25.299  1.00  0.00    -0.203 F 
ATOM     80  C   UNL A   1      43.264  23.856  25.208  1.00  0.00     0.198 A 
ATOM     81  C   UNL A   1      41.541  23.160  26.709  1.00  0.00     0.198 A 
ATOM     82  F   UNL A   1      40.706  24.622  28.325  1.00  0.00    -0.203 F 
ATOM     83  F   UNL A   1      44.159  23.564  24.253  1.00  0.00    -0.200 F 
ATOM     84  C   UNL A   1      42.430  22.863  25.691  1.00  0.00     0.200 A 
ATOM     85  F   UNL A   1      40.758  22.197  27.216  1.00  0.00    -0.200 F 
ATOM     86  F   UNL A   1      42.516  21.614  25.215  1.00  0.00    -0.200 F 
ENDBRANCH  52  76
BRANCH  64  87
ATOM     87  C   UNL A   1      45.470  30.580  28.635  1.00  0.00     0.064 A 
ATOM     88  C   UNL A   1      44.433  31.313  28.034  1.00  0.00     0.173 A 
ATOM     89  C   UNL A   1      46.778  30.847  28.211  1.00  0.00     0.173 A 
ATOM     90  F   UNL A   1      43.165  31.187  28.448  1.00  0.00    -0.203 F 
ATOM     91  C   UNL A   1      44.694  32.230  27.018  1.00  0.00     0.198 A 
ATOM     92  C   UNL A   1      47.041  31.795  27.228  1.00  0.00     0.198 A 
ATOM     93  F   UNL A   1      47.814  30.211  28.783  1.00  0.00    -0.203 F 
ATOM     94  F   UNL A   1      43.685  32.897  26.438  1.00  0.00    -0.200 F 
ATOM     95  C   UNL A   1      45.998  32.476  26.621  1.00  0.00     0.200 A 
ATOM     96  F   UNL A   1      48.308  32.062  26.883  1.00  0.00    -0.200 F 
ATOM     97  F   UNL A   1      46.254  33.385  25.671  1.00  0.00    -0.200 F 
ENDBRANCH  64  87
ENDBRANCH  38  39
ENDBRANCH  30  33
ENDBRANCH  28  29
ENDBRANCH  27  28
ENDBRANCH  26  27
ENDBRANCH  25  26
ENDBRANCH   1  25
TORSDOF 17
ENDMDL
MODEL 2
REMARK VINA RESULT:     -11.7      3.024      8.478
REMARK SMILES Cc1[nH]c(=O)sc1S(=O)(=O)NC1(CC(=O)NCCCCCCNC(=O)c2ccc(-c3c4nc(c(-c5c(F)c(F)c(F)c(F)c5F)c5ccc([nH]5)c(-c5c(F)c(F)c(F)c(F)c5F)c5nc(c(-c6c(F)c(F)c(F)c(F)c6F)c6ccc3[nH]6)C=C5)C=C4)cc2)CCC1
REMARK SMILES IDX 18 1 17 2 16 3 14 4 15 5 13 7 12 8 89 9 91 10 90 11 11 12
REMARK SMILES IDX 8 14 9 15 10 16 7 17 1 18 2 19 3 20 4 21 6 23 5 24 19 25
REMARK SMILES IDX 20 26 21 27 22 28 23 29 24 30 25 32 26 33 27 34 88 35 28 36
REMARK SMILES IDX 87 37 29 38 30 39 31 40 81 41 32 42 86 43 80 44 82 45 33 46
REMARK SMILES IDX 85 47 79 48 78 49 34 51 66 52 46 53 65 54 47 55 50 56 64 57
REMARK SMILES IDX 83 58 48 59 49 60 63 62 84 63 51 64 35 65 36 66 44 67 37 68
REMARK SMILES IDX 38 69 42 70 45 71 39 72 40 73 43 74 41 75 67 76 68 77 76 78
REMARK SMILES IDX 69 79 70 80 74 81 77 82 71 83 72 84 75 85 73 86 52 87 53 88
REMARK SMILES IDX 61 89 54 90 55 91 59 92 62 93 56 94 57 95 60 96 58 97
REMARK H PARENT 16 6 11 13 3 22 23 31 82 50 50 61
REMARK Flexibility Score: inf
ROOT
ATOM      1  C   UNL A   1      39.233  23.195  26.402  1.00  0.00     0.021 C 
ENDROOT
BRANCH   1   2
ATOM      2  C   UNL A   1      37.739  23.168  26.073  1.00  0.00     0.116 C 
BRANCH   2   3
ATOM      3  N   UNL A   1      37.492  22.835  24.687  1.00  0.00    -0.356 N 
ATOM      4  C   UNL A   1      36.545  23.280  23.817  1.00  0.00     0.221 C 
ATOM      5  O   UNL A   1      36.708  23.046  22.617  1.00  0.00    -0.275 OA
ATOM      6  H   UNL A   1      38.116  22.173  24.307  1.00  0.00     0.163 HD
BRANCH   4   7
ATOM      7  C   UNL A   1      35.377  24.126  24.262  1.00  0.00     0.123 C 
BRANCH   7   8
ATOM      8  C   UNL A   1      34.086  23.460  24.773  1.00  0.00     0.042 C 
ATOM      9  C   UNL A   1      32.905  23.762  23.758  1.00  0.00     0.024 C 
ATOM     10  C   UNL A   1      33.272  24.300  25.800  1.00  0.00     0.024 C 
ATOM     11  C   UNL A   1      32.346  24.815  24.699  1.00  0.00     0.004 C 
BRANCH   8  12
ATOM     12  N   UNL A   1      34.157  21.955  24.920  1.00  0.00    -0.204 NA
ATOM     13  H   UNL A   1      34.196  21.645  23.948  1.00  0.00     0.142 HD
BRANCH  12  14
ATOM     14  S   UNL A   1      33.238  20.743  25.645  1.00  0.00     0.252 S 
ATOM     15  O   UNL A   1      31.876  20.973  25.219  1.00  0.00    -0.206 OA
ATOM     16  O   UNL A   1      33.569  20.887  27.050  1.00  0.00    -0.206 OA
BRANCH  14  17
ATOM     17  C   UNL A   1      33.702  19.150  25.158  1.00  0.00     0.158 A 
ATOM     18  C   UNL A   1      36.238  19.510  24.790  1.00  0.00     0.067 C 
ATOM     19  C   UNL A   1      34.948  18.762  24.834  1.00  0.00     0.046 A 
ATOM     20  N   UNL A   1      35.008  17.419  24.509  1.00  0.00    -0.315 N 
ATOM     21  C   UNL A   1      33.853  16.704  24.632  1.00  0.00     0.305 A 
ATOM     22  H   UNL A   1      35.845  17.001  24.203  1.00  0.00     0.170 HD
ATOM     23  S   UNL A   1      32.596  17.776  25.192  1.00  0.00    -0.061 S 
ATOM     24  O   UNL A   1      33.704  15.512  24.378  1.00  0.00    -0.257 OA
ENDBRANCH  14  17
ENDBRANCH  12  14
ENDBRANCH   8  12
ENDBRANCH   7   8
ENDBRANCH   4   7
ENDBRANCH   2   3
ENDBRANCH   1   2
BRANCH   1  25
ATOM     25  C   UNL A   1      39.810  21.858  26.870  1.00  0.00     0.002 C 
BRANCH  25  26
ATOM     26  C   UNL A   1      40.235  20.903  25.749  1.00  0.00     0.002 C 
BRANCH  26  27
ATOM     27  C   UNL A   1      40.910  19.600  26.203  1.00  0.00     0.021 C 
BRANCH  27  28
ATOM     28  C   UNL A   1      42.298  19.800  26.804  1.00  0.00     0.116 C 
BRANCH  28  29
ATOM     29  N   UNL A   1      43.347  19.709  25.797  1.00  0.00    -0.352 N 
ATOM     30  C   UNL A   1      43.984  20.723  25.119  1.00  0.00     0.251 C 
ATOM     31  H   UNL A   1      43.641  18.797  25.571  1.00  0.00     0.163 HD
ATOM     32  O   UNL A   1      44.584  20.492  24.075  1.00  0.00    -0.269 OA
BRANCH  30  33
ATOM     33  C   UNL A   1      43.944  22.096  25.653  1.00  0.00     0.039 A 
ATOM     34  C   UNL A   1      43.065  23.039  25.115  1.00  0.00     0.014 A 
ATOM     35  C   UNL A   1      44.828  22.456  26.668  1.00  0.00     0.014 A 
ATOM     36  C   UNL A   1      43.032  24.324  25.652  1.00  0.00     0.010 A 
ATOM     37  C   UNL A   1      44.746  23.700  27.253  1.00  0.00     0.010 A 
ATOM     38  C   UNL A   1      43.866  24.645  26.734  1.00  0.00    -0.014 A 
BRANCH  38  39
ATOM     39  C   UNL A   1      43.679  25.905  27.454  1.00  0.00     0.031 A 
ATOM     40  C   UNL A   1      44.659  26.965  27.072  1.00  0.00     0.074 A 
ATOM     41  C   UNL A   1      42.578  26.178  28.187  1.00  0.00     0.049 A 
ATOM     42  N   UNL A   1      45.471  27.620  27.833  1.00  0.00    -0.248 NA
ATOM     43  C   UNL A   1      44.838  27.249  25.636  1.00  0.00     0.031 C 
ATOM     44  C   UNL A   1      41.393  25.330  28.357  1.00  0.00     0.029 A 
ATOM     45  N   UNL A   1      42.223  27.326  28.835  1.00  0.00    -0.354 N 
ATOM     46  C   UNL A   1      46.138  28.524  27.004  1.00  0.00     0.074 A 
ATOM     47  C   UNL A   1      45.837  28.131  25.656  1.00  0.00     0.031 C 
ATOM     48  C   UNL A   1      40.378  26.067  28.858  1.00  0.00     0.029 A 
ATOM     49  C   UNL A   1      40.876  27.393  29.179  1.00  0.00     0.049 A 
ATOM     50  H   UNL A   1      42.864  28.044  29.044  1.00  0.00     0.167 HD
ATOM     51  C   UNL A   1      46.663  29.675  27.510  1.00  0.00     0.037 A 
ATOM     52  C   UNL A   1      40.205  28.471  29.656  1.00  0.00     0.037 A 
ATOM     53  C   UNL A   1      46.835  29.557  28.938  1.00  0.00     0.049 A 
ATOM     54  C   UNL A   1      41.211  29.428  30.167  1.00  0.00     0.074 A 
ATOM     55  C   UNL A   1      47.588  28.767  29.782  1.00  0.00     0.029 A 
ATOM     56  N   UNL A   1      45.861  30.128  29.715  1.00  0.00    -0.354 N 
ATOM     57  N   UNL A   1      41.936  29.229  31.229  1.00  0.00    -0.248 NA
ATOM     58  C   UNL A   1      41.683  30.477  29.275  1.00  0.00     0.031 C 
ATOM     59  C   UNL A   1      46.783  28.588  30.949  1.00  0.00     0.029 A 
ATOM     60  C   UNL A   1      45.608  29.321  30.786  1.00  0.00     0.049 A 
ATOM     61  H   UNL A   1      45.414  30.986  29.528  1.00  0.00     0.167 HD
ATOM     62  C   UNL A   1      43.163  29.788  30.919  1.00  0.00     0.074 A 
ATOM     63  C   UNL A   1      42.900  30.670  29.787  1.00  0.00     0.031 C 
ATOM     64  C   UNL A   1      44.312  29.245  31.420  1.00  0.00     0.037 A 
BRANCH  51  65
ATOM     65  C   UNL A   1      46.562  31.037  26.832  1.00  0.00     0.064 A 
ATOM     66  C   UNL A   1      47.713  31.859  26.806  1.00  0.00     0.173 A 
ATOM     67  C   UNL A   1      45.354  31.701  26.523  1.00  0.00     0.173 A 
ATOM     68  F   UNL A   1      48.928  31.348  27.056  1.00  0.00    -0.203 F 
ATOM     69  C   UNL A   1      47.635  33.246  26.641  1.00  0.00     0.198 A 
ATOM     70  C   UNL A   1      45.288  33.079  26.313  1.00  0.00     0.198 A 
ATOM     71  F   UNL A   1      44.170  31.081  26.506  1.00  0.00    -0.203 F 
ATOM     72  F   UNL A   1      48.737  33.996  26.787  1.00  0.00    -0.200 F 
ATOM     73  C   UNL A   1      46.419  33.857  26.416  1.00  0.00     0.200 A 
ATOM     74  F   UNL A   1      44.095  33.652  26.098  1.00  0.00    -0.200 F 
ATOM     75  F   UNL A   1      46.326  35.191  26.338  1.00  0.00    -0.200 F 
ENDBRANCH  51  65
BRANCH  52  76
ATOM     76  C   UNL A   1      38.779  28.848  29.503  1.00  0.00     0.064 A 
ATOM     77  C   UNL A   1      37.969  29.091  30.628  1.00  0.00     0.173 A 
ATOM     78  C   UNL A   1      38.257  29.258  28.262  1.00  0.00     0.173 A 
ATOM     79  F   UNL A   1      38.406  28.772  31.855  1.00  0.00    -0.203 F 
ATOM     80  C   UNL A   1      36.734  29.737  30.521  1.00  0.00     0.198 A 
ATOM     81  C   UNL A   1      37.019  29.894  28.154  1.00  0.00     0.198 A 
ATOM     82  F   UNL A   1      38.984  29.147  27.139  1.00  0.00    -0.203 F 
ATOM     83  F   UNL A   1      36.029  30.021  31.626  1.00  0.00    -0.200 F 
ATOM     84  C   UNL A   1      36.264  30.150  29.285  1.00  0.00     0.200 A 
ATOM     85  F   UNL A   1      36.597  30.325  26.957  1.00  0.00    -0.200 F 
ATOM     86  F   UNL A   1      35.117  30.833  29.189  1.00  0.00    -0.200 F 
ENDBRANCH  52  76
BRANCH  64  87
ATOM     87  C   UNL A   1      44.183  28.330  32.606  1.00  0.00     0.064 A 
ATOM     88  C   UNL A   1      44.031  28.760  33.935  1.00  0.00     0.173 A 
ATOM     89  C   UNL A   1      44.108  26.953  32.360  1.00  0.00     0.173 A 
ATOM     90  F   UNL A   1      43.995  30.063  34.242  1.00  0.00    -0.203 F 
ATOM     91  C   UNL A   1      43.866  27.845  34.973  1.00  0.00     0.198 A 
ATOM     92  C   UNL A   1      43.898  26.044  33.392  1.00  0.00     0.198 A 
ATOM     93  F   UNL A   1      44.198  26.488  31.103  1.00  0.00    -0.203 F 
ATOM     94  F   UNL A   1      43.751  28.276  36.238  1.00  0.00    -0.200 F 
ATOM     95  C   UNL A   1      43.791  26.489  34.700  1.00  0.00     0.200 A 
ATOM     96  F   UNL A   1      43.780  24.739  33.114  1.00  0.00    -0.200 F 
ATOM     97  F   UNL A   1      43.595  25.611  35.692  1.00  0.00    -0.200 F 
ENDBRANCH  64  87
ENDBRANCH  38  39
ENDBRANCH  30  33
ENDBRANCH  28  29
ENDBRANCH  27  28
ENDBRANCH  26  27
ENDBRANCH  25  26
ENDBRANCH   1  25
TORSDOF 17
ENDMDL
MODEL 3
REMARK VINA RESULT:     -11.6      3.122      8.664
REMARK SMILES Cc1[nH]c(=O)sc1S(=O)(=O)NC1(CC(=O)NCCCCCCNC(=O)c2ccc(-c3c4nc(c(-c5c(F)c(F)c(F)c(F)c5F)c5ccc([nH]5)c(-c5c(F)c(F)c(F)c(F)c5F)c5nc(c(-c6c(F)c(F)c(F)c(F)c6F)c6ccc3[nH]6)C=C5)C=C4)cc2)CCC1
REMARK SMILES IDX 18 1 17 2 16 3 14 4 15 5 13 7 12 8 89 9 91 10 90 11 11 12
REMARK SMILES IDX 8 14 9 15 10 16 7 17 1 18 2 19 3 20 4 21 6 23 5 24 19 25
REMARK SMILES IDX 20 26 21 27 22 28 23 29 24 30 25 32 26 33 27 34 88 35 28 36
REMARK SMILES IDX 87 37 29 38 30 39 31 40 81 41 32 42 86 43 80 44 82 45 33 46
REMARK SMILES IDX 85 47 79 48 78 49 34 51 66 52 46 53 65 54 47 55 50 56 64 57
REMARK SMILES IDX 83 58 48 59 49 60 63 62 84 63 51 64 35 65 36 66 44 67 37 68
REMARK SMILES IDX 38 69 42 70 45 71 39 72 40 73 43 74 41 75 67 76 68 77 76 78
REMARK SMILES IDX 69 79 70 80 74 81 77 82 71 83 72 84 75 85 73 86 52 87 53 88
REMARK SMILES IDX 61 89 54 90 55 91 59 92 62 93 56 94 57 95 60 96 58 97
REMARK H PARENT 16 6 11 13 3 22 23 31 82 50 50 61
REMARK Flexibility Score: inf
ROOT
ATOM      1  C   UNL A   1      38.231  23.854  26.491  1.00  0.00     0.021 C 
ENDROOT
BRANCH   1   2
ATOM      2  C   UNL A   1      37.014  23.329  25.728  1.00  0.00     0.116 C 
BRANCH   2   3
ATOM      3  N   UNL A   1      35.809  23.368  26.528  1.00  0.00    -0.356 N 
ATOM      4  C   UNL A   1      34.501  23.454  26.167  1.00  0.00     0.221 C 
ATOM      5  O   UNL A   1      33.648  23.202  27.023  1.00  0.00    -0.275 OA
ATOM      6  H   UNL A   1      35.963  23.326  27.500  1.00  0.00     0.163 HD
BRANCH   4   7
ATOM      7  C   UNL A   1      34.073  23.742  24.748  1.00  0.00     0.123 C 
BRANCH   7   8
ATOM      8  C   UNL A   1      33.150  24.937  24.443  1.00  0.00     0.042 C 
ATOM      9  C   UNL A   1      32.114  24.522  23.317  1.00  0.00     0.024 C 
ATOM     10  C   UNL A   1      33.707  25.954  23.405  1.00  0.00     0.024 C 
ATOM     11  C   UNL A   1      32.912  25.294  22.279  1.00  0.00     0.004 C 
BRANCH   8  12
ATOM     12  N   UNL A   1      32.336  25.432  25.619  1.00  0.00    -0.204 NA
ATOM     13  H   UNL A   1      31.977  24.563  26.016  1.00  0.00     0.142 HD
BRANCH  12  14
ATOM     14  S   UNL A   1      31.050  26.494  25.868  1.00  0.00     0.252 S 
ATOM     15  O   UNL A   1      31.332  27.170  27.114  1.00  0.00    -0.206 OA
ATOM     16  O   UNL A   1      29.894  25.621  25.788  1.00  0.00    -0.206 OA
BRANCH  14  17
ATOM     17  C   UNL A   1      30.895  27.683  24.623  1.00  0.00     0.158 A 
ATOM     18  C   UNL A   1      32.901  29.210  25.202  1.00  0.00     0.067 C 
ATOM     19  C   UNL A   1      31.703  28.744  24.447  1.00  0.00     0.046 A 
ATOM     20  N   UNL A   1      31.337  29.501  23.350  1.00  0.00    -0.315 N 
ATOM     21  C   UNL A   1      30.298  29.036  22.598  1.00  0.00     0.305 A 
ATOM     22  H   UNL A   1      31.805  30.337  23.122  1.00  0.00     0.170 HD
ATOM     23  S   UNL A   1      29.728  27.547  23.307  1.00  0.00    -0.061 S 
ATOM     24  O   UNL A   1      29.822  29.572  21.603  1.00  0.00    -0.257 OA
ENDBRANCH  14  17
ENDBRANCH  12  14
ENDBRANCH   8  12
ENDBRANCH   7   8
ENDBRANCH   4   7
ENDBRANCH   2   3
ENDBRANCH   1   2
BRANCH   1  25
ATOM     25  C   UNL A   1      39.291  22.798  26.812  1.00  0.00     0.002 C 
BRANCH  25  26
ATOM     26  C   UNL A   1      39.264  21.554  25.915  1.00  0.00     0.002 C 
BRANCH  26  27
ATOM     27  C   UNL A   1      40.326  20.487  26.224  1.00  0.00     0.021 C 
BRANCH  27  28
ATOM     28  C   UNL A   1      41.619  21.051  26.804  1.00  0.00     0.116 C 
BRANCH  28  29
ATOM     29  N   UNL A   1      42.554  21.455  25.761  1.00  0.00    -0.352 N 
ATOM     30  C   UNL A   1      42.884  22.723  25.340  1.00  0.00     0.251 C 
ATOM     31  H   UNL A   1      43.013  20.720  25.294  1.00  0.00     0.163 HD
ATOM     32  O   UNL A   1      43.409  22.898  24.246  1.00  0.00    -0.269 OA
BRANCH  30  33
ATOM     33  C   UNL A   1      42.603  23.878  26.212  1.00  0.00     0.039 A 
ATOM     34  C   UNL A   1      43.114  23.923  27.512  1.00  0.00     0.014 A 
ATOM     35  C   UNL A   1      41.783  24.900  25.742  1.00  0.00     0.014 A 
ATOM     36  C   UNL A   1      42.852  25.036  28.308  1.00  0.00     0.010 A 
ATOM     37  C   UNL A   1      41.585  26.036  26.495  1.00  0.00     0.010 A 
ATOM     38  C   UNL A   1      42.098  26.099  27.788  1.00  0.00    -0.014 A 
BRANCH  38  39
ATOM     39  C   UNL A   1      42.011  27.363  28.520  1.00  0.00     0.031 A 
ATOM     40  C   UNL A   1      43.128  28.308  28.221  1.00  0.00     0.074 A 
ATOM     41  C   UNL A   1      40.904  27.751  29.190  1.00  0.00     0.049 A 
ATOM     42  N   UNL A   1      43.959  28.855  29.044  1.00  0.00    -0.248 NA
ATOM     43  C   UNL A   1      43.428  28.588  26.804  1.00  0.00     0.031 C 
ATOM     44  C   UNL A   1      39.622  27.042  29.270  1.00  0.00     0.029 A 
ATOM     45  N   UNL A   1      40.643  28.922  29.839  1.00  0.00    -0.354 N 
ATOM     46  C   UNL A   1      44.776  29.688  28.275  1.00  0.00     0.074 A 
ATOM     47  C   UNL A   1      44.517  29.349  26.904  1.00  0.00     0.031 C 
ATOM     48  C   UNL A   1      38.669  27.883  29.723  1.00  0.00     0.029 A 
ATOM     49  C   UNL A   1      39.293  29.139  30.102  1.00  0.00     0.049 A 
ATOM     50  H   UNL A   1      41.347  29.559  30.101  1.00  0.00     0.167 HD
ATOM     51  C   UNL A   1      45.396  30.764  28.836  1.00  0.00     0.037 A 
ATOM     52  C   UNL A   1      38.720  30.280  30.558  1.00  0.00     0.037 A 
ATOM     53  C   UNL A   1      45.463  30.608  30.269  1.00  0.00     0.049 A 
ATOM     54  C   UNL A   1      39.794  31.109  31.149  1.00  0.00     0.074 A 
ATOM     55  C   UNL A   1      46.066  29.725  31.141  1.00  0.00     0.029 A 
ATOM     56  N   UNL A   1      44.513  31.277  30.997  1.00  0.00    -0.354 N 
ATOM     57  N   UNL A   1      40.424  30.814  32.249  1.00  0.00    -0.248 NA
ATOM     58  C   UNL A   1      40.437  32.108  30.310  1.00  0.00     0.031 C 
ATOM     59  C   UNL A   1      45.174  29.624  32.253  1.00  0.00     0.029 A 
ATOM     60  C   UNL A   1      44.102  30.489  32.034  1.00  0.00     0.049 A 
ATOM     61  H   UNL A   1      44.179  32.182  30.801  1.00  0.00     0.167 HD
ATOM     62  C   UNL A   1      41.724  31.232  32.026  1.00  0.00     0.074 A 
ATOM     63  C   UNL A   1      41.634  32.154  30.899  1.00  0.00     0.031 C 
ATOM     64  C   UNL A   1      42.769  30.555  32.586  1.00  0.00     0.037 A 
BRANCH  51  65
ATOM     65  C   UNL A   1      45.493  32.137  28.181  1.00  0.00     0.064 A 
ATOM     66  C   UNL A   1      46.770  32.735  28.065  1.00  0.00     0.173 A 
ATOM     67  C   UNL A   1      44.407  33.019  27.983  1.00  0.00     0.173 A 
ATOM     68  F   UNL A   1      47.885  32.003  28.205  1.00  0.00    -0.203 F 
ATOM     69  C   UNL A   1      46.937  34.116  27.919  1.00  0.00     0.198 A 
ATOM     70  C   UNL A   1      44.580  34.391  27.791  1.00  0.00     0.198 A 
ATOM     71  F   UNL A   1      43.132  32.628  28.061  1.00  0.00    -0.203 F 
ATOM     72  F   UNL A   1      48.166  34.646  27.977  1.00  0.00    -0.200 F 
ATOM     73  C   UNL A   1      45.841  34.945  27.804  1.00  0.00     0.200 A 
ATOM     74  F   UNL A   1      43.500  35.178  27.684  1.00  0.00    -0.200 F 
ATOM     75  F   UNL A   1      45.990  36.275  27.746  1.00  0.00    -0.200 F 
ENDBRANCH  51  65
BRANCH  52  76
ATOM     76  C   UNL A   1      37.358  30.821  30.327  1.00  0.00     0.064 A 
ATOM     77  C   UNL A   1      36.540  31.209  31.404  1.00  0.00     0.173 A 
ATOM     78  C   UNL A   1      36.942  31.235  29.048  1.00  0.00     0.173 A 
ATOM     79  F   UNL A   1      36.885  30.894  32.660  1.00  0.00    -0.203 F 
ATOM     80  C   UNL A   1      35.399  31.996  31.215  1.00  0.00     0.198 A 
ATOM     81  C   UNL A   1      35.797  32.012  28.860  1.00  0.00     0.198 A 
ATOM     82  F   UNL A   1      37.693  30.988  27.965  1.00  0.00    -0.203 F 
ATOM     83  F   UNL A   1      34.691  32.412  32.276  1.00  0.00    -0.200 F 
ATOM     84  C   UNL A   1      35.034  32.407  29.945  1.00  0.00     0.200 A 
ATOM     85  F   UNL A   1      35.480  32.438  27.629  1.00  0.00    -0.200 F 
ATOM     86  F   UNL A   1      33.984  33.220  29.770  1.00  0.00    -0.200 F 
ENDBRANCH  52  76
BRANCH  64  87
ATOM     87  C   UNL A   1      42.462  29.645  33.742  1.00  0.00     0.064 A 
ATOM     88  C   UNL A   1      42.024  28.315  33.620  1.00  0.00     0.173 A 
ATOM     89  C   UNL A   1      42.726  30.121  35.033  1.00  0.00     0.173 A 
ATOM     90  F   UNL A   1      41.841  27.754  32.417  1.00  0.00    -0.203 F 
ATOM     91  C   UNL A   1      41.811  27.521  34.745  1.00  0.00     0.198 A 
ATOM     92  C   UNL A   1      42.555  29.312  36.152  1.00  0.00     0.198 A 
ATOM     93  F   UNL A   1      43.192  31.368  35.207  1.00  0.00    -0.203 F 
ATOM     94  F   UNL A   1      41.365  26.263  34.605  1.00  0.00    -0.200 F 
ATOM     95  C   UNL A   1      42.084  28.017  36.009  1.00  0.00     0.200 A 
ATOM     96  F   UNL A   1      42.866  29.783  37.367  1.00  0.00    -0.200 F 
ATOM     97  F   UNL A   1      41.915  27.242  37.088  1.00  0.00    -0.200 F 
ENDBRANCH  64  87
ENDBRANCH  38  39
ENDBRANCH  30  33
ENDBRANCH  28  29
ENDBRANCH  27  28
ENDBRANCH  26  27
ENDBRANCH  25  26
ENDBRANCH   1  25
TORSDOF 17
ENDMDL
