MODEL 1
REMARK VINA RESULT:     -10.9      0.000      0.000
REMARK SMILES Cc1csc(=O)n1CC(=O)N[C@@H](C(=O)NCCCCCCNC(=O)c1ccc(-c2c3nc(c(-c4c(F)c(F)c(F)c(F)c4F)c4ccc([nH]4)c(-c4c(F)c(F)c(F)c(F)c4F)c4nc(c(-c5c(F)c(F)c(F)c(F)c5F)c5ccc2[nH]5)C=C4)C=C3)cc1)[C@@H](C)O
REMARK SMILES IDX 18 1 17 2 16 3 15 4 13 5 14 6 12 8 11 9 9 10 10 11 8 13 7 14
REMARK SMILES IDX 1 15 2 16 3 17 4 18 5 19 6 20 88 21 89 22 90 23 19 25 20 26
REMARK SMILES IDX 21 27 22 28 23 29 24 31 25 32 26 33 87 34 27 35 86 36 28 37
REMARK SMILES IDX 29 38 30 39 80 40 31 41 85 42 79 43 81 44 32 45 84 46 78 47
REMARK SMILES IDX 77 48 33 50 65 51 45 52 64 53 46 54 49 55 63 56 82 57 47 58
REMARK SMILES IDX 48 59 62 61 83 62 50 63 34 64 35 65 43 66 36 67 37 68 41 69
REMARK SMILES IDX 44 70 38 71 39 72 42 73 40 74 66 75 67 76 75 77 68 78 69 79
REMARK SMILES IDX 73 80 76 81 70 82 71 83 74 84 72 85 51 86 52 87 60 88 53 89
REMARK SMILES IDX 54 90 58 91 61 92 55 93 56 94 59 95 57 96
REMARK H PARENT 15 7 11 12 90 24 22 30 81 49 49 60
REMARK Flexibility Score: inf
ROOT
ATOM      1  C   UNL A   1      39.237  22.180  25.885  1.00  0.00     0.002 C 
ENDROOT
BRANCH   1   2
ATOM      2  C   UNL A   1      38.522  23.407  26.454  1.00  0.00     0.021 C 
BRANCH   2   3
ATOM      3  C   UNL A   1      37.090  23.569  25.963  1.00  0.00     0.116 C 
BRANCH   3   4
ATOM      4  N   UNL A   1      36.132  22.859  26.780  1.00  0.00    -0.354 N 
ATOM      5  C   UNL A   1      34.766  22.836  26.706  1.00  0.00     0.245 C 
ATOM      6  O   UNL A   1      34.192  22.044  27.456  1.00  0.00    -0.273 OA
ATOM      7  H   UNL A   1      36.521  22.311  27.497  1.00  0.00     0.163 HD
BRANCH   5   8
ATOM      8  C   UNL A   1      34.018  23.670  25.623  1.00  0.00     0.200 C 
BRANCH   8   9
ATOM      9  N   UNL A   1      32.745  24.177  26.142  1.00  0.00    -0.340 N 
ATOM     10  C   UNL A   1      32.176  25.415  26.048  1.00  0.00     0.240 C 
ATOM     11  O   UNL A   1      31.092  25.573  26.613  1.00  0.00    -0.273 OA
ATOM     12  H   UNL A   1      32.212  23.517  26.641  1.00  0.00     0.164 HD
BRANCH  10  13
ATOM     13  C   UNL A   1      32.814  26.552  25.220  1.00  0.00     0.226 C 
BRANCH  13  14
ATOM     14  N   UNL A   1      32.042  27.778  25.045  1.00  0.00    -0.294 N 
ATOM     15  C   UNL A   1      33.320  29.208  26.727  1.00  0.00     0.065 C 
ATOM     16  C   UNL A   1      32.254  28.988  25.706  1.00  0.00     0.029 A 
ATOM     17  C   UNL A   1      31.448  29.973  25.285  1.00  0.00     0.091 A 
ATOM     18  S   UNL A   1      30.441  29.483  23.972  1.00  0.00    -0.082 S 
ATOM     19  C   UNL A   1      31.104  27.846  24.020  1.00  0.00     0.307 A 
ATOM     20  O   UNL A   1      30.729  26.951  23.268  1.00  0.00    -0.257 OA
ENDBRANCH  13  14
ENDBRANCH  10  13
ENDBRANCH   8   9
BRANCH   8  21
ATOM     21  C   UNL A   1      33.834  22.837  24.323  1.00  0.00     0.143 C 
ATOM     22  C   UNL A   1      34.592  23.394  23.119  1.00  0.00     0.041 C 
BRANCH  21  23
ATOM     23  O   UNL A   1      34.292  21.492  24.509  1.00  0.00    -0.391 OA
ATOM     24  H   UNL A   1      34.101  21.207  25.417  1.00  0.00     0.211 HD
ENDBRANCH  21  23
ENDBRANCH   8  21
ENDBRANCH   5   8
ENDBRANCH   3   4
ENDBRANCH   2   3
ENDBRANCH   1   2
BRANCH   1  25
ATOM     25  C   UNL A   1      40.221  21.479  26.835  1.00  0.00     0.002 C 
BRANCH  25  26
ATOM     26  C   UNL A   1      40.895  20.204  26.311  1.00  0.00     0.021 C 
BRANCH  26  27
ATOM     27  C   UNL A   1      42.223  19.875  26.965  1.00  0.00     0.116 C 
BRANCH  27  28
ATOM     28  N   UNL A   1      43.298  19.662  25.995  1.00  0.00    -0.352 N 
ATOM     29  C   UNL A   1      43.946  20.601  25.213  1.00  0.00     0.251 C 
ATOM     30  H   UNL A   1      43.598  18.731  25.884  1.00  0.00     0.163 HD
ATOM     31  O   UNL A   1      44.562  20.277  24.207  1.00  0.00    -0.269 OA
BRANCH  29  32
ATOM     32  C   UNL A   1      43.887  22.011  25.627  1.00  0.00     0.039 A 
ATOM     33  C   UNL A   1      43.059  22.942  24.992  1.00  0.00     0.014 A 
ATOM     34  C   UNL A   1      44.665  22.379  26.718  1.00  0.00     0.014 A 
ATOM     35  C   UNL A   1      42.974  24.228  25.522  1.00  0.00     0.010 A 
ATOM     36  C   UNL A   1      44.407  23.552  27.363  1.00  0.00     0.010 A 
ATOM     37  C   UNL A   1      43.644  24.515  26.721  1.00  0.00    -0.014 A 
BRANCH  37  38
ATOM     38  C   UNL A   1      43.504  25.794  27.402  1.00  0.00     0.031 A 
ATOM     39  C   UNL A   1      44.502  26.809  26.983  1.00  0.00     0.074 A 
ATOM     40  C   UNL A   1      42.407  26.085  28.136  1.00  0.00     0.049 A 
ATOM     41  N   UNL A   1      45.460  27.308  27.689  1.00  0.00    -0.248 NA
ATOM     42  C   UNL A   1      44.548  27.199  25.564  1.00  0.00     0.031 C 
ATOM     43  C   UNL A   1      41.208  25.256  28.337  1.00  0.00     0.029 A 
ATOM     44  N   UNL A   1      42.072  27.239  28.777  1.00  0.00    -0.354 N 
ATOM     45  C   UNL A   1      46.090  28.243  26.871  1.00  0.00     0.074 A 
ATOM     46  C   UNL A   1      45.638  27.969  25.535  1.00  0.00     0.031 C 
ATOM     47  C   UNL A   1      40.204  26.009  28.835  1.00  0.00     0.029 A 
ATOM     48  C   UNL A   1      40.737  27.317  29.162  1.00  0.00     0.049 A 
ATOM     49  H   UNL A   1      42.721  27.958  28.953  1.00  0.00     0.167 HD
ATOM     50  C   UNL A   1      46.678  29.344  27.418  1.00  0.00     0.037 A 
ATOM     51  C   UNL A   1      40.108  28.387  29.705  1.00  0.00     0.037 A 
ATOM     52  C   UNL A   1      46.840  29.159  28.843  1.00  0.00     0.049 A 
ATOM     53  C   UNL A   1      41.164  29.270  30.249  1.00  0.00     0.074 A 
ATOM     54  C   UNL A   1      47.571  28.326  29.661  1.00  0.00     0.029 A 
ATOM     55  N   UNL A   1      45.832  29.683  29.612  1.00  0.00    -0.354 N 
ATOM     56  N   UNL A   1      41.924  28.950  31.260  1.00  0.00    -0.248 NA
ATOM     57  C   UNL A   1      41.666  30.345  29.408  1.00  0.00     0.031 C 
ATOM     58  C   UNL A   1      46.756  28.114  30.815  1.00  0.00     0.029 A 
ATOM     59  C   UNL A   1      45.592  28.873  30.686  1.00  0.00     0.049 A 
ATOM     60  H   UNL A   1      45.352  30.520  29.419  1.00  0.00     0.167 HD
ATOM     61  C   UNL A   1      43.171  29.454  30.932  1.00  0.00     0.074 A 
ATOM     62  C   UNL A   1      42.916  30.427  29.872  1.00  0.00     0.031 C 
ATOM     63  C   UNL A   1      44.303  28.808  31.341  1.00  0.00     0.037 A 
BRANCH  50  64
ATOM     64  C   UNL A   1      46.635  30.745  26.819  1.00  0.00     0.064 A 
ATOM     65  C   UNL A   1      47.825  31.510  26.831  1.00  0.00     0.173 A 
ATOM     66  C   UNL A   1      45.460  31.482  26.559  1.00  0.00     0.173 A 
ATOM     67  F   UNL A   1      49.013  30.924  27.048  1.00  0.00    -0.203 F 
ATOM     68  C   UNL A   1      47.817  32.904  26.731  1.00  0.00     0.198 A 
ATOM     69  C   UNL A   1      45.461  32.869  26.414  1.00  0.00     0.198 A 
ATOM     70  F   UNL A   1      44.247  30.924  26.532  1.00  0.00    -0.203 F 
ATOM     71  F   UNL A   1      48.954  33.590  26.899  1.00  0.00    -0.200 F 
ATOM     72  C   UNL A   1      46.630  33.585  26.541  1.00  0.00     0.200 A 
ATOM     73  F   UNL A   1      44.297  33.512  26.236  1.00  0.00    -0.200 F 
ATOM     74  F   UNL A   1      46.606  34.924  26.523  1.00  0.00    -0.200 F 
ENDBRANCH  50  64
BRANCH  51  75
ATOM     75  C   UNL A   1      38.700  28.820  29.561  1.00  0.00     0.064 A 
ATOM     76  C   UNL A   1      37.895  29.080  30.681  1.00  0.00     0.173 A 
ATOM     77  C   UNL A   1      38.205  29.260  28.318  1.00  0.00     0.173 A 
ATOM     78  F   UNL A   1      38.313  28.733  31.907  1.00  0.00    -0.203 F 
ATOM     79  C   UNL A   1      36.679  29.764  30.568  1.00  0.00     0.198 A 
ATOM     80  C   UNL A   1      36.991  29.941  28.205  1.00  0.00     0.198 A 
ATOM     81  F   UNL A   1      38.939  29.123  27.203  1.00  0.00    -0.203 F 
ATOM     82  F   UNL A   1      35.965  30.047  31.667  1.00  0.00    -0.200 F 
ATOM     83  C   UNL A   1      36.234  30.204  29.332  1.00  0.00     0.200 A 
ATOM     84  F   UNL A   1      36.591  30.395  27.009  1.00  0.00    -0.200 F 
ATOM     85  F   UNL A   1      35.102  30.913  29.231  1.00  0.00    -0.200 F 
ENDBRANCH  51  75
BRANCH  63  86
ATOM     86  C   UNL A   1      44.156  27.804  32.450  1.00  0.00     0.064 A 
ATOM     87  C   UNL A   1      44.050  26.415  32.260  1.00  0.00     0.173 A 
ATOM     88  C   UNL A   1      44.246  28.268  33.768  1.00  0.00     0.173 A 
ATOM     89  F   UNL A   1      44.044  25.884  31.033  1.00  0.00    -0.203 F 
ATOM     90  C   UNL A   1      43.998  25.539  33.344  1.00  0.00     0.198 A 
ATOM     91  C   UNL A   1      44.231  27.390  34.847  1.00  0.00     0.198 A 
ATOM     92  F   UNL A   1      44.396  29.580  34.007  1.00  0.00    -0.203 F 
ATOM     93  F   UNL A   1      43.883  24.219  33.136  1.00  0.00    -0.200 F 
ATOM     94  C   UNL A   1      44.097  26.027  34.636  1.00  0.00     0.200 A 
ATOM     95  F   UNL A   1      44.375  27.864  36.092  1.00  0.00    -0.200 F 
ATOM     96  F   UNL A   1      44.089  25.183  35.677  1.00  0.00    -0.200 F 
ENDBRANCH  63  86
ENDBRANCH  37  38
ENDBRANCH  29  32
ENDBRANCH  27  28
ENDBRANCH  26  27
ENDBRANCH  25  26
ENDBRANCH   1  25
TORSDOF 18
ENDMDL
MODEL 2
REMARK VINA RESULT:     -10.7      3.006      8.790
REMARK SMILES Cc1csc(=O)n1CC(=O)N[C@@H](C(=O)NCCCCCCNC(=O)c1ccc(-c2c3nc(c(-c4c(F)c(F)c(F)c(F)c4F)c4ccc([nH]4)c(-c4c(F)c(F)c(F)c(F)c4F)c4nc(c(-c5c(F)c(F)c(F)c(F)c5F)c5ccc2[nH]5)C=C4)C=C3)cc1)[C@@H](C)O
REMARK SMILES IDX 18 1 17 2 16 3 15 4 13 5 14 6 12 8 11 9 9 10 10 11 8 13 7 14
REMARK SMILES IDX 1 15 2 16 3 17 4 18 5 19 6 20 88 21 89 22 90 23 19 25 20 26
REMARK SMILES IDX 21 27 22 28 23 29 24 31 25 32 26 33 87 34 27 35 86 36 28 37
REMARK SMILES IDX 29 38 30 39 80 40 31 41 85 42 79 43 81 44 32 45 84 46 78 47
REMARK SMILES IDX 77 48 33 50 65 51 45 52 64 53 46 54 49 55 63 56 82 57 47 58
REMARK SMILES IDX 48 59 62 61 83 62 50 63 34 64 35 65 43 66 36 67 37 68 41 69
REMARK SMILES IDX 44 70 38 71 39 72 42 73 40 74 66 75 67 76 75 77 68 78 69 79
REMARK SMILES IDX 73 80 76 81 70 82 71 83 74 84 72 85 51 86 52 87 60 88 53 89
REMARK SMILES IDX 54 90 58 91 61 92 55 93 56 94 59 95 57 96
REMARK H PARENT 15 7 11 12 90 24 22 30 81 49 49 60
REMARK Flexibility Score: inf
ROOT
ATOM      1  C   UNL A   1      33.814  28.887  27.342  1.00  0.00     0.002 C 
ENDROOT
BRANCH   1   2
ATOM      2  C   UNL A   1      33.822  28.237  25.957  1.00  0.00     0.021 C 
BRANCH   2   3
ATOM      3  C   UNL A   1      33.105  29.050  24.890  1.00  0.00     0.116 C 
BRANCH   3   4
ATOM      4  N   UNL A   1      33.730  28.948  23.590  1.00  0.00    -0.354 N 
ATOM      5  C   UNL A   1      33.604  27.980  22.632  1.00  0.00     0.245 C 
ATOM      6  O   UNL A   1      34.160  28.201  21.556  1.00  0.00    -0.273 OA
ATOM      7  H   UNL A   1      34.338  29.686  23.361  1.00  0.00     0.163 HD
BRANCH   5   8
ATOM      8  C   UNL A   1      32.681  26.747  22.870  1.00  0.00     0.200 C 
BRANCH   8   9
ATOM      9  N   UNL A   1      33.179  25.574  22.147  1.00  0.00    -0.340 N 
ATOM     10  C   UNL A   1      33.117  24.246  22.456  1.00  0.00     0.240 C 
ATOM     11  O   UNL A   1      33.653  23.465  21.667  1.00  0.00    -0.273 OA
ATOM     12  H   UNL A   1      33.635  25.777  21.299  1.00  0.00     0.164 HD
BRANCH  10  13
ATOM     13  C   UNL A   1      32.353  23.725  23.695  1.00  0.00     0.226 C 
BRANCH  13  14
ATOM     14  N   UNL A   1      33.077  22.863  24.624  1.00  0.00    -0.294 N 
ATOM     15  C   UNL A   1      32.522  20.640  23.503  1.00  0.00     0.065 C 
ATOM     16  C   UNL A   1      33.173  21.473  24.555  1.00  0.00     0.029 A 
ATOM     17  C   UNL A   1      33.976  20.949  25.492  1.00  0.00     0.091 A 
ATOM     18  S   UNL A   1      34.739  22.159  26.457  1.00  0.00    -0.082 S 
ATOM     19  C   UNL A   1      33.896  23.444  25.587  1.00  0.00     0.307 A 
ATOM     20  O   UNL A   1      34.028  24.634  25.859  1.00  0.00    -0.257 OA
ENDBRANCH  13  14
ENDBRANCH  10  13
ENDBRANCH   8   9
BRANCH   8  21
ATOM     21  C   UNL A   1      31.210  27.086  22.498  1.00  0.00     0.143 C 
ATOM     22  C   UNL A   1      30.246  27.039  23.683  1.00  0.00     0.041 C 
BRANCH  21  23
ATOM     23  O   UNL A   1      31.114  28.405  21.945  1.00  0.00    -0.391 OA
ATOM     24  H   UNL A   1      31.357  29.058  22.621  1.00  0.00     0.211 HD
ENDBRANCH  21  23
ENDBRANCH   8  21
ENDBRANCH   5   8
ENDBRANCH   3   4
ENDBRANCH   2   3
ENDBRANCH   1   2
BRANCH   1  25
ATOM     25  C   UNL A   1      34.637  30.178  27.479  1.00  0.00     0.002 C 
BRANCH  25  26
ATOM     26  C   UNL A   1      33.849  31.486  27.631  1.00  0.00     0.021 C 
BRANCH  26  27
ATOM     27  C   UNL A   1      34.663  32.661  28.135  1.00  0.00     0.116 C 
BRANCH  27  28
ATOM     28  N   UNL A   1      34.488  32.904  29.568  1.00  0.00    -0.352 N 
ATOM     29  C   UNL A   1      35.155  32.313  30.625  1.00  0.00     0.251 C 
ATOM     30  H   UNL A   1      33.807  33.573  29.810  1.00  0.00     0.163 HD
ATOM     31  O   UNL A   1      34.693  32.327  31.758  1.00  0.00    -0.269 OA
BRANCH  29  32
ATOM     32  C   UNL A   1      36.450  31.669  30.358  1.00  0.00     0.039 A 
ATOM     33  C   UNL A   1      37.597  32.402  30.041  1.00  0.00     0.014 A 
ATOM     34  C   UNL A   1      36.501  30.285  30.479  1.00  0.00     0.014 A 
ATOM     35  C   UNL A   1      38.809  31.725  29.922  1.00  0.00     0.010 A 
ATOM     36  C   UNL A   1      37.710  29.664  30.588  1.00  0.00     0.010 A 
ATOM     37  C   UNL A   1      38.853  30.353  30.214  1.00  0.00    -0.014 A 
BRANCH  37  38
ATOM     38  C   UNL A   1      40.100  29.603  30.233  1.00  0.00     0.031 A 
ATOM     39  C   UNL A   1      40.678  29.436  31.590  1.00  0.00     0.074 A 
ATOM     40  C   UNL A   1      40.525  28.913  29.151  1.00  0.00     0.049 A 
ATOM     41  N   UNL A   1      41.770  29.950  32.048  1.00  0.00    -0.248 NA
ATOM     42  C   UNL A   1      39.871  28.752  32.613  1.00  0.00     0.031 C 
ATOM     43  C   UNL A   1      39.842  28.752  27.858  1.00  0.00     0.029 A 
ATOM     44  N   UNL A   1      41.612  28.107  29.006  1.00  0.00    -0.354 N 
ATOM     45  C   UNL A   1      41.902  29.468  33.348  1.00  0.00     0.074 A 
ATOM     46  C   UNL A   1      40.616  28.936  33.705  1.00  0.00     0.031 C 
ATOM     47  C   UNL A   1      40.397  27.734  27.166  1.00  0.00     0.029 A 
ATOM     48  C   UNL A   1      41.582  27.295  27.876  1.00  0.00     0.049 A 
ATOM     49  H   UNL A   1      42.359  28.099  29.649  1.00  0.00     0.167 HD
ATOM     50  C   UNL A   1      43.140  29.277  33.884  1.00  0.00     0.037 A 
ATOM     51  C   UNL A   1      42.466  26.322  27.550  1.00  0.00     0.037 A 
ATOM     52  C   UNL A   1      44.134  29.960  33.086  1.00  0.00     0.049 A 
ATOM     53  C   UNL A   1      43.697  26.587  28.328  1.00  0.00     0.074 A 
ATOM     54  C   UNL A   1      44.436  31.269  32.780  1.00  0.00     0.029 A 
ATOM     55  N   UNL A   1      44.749  29.181  32.139  1.00  0.00    -0.354 N 
ATOM     56  N   UNL A   1      44.463  27.626  28.136  1.00  0.00    -0.248 NA
ATOM     57  C   UNL A   1      43.862  25.919  29.609  1.00  0.00     0.031 C 
ATOM     58  C   UNL A   1      44.944  31.241  31.445  1.00  0.00     0.029 A 
ATOM     59  C   UNL A   1      44.991  29.915  31.012  1.00  0.00     0.049 A 
ATOM     60  H   UNL A   1      44.984  28.233  32.255  1.00  0.00     0.167 HD
ATOM     61  C   UNL A   1      44.866  28.000  29.407  1.00  0.00     0.074 A 
ATOM     62  C   UNL A   1      44.599  26.833  30.244  1.00  0.00     0.031 C 
ATOM     63  C   UNL A   1      45.087  29.316  29.698  1.00  0.00     0.037 A 
BRANCH  50  64
ATOM     64  C   UNL A   1      43.535  28.104  34.773  1.00  0.00     0.064 A 
ATOM     65  C   UNL A   1      43.255  26.796  34.312  1.00  0.00     0.173 A 
ATOM     66  C   UNL A   1      43.843  28.193  36.148  1.00  0.00     0.173 A 
ATOM     67  F   UNL A   1      42.966  26.573  33.020  1.00  0.00    -0.203 F 
ATOM     68  C   UNL A   1      43.157  25.704  35.179  1.00  0.00     0.198 A 
ATOM     69  C   UNL A   1      43.788  27.092  37.002  1.00  0.00     0.198 A 
ATOM     70  F   UNL A   1      44.111  29.352  36.756  1.00  0.00    -0.203 F 
ATOM     71  F   UNL A   1      42.742  24.519  34.713  1.00  0.00    -0.200 F 
ATOM     72  C   UNL A   1      43.406  25.858  36.529  1.00  0.00     0.200 A 
ATOM     73  F   UNL A   1      44.028  27.264  38.311  1.00  0.00    -0.200 F 
ATOM     74  F   UNL A   1      43.237  24.834  37.375  1.00  0.00    -0.200 F 
ENDBRANCH  50  64
BRANCH  51  75
ATOM     75  C   UNL A   1      42.237  25.053  26.824  1.00  0.00     0.064 A 
ATOM     76  C   UNL A   1      43.026  24.687  25.721  1.00  0.00     0.173 A 
ATOM     77  C   UNL A   1      41.423  24.044  27.375  1.00  0.00     0.173 A 
ATOM     78  F   UNL A   1      43.861  25.576  25.166  1.00  0.00    -0.203 F 
ATOM     79  C   UNL A   1      43.021  23.381  25.217  1.00  0.00     0.198 A 
ATOM     80  C   UNL A   1      41.418  22.742  26.870  1.00  0.00     0.198 A 
ATOM     81  F   UNL A   1      40.693  24.280  28.474  1.00  0.00    -0.203 F 
ATOM     82  F   UNL A   1      43.832  23.053  24.200  1.00  0.00    -0.200 F 
ATOM     83  C   UNL A   1      42.226  22.407  25.799  1.00  0.00     0.200 A 
ATOM     84  F   UNL A   1      40.673  21.800  27.466  1.00  0.00    -0.200 F 
ATOM     85  F   UNL A   1      42.268  21.143  25.357  1.00  0.00    -0.200 F 
ENDBRANCH  51  75
BRANCH  63  86
ATOM     86  C   UNL A   1      45.262  30.255  28.537  1.00  0.00     0.064 A 
ATOM     87  C   UNL A   1      44.220  30.977  27.930  1.00  0.00     0.173 A 
ATOM     88  C   UNL A   1      46.567  30.519  28.101  1.00  0.00     0.173 A 
ATOM     89  F   UNL A   1      42.955  30.846  28.346  1.00  0.00    -0.203 F 
ATOM     90  C   UNL A   1      44.473  31.891  26.909  1.00  0.00     0.198 A 
ATOM     91  C   UNL A   1      46.820  31.459  27.107  1.00  0.00     0.198 A 
ATOM     92  F   UNL A   1      47.605  29.894  28.678  1.00  0.00    -0.203 F 
ATOM     93  F   UNL A   1      43.459  32.558  26.336  1.00  0.00    -0.200 F 
ATOM     94  C   UNL A   1      45.774  32.138  26.504  1.00  0.00     0.200 A 
ATOM     95  F   UNL A   1      48.085  31.727  26.754  1.00  0.00    -0.200 F 
ATOM     96  F   UNL A   1      46.022  33.046  25.551  1.00  0.00    -0.200 F 
ENDBRANCH  63  86
ENDBRANCH  37  38
ENDBRANCH  29  32
ENDBRANCH  27  28
ENDBRANCH  26  27
ENDBRANCH  25  26
ENDBRANCH   1  25
TORSDOF 18
ENDMDL
MODEL 3
REMARK VINA RESULT:     -10.6      2.977      8.603
REMARK SMILES Cc1csc(=O)n1CC(=O)N[C@@H](C(=O)NCCCCCCNC(=O)c1ccc(-c2c3nc(c(-c4c(F)c(F)c(F)c(F)c4F)c4ccc([nH]4)c(-c4c(F)c(F)c(F)c(F)c4F)c4nc(c(-c5c(F)c(F)c(F)c(F)c5F)c5ccc2[nH]5)C=C4)C=C3)cc1)[C@@H](C)O
REMARK SMILES IDX 18 1 17 2 16 3 15 4 13 5 14 6 12 8 11 9 9 10 10 11 8 13 7 14
REMARK SMILES IDX 1 15 2 16 3 17 4 18 5 19 6 20 88 21 89 22 90 23 19 25 20 26
REMARK SMILES IDX 21 27 22 28 23 29 24 31 25 32 26 33 87 34 27 35 86 36 28 37
REMARK SMILES IDX 29 38 30 39 80 40 31 41 85 42 79 43 81 44 32 45 84 46 78 47
REMARK SMILES IDX 77 48 33 50 65 51 45 52 64 53 46 54 49 55 63 56 82 57 47 58
REMARK SMILES IDX 48 59 62 61 83 62 50 63 34 64 35 65 43 66 36 67 37 68 41 69
REMARK SMILES IDX 44 70 38 71 39 72 42 73 40 74 66 75 67 76 75 77 68 78 69 79
REMARK SMILES IDX 73 80 76 81 70 82 71 83 74 84 72 85 51 86 52 87 60 88 53 89
REMARK SMILES IDX 54 90 58 91 61 92 55 93 56 94 59 95 57 96
REMARK H PARENT 15 7 11 12 90 24 22 30 81 49 49 60
REMARK Flexibility Score: inf
ROOT
ATOM      1  C   UNL A   1      33.437  28.560  27.289  1.00  0.00     0.002 C 
ENDROOT
BRANCH   1   2
ATOM      2  C   UNL A   1      32.194  29.391  26.966  1.00  0.00     0.021 C 
BRANCH   2   3
ATOM      3  C   UNL A   1      31.672  29.195  25.549  1.00  0.00     0.116 C 
BRANCH   3   4
ATOM      4  N   UNL A   1      32.675  29.451  24.541  1.00  0.00    -0.354 N 
ATOM      5  C   UNL A   1      32.808  28.925  23.285  1.00  0.00     0.245 C 
ATOM      6  O   UNL A   1      33.694  29.411  22.580  1.00  0.00    -0.273 OA
ATOM      7  H   UNL A   1      33.367  30.102  24.796  1.00  0.00     0.163 HD
BRANCH   5   8
ATOM      8  C   UNL A   1      31.787  27.874  22.756  1.00  0.00     0.200 C 
BRANCH   8   9
ATOM      9  N   UNL A   1      32.370  27.079  21.671  1.00  0.00    -0.340 N 
ATOM     10  C   UNL A   1      32.630  25.741  21.589  1.00  0.00     0.240 C 
ATOM     11  O   UNL A   1      33.160  25.340  20.551  1.00  0.00    -0.273 OA
ATOM     12  H   UNL A   1      32.617  27.595  20.870  1.00  0.00     0.164 HD
BRANCH  10  13
ATOM     13  C   UNL A   1      32.221  24.754  22.706  1.00  0.00     0.226 C 
BRANCH  13  14
ATOM     14  N   UNL A   1      33.111  24.624  23.855  1.00  0.00    -0.294 N 
ATOM     15  C   UNL A   1      31.516  25.567  25.608  1.00  0.00     0.065 C 
ATOM     16  C   UNL A   1      32.816  24.977  25.172  1.00  0.00     0.029 A 
ATOM     17  C   UNL A   1      33.791  24.667  26.038  1.00  0.00     0.091 A 
ATOM     18  S   UNL A   1      35.098  23.830  25.283  1.00  0.00    -0.082 S 
ATOM     19  C   UNL A   1      34.315  23.943  23.704  1.00  0.00     0.307 A 
ATOM     20  O   UNL A   1      34.819  23.503  22.675  1.00  0.00    -0.257 OA
ENDBRANCH  13  14
ENDBRANCH  10  13
ENDBRANCH   8   9
BRANCH   8  21
ATOM     21  C   UNL A   1      30.461  28.565  22.331  1.00  0.00     0.143 C 
ATOM     22  C   UNL A   1      29.280  28.254  23.248  1.00  0.00     0.041 C 
BRANCH  21  23
ATOM     23  O   UNL A   1      30.608  29.991  22.323  1.00  0.00    -0.391 OA
ATOM     24  H   UNL A   1      31.544  30.219  22.203  1.00  0.00     0.211 HD
ENDBRANCH  21  23
ENDBRANCH   8  21
ENDBRANCH   5   8
ENDBRANCH   3   4
ENDBRANCH   2   3
ENDBRANCH   1   2
BRANCH   1  25
ATOM     25  C   UNL A   1      34.736  29.354  27.501  1.00  0.00     0.002 C 
BRANCH  25  26
ATOM     26  C   UNL A   1      34.652  30.875  27.316  1.00  0.00     0.021 C 
BRANCH  26  27
ATOM     27  C   UNL A   1      35.745  31.659  28.017  1.00  0.00     0.116 C 
BRANCH  27  28
ATOM     28  N   UNL A   1      35.316  32.208  29.304  1.00  0.00    -0.352 N 
ATOM     29  C   UNL A   1      35.633  31.762  30.574  1.00  0.00     0.251 C 
ATOM     30  H   UNL A   1      34.726  32.994  29.261  1.00  0.00     0.163 HD
ATOM     31  O   UNL A   1      34.953  32.065  31.545  1.00  0.00    -0.269 OA
BRANCH  29  32
ATOM     32  C   UNL A   1      36.825  30.915  30.737  1.00  0.00     0.039 A 
ATOM     33  C   UNL A   1      36.763  29.519  30.680  1.00  0.00     0.014 A 
ATOM     34  C   UNL A   1      38.040  31.566  30.910  1.00  0.00     0.014 A 
ATOM     35  C   UNL A   1      37.954  28.797  30.725  1.00  0.00     0.010 A 
ATOM     36  C   UNL A   1      39.203  30.880  30.723  1.00  0.00     0.010 A 
ATOM     37  C   UNL A   1      39.172  29.495  30.731  1.00  0.00    -0.014 A 
BRANCH  37  38
ATOM     38  C   UNL A   1      40.456  28.814  30.652  1.00  0.00     0.031 A 
ATOM     39  C   UNL A   1      41.131  28.652  31.963  1.00  0.00     0.074 A 
ATOM     40  C   UNL A   1      40.846  28.171  29.528  1.00  0.00     0.049 A 
ATOM     41  N   UNL A   1      42.221  29.217  32.362  1.00  0.00    -0.248 NA
ATOM     42  C   UNL A   1      40.431  27.904  33.020  1.00  0.00     0.031 C 
ATOM     43  C   UNL A   1      40.089  27.999  28.278  1.00  0.00     0.029 A 
ATOM     44  N   UNL A   1      41.963  27.430  29.294  1.00  0.00    -0.354 N 
ATOM     45  C   UNL A   1      42.464  28.717  33.640  1.00  0.00     0.074 A 
ATOM     46  C   UNL A   1      41.235  28.106  34.066  1.00  0.00     0.031 C 
ATOM     47  C   UNL A   1      40.652  27.028  27.528  1.00  0.00     0.029 A 
ATOM     48  C   UNL A   1      41.903  26.641  28.149  1.00  0.00     0.049 A 
ATOM     49  H   UNL A   1      42.750  27.451  29.886  1.00  0.00     0.167 HD
ATOM     50  C   UNL A   1      43.743  28.584  34.090  1.00  0.00     0.037 A 
ATOM     51  C   UNL A   1      42.815  25.726  27.743  1.00  0.00     0.037 A 
ATOM     52  C   UNL A   1      44.643  29.337  33.245  1.00  0.00     0.049 A 
ATOM     53  C   UNL A   1      44.078  26.043  28.446  1.00  0.00     0.074 A 
ATOM     54  C   UNL A   1      44.854  30.667  32.952  1.00  0.00     0.029 A 
ATOM     55  N   UNL A   1      45.237  28.613  32.242  1.00  0.00    -0.354 N 
ATOM     56  N   UNL A   1      44.773  27.126  28.230  1.00  0.00    -0.248 NA
ATOM     57  C   UNL A   1      44.363  25.358  29.697  1.00  0.00     0.031 C 
ATOM     58  C   UNL A   1      45.274  30.694  31.586  1.00  0.00     0.029 A 
ATOM     59  C   UNL A   1      45.364  29.382  31.120  1.00  0.00     0.049 A 
ATOM     60  H   UNL A   1      45.530  27.677  32.320  1.00  0.00     0.167 HD
ATOM     61  C   UNL A   1      45.238  27.496  29.481  1.00  0.00     0.074 A 
ATOM     62  C   UNL A   1      45.089  26.299  30.306  1.00  0.00     0.031 C 
ATOM     63  C   UNL A   1      45.405  28.816  29.789  1.00  0.00     0.037 A 
BRANCH  50  64
ATOM     64  C   UNL A   1      44.258  27.416  34.923  1.00  0.00     0.064 A 
ATOM     65  C   UNL A   1      44.990  27.710  36.098  1.00  0.00     0.173 A 
ATOM     66  C   UNL A   1      44.371  26.083  34.473  1.00  0.00     0.173 A 
ATOM     67  F   UNL A   1      44.951  28.937  36.640  1.00  0.00    -0.203 F 
ATOM     68  C   UNL A   1      45.863  26.788  36.683  1.00  0.00     0.198 A 
ATOM     69  C   UNL A   1      45.209  25.152  35.086  1.00  0.00     0.198 A 
ATOM     70  F   UNL A   1      43.765  25.639  33.368  1.00  0.00    -0.203 F 
ATOM     71  F   UNL A   1      46.644  27.165  37.703  1.00  0.00    -0.200 F 
ATOM     72  C   UNL A   1      45.986  25.514  36.164  1.00  0.00     0.200 A 
ATOM     73  F   UNL A   1      45.319  23.922  34.563  1.00  0.00    -0.200 F 
ATOM     74  F   UNL A   1      46.877  24.653  36.671  1.00  0.00    -0.200 F 
ENDBRANCH  50  64
BRANCH  51  75
ATOM     75  C   UNL A   1      42.608  24.461  27.003  1.00  0.00     0.064 A 
ATOM     76  C   UNL A   1      43.090  24.289  25.696  1.00  0.00     0.173 A 
ATOM     77  C   UNL A   1      42.179  23.296  27.671  1.00  0.00     0.173 A 
ATOM     78  F   UNL A   1      43.558  25.339  25.007  1.00  0.00    -0.203 F 
ATOM     79  C   UNL A   1      43.165  23.024  25.101  1.00  0.00     0.198 A 
ATOM     80  C   UNL A   1      42.253  22.035  27.077  1.00  0.00     0.198 A 
ATOM     81  F   UNL A   1      41.774  23.351  28.948  1.00  0.00    -0.203 F 
ATOM     82  F   UNL A   1      43.686  22.891  23.873  1.00  0.00    -0.200 F 
ATOM     83  C   UNL A   1      42.757  21.897  25.796  1.00  0.00     0.200 A 
ATOM     84  F   UNL A   1      41.892  20.949  27.774  1.00  0.00    -0.200 F 
ATOM     85  F   UNL A   1      42.887  20.680  25.252  1.00  0.00    -0.200 F 
ENDBRANCH  51  75
BRANCH  63  86
ATOM     86  C   UNL A   1      45.452  29.787  28.642  1.00  0.00     0.064 A 
ATOM     87  C   UNL A   1      44.332  30.444  28.106  1.00  0.00     0.173 A 
ATOM     88  C   UNL A   1      46.711  30.151  28.145  1.00  0.00     0.173 A 
ATOM     89  F   UNL A   1      43.103  30.216  28.583  1.00  0.00    -0.203 F 
ATOM     90  C   UNL A   1      44.466  31.393  27.093  1.00  0.00     0.198 A 
ATOM     91  C   UNL A   1      46.845  31.125  27.161  1.00  0.00     0.198 A 
ATOM     92  F   UNL A   1      47.819  29.590  28.653  1.00  0.00    -0.203 F 
ATOM     93  F   UNL A   1      43.379  31.997  26.589  1.00  0.00    -0.200 F 
ATOM     94  C   UNL A   1      45.723  31.739  26.628  1.00  0.00     0.200 A 
ATOM     95  F   UNL A   1      48.068  31.488  26.748  1.00  0.00    -0.200 F 
ATOM     96  F   UNL A   1      45.857  32.680  25.684  1.00  0.00    -0.200 F 
ENDBRANCH  63  86
ENDBRANCH  37  38
ENDBRANCH  29  32
ENDBRANCH  27  28
ENDBRANCH  26  27
ENDBRANCH  25  26
ENDBRANCH   1  25
TORSDOF 18
ENDMDL
