MODEL 1
REMARK VINA RESULT:     -12.3      0.000      0.000
REMARK SMILES COc1ccc(CCN2C(=O)C[C@@H](C(=O)NCCCCCCNC(=O)c3ccc(-c4c5nc(c(-c6c(F)c(F)c(F)c(F)c6F)c6ccc([nH]6)c(-c6c(F)c(F)c(F)c(F)c6F)c6nc(c(-c7c(F)c(F)c(F)c(F)c7F)c7ccc4[nH]7)C=C6)C=C5)cc3)S/C2=[NH+]\c2ccc(F)cc2)cc1OC
REMARK SMILES IDX 18 1 17 2 16 3 14 4 15 5 13 7 9 8 10 9 90 10 11 11 12 12
REMARK SMILES IDX 89 13 91 14 8 16 7 17 6 18 3 19 4 20 100 21 5 22 99 23 2 24
REMARK SMILES IDX 1 25 101 26 102 27 92 28 93 29 98 30 94 31 97 32 95 33 96 34
REMARK SMILES IDX 19 35 20 36 21 37 22 38 23 39 24 40 25 42 26 43 27 44 88 45
REMARK SMILES IDX 28 46 87 47 29 48 30 49 31 50 81 51 32 52 86 53 80 54 82 55
REMARK SMILES IDX 33 56 85 57 79 58 78 59 34 61 66 62 46 63 65 64 47 65 50 66
REMARK SMILES IDX 64 67 83 68 48 69 49 70 63 72 84 73 51 74 35 75 36 76 44 77
REMARK SMILES IDX 37 78 38 79 42 80 45 81 39 82 40 83 43 84 41 85 67 86 68 87
REMARK SMILES IDX 76 88 69 89 70 90 74 91 77 92 71 93 72 94 75 95 73 96 52 97
REMARK SMILES IDX 53 98 61 99 54 100 55 101 59 102 62 103 56 104 57 105 60 106
REMARK SMILES IDX 58 107
REMARK H PARENT 16 6 91 15 23 41 82 60 50 71
REMARK Flexibility Score: inf
ROOT
ATOM      1  C   UNL A   1      34.387  31.946  28.809  1.00  0.00     0.021 C 
ENDROOT
BRANCH   1   2
ATOM      2  C   UNL A   1      33.471  31.355  27.741  1.00  0.00     0.116 C 
BRANCH   2   3
ATOM      3  N   UNL A   1      34.129  30.381  26.889  1.00  0.00    -0.355 N 
ATOM      4  C   UNL A   1      33.647  29.337  26.152  1.00  0.00     0.234 C 
ATOM      5  O   UNL A   1      34.472  28.697  25.493  1.00  0.00    -0.274 OA
ATOM      6  H   UNL A   1      35.106  30.494  26.833  1.00  0.00     0.163 HD
BRANCH   4   7
ATOM      7  C   UNL A   1      32.156  28.993  26.052  1.00  0.00     0.160 C 
ATOM      8  N   UNL A   1      30.701  26.825  24.619  1.00  0.00    -0.191 N 
ATOM      9  C   UNL A   1      30.906  26.714  25.980  1.00  0.00     0.311 C 
ATOM     10  C   UNL A   1      30.408  28.072  24.088  1.00  0.00     0.319 C 
ATOM     11  O   UNL A   1      30.371  25.831  26.659  1.00  0.00    -0.247 OA
ATOM     12  C   UNL A   1      31.869  27.648  26.663  1.00  0.00     0.153 C 
ATOM     13  S   UNL A   1      31.571  29.335  24.408  1.00  0.00    -0.024 SA
ATOM     14  N   UNL A   1      29.369  28.264  23.329  1.00  0.00    -0.235 N 
ATOM     15  H   UNL A   1      28.797  27.511  23.057  1.00  0.00     0.313 HD
BRANCH   8  16
ATOM     16  C   UNL A   1      30.241  25.595  23.932  1.00  0.00     0.251 C 
BRANCH  16  17
ATOM     17  C   UNL A   1      31.331  24.913  23.046  1.00  0.00     0.082 C 
BRANCH  17  18
ATOM     18  C   UNL A   1      32.069  23.709  23.610  1.00  0.00    -0.040 A 
ATOM     19  C   UNL A   1      33.495  21.430  24.527  1.00  0.00     0.160 A 
ATOM     20  C   UNL A   1      32.558  21.315  23.507  1.00  0.00     0.051 A 
ATOM     21  C   UNL A   1      33.676  22.674  25.151  1.00  0.00     0.160 A 
ATOM     22  C   UNL A   1      31.831  22.434  23.101  1.00  0.00     0.008 A 
ATOM     23  C   UNL A   1      32.980  23.806  24.671  1.00  0.00     0.054 A 
BRANCH  19  24
ATOM     24  O   UNL A   1      34.311  20.378  24.841  1.00  0.00    -0.493 OA
ATOM     25  C   UNL A   1      33.745  19.090  24.617  1.00  0.00     0.278 C 
ENDBRANCH  19  24
BRANCH  21  26
ATOM     26  O   UNL A   1      34.497  22.936  26.221  1.00  0.00    -0.493 OA
ATOM     27  C   UNL A   1      34.036  22.515  27.503  1.00  0.00     0.278 C 
ENDBRANCH  21  26
ENDBRANCH  17  18
ENDBRANCH  16  17
ENDBRANCH   8  16
BRANCH  14  28
ATOM     28  C   UNL A   1      29.081  29.581  22.905  1.00  0.00     0.125 A 
ATOM     29  C   UNL A   1      29.550  30.029  21.660  1.00  0.00     0.055 A 
ATOM     30  C   UNL A   1      28.224  30.405  23.647  1.00  0.00     0.055 A 
ATOM     31  C   UNL A   1      29.096  31.237  21.125  1.00  0.00     0.043 A 
ATOM     32  C   UNL A   1      27.759  31.607  23.107  1.00  0.00     0.043 A 
ATOM     33  C   UNL A   1      28.188  32.004  21.846  1.00  0.00     0.123 A 
ATOM     34  F   UNL A   1      27.706  33.133  21.310  1.00  0.00    -0.207 F 
ENDBRANCH  14  28
ENDBRANCH   4   7
ENDBRANCH   2   3
ENDBRANCH   1   2
BRANCH   1  35
ATOM     35  C   UNL A   1      34.217  33.451  29.025  1.00  0.00     0.002 C 
BRANCH  35  36
ATOM     36  C   UNL A   1      33.234  34.146  28.077  1.00  0.00     0.002 C 
BRANCH  36  37
ATOM     37  C   UNL A   1      32.856  35.581  28.455  1.00  0.00     0.021 C 
BRANCH  37  38
ATOM     38  C   UNL A   1      33.505  36.102  29.734  1.00  0.00     0.116 C 
BRANCH  38  39
ATOM     39  N   UNL A   1      32.559  36.202  30.834  1.00  0.00    -0.352 N 
ATOM     40  C   UNL A   1      32.604  35.641  32.087  1.00  0.00     0.251 C 
ATOM     41  H   UNL A   1      31.766  36.755  30.653  1.00  0.00     0.163 HD
ATOM     42  O   UNL A   1      31.623  35.691  32.819  1.00  0.00    -0.269 OA
BRANCH  40  43
ATOM     43  C   UNL A   1      33.831  34.956  32.549  1.00  0.00     0.039 A 
ATOM     44  C   UNL A   1      33.734  33.639  33.006  1.00  0.00     0.014 A 
ATOM     45  C   UNL A   1      35.067  35.607  32.548  1.00  0.00     0.014 A 
ATOM     46  C   UNL A   1      34.886  32.956  33.404  1.00  0.00     0.010 A 
ATOM     47  C   UNL A   1      36.223  34.904  32.873  1.00  0.00     0.010 A 
ATOM     48  C   UNL A   1      36.145  33.571  33.306  1.00  0.00    -0.014 A 
BRANCH  48  49
ATOM     49  C   UNL A   1      37.389  32.831  33.645  1.00  0.00     0.031 A 
ATOM     50  C   UNL A   1      38.132  33.137  34.917  1.00  0.00     0.074 A 
ATOM     51  C   UNL A   1      37.884  31.930  32.774  1.00  0.00     0.049 A 
ATOM     52  N   UNL A   1      39.265  32.647  35.352  1.00  0.00    -0.248 NA
ATOM     53  C   UNL A   1      37.536  34.148  35.805  1.00  0.00     0.031 C 
ATOM     54  C   UNL A   1      37.282  31.580  31.487  1.00  0.00     0.029 A 
ATOM     55  N   UNL A   1      39.014  31.152  32.833  1.00  0.00    -0.354 N 
ATOM     56  C   UNL A   1      39.524  33.300  36.550  1.00  0.00     0.074 A 
ATOM     57  C   UNL A   1      38.458  34.255  36.750  1.00  0.00     0.031 C 
ATOM     58  C   UNL A   1      38.036  30.645  30.887  1.00  0.00     0.029 A 
ATOM     59  C   UNL A   1      39.197  30.359  31.726  1.00  0.00     0.049 A 
ATOM     60  H   UNL A   1      39.635  31.161  33.597  1.00  0.00     0.167 HD
ATOM     61  C   UNL A   1      40.551  33.104  37.412  1.00  0.00     0.037 A 
ATOM     62  C   UNL A   1      40.194  29.509  31.415  1.00  0.00     0.037 A 
ATOM     63  C   UNL A   1      41.594  32.130  37.222  1.00  0.00     0.049 A 
ATOM     64  C   UNL A   1      41.325  29.318  32.391  1.00  0.00     0.074 A 
ATOM     65  C   UNL A   1      42.632  31.803  38.076  1.00  0.00     0.029 A 
ATOM     66  N   UNL A   1      41.737  31.333  36.096  1.00  0.00    -0.354 N 
ATOM     67  N   UNL A   1      41.514  29.878  33.561  1.00  0.00    -0.248 NA
ATOM     68  C   UNL A   1      42.379  28.370  32.005  1.00  0.00     0.031 C 
ATOM     69  C   UNL A   1      43.439  30.853  37.441  1.00  0.00     0.029 A 
ATOM     70  C   UNL A   1      42.865  30.540  36.219  1.00  0.00     0.049 A 
ATOM     71  H   UNL A   1      41.125  31.332  35.323  1.00  0.00     0.167 HD
ATOM     72  C   UNL A   1      42.686  29.329  34.064  1.00  0.00     0.074 A 
ATOM     73  C   UNL A   1      43.155  28.377  33.078  1.00  0.00     0.031 C 
ATOM     74  C   UNL A   1      43.317  29.588  35.235  1.00  0.00     0.037 A 
BRANCH  61  75
ATOM     75  C   UNL A   1      40.604  33.963  38.644  1.00  0.00     0.064 A 
ATOM     76  C   UNL A   1      41.308  35.177  38.671  1.00  0.00     0.173 A 
ATOM     77  C   UNL A   1      39.893  33.593  39.796  1.00  0.00     0.173 A 
ATOM     78  F   UNL A   1      42.012  35.574  37.601  1.00  0.00    -0.203 F 
ATOM     79  C   UNL A   1      41.319  35.974  39.814  1.00  0.00     0.198 A 
ATOM     80  C   UNL A   1      39.879  34.408  40.925  1.00  0.00     0.198 A 
ATOM     81  F   UNL A   1      39.198  32.445  39.824  1.00  0.00    -0.203 F 
ATOM     82  F   UNL A   1      42.035  37.106  39.831  1.00  0.00    -0.200 F 
ATOM     83  C   UNL A   1      40.597  35.594  40.935  1.00  0.00     0.200 A 
ATOM     84  F   UNL A   1      39.169  34.047  42.003  1.00  0.00    -0.200 F 
ATOM     85  F   UNL A   1      40.598  36.369  42.029  1.00  0.00    -0.200 F 
ENDBRANCH  61  75
BRANCH  62  86
ATOM     86  C   UNL A   1      40.169  28.764  30.128  1.00  0.00     0.064 A 
ATOM     87  C   UNL A   1      40.777  29.288  28.978  1.00  0.00     0.173 A 
ATOM     88  C   UNL A   1      39.516  27.527  30.012  1.00  0.00     0.173 A 
ATOM     89  F   UNL A   1      41.397  30.476  29.032  1.00  0.00    -0.203 F 
ATOM     90  C   UNL A   1      40.706  28.620  27.757  1.00  0.00     0.198 A 
ATOM     91  C   UNL A   1      39.476  26.845  28.799  1.00  0.00     0.198 A 
ATOM     92  F   UNL A   1      38.924  26.978  31.083  1.00  0.00    -0.203 F 
ATOM     93  F   UNL A   1      41.245  29.174  26.661  1.00  0.00    -0.200 F 
ATOM     94  C   UNL A   1      40.060  27.398  27.669  1.00  0.00     0.200 A 
ATOM     95  F   UNL A   1      38.864  25.654  28.722  1.00  0.00    -0.200 F 
ATOM     96  F   UNL A   1      39.991  26.756  26.495  1.00  0.00    -0.200 F 
ENDBRANCH  62  86
BRANCH  74  97
ATOM     97  C   UNL A   1      44.560  28.801  35.540  1.00  0.00     0.064 A 
ATOM     98  C   UNL A   1      44.510  27.574  36.216  1.00  0.00     0.173 A 
ATOM     99  C   UNL A   1      45.814  29.265  35.114  1.00  0.00     0.173 A 
ATOM    100  F   UNL A   1      43.338  27.093  36.658  1.00  0.00    -0.203 F 
ATOM    101  C   UNL A   1      45.672  26.855  36.481  1.00  0.00     0.198 A 
ATOM    102  C   UNL A   1      46.970  28.527  35.347  1.00  0.00     0.198 A 
ATOM    103  F   UNL A   1      45.917  30.429  34.454  1.00  0.00    -0.203 F 
ATOM    104  F   UNL A   1      45.608  25.711  37.176  1.00  0.00    -0.200 F 
ATOM    105  C   UNL A   1      46.900  27.327  36.039  1.00  0.00     0.200 A 
ATOM    106  F   UNL A   1      48.152  28.976  34.904  1.00  0.00    -0.200 F 
ATOM    107  F   UNL A   1      48.016  26.629  36.286  1.00  0.00    -0.200 F 
ENDBRANCH  74  97
ENDBRANCH  48  49
ENDBRANCH  40  43
ENDBRANCH  38  39
ENDBRANCH  37  38
ENDBRANCH  36  37
ENDBRANCH  35  36
ENDBRANCH   1  35
TORSDOF 19
ENDMDL
MODEL 2
REMARK VINA RESULT:     -12.2      4.791      7.305
REMARK SMILES COc1ccc(CCN2C(=O)C[C@@H](C(=O)NCCCCCCNC(=O)c3ccc(-c4c5nc(c(-c6c(F)c(F)c(F)c(F)c6F)c6ccc([nH]6)c(-c6c(F)c(F)c(F)c(F)c6F)c6nc(c(-c7c(F)c(F)c(F)c(F)c7F)c7ccc4[nH]7)C=C6)C=C5)cc3)S/C2=[NH+]\c2ccc(F)cc2)cc1OC
REMARK SMILES IDX 18 1 17 2 16 3 14 4 15 5 13 7 9 8 10 9 90 10 11 11 12 12
REMARK SMILES IDX 89 13 91 14 8 16 7 17 6 18 3 19 4 20 100 21 5 22 99 23 2 24
REMARK SMILES IDX 1 25 101 26 102 27 92 28 93 29 98 30 94 31 97 32 95 33 96 34
REMARK SMILES IDX 19 35 20 36 21 37 22 38 23 39 24 40 25 42 26 43 27 44 88 45
REMARK SMILES IDX 28 46 87 47 29 48 30 49 31 50 81 51 32 52 86 53 80 54 82 55
REMARK SMILES IDX 33 56 85 57 79 58 78 59 34 61 66 62 46 63 65 64 47 65 50 66
REMARK SMILES IDX 64 67 83 68 48 69 49 70 63 72 84 73 51 74 35 75 36 76 44 77
REMARK SMILES IDX 37 78 38 79 42 80 45 81 39 82 40 83 43 84 41 85 67 86 68 87
REMARK SMILES IDX 76 88 69 89 70 90 74 91 77 92 71 93 72 94 75 95 73 96 52 97
REMARK SMILES IDX 53 98 61 99 54 100 55 101 59 102 62 103 56 104 57 105 60 106
REMARK SMILES IDX 58 107
REMARK H PARENT 16 6 91 15 23 41 82 60 50 71
REMARK Flexibility Score: inf
ROOT
ATOM      1  C   UNL A   1      33.869  32.785  27.633  1.00  0.00     0.021 C 
ENDROOT
BRANCH   1   2
ATOM      2  C   UNL A   1      33.316  31.367  27.751  1.00  0.00     0.116 C 
BRANCH   2   3
ATOM      3  N   UNL A   1      33.988  30.411  26.889  1.00  0.00    -0.355 N 
ATOM      4  C   UNL A   1      33.517  29.382  26.125  1.00  0.00     0.234 C 
ATOM      5  O   UNL A   1      34.352  28.755  25.465  1.00  0.00    -0.274 OA
ATOM      6  H   UNL A   1      34.965  30.525  26.850  1.00  0.00     0.163 HD
BRANCH   4   7
ATOM      7  C   UNL A   1      32.027  29.040  25.995  1.00  0.00     0.160 C 
ATOM      8  N   UNL A   1      30.598  26.876  24.531  1.00  0.00    -0.191 N 
ATOM      9  C   UNL A   1      30.777  26.762  25.896  1.00  0.00     0.311 C 
ATOM     10  C   UNL A   1      30.316  28.125  23.997  1.00  0.00     0.319 C 
ATOM     11  O   UNL A   1      30.228  25.879  26.563  1.00  0.00    -0.247 OA
ATOM     12  C   UNL A   1      31.727  27.694  26.598  1.00  0.00     0.153 C 
ATOM     13  S   UNL A   1      31.475  29.386  24.341  1.00  0.00    -0.024 SA
ATOM     14  N   UNL A   1      29.292  28.320  23.219  1.00  0.00    -0.235 N 
ATOM     15  H   UNL A   1      28.724  27.567  22.934  1.00  0.00     0.313 HD
BRANCH   8  16
ATOM     16  C   UNL A   1      30.150  25.649  23.833  1.00  0.00     0.251 C 
BRANCH  16  17
ATOM     17  C   UNL A   1      31.282  24.907  23.053  1.00  0.00     0.082 C 
BRANCH  17  18
ATOM     18  C   UNL A   1      31.970  23.731  23.727  1.00  0.00    -0.040 A 
ATOM     19  C   UNL A   1      33.336  21.515  24.862  1.00  0.00     0.160 A 
ATOM     20  C   UNL A   1      32.674  21.391  23.647  1.00  0.00     0.051 A 
ATOM     21  C   UNL A   1      33.260  22.730  25.560  1.00  0.00     0.160 A 
ATOM     22  C   UNL A   1      31.968  22.474  23.126  1.00  0.00     0.008 A 
ATOM     23  C   UNL A   1      32.599  23.833  24.976  1.00  0.00     0.054 A 
BRANCH  19  24
ATOM     24  O   UNL A   1      34.146  20.510  25.317  1.00  0.00    -0.493 OA
ATOM     25  C   UNL A   1      35.514  20.621  24.938  1.00  0.00     0.278 C 
ENDBRANCH  19  24
BRANCH  21  26
ATOM     26  O   UNL A   1      33.785  22.989  26.803  1.00  0.00    -0.493 OA
ATOM     27  C   UNL A   1      33.214  22.283  27.902  1.00  0.00     0.278 C 
ENDBRANCH  21  26
ENDBRANCH  17  18
ENDBRANCH  16  17
ENDBRANCH   8  16
BRANCH  14  28
ATOM     28  C   UNL A   1      29.013  29.638  22.792  1.00  0.00     0.125 A 
ATOM     29  C   UNL A   1      29.341  30.029  21.484  1.00  0.00     0.055 A 
ATOM     30  C   UNL A   1      28.296  30.522  23.608  1.00  0.00     0.055 A 
ATOM     31  C   UNL A   1      28.880  31.244  20.972  1.00  0.00     0.043 A 
ATOM     32  C   UNL A   1      27.822  31.732  23.092  1.00  0.00     0.043 A 
ATOM     33  C   UNL A   1      28.107  32.074  21.775  1.00  0.00     0.123 A 
ATOM     34  F   UNL A   1      27.613  33.211  21.268  1.00  0.00    -0.207 F 
ENDBRANCH  14  28
ENDBRANCH   4   7
ENDBRANCH   2   3
ENDBRANCH   1   2
BRANCH   1  35
ATOM     35  C   UNL A   1      35.245  32.982  28.273  1.00  0.00     0.002 C 
BRANCH  35  36
ATOM     36  C   UNL A   1      35.340  34.120  29.294  1.00  0.00     0.002 C 
BRANCH  36  37
ATOM     37  C   UNL A   1      34.555  33.908  30.592  1.00  0.00     0.021 C 
BRANCH  37  38
ATOM     38  C   UNL A   1      34.795  32.566  31.278  1.00  0.00     0.116 C 
BRANCH  38  39
ATOM     39  N   UNL A   1      35.232  32.718  32.656  1.00  0.00    -0.352 N 
ATOM     40  C   UNL A   1      36.376  32.271  33.271  1.00  0.00     0.251 C 
ATOM     41  H   UNL A   1      34.615  33.218  33.237  1.00  0.00     0.163 HD
ATOM     42  O   UNL A   1      36.488  32.341  34.489  1.00  0.00    -0.269 OA
BRANCH  40  43
ATOM     43  C   UNL A   1      37.470  31.685  32.465  1.00  0.00     0.039 A 
ATOM     44  C   UNL A   1      37.518  31.960  31.096  1.00  0.00     0.014 A 
ATOM     45  C   UNL A   1      38.434  30.858  33.048  1.00  0.00     0.014 A 
ATOM     46  C   UNL A   1      38.568  31.456  30.324  1.00  0.00     0.010 A 
ATOM     47  C   UNL A   1      39.518  30.419  32.294  1.00  0.00     0.010 A 
ATOM     48  C   UNL A   1      39.597  30.710  30.923  1.00  0.00    -0.014 A 
BRANCH  48  49
ATOM     49  C   UNL A   1      40.763  30.238  30.134  1.00  0.00     0.031 A 
ATOM     50  C   UNL A   1      41.889  31.179  29.804  1.00  0.00     0.074 A 
ATOM     51  C   UNL A   1      40.776  28.977  29.658  1.00  0.00     0.049 A 
ATOM     52  N   UNL A   1      42.956  30.971  29.074  1.00  0.00    -0.248 NA
ATOM     53  C   UNL A   1      41.790  32.545  30.345  1.00  0.00     0.031 C 
ATOM     54  C   UNL A   1      39.723  27.984  29.868  1.00  0.00     0.029 A 
ATOM     55  N   UNL A   1      41.703  28.319  28.888  1.00  0.00    -0.354 N 
ATOM     56  C   UNL A   1      43.641  32.179  29.054  1.00  0.00     0.074 A 
ATOM     57  C   UNL A   1      42.848  33.128  29.802  1.00  0.00     0.031 C 
ATOM     58  C   UNL A   1      40.070  26.838  29.261  1.00  0.00     0.029 A 
ATOM     59  C   UNL A   1      41.349  27.026  28.582  1.00  0.00     0.049 A 
ATOM     60  H   UNL A   1      42.543  28.733  28.584  1.00  0.00     0.167 HD
ATOM     61  C   UNL A   1      44.835  32.462  28.478  1.00  0.00     0.037 A 
ATOM     62  C   UNL A   1      41.976  26.104  27.829  1.00  0.00     0.037 A 
ATOM     63  C   UNL A   1      45.634  31.504  27.759  1.00  0.00     0.049 A 
ATOM     64  C   UNL A   1      43.298  26.450  27.195  1.00  0.00     0.074 A 
ATOM     65  C   UNL A   1      46.892  31.674  27.208  1.00  0.00     0.029 A 
ATOM     66  N   UNL A   1      45.250  30.200  27.484  1.00  0.00    -0.354 N 
ATOM     67  N   UNL A   1      43.978  27.569  27.255  1.00  0.00    -0.248 NA
ATOM     68  C   UNL A   1      43.943  25.401  26.393  1.00  0.00     0.031 C 
ATOM     69  C   UNL A   1      47.242  30.493  26.545  1.00  0.00     0.029 A 
ATOM     70  C   UNL A   1      46.231  29.565  26.741  1.00  0.00     0.049 A 
ATOM     71  H   UNL A   1      44.404  29.787  27.774  1.00  0.00     0.167 HD
ATOM     72  C   UNL A   1      45.142  27.349  26.531  1.00  0.00     0.074 A 
ATOM     73  C   UNL A   1      45.083  25.983  26.054  1.00  0.00     0.031 C 
ATOM     74  C   UNL A   1      46.166  28.201  26.281  1.00  0.00     0.037 A 
BRANCH  61  75
ATOM     75  C   UNL A   1      45.353  33.867  28.595  1.00  0.00     0.064 A 
ATOM     76  C   UNL A   1      45.029  34.857  27.655  1.00  0.00     0.173 A 
ATOM     77  C   UNL A   1      46.139  34.243  29.695  1.00  0.00     0.173 A 
ATOM     78  F   UNL A   1      44.288  34.551  26.579  1.00  0.00    -0.203 F 
ATOM     79  C   UNL A   1      45.494  36.162  27.798  1.00  0.00     0.198 A 
ATOM     80  C   UNL A   1      46.575  35.555  29.853  1.00  0.00     0.198 A 
ATOM     81  F   UNL A   1      46.475  33.338  30.628  1.00  0.00    -0.203 F 
ATOM     82  F   UNL A   1      45.209  37.079  26.863  1.00  0.00    -0.200 F 
ATOM     83  C   UNL A   1      46.258  36.513  28.900  1.00  0.00     0.200 A 
ATOM     84  F   UNL A   1      47.301  35.895  30.927  1.00  0.00    -0.200 F 
ATOM     85  F   UNL A   1      46.693  37.772  29.044  1.00  0.00    -0.200 F 
ENDBRANCH  61  75
BRANCH  62  86
ATOM     86  C   UNL A   1      41.372  24.758  27.636  1.00  0.00     0.064 A 
ATOM     87  C   UNL A   1      41.937  23.621  28.232  1.00  0.00     0.173 A 
ATOM     88  C   UNL A   1      40.237  24.575  26.832  1.00  0.00     0.173 A 
ATOM     89  F   UNL A   1      43.035  23.740  28.993  1.00  0.00    -0.203 F 
ATOM     90  C   UNL A   1      41.409  22.351  28.006  1.00  0.00     0.198 A 
ATOM     91  C   UNL A   1      39.689  23.309  26.636  1.00  0.00     0.198 A 
ATOM     92  F   UNL A   1      39.653  25.630  26.244  1.00  0.00    -0.203 F 
ATOM     93  F   UNL A   1      42.005  21.276  28.541  1.00  0.00    -0.200 F 
ATOM     94  C   UNL A   1      40.283  22.197  27.213  1.00  0.00     0.200 A 
ATOM     95  F   UNL A   1      38.590  23.167  25.882  1.00  0.00    -0.200 F 
ATOM     96  F   UNL A   1      39.775  20.976  26.996  1.00  0.00    -0.200 F 
ENDBRANCH  62  86
BRANCH  74  97
ATOM     97  C   UNL A   1      47.331  27.670  25.495  1.00  0.00     0.064 A 
ATOM     98  C   UNL A   1      47.423  27.840  24.105  1.00  0.00     0.173 A 
ATOM     99  C   UNL A   1      48.388  27.018  26.147  1.00  0.00     0.173 A 
ATOM    100  F   UNL A   1      46.433  28.444  23.431  1.00  0.00    -0.203 F 
ATOM    101  C   UNL A   1      48.515  27.349  23.395  1.00  0.00     0.198 A 
ATOM    102  C   UNL A   1      49.496  26.561  25.440  1.00  0.00     0.198 A 
ATOM    103  F   UNL A   1      48.354  26.837  27.476  1.00  0.00    -0.203 F 
ATOM    104  F   UNL A   1      48.558  27.474  22.062  1.00  0.00    -0.200 F 
ATOM    105  C   UNL A   1      49.555  26.717  24.064  1.00  0.00     0.200 A 
ATOM    106  F   UNL A   1      50.506  25.967  26.090  1.00  0.00    -0.200 F 
ATOM    107  F   UNL A   1      50.610  26.255  23.380  1.00  0.00    -0.200 F 
ENDBRANCH  74  97
ENDBRANCH  48  49
ENDBRANCH  40  43
ENDBRANCH  38  39
ENDBRANCH  37  38
ENDBRANCH  36  37
ENDBRANCH  35  36
ENDBRANCH   1  35
TORSDOF 19
ENDMDL
MODEL 3
REMARK VINA RESULT:     -11.8      3.662      9.490
REMARK SMILES COc1ccc(CCN2C(=O)C[C@@H](C(=O)NCCCCCCNC(=O)c3ccc(-c4c5nc(c(-c6c(F)c(F)c(F)c(F)c6F)c6ccc([nH]6)c(-c6c(F)c(F)c(F)c(F)c6F)c6nc(c(-c7c(F)c(F)c(F)c(F)c7F)c7ccc4[nH]7)C=C6)C=C5)cc3)S/C2=[NH+]\c2ccc(F)cc2)cc1OC
REMARK SMILES IDX 18 1 17 2 16 3 14 4 15 5 13 7 9 8 10 9 90 10 11 11 12 12
REMARK SMILES IDX 89 13 91 14 8 16 7 17 6 18 3 19 4 20 100 21 5 22 99 23 2 24
REMARK SMILES IDX 1 25 101 26 102 27 92 28 93 29 98 30 94 31 97 32 95 33 96 34
REMARK SMILES IDX 19 35 20 36 21 37 22 38 23 39 24 40 25 42 26 43 27 44 88 45
REMARK SMILES IDX 28 46 87 47 29 48 30 49 31 50 81 51 32 52 86 53 80 54 82 55
REMARK SMILES IDX 33 56 85 57 79 58 78 59 34 61 66 62 46 63 65 64 47 65 50 66
REMARK SMILES IDX 64 67 83 68 48 69 49 70 63 72 84 73 51 74 35 75 36 76 44 77
REMARK SMILES IDX 37 78 38 79 42 80 45 81 39 82 40 83 43 84 41 85 67 86 68 87
REMARK SMILES IDX 76 88 69 89 70 90 74 91 77 92 71 93 72 94 75 95 73 96 52 97
REMARK SMILES IDX 53 98 61 99 54 100 55 101 59 102 62 103 56 104 57 105 60 106
REMARK SMILES IDX 58 107
REMARK H PARENT 16 6 91 15 23 41 82 60 50 71
REMARK Flexibility Score: inf
ROOT
ATOM      1  C   UNL A   1      38.725  24.729  26.829  1.00  0.00     0.021 C 
ENDROOT
BRANCH   1   2
ATOM      2  C   UNL A   1      37.775  23.717  26.196  1.00  0.00     0.116 C 
BRANCH   2   3
ATOM      3  N   UNL A   1      38.355  22.395  26.044  1.00  0.00    -0.355 N 
ATOM      4  C   UNL A   1      37.994  21.320  25.284  1.00  0.00     0.234 C 
ATOM      5  O   UNL A   1      38.722  20.325  25.349  1.00  0.00    -0.274 OA
ATOM      6  H   UNL A   1      39.159  22.246  26.593  1.00  0.00     0.163 HD
BRANCH   4   7
ATOM      7  C   UNL A   1      36.801  21.332  24.319  1.00  0.00     0.160 C 
ATOM      8  N   UNL A   1      34.191  22.764  24.391  1.00  0.00    -0.191 N 
ATOM      9  C   UNL A   1      35.197  23.237  23.571  1.00  0.00     0.311 C 
ATOM     10  C   UNL A   1      34.024  21.394  24.519  1.00  0.00     0.319 C 
ATOM     11  O   UNL A   1      35.008  24.134  22.743  1.00  0.00    -0.247 OA
ATOM     12  C   UNL A   1      36.594  22.701  23.730  1.00  0.00     0.153 C 
ATOM     13  S   UNL A   1      35.419  20.497  25.065  1.00  0.00    -0.024 SA
ATOM     14  N   UNL A   1      32.870  20.825  24.321  1.00  0.00    -0.235 N 
ATOM     15  H   UNL A   1      32.067  21.364  24.139  1.00  0.00     0.313 HD
BRANCH   8  16
ATOM     16  C   UNL A   1      33.044  23.678  24.599  1.00  0.00     0.251 C 
BRANCH  16  17
ATOM     17  C   UNL A   1      33.118  24.506  25.921  1.00  0.00     0.082 C 
BRANCH  17  18
ATOM     18  C   UNL A   1      32.953  26.014  25.837  1.00  0.00    -0.040 A 
ATOM     19  C   UNL A   1      32.691  28.843  25.822  1.00  0.00     0.160 A 
ATOM     20  C   UNL A   1      32.038  28.077  26.780  1.00  0.00     0.051 A 
ATOM     21  C   UNL A   1      33.424  28.197  24.814  1.00  0.00     0.160 A 
ATOM     22  C   UNL A   1      32.138  26.687  26.746  1.00  0.00     0.008 A 
ATOM     23  C   UNL A   1      33.568  26.792  24.846  1.00  0.00     0.054 A 
BRANCH  19  24
ATOM     24  O   UNL A   1      32.717  30.207  25.923  1.00  0.00    -0.493 OA
ATOM     25  C   UNL A   1      31.446  30.842  25.822  1.00  0.00     0.278 C 
ENDBRANCH  19  24
BRANCH  21  26
ATOM     26  O   UNL A   1      34.056  28.799  23.753  1.00  0.00    -0.493 OA
ATOM     27  C   UNL A   1      33.785  28.266  22.459  1.00  0.00     0.278 C 
ENDBRANCH  21  26
ENDBRANCH  17  18
ENDBRANCH  16  17
ENDBRANCH   8  16
BRANCH  14  28
ATOM     28  C   UNL A   1      32.798  19.415  24.375  1.00  0.00     0.125 A 
ATOM     29  C   UNL A   1      32.932  18.666  23.194  1.00  0.00     0.055 A 
ATOM     30  C   UNL A   1      32.727  18.744  25.603  1.00  0.00     0.055 A 
ATOM     31  C   UNL A   1      33.086  17.279  23.249  1.00  0.00     0.043 A 
ATOM     32  C   UNL A   1      32.894  17.357  25.660  1.00  0.00     0.043 A 
ATOM     33  C   UNL A   1      33.086  16.641  24.484  1.00  0.00     0.123 A 
ATOM     34  F   UNL A   1      33.293  15.319  24.545  1.00  0.00    -0.207 F 
ENDBRANCH  14  28
ENDBRANCH   4   7
ENDBRANCH   2   3
ENDBRANCH   1   2
BRANCH   1  35
ATOM     35  C   UNL A   1      40.004  24.120  27.408  1.00  0.00     0.002 C 
BRANCH  35  36
ATOM     36  C   UNL A   1      41.305  24.531  26.709  1.00  0.00     0.002 C 
BRANCH  36  37
ATOM     37  C   UNL A   1      41.956  23.451  25.840  1.00  0.00     0.021 C 
BRANCH  37  38
ATOM     38  C   UNL A   1      43.173  23.912  25.044  1.00  0.00     0.116 C 
BRANCH  38  39
ATOM     39  N   UNL A   1      44.394  23.244  25.463  1.00  0.00    -0.352 N 
ATOM     40  C   UNL A   1      45.200  23.482  26.549  1.00  0.00     0.251 C 
ATOM     41  H   UNL A   1      44.689  22.509  24.879  1.00  0.00     0.163 HD
ATOM     42  O   UNL A   1      46.290  22.932  26.639  1.00  0.00    -0.269 OA
BRANCH  40  43
ATOM     43  C   UNL A   1      44.761  24.422  27.605  1.00  0.00     0.039 A 
ATOM     44  C   UNL A   1      45.026  25.784  27.446  1.00  0.00     0.014 A 
ATOM     45  C   UNL A   1      44.107  23.965  28.752  1.00  0.00     0.014 A 
ATOM     46  C   UNL A   1      44.581  26.694  28.407  1.00  0.00     0.010 A 
ATOM     47  C   UNL A   1      43.599  24.879  29.671  1.00  0.00     0.010 A 
ATOM     48  C   UNL A   1      43.832  26.254  29.510  1.00  0.00    -0.014 A 
BRANCH  48  49
ATOM     49  C   UNL A   1      43.278  27.216  30.497  1.00  0.00     0.031 A 
ATOM     50  C   UNL A   1      43.911  27.360  31.854  1.00  0.00     0.074 A 
ATOM     51  C   UNL A   1      42.166  27.914  30.193  1.00  0.00     0.049 A 
ATOM     52  N   UNL A   1      43.534  28.096  32.870  1.00  0.00    -0.248 NA
ATOM     53  C   UNL A   1      45.111  26.549  32.115  1.00  0.00     0.031 C 
ATOM     54  C   UNL A   1      41.434  27.827  28.929  1.00  0.00     0.029 A 
ATOM     55  N   UNL A   1      41.449  28.825  30.929  1.00  0.00    -0.354 N 
ATOM     56  C   UNL A   1      44.435  27.824  33.889  1.00  0.00     0.074 A 
ATOM     57  C   UNL A   1      45.349  26.820  33.390  1.00  0.00     0.031 C 
ATOM     58  C   UNL A   1      40.384  28.664  28.970  1.00  0.00     0.029 A 
ATOM     59  C   UNL A   1      40.344  29.315  30.276  1.00  0.00     0.049 A 
ATOM     60  H   UNL A   1      41.703  29.102  31.839  1.00  0.00     0.167 HD
ATOM     61  C   UNL A   1      44.505  28.377  35.125  1.00  0.00     0.037 A 
ATOM     62  C   UNL A   1      39.397  30.179  30.688  1.00  0.00     0.037 A 
ATOM     63  C   UNL A   1      43.611  29.397  35.606  1.00  0.00     0.049 A 
ATOM     64  C   UNL A   1      39.497  30.771  32.070  1.00  0.00     0.074 A 
ATOM     65  C   UNL A   1      43.648  30.075  36.812  1.00  0.00     0.029 A 
ATOM     66  N   UNL A   1      42.513  29.880  34.910  1.00  0.00    -0.354 N 
ATOM     67  N   UNL A   1      40.405  30.571  32.994  1.00  0.00    -0.248 NA
ATOM     68  C   UNL A   1      38.443  31.718  32.462  1.00  0.00     0.031 C 
ATOM     69  C   UNL A   1      42.537  30.923  36.871  1.00  0.00     0.029 A 
ATOM     70  C   UNL A   1      41.846  30.823  35.675  1.00  0.00     0.049 A 
ATOM     71  H   UNL A   1      42.247  29.595  34.005  1.00  0.00     0.167 HD
ATOM     72  C   UNL A   1      40.051  31.386  34.060  1.00  0.00     0.074 A 
ATOM     73  C   UNL A   1      38.855  32.098  33.662  1.00  0.00     0.031 C 
ATOM     74  C   UNL A   1      40.661  31.532  35.262  1.00  0.00     0.037 A 
BRANCH  61  75
ATOM     75  C   UNL A   1      45.582  27.889  36.051  1.00  0.00     0.064 A 
ATOM     76  C   UNL A   1      45.374  26.814  36.929  1.00  0.00     0.173 A 
ATOM     77  C   UNL A   1      46.860  28.469  36.019  1.00  0.00     0.173 A 
ATOM     78  F   UNL A   1      44.170  26.229  37.007  1.00  0.00    -0.203 F 
ATOM     79  C   UNL A   1      46.396  26.356  37.758  1.00  0.00     0.198 A 
ATOM     80  C   UNL A   1      47.889  27.988  36.824  1.00  0.00     0.198 A 
ATOM     81  F   UNL A   1      47.116  29.496  35.194  1.00  0.00    -0.203 F 
ATOM     82  F   UNL A   1      46.160  25.359  38.620  1.00  0.00    -0.200 F 
ATOM     83  C   UNL A   1      47.654  26.937  37.698  1.00  0.00     0.200 A 
ATOM     84  F   UNL A   1      49.108  28.540  36.754  1.00  0.00    -0.200 F 
ATOM     85  F   UNL A   1      48.640  26.486  38.486  1.00  0.00    -0.200 F 
ENDBRANCH  61  75
BRANCH  62  86
ATOM     86  C   UNL A   1      38.275  30.548  29.784  1.00  0.00     0.064 A 
ATOM     87  C   UNL A   1      38.185  31.834  29.232  1.00  0.00     0.173 A 
ATOM     88  C   UNL A   1      37.256  29.635  29.475  1.00  0.00     0.173 A 
ATOM     89  F   UNL A   1      39.124  32.750  29.513  1.00  0.00    -0.203 F 
ATOM     90  C   UNL A   1      37.105  32.201  28.431  1.00  0.00     0.198 A 
ATOM     91  C   UNL A   1      36.195  29.993  28.646  1.00  0.00     0.198 A 
ATOM     92  F   UNL A   1      37.296  28.390  29.971  1.00  0.00    -0.203 F 
ATOM     93  F   UNL A   1      37.015  33.455  27.966  1.00  0.00    -0.200 F 
ATOM     94  C   UNL A   1      36.114  31.279  28.135  1.00  0.00     0.200 A 
ATOM     95  F   UNL A   1      35.247  29.093  28.348  1.00  0.00    -0.200 F 
ATOM     96  F   UNL A   1      35.075  31.632  27.366  1.00  0.00    -0.200 F 
ENDBRANCH  62  86
BRANCH  74  97
ATOM     97  C   UNL A   1      40.074  32.532  36.218  1.00  0.00     0.064 A 
ATOM     98  C   UNL A   1      38.976  32.219  37.033  1.00  0.00     0.173 A 
ATOM     99  C   UNL A   1      40.645  33.807  36.348  1.00  0.00     0.173 A 
ATOM    100  F   UNL A   1      38.385  31.019  36.938  1.00  0.00    -0.203 F 
ATOM    101  C   UNL A   1      38.453  33.156  37.920  1.00  0.00     0.198 A 
ATOM    102  C   UNL A   1      40.143  34.729  37.261  1.00  0.00     0.198 A 
ATOM    103  F   UNL A   1      41.702  34.155  35.600  1.00  0.00    -0.203 F 
ATOM    104  F   UNL A   1      37.371  32.855  38.650  1.00  0.00    -0.200 F 
ATOM    105  C   UNL A   1      39.042  34.407  38.040  1.00  0.00     0.200 A 
ATOM    106  F   UNL A   1      40.724  35.930  37.388  1.00  0.00    -0.200 F 
ATOM    107  F   UNL A   1      38.543  35.303  38.902  1.00  0.00    -0.200 F 
ENDBRANCH  74  97
ENDBRANCH  48  49
ENDBRANCH  40  43
ENDBRANCH  38  39
ENDBRANCH  37  38
ENDBRANCH  36  37
ENDBRANCH  35  36
ENDBRANCH   1  35
TORSDOF 19
ENDMDL
