MODEL 1
REMARK VINA RESULT:     -11.8      0.000      0.000
REMARK SMILES C[NH+]1CCC(NC(=O)N[C@@H]2C=C[C@H](C(=O)NCCCCCCNC(=O)c3ccc(-c4c5nc(c(-c6c(F)c(F)c(F)c(F)c6F)c6ccc([nH]6)c(-c6c(F)c(F)c(F)c(F)c6F)c6nc(c(-c7c(F)c(F)c(F)c(F)c7F)c7ccc4[nH]7)C=C6)C=C5)cc3)C2)CC1
REMARK SMILES IDX 19 1 18 2 17 3 16 4 14 5 15 6 13 8 10 9 11 10 89 11 12 12
REMARK SMILES IDX 9 13 6 14 7 15 8 17 5 19 1 20 2 21 3 22 91 23 4 25 90 26
REMARK SMILES IDX 20 27 21 28 22 29 23 30 24 31 25 33 26 34 27 35 88 36 28 37
REMARK SMILES IDX 87 38 29 39 30 40 31 41 81 42 32 43 86 44 80 45 82 46 33 47
REMARK SMILES IDX 85 48 79 49 78 50 34 52 66 53 46 54 65 55 47 56 50 57 64 58
REMARK SMILES IDX 83 59 48 60 49 61 63 63 84 64 51 65 35 66 36 67 44 68 37 69
REMARK SMILES IDX 38 70 42 71 45 72 39 73 40 74 43 75 41 76 67 77 68 78 76 79
REMARK SMILES IDX 69 80 70 81 74 82 77 83 71 84 72 85 75 86 73 87 52 88 53 89
REMARK SMILES IDX 61 90 54 91 55 92 59 93 62 94 56 95 57 96 60 97 58 98
REMARK H PARENT 16 7 6 16 9 18 2 24 23 32 82 51 50 62
REMARK Flexibility Score: inf
ROOT
ATOM      1  C   UNL A   1      35.368  33.278  28.928  1.00  0.00     0.002 C 
ENDROOT
BRANCH   1   2
ATOM      2  C   UNL A   1      35.912  32.184  28.000  1.00  0.00     0.021 C 
BRANCH   2   3
ATOM      3  C   UNL A   1      35.095  30.893  28.043  1.00  0.00     0.116 C 
BRANCH   3   4
ATOM      4  N   UNL A   1      33.694  31.172  27.812  1.00  0.00    -0.356 N 
ATOM      5  C   UNL A   1      32.791  30.456  27.083  1.00  0.00     0.227 C 
ATOM      6  O   UNL A   1      31.670  30.930  26.900  1.00  0.00    -0.274 OA
ATOM      7  H   UNL A   1      33.346  31.989  28.238  1.00  0.00     0.163 HD
BRANCH   5   8
ATOM      8  C   UNL A   1      33.197  29.072  26.600  1.00  0.00     0.103 C 
ATOM      9  C   UNL A   1      32.270  27.939  24.626  1.00  0.00     0.107 C 
ATOM     10  C   UNL A   1      31.569  27.546  25.885  1.00  0.00    -0.006 C 
ATOM     11  C   UNL A   1      33.287  28.993  25.073  1.00  0.00     0.047 C 
ATOM     12  C   UNL A   1      32.091  28.131  26.964  1.00  0.00    -0.016 C 
BRANCH   9  13
ATOM     13  N   UNL A   1      31.294  28.417  23.681  1.00  0.00    -0.332 N 
ATOM     14  N   UNL A   1      30.793  26.539  22.323  1.00  0.00    -0.335 N 
ATOM     15  C   UNL A   1      30.649  27.838  22.654  1.00  0.00     0.315 C 
ATOM     16  H   UNL A   1      30.261  26.263  21.541  1.00  0.00     0.165 HD
ATOM     17  O   UNL A   1      29.881  28.527  21.980  1.00  0.00    -0.249 OA
ATOM     18  H   UNL A   1      31.048  29.362  23.816  1.00  0.00     0.165 HD
BRANCH  14  19
ATOM     19  C   UNL A   1      31.584  25.473  22.903  1.00  0.00     0.095 C 
ATOM     20  C   UNL A   1      33.875  22.195  24.179  1.00  0.00     0.332 C 
ATOM     21  N   UNL A   1      32.976  22.980  23.328  1.00  0.00    -0.337 N 
ATOM     22  C   UNL A   1      33.690  24.163  22.822  1.00  0.00     0.264 C 
ATOM     23  C   UNL A   1      31.743  23.310  24.065  1.00  0.00     0.264 C 
ATOM     24  H   UNL A   1      32.686  22.436  22.516  1.00  0.00     0.347 HD
ATOM     25  C   UNL A   1      32.779  25.101  22.031  1.00  0.00     0.086 C 
ATOM     26  C   UNL A   1      30.804  24.214  23.253  1.00  0.00     0.086 C 
ENDBRANCH  14  19
ENDBRANCH   9  13
ENDBRANCH   5   8
ENDBRANCH   3   4
ENDBRANCH   2   3
ENDBRANCH   1   2
BRANCH   1  27
ATOM     27  C   UNL A   1      34.739  34.474  28.205  1.00  0.00     0.002 C 
BRANCH  27  28
ATOM     28  C   UNL A   1      33.415  34.954  28.801  1.00  0.00     0.021 C 
BRANCH  28  29
ATOM     29  C   UNL A   1      33.542  36.195  29.675  1.00  0.00     0.116 C 
BRANCH  29  30
ATOM     30  N   UNL A   1      32.528  36.229  30.716  1.00  0.00    -0.352 N 
ATOM     31  C   UNL A   1      32.506  35.588  31.927  1.00  0.00     0.251 C 
ATOM     32  H   UNL A   1      31.744  36.794  30.523  1.00  0.00     0.163 HD
ATOM     33  O   UNL A   1      31.478  35.551  32.592  1.00  0.00    -0.269 OA
BRANCH  31  34
ATOM     34  C   UNL A   1      33.729  34.922  32.419  1.00  0.00     0.039 A 
ATOM     35  C   UNL A   1      33.640  33.609  32.886  1.00  0.00     0.014 A 
ATOM     36  C   UNL A   1      34.958  35.588  32.416  1.00  0.00     0.014 A 
ATOM     37  C   UNL A   1      34.797  32.943  33.293  1.00  0.00     0.010 A 
ATOM     38  C   UNL A   1      36.120  34.898  32.745  1.00  0.00     0.010 A 
ATOM     39  C   UNL A   1      36.051  33.569  33.189  1.00  0.00    -0.014 A 
BRANCH  39  40
ATOM     40  C   UNL A   1      37.299  32.843  33.530  1.00  0.00     0.031 A 
ATOM     41  C   UNL A   1      38.038  33.160  34.801  1.00  0.00     0.074 A 
ATOM     42  C   UNL A   1      37.799  31.941  32.664  1.00  0.00     0.049 A 
ATOM     43  N   UNL A   1      39.171  32.676  35.242  1.00  0.00    -0.248 NA
ATOM     44  C   UNL A   1      37.437  34.173  35.680  1.00  0.00     0.031 C 
ATOM     45  C   UNL A   1      37.197  31.580  31.379  1.00  0.00     0.029 A 
ATOM     46  N   UNL A   1      38.930  31.167  32.729  1.00  0.00    -0.354 N 
ATOM     47  C   UNL A   1      39.420  33.328  36.442  1.00  0.00     0.074 A 
ATOM     48  C   UNL A   1      38.353  34.286  36.631  1.00  0.00     0.031 C 
ATOM     49  C   UNL A   1      37.949  30.637  30.790  1.00  0.00     0.029 A 
ATOM     50  C   UNL A   1      39.109  30.360  31.632  1.00  0.00     0.049 A 
ATOM     51  H   UNL A   1      39.555  31.188  33.489  1.00  0.00     0.167 HD
ATOM     52  C   UNL A   1      40.433  33.127  37.318  1.00  0.00     0.037 A 
ATOM     53  C   UNL A   1      40.101  29.499  31.333  1.00  0.00     0.037 A 
ATOM     54  C   UNL A   1      41.486  32.162  37.130  1.00  0.00     0.049 A 
ATOM     55  C   UNL A   1      41.231  29.318  32.312  1.00  0.00     0.074 A 
ATOM     56  C   UNL A   1      42.528  31.847  37.984  1.00  0.00     0.029 A 
ATOM     57  N   UNL A   1      41.633  31.363  36.006  1.00  0.00    -0.354 N 
ATOM     58  N   UNL A   1      41.419  29.890  33.477  1.00  0.00    -0.248 NA
ATOM     59  C   UNL A   1      42.285  28.367  31.935  1.00  0.00     0.031 C 
ATOM     60  C   UNL A   1      43.339  30.899  37.352  1.00  0.00     0.029 A 
ATOM     61  C   UNL A   1      42.767  30.575  36.132  1.00  0.00     0.049 A 
ATOM     62  H   UNL A   1      41.023  31.355  35.234  1.00  0.00     0.167 HD
ATOM     63  C   UNL A   1      42.592  29.348  33.984  1.00  0.00     0.074 A 
ATOM     64  C   UNL A   1      43.063  28.388  33.007  1.00  0.00     0.031 C 
ATOM     65  C   UNL A   1      43.223  29.621  35.153  1.00  0.00     0.037 A 
BRANCH  52  66
ATOM     66  C   UNL A   1      40.455  33.971  38.561  1.00  0.00     0.064 A 
ATOM     67  C   UNL A   1      41.149  35.191  38.613  1.00  0.00     0.173 A 
ATOM     68  C   UNL A   1      39.739  33.578  39.703  1.00  0.00     0.173 A 
ATOM     69  F   UNL A   1      41.858  35.609  37.553  1.00  0.00    -0.203 F 
ATOM     70  C   UNL A   1      41.153  35.966  39.770  1.00  0.00     0.198 A 
ATOM     71  C   UNL A   1      39.717  34.373  40.845  1.00  0.00     0.198 A 
ATOM     72  F   UNL A   1      39.053  32.426  39.707  1.00  0.00    -0.203 F 
ATOM     73  F   UNL A   1      41.867  37.099  39.812  1.00  0.00    -0.200 F 
ATOM     74  C   UNL A   1      40.431  35.561  40.881  1.00  0.00     0.200 A 
ATOM     75  F   UNL A   1      39.005  33.988  41.914  1.00  0.00    -0.200 F 
ATOM     76  F   UNL A   1      40.427  36.314  41.990  1.00  0.00    -0.200 F 
ENDBRANCH  52  66
BRANCH  53  77
ATOM     77  C   UNL A   1      40.064  28.732  30.060  1.00  0.00     0.064 A 
ATOM     78  C   UNL A   1      39.458  27.469  29.998  1.00  0.00     0.173 A 
ATOM     79  C   UNL A   1      40.641  29.237  28.886  1.00  0.00     0.173 A 
ATOM     80  F   UNL A   1      38.910  26.935  31.099  1.00  0.00    -0.203 F 
ATOM     81  C   UNL A   1      39.452  26.731  28.816  1.00  0.00     0.198 A 
ATOM     82  C   UNL A   1      40.606  28.511  27.697  1.00  0.00     0.198 A 
ATOM     83  F   UNL A   1      41.229  30.441  28.890  1.00  0.00    -0.203 F 
ATOM     84  F   UNL A   1      38.912  25.505  28.798  1.00  0.00    -0.200 F 
ATOM     85  C   UNL A   1      40.021  27.255  27.665  1.00  0.00     0.200 A 
ATOM     86  F   UNL A   1      41.142  29.029  26.583  1.00  0.00    -0.200 F 
ATOM     87  F   UNL A   1      40.012  26.546  26.528  1.00  0.00    -0.200 F 
ENDBRANCH  53  77
BRANCH  65  88
ATOM     88  C   UNL A   1      44.474  28.847  35.457  1.00  0.00     0.064 A 
ATOM     89  C   UNL A   1      45.742  29.319  35.088  1.00  0.00     0.173 A 
ATOM     90  C   UNL A   1      44.405  27.635  36.162  1.00  0.00     0.173 A 
ATOM     91  F   UNL A   1      45.864  30.464  34.400  1.00  0.00    -0.203 F 
ATOM     92  C   UNL A   1      46.892  28.591  35.387  1.00  0.00     0.198 A 
ATOM     93  C   UNL A   1      45.558  26.928  36.490  1.00  0.00     0.198 A 
ATOM     94  F   UNL A   1      43.218  27.143  36.546  1.00  0.00    -0.203 F 
ATOM     95  F   UNL A   1      48.088  29.034  34.976  1.00  0.00    -0.200 F 
ATOM     96  C   UNL A   1      46.800  27.402  36.095  1.00  0.00     0.200 A 
ATOM     97  F   UNL A   1      45.468  25.789  37.189  1.00  0.00    -0.200 F 
ATOM     98  F   UNL A   1      47.908  26.709  36.390  1.00  0.00    -0.200 F 
ENDBRANCH  65  88
ENDBRANCH  39  40
ENDBRANCH  31  34
ENDBRANCH  29  30
ENDBRANCH  28  29
ENDBRANCH  27  28
ENDBRANCH   1  27
TORSDOF 15
ENDMDL
MODEL 2
REMARK VINA RESULT:     -11.7      0.905      2.263
REMARK SMILES C[NH+]1CCC(NC(=O)N[C@@H]2C=C[C@H](C(=O)NCCCCCCNC(=O)c3ccc(-c4c5nc(c(-c6c(F)c(F)c(F)c(F)c6F)c6ccc([nH]6)c(-c6c(F)c(F)c(F)c(F)c6F)c6nc(c(-c7c(F)c(F)c(F)c(F)c7F)c7ccc4[nH]7)C=C6)C=C5)cc3)C2)CC1
REMARK SMILES IDX 19 1 18 2 17 3 16 4 14 5 15 6 13 8 10 9 11 10 89 11 12 12
REMARK SMILES IDX 9 13 6 14 7 15 8 17 5 19 1 20 2 21 3 22 91 23 4 25 90 26
REMARK SMILES IDX 20 27 21 28 22 29 23 30 24 31 25 33 26 34 27 35 88 36 28 37
REMARK SMILES IDX 87 38 29 39 30 40 31 41 81 42 32 43 86 44 80 45 82 46 33 47
REMARK SMILES IDX 85 48 79 49 78 50 34 52 66 53 46 54 65 55 47 56 50 57 64 58
REMARK SMILES IDX 83 59 48 60 49 61 63 63 84 64 51 65 35 66 36 67 44 68 37 69
REMARK SMILES IDX 38 70 42 71 45 72 39 73 40 74 43 75 41 76 67 77 68 78 76 79
REMARK SMILES IDX 69 80 70 81 74 82 77 83 71 84 72 85 75 86 73 87 52 88 53 89
REMARK SMILES IDX 61 90 54 91 55 92 59 93 62 94 56 95 57 96 60 97 58 98
REMARK H PARENT 16 7 6 16 9 18 2 24 23 32 82 51 50 62
REMARK Flexibility Score: inf
ROOT
ATOM      1  C   UNL A   1      34.800  33.364  28.955  1.00  0.00     0.002 C 
ENDROOT
BRANCH   1   2
ATOM      2  C   UNL A   1      35.468  32.293  28.083  1.00  0.00     0.021 C 
BRANCH   2   3
ATOM      3  C   UNL A   1      34.667  30.994  28.000  1.00  0.00     0.116 C 
BRANCH   3   4
ATOM      4  N   UNL A   1      33.416  31.214  27.306  1.00  0.00    -0.356 N 
ATOM      5  C   UNL A   1      32.675  30.327  26.581  1.00  0.00     0.227 C 
ATOM      6  O   UNL A   1      31.699  30.742  25.957  1.00  0.00    -0.274 OA
ATOM      7  H   UNL A   1      33.051  32.127  27.364  1.00  0.00     0.163 HD
BRANCH   5   8
ATOM      8  C   UNL A   1      33.053  28.855  26.649  1.00  0.00     0.103 C 
ATOM      9  C   UNL A   1      31.783  27.024  25.614  1.00  0.00     0.107 C 
ATOM     10  C   UNL A   1      31.411  27.231  27.046  1.00  0.00    -0.006 C 
ATOM     11  C   UNL A   1      32.802  28.129  25.324  1.00  0.00     0.047 C 
ATOM     12  C   UNL A   1      32.122  28.201  27.622  1.00  0.00    -0.016 C 
BRANCH   9  13
ATOM     13  N   UNL A   1      30.588  27.090  24.811  1.00  0.00    -0.332 N 
ATOM     14  N   UNL A   1      30.024  24.827  24.376  1.00  0.00    -0.335 N 
ATOM     15  C   UNL A   1      29.814  26.152  24.239  1.00  0.00     0.315 C 
ATOM     16  H   UNL A   1      29.376  24.266  23.891  1.00  0.00     0.165 HD
ATOM     17  O   UNL A   1      28.855  26.520  23.557  1.00  0.00    -0.249 OA
ATOM     18  H   UNL A   1      30.276  28.010  24.648  1.00  0.00     0.165 HD
BRANCH  14  19
ATOM     19  C   UNL A   1      31.026  24.076  25.104  1.00  0.00     0.095 C 
ATOM     20  C   UNL A   1      33.708  21.531  27.093  1.00  0.00     0.332 C 
ATOM     21  N   UNL A   1      32.472  21.959  26.431  1.00  0.00    -0.337 N 
ATOM     22  C   UNL A   1      32.760  22.303  25.030  1.00  0.00     0.264 C 
ATOM     23  C   UNL A   1      31.847  23.058  27.189  1.00  0.00     0.264 C 
ATOM     24  H   UNL A   1      31.792  21.199  26.417  1.00  0.00     0.347 HD
ATOM     25  C   UNL A   1      31.546  22.883  24.308  1.00  0.00     0.086 C 
ATOM     26  C   UNL A   1      30.597  23.611  26.488  1.00  0.00     0.086 C 
ENDBRANCH  14  19
ENDBRANCH   9  13
ENDBRANCH   5   8
ENDBRANCH   3   4
ENDBRANCH   2   3
ENDBRANCH   1   2
BRANCH   1  27
ATOM     27  C   UNL A   1      34.236  34.559  28.178  1.00  0.00     0.002 C 
BRANCH  27  28
ATOM     28  C   UNL A   1      32.991  35.191  28.800  1.00  0.00     0.021 C 
BRANCH  28  29
ATOM     29  C   UNL A   1      33.278  36.424  29.647  1.00  0.00     0.116 C 
BRANCH  29  30
ATOM     30  N   UNL A   1      32.451  36.464  30.842  1.00  0.00    -0.352 N 
ATOM     31  C   UNL A   1      32.570  35.746  32.004  1.00  0.00     0.251 C 
ATOM     32  H   UNL A   1      31.698  37.098  30.812  1.00  0.00     0.163 HD
ATOM     33  O   UNL A   1      31.663  35.742  32.827  1.00  0.00    -0.269 OA
BRANCH  31  34
ATOM     34  C   UNL A   1      33.794  34.958  32.250  1.00  0.00     0.039 A 
ATOM     35  C   UNL A   1      35.036  35.584  32.123  1.00  0.00     0.014 A 
ATOM     36  C   UNL A   1      33.717  33.609  32.609  1.00  0.00     0.014 A 
ATOM     37  C   UNL A   1      36.199  34.871  32.416  1.00  0.00     0.010 A 
ATOM     38  C   UNL A   1      34.870  32.924  32.978  1.00  0.00     0.010 A 
ATOM     39  C   UNL A   1      36.124  33.548  32.883  1.00  0.00    -0.014 A 
BRANCH  39  40
ATOM     40  C   UNL A   1      37.345  32.807  33.286  1.00  0.00     0.031 A 
ATOM     41  C   UNL A   1      38.039  33.135  34.579  1.00  0.00     0.074 A 
ATOM     42  C   UNL A   1      37.862  31.881  32.456  1.00  0.00     0.049 A 
ATOM     43  N   UNL A   1      39.146  32.640  35.072  1.00  0.00    -0.248 NA
ATOM     44  C   UNL A   1      37.422  34.174  35.416  1.00  0.00     0.031 C 
ATOM     45  C   UNL A   1      37.304  31.507  31.155  1.00  0.00     0.029 A 
ATOM     46  N   UNL A   1      38.976  31.089  32.579  1.00  0.00    -0.354 N 
ATOM     47  C   UNL A   1      39.359  33.309  36.270  1.00  0.00     0.074 A 
ATOM     48  C   UNL A   1      38.302  34.289  36.399  1.00  0.00     0.031 C 
ATOM     49  C   UNL A   1      38.062  30.541  30.612  1.00  0.00     0.029 A 
ATOM     50  C   UNL A   1      39.183  30.259  31.504  1.00  0.00     0.049 A 
ATOM     51  H   UNL A   1      39.571  31.114  33.363  1.00  0.00     0.167 HD
ATOM     52  C   UNL A   1      40.334  33.108  37.188  1.00  0.00     0.037 A 
ATOM     53  C   UNL A   1      40.171  29.377  31.260  1.00  0.00     0.037 A 
ATOM     54  C   UNL A   1      41.375  32.122  37.059  1.00  0.00     0.049 A 
ATOM     55  C   UNL A   1      41.258  29.195  32.285  1.00  0.00     0.074 A 
ATOM     56  C   UNL A   1      42.377  31.804  37.958  1.00  0.00     0.029 A 
ATOM     57  N   UNL A   1      41.552  31.299  35.955  1.00  0.00    -0.354 N 
ATOM     58  N   UNL A   1      41.410  29.784  33.446  1.00  0.00    -0.248 NA
ATOM     59  C   UNL A   1      42.309  28.219  31.966  1.00  0.00     0.031 C 
ATOM     60  C   UNL A   1      43.196  30.831  37.375  1.00  0.00     0.029 A 
ATOM     61  C   UNL A   1      42.666  30.495  36.139  1.00  0.00     0.049 A 
ATOM     62  H   UNL A   1      40.972  31.287  35.161  1.00  0.00     0.167 HD
ATOM     63  C   UNL A   1      42.553  29.232  34.009  1.00  0.00     0.074 A 
ATOM     64  C   UNL A   1      43.045  28.246  33.068  1.00  0.00     0.031 C 
ATOM     65  C   UNL A   1      43.143  29.516  35.196  1.00  0.00     0.037 A 
BRANCH  52  66
ATOM     66  C   UNL A   1      40.322  33.973  38.416  1.00  0.00     0.064 A 
ATOM     67  C   UNL A   1      39.594  33.618  39.563  1.00  0.00     0.173 A 
ATOM     68  C   UNL A   1      41.080  35.154  38.464  1.00  0.00     0.173 A 
ATOM     69  F   UNL A   1      38.844  32.505  39.568  1.00  0.00    -0.203 F 
ATOM     70  C   UNL A   1      39.600  34.427  40.696  1.00  0.00     0.198 A 
ATOM     71  C   UNL A   1      41.110  35.941  39.611  1.00  0.00     0.198 A 
ATOM     72  F   UNL A   1      41.799  35.539  37.399  1.00  0.00    -0.203 F 
ATOM     73  F   UNL A   1      38.854  34.093  41.759  1.00  0.00    -0.200 F 
ATOM     74  C   UNL A   1      40.364  35.583  40.722  1.00  0.00     0.200 A 
ATOM     75  F   UNL A   1      41.863  37.051  39.640  1.00  0.00    -0.200 F 
ATOM     76  F   UNL A   1      40.376  36.355  41.818  1.00  0.00    -0.200 F 
ENDBRANCH  52  66
BRANCH  53  77
ATOM     77  C   UNL A   1      40.169  28.587  30.000  1.00  0.00     0.064 A 
ATOM     78  C   UNL A   1      40.817  29.061  28.852  1.00  0.00     0.173 A 
ATOM     79  C   UNL A   1      39.513  27.351  29.915  1.00  0.00     0.173 A 
ATOM     80  F   UNL A   1      41.442  30.248  28.877  1.00  0.00    -0.203 F 
ATOM     81  C   UNL A   1      40.788  28.341  27.659  1.00  0.00     0.198 A 
ATOM     82  C   UNL A   1      39.511  26.616  28.730  1.00  0.00     0.198 A 
ATOM     83  F   UNL A   1      38.881  26.848  30.986  1.00  0.00    -0.203 F 
ATOM     84  F   UNL A   1      41.371  28.843  26.562  1.00  0.00    -0.200 F 
ATOM     85  C   UNL A   1      40.141  27.116  27.601  1.00  0.00     0.200 A 
ATOM     86  F   UNL A   1      38.899  25.425  28.684  1.00  0.00    -0.200 F 
ATOM     87  F   UNL A   1      40.116  26.423  26.455  1.00  0.00    -0.200 F 
ENDBRANCH  53  77
BRANCH  65  88
ATOM     88  C   UNL A   1      44.367  28.726  35.563  1.00  0.00     0.064 A 
ATOM     89  C   UNL A   1      44.283  27.522  36.277  1.00  0.00     0.173 A 
ATOM     90  C   UNL A   1      45.640  29.163  35.163  1.00  0.00     0.173 A 
ATOM     91  F   UNL A   1      43.093  27.067  36.696  1.00  0.00    -0.203 F 
ATOM     92  C   UNL A   1      45.429  26.800  36.601  1.00  0.00     0.198 A 
ATOM     93  C   UNL A   1      46.780  28.421  35.458  1.00  0.00     0.198 A 
ATOM     94  F   UNL A   1      45.777  30.305  34.472  1.00  0.00    -0.203 F 
ATOM     95  F   UNL A   1      45.328  25.680  37.330  1.00  0.00    -0.200 F 
ATOM     96  C   UNL A   1      46.675  27.244  36.184  1.00  0.00     0.200 A 
ATOM     97  F   UNL A   1      47.981  28.844  35.038  1.00  0.00    -0.200 F 
ATOM     98  F   UNL A   1      47.775  26.543  36.488  1.00  0.00    -0.200 F 
ENDBRANCH  65  88
ENDBRANCH  39  40
ENDBRANCH  31  34
ENDBRANCH  29  30
ENDBRANCH  28  29
ENDBRANCH  27  28
ENDBRANCH   1  27
TORSDOF 15
ENDMDL
MODEL 3
REMARK VINA RESULT:     -11.6      6.443     11.097
REMARK SMILES C[NH+]1CCC(NC(=O)N[C@@H]2C=C[C@H](C(=O)NCCCCCCNC(=O)c3ccc(-c4c5nc(c(-c6c(F)c(F)c(F)c(F)c6F)c6ccc([nH]6)c(-c6c(F)c(F)c(F)c(F)c6F)c6nc(c(-c7c(F)c(F)c(F)c(F)c7F)c7ccc4[nH]7)C=C6)C=C5)cc3)C2)CC1
REMARK SMILES IDX 19 1 18 2 17 3 16 4 14 5 15 6 13 8 10 9 11 10 89 11 12 12
REMARK SMILES IDX 9 13 6 14 7 15 8 17 5 19 1 20 2 21 3 22 91 23 4 25 90 26
REMARK SMILES IDX 20 27 21 28 22 29 23 30 24 31 25 33 26 34 27 35 88 36 28 37
REMARK SMILES IDX 87 38 29 39 30 40 31 41 81 42 32 43 86 44 80 45 82 46 33 47
REMARK SMILES IDX 85 48 79 49 78 50 34 52 66 53 46 54 65 55 47 56 50 57 64 58
REMARK SMILES IDX 83 59 48 60 49 61 63 63 84 64 51 65 35 66 36 67 44 68 37 69
REMARK SMILES IDX 38 70 42 71 45 72 39 73 40 74 43 75 41 76 67 77 68 78 76 79
REMARK SMILES IDX 69 80 70 81 74 82 77 83 71 84 72 85 75 86 73 87 52 88 53 89
REMARK SMILES IDX 61 90 54 91 55 92 59 93 62 94 56 95 57 96 60 97 58 98
REMARK H PARENT 16 7 6 16 9 18 2 24 23 32 82 51 50 62
REMARK Flexibility Score: inf
ROOT
ATOM      1  C   UNL A   1      38.195  23.365  26.531  1.00  0.00     0.002 C 
ENDROOT
BRANCH   1   2
ATOM      2  C   UNL A   1      37.110  23.681  25.493  1.00  0.00     0.021 C 
BRANCH   2   3
ATOM      3  C   UNL A   1      37.025  22.645  24.372  1.00  0.00     0.116 C 
BRANCH   3   4
ATOM      4  N   UNL A   1      36.220  21.515  24.786  1.00  0.00    -0.356 N 
ATOM      5  C   UNL A   1      34.863  21.381  24.762  1.00  0.00     0.227 C 
ATOM      6  O   UNL A   1      34.358  20.386  25.280  1.00  0.00    -0.274 OA
ATOM      7  H   UNL A   1      36.719  20.740  25.131  1.00  0.00     0.163 HD
BRANCH   5   8
ATOM      8  C   UNL A   1      34.052  22.437  24.025  1.00  0.00     0.103 C 
ATOM      9  C   UNL A   1      31.823  23.223  24.695  1.00  0.00     0.107 C 
ATOM     10  C   UNL A   1      31.755  22.132  23.677  1.00  0.00    -0.006 C 
ATOM     11  C   UNL A   1      33.318  23.379  24.985  1.00  0.00     0.047 C 
ATOM     12  C   UNL A   1      32.963  21.726  23.285  1.00  0.00    -0.016 C 
BRANCH   9  13
ATOM     13  N   UNL A   1      31.031  22.842  25.837  1.00  0.00    -0.332 N 
ATOM     14  N   UNL A   1      29.940  24.836  26.513  1.00  0.00    -0.335 N 
ATOM     15  C   UNL A   1      30.220  23.526  26.662  1.00  0.00     0.315 C 
ATOM     16  H   UNL A   1      29.334  25.197  27.201  1.00  0.00     0.165 HD
ATOM     17  O   UNL A   1      29.698  22.924  27.602  1.00  0.00    -0.249 OA
ATOM     18  H   UNL A   1      31.099  21.885  26.058  1.00  0.00     0.165 HD
BRANCH  14  19
ATOM     19  C   UNL A   1      30.363  25.811  25.529  1.00  0.00     0.095 C 
ATOM     20  C   UNL A   1      31.392  28.946  22.933  1.00  0.00     0.332 C 
ATOM     21  N   UNL A   1      30.682  28.242  24.005  1.00  0.00    -0.337 N 
ATOM     22  C   UNL A   1      31.629  27.897  25.076  1.00  0.00     0.264 C 
ATOM     23  C   UNL A   1      29.966  27.077  23.456  1.00  0.00     0.264 C 
ATOM     24  H   UNL A   1      29.971  28.845  24.418  1.00  0.00     0.347 HD
ATOM     25  C   UNL A   1      30.989  27.045  26.170  1.00  0.00     0.086 C 
ATOM     26  C   UNL A   1      29.281  26.246  24.551  1.00  0.00     0.086 C 
ENDBRANCH  14  19
ENDBRANCH   9  13
ENDBRANCH   5   8
ENDBRANCH   3   4
ENDBRANCH   2   3
ENDBRANCH   1   2
BRANCH   1  27
ATOM     27  C   UNL A   1      39.380  22.558  25.990  1.00  0.00     0.002 C 
BRANCH  27  28
ATOM     28  C   UNL A   1      39.476  21.130  26.528  1.00  0.00     0.021 C 
BRANCH  28  29
ATOM     29  C   UNL A   1      39.563  20.063  25.445  1.00  0.00     0.116 C 
BRANCH  29  30
ATOM     30  N   UNL A   1      40.509  19.015  25.793  1.00  0.00    -0.352 N 
ATOM     31  C   UNL A   1      41.832  19.120  26.137  1.00  0.00     0.251 C 
ATOM     32  H   UNL A   1      40.147  18.099  25.779  1.00  0.00     0.163 HD
ATOM     33  O   UNL A   1      42.541  18.123  26.188  1.00  0.00    -0.269 OA
BRANCH  31  34
ATOM     34  C   UNL A   1      42.405  20.449  26.428  1.00  0.00     0.039 A 
ATOM     35  C   UNL A   1      42.864  21.233  25.367  1.00  0.00     0.014 A 
ATOM     36  C   UNL A   1      42.484  20.923  27.741  1.00  0.00     0.014 A 
ATOM     37  C   UNL A   1      43.347  22.517  25.619  1.00  0.00     0.010 A 
ATOM     38  C   UNL A   1      42.890  22.231  27.981  1.00  0.00     0.010 A 
ATOM     39  C   UNL A   1      43.328  23.042  26.922  1.00  0.00    -0.014 A 
BRANCH  39  40
ATOM     40  C   UNL A   1      43.752  24.438  27.193  1.00  0.00     0.031 A 
ATOM     41  C   UNL A   1      42.761  25.447  27.700  1.00  0.00     0.074 A 
ATOM     42  C   UNL A   1      45.018  24.810  26.921  1.00  0.00     0.049 A 
ATOM     43  N   UNL A   1      42.928  26.723  27.939  1.00  0.00    -0.248 NA
ATOM     44  C   UNL A   1      41.394  24.965  27.949  1.00  0.00     0.031 C 
ATOM     45  C   UNL A   1      46.059  23.932  26.384  1.00  0.00     0.029 A 
ATOM     46  N   UNL A   1      45.643  26.023  27.055  1.00  0.00    -0.354 N 
ATOM     47  C   UNL A   1      41.691  27.195  28.359  1.00  0.00     0.074 A 
ATOM     48  C   UNL A   1      40.767  26.084  28.283  1.00  0.00     0.031 C 
ATOM     49  C   UNL A   1      47.200  24.628  26.258  1.00  0.00     0.029 A 
ATOM     50  C   UNL A   1      46.960  26.010  26.663  1.00  0.00     0.049 A 
ATOM     51  H   UNL A   1      45.192  26.828  27.398  1.00  0.00     0.167 HD
ATOM     52  C   UNL A   1      41.362  28.436  28.791  1.00  0.00     0.037 A 
ATOM     53  C   UNL A   1      47.869  27.003  26.624  1.00  0.00     0.037 A 
ATOM     54  C   UNL A   1      42.289  29.534  28.876  1.00  0.00     0.049 A 
ATOM     55  C   UNL A   1      47.468  28.380  27.082  1.00  0.00     0.074 A 
ATOM     56  C   UNL A   1      42.067  30.815  29.350  1.00  0.00     0.029 A 
ATOM     57  N   UNL A   1      43.615  29.483  28.469  1.00  0.00    -0.354 N 
ATOM     58  N   UNL A   1      46.314  28.797  27.543  1.00  0.00    -0.248 NA
ATOM     59  C   UNL A   1      48.500  29.424  27.019  1.00  0.00     0.031 C 
ATOM     60  C   UNL A   1      43.241  31.555  29.177  1.00  0.00     0.029 A 
ATOM     61  C   UNL A   1      44.214  30.719  28.655  1.00  0.00     0.049 A 
ATOM     62  H   UNL A   1      44.064  28.686  28.106  1.00  0.00     0.167 HD
ATOM     63  C   UNL A   1      46.488  30.140  27.852  1.00  0.00     0.074 A 
ATOM     64  C   UNL A   1      47.866  30.462  27.542  1.00  0.00     0.031 C 
ATOM     65  C   UNL A   1      45.588  31.025  28.345  1.00  0.00     0.037 A 
BRANCH  52  66
ATOM     66  C   UNL A   1      39.937  28.673  29.203  1.00  0.00     0.064 A 
ATOM     67  C   UNL A   1      39.498  28.432  30.514  1.00  0.00     0.173 A 
ATOM     68  C   UNL A   1      39.006  29.189  28.287  1.00  0.00     0.173 A 
ATOM     69  F   UNL A   1      40.344  27.929  31.427  1.00  0.00    -0.203 F 
ATOM     70  C   UNL A   1      38.176  28.665  30.884  1.00  0.00     0.198 A 
ATOM     71  C   UNL A   1      37.694  29.453  28.670  1.00  0.00     0.198 A 
ATOM     72  F   UNL A   1      39.373  29.444  27.022  1.00  0.00    -0.203 F 
ATOM     73  F   UNL A   1      37.768  28.376  32.127  1.00  0.00    -0.200 F 
ATOM     74  C   UNL A   1      37.278  29.183  29.964  1.00  0.00     0.200 A 
ATOM     75  F   UNL A   1      36.831  29.969  27.783  1.00  0.00    -0.200 F 
ATOM     76  F   UNL A   1      36.008  29.417  30.323  1.00  0.00    -0.200 F 
ENDBRANCH  52  66
BRANCH  53  77
ATOM     77  C   UNL A   1      49.252  26.729  26.150  1.00  0.00     0.064 A 
ATOM     78  C   UNL A   1      49.618  26.969  24.819  1.00  0.00     0.173 A 
ATOM     79  C   UNL A   1      50.230  26.212  27.012  1.00  0.00     0.173 A 
ATOM     80  F   UNL A   1      48.712  27.444  23.951  1.00  0.00    -0.203 F 
ATOM     81  C   UNL A   1      50.902  26.680  24.362  1.00  0.00     0.198 A 
ATOM     82  C   UNL A   1      51.523  25.954  26.562  1.00  0.00     0.198 A 
ATOM     83  F   UNL A   1      49.934  25.969  28.297  1.00  0.00    -0.203 F 
ATOM     84  F   UNL A   1      51.210  26.870  23.071  1.00  0.00    -0.200 F 
ATOM     85  C   UNL A   1      51.856  26.179  25.235  1.00  0.00     0.200 A 
ATOM     86  F   UNL A   1      52.446  25.486  27.413  1.00  0.00    -0.200 F 
ATOM     87  F   UNL A   1      53.091  25.904  24.795  1.00  0.00    -0.200 F 
ENDBRANCH  53  77
BRANCH  65  88
ATOM     88  C   UNL A   1      46.073  32.421  28.616  1.00  0.00     0.064 A 
ATOM     89  C   UNL A   1      45.995  33.431  27.646  1.00  0.00     0.173 A 
ATOM     90  C   UNL A   1      46.588  32.762  29.877  1.00  0.00     0.173 A 
ATOM     91  F   UNL A   1      45.524  33.156  26.420  1.00  0.00    -0.203 F 
ATOM     92  C   UNL A   1      46.442  34.722  27.919  1.00  0.00     0.198 A 
ATOM     93  C   UNL A   1      47.001  34.061  30.157  1.00  0.00     0.198 A 
ATOM     94  F   UNL A   1      46.678  31.836  30.843  1.00  0.00    -0.203 F 
ATOM     95  F   UNL A   1      46.408  35.657  26.959  1.00  0.00    -0.200 F 
ATOM     96  C   UNL A   1      46.936  35.038  29.175  1.00  0.00     0.200 A 
ATOM     97  F   UNL A   1      47.461  34.368  31.378  1.00  0.00    -0.200 F 
ATOM     98  F   UNL A   1      47.356  36.283  29.438  1.00  0.00    -0.200 F 
ENDBRANCH  65  88
ENDBRANCH  39  40
ENDBRANCH  31  34
ENDBRANCH  29  30
ENDBRANCH  28  29
ENDBRANCH  27  28
ENDBRANCH   1  27
TORSDOF 15
ENDMDL
