MODEL 1
REMARK VINA RESULT:     -12.5      0.000      0.000
REMARK SMILES CC(C)C[C@H](Nc1ncnc2scc(-c3ccccc3)c12)C(=O)NCCCCCCNC(=O)c1ccc(-c2c3nc(c(-c4c(F)c(F)c(F)c(F)c4F)c4ccc([nH]4)c(-c4c(F)c(F)c(F)c(F)c4F)c4nc(c(-c5c(F)c(F)c(F)c(F)c5F)c5ccc2[nH]5)C=C4)C=C3)cc1
REMARK SMILES IDX 27 1 26 2 25 3 24 4 22 5 23 6 5 8 4 9 2 10 1 11 3 12 6 13
REMARK SMILES IDX 7 15 8 16 21 17 9 18 11 19 14 20 10 21 12 22 13 23 15 24
REMARK SMILES IDX 16 25 20 26 17 27 19 28 18 29 28 30 29 31 30 32 31 33 32 34
REMARK SMILES IDX 33 36 34 37 35 38 96 39 36 40 95 41 37 42 38 43 39 44 89 45
REMARK SMILES IDX 40 46 94 47 88 48 90 49 41 50 93 51 87 52 86 53 42 55 74 56
REMARK SMILES IDX 54 57 73 58 55 59 58 60 72 61 91 62 56 63 57 64 71 66 92 67
REMARK SMILES IDX 59 68 43 69 44 70 52 71 45 72 46 73 50 74 53 75 47 76 48 77
REMARK SMILES IDX 51 78 49 79 75 80 76 81 84 82 77 83 78 84 82 85 85 86 79 87
REMARK SMILES IDX 80 88 83 89 81 90 60 91 61 92 69 93 62 94 63 95 67 96 70 97
REMARK SMILES IDX 64 98 65 99 68 100 66 101
REMARK H PARENT 24 7 6 14 31 35 90 54 58 65
REMARK Flexibility Score: inf
ROOT
ATOM      1  C   UNL A   1      32.501  29.919  27.074  1.00  0.00     0.002 C 
ENDROOT
BRANCH   1   2
ATOM      2  C   UNL A   1      31.808  28.673  27.616  1.00  0.00     0.021 C 
BRANCH   2   3
ATOM      3  C   UNL A   1      31.817  27.469  26.683  1.00  0.00     0.116 C 
BRANCH   3   4
ATOM      4  N   UNL A   1      30.760  26.518  26.950  1.00  0.00    -0.354 N 
ATOM      5  C   UNL A   1      30.004  25.760  26.102  1.00  0.00     0.242 C 
ATOM      6  O   UNL A   1      29.198  24.990  26.641  1.00  0.00    -0.273 OA
ATOM      7  H   UNL A   1      30.551  26.397  27.903  1.00  0.00     0.163 HD
BRANCH   5   8
ATOM      8  C   UNL A   1      30.077  25.848  24.553  1.00  0.00     0.170 C 
BRANCH   8   9
ATOM      9  C   UNL A   1      28.903  26.558  23.848  1.00  0.00     0.038 C 
BRANCH   9  10
ATOM     10  C   UNL A   1      29.145  27.848  23.034  1.00  0.00    -0.015 C 
ATOM     11  C   UNL A   1      27.933  28.786  23.021  1.00  0.00     0.007 C 
ATOM     12  C   UNL A   1      30.341  28.623  23.601  1.00  0.00     0.007 C 
ENDBRANCH   9  10
ENDBRANCH   8   9
BRANCH   8  13
ATOM     13  N   UNL A   1      30.671  24.637  23.943  1.00  0.00    -0.358 N 
ATOM     14  H   UNL A   1      30.474  24.479  22.992  1.00  0.00     0.162 HD
BRANCH  13  15
ATOM     15  C   UNL A   1      31.467  23.712  24.568  1.00  0.00     0.139 A 
ATOM     16  N   UNL A   1      30.888  22.559  24.966  1.00  0.00    -0.219 NA
ATOM     17  C   UNL A   1      32.845  23.920  24.862  1.00  0.00     0.062 A 
ATOM     18  C   UNL A   1      31.594  21.655  25.649  1.00  0.00     0.225 A 
ATOM     19  C   UNL A   1      33.421  22.914  25.640  1.00  0.00     0.129 A 
ATOM     20  C   UNL A   1      33.829  24.981  24.607  1.00  0.00     0.006 A 
ATOM     21  N   UNL A   1      32.850  21.773  26.054  1.00  0.00    -0.225 NA
ATOM     22  S   UNL A   1      35.008  23.256  26.136  1.00  0.00    -0.123 S 
ATOM     23  C   UNL A   1      35.002  24.738  25.310  1.00  0.00     0.076 A 
BRANCH  20  24
ATOM     24  C   UNL A   1      33.741  26.249  23.859  1.00  0.00    -0.017 A 
ATOM     25  C   UNL A   1      33.520  26.252  22.476  1.00  0.00     0.009 A 
ATOM     26  C   UNL A   1      33.991  27.481  24.469  1.00  0.00     0.009 A 
ATOM     27  C   UNL A   1      33.576  27.444  21.740  1.00  0.00     0.001 A 
ATOM     28  C   UNL A   1      34.036  28.675  23.749  1.00  0.00     0.001 A 
ATOM     29  C   UNL A   1      33.837  28.655  22.377  1.00  0.00     0.000 A 
ENDBRANCH  20  24
ENDBRANCH  13  15
ENDBRANCH   8  13
ENDBRANCH   5   8
ENDBRANCH   3   4
ENDBRANCH   2   3
ENDBRANCH   1   2
BRANCH   1  30
ATOM     30  C   UNL A   1      31.642  30.755  26.129  1.00  0.00     0.002 C 
BRANCH  30  31
ATOM     31  C   UNL A   1      31.416  32.200  26.578  1.00  0.00     0.021 C 
BRANCH  31  32
ATOM     32  C   UNL A   1      32.580  32.821  27.342  1.00  0.00     0.116 C 
BRANCH  32  33
ATOM     33  N   UNL A   1      32.351  34.226  27.634  1.00  0.00    -0.352 N 
ATOM     34  C   UNL A   1      32.951  35.006  28.587  1.00  0.00     0.251 C 
ATOM     35  H   UNL A   1      31.677  34.675  27.075  1.00  0.00     0.163 HD
ATOM     36  O   UNL A   1      32.508  36.119  28.861  1.00  0.00    -0.269 OA
BRANCH  34  37
ATOM     37  C   UNL A   1      34.133  34.484  29.297  1.00  0.00     0.039 A 
ATOM     38  C   UNL A   1      33.959  33.832  30.519  1.00  0.00     0.014 A 
ATOM     39  C   UNL A   1      35.408  34.615  28.736  1.00  0.00     0.014 A 
ATOM     40  C   UNL A   1      35.061  33.265  31.158  1.00  0.00     0.010 A 
ATOM     41  C   UNL A   1      36.491  33.983  29.336  1.00  0.00     0.010 A 
ATOM     42  C   UNL A   1      36.331  33.309  30.557  1.00  0.00    -0.014 A 
BRANCH  42  43
ATOM     43  C   UNL A   1      37.510  32.671  31.194  1.00  0.00     0.031 A 
ATOM     44  C   UNL A   1      38.209  31.535  30.499  1.00  0.00     0.074 A 
ATOM     45  C   UNL A   1      37.905  33.064  32.422  1.00  0.00     0.049 A 
ATOM     46  N   UNL A   1      39.192  30.783  30.925  1.00  0.00    -0.248 NA
ATOM     47  C   UNL A   1      37.724  31.179  29.155  1.00  0.00     0.031 C 
ATOM     48  C   UNL A   1      37.285  34.131  33.209  1.00  0.00     0.029 A 
ATOM     49  N   UNL A   1      38.915  32.601  33.228  1.00  0.00    -0.354 N 
ATOM     50  C   UNL A   1      39.421  29.855  29.918  1.00  0.00     0.074 A 
ATOM     51  C   UNL A   1      38.453  30.109  28.876  1.00  0.00     0.031 C 
ATOM     52  C   UNL A   1      37.936  34.250  34.378  1.00  0.00     0.029 A 
ATOM     53  C   UNL A   1      38.987  33.240  34.443  1.00  0.00     0.049 A 
ATOM     54  H   UNL A   1      39.529  31.879  32.962  1.00  0.00     0.167 HD
ATOM     55  C   UNL A   1      40.368  28.888  29.864  1.00  0.00     0.037 A 
ATOM     56  C   UNL A   1      39.799  33.020  35.496  1.00  0.00     0.037 A 
ATOM     57  C   UNL A   1      41.355  28.667  30.887  1.00  0.00     0.049 A 
ATOM     58  C   UNL A   1      40.831  31.924  35.409  1.00  0.00     0.074 A 
ATOM     59  C   UNL A   1      42.407  27.769  30.886  1.00  0.00     0.029 A 
ATOM     60  N   UNL A   1      41.408  29.347  32.094  1.00  0.00    -0.354 N 
ATOM     61  N   UNL A   1      41.094  31.111  34.415  1.00  0.00    -0.248 NA
ATOM     62  C   UNL A   1      41.680  31.718  36.590  1.00  0.00     0.031 C 
ATOM     63  C   UNL A   1      43.057  27.857  32.119  1.00  0.00     0.029 A 
ATOM     64  C   UNL A   1      42.455  28.860  32.860  1.00  0.00     0.049 A 
ATOM     65  H   UNL A   1      40.794  30.065  32.367  1.00  0.00     0.167 HD
ATOM     66  C   UNL A   1      42.164  30.330  34.834  1.00  0.00     0.074 A 
ATOM     67  C   UNL A   1      42.509  30.775  36.168  1.00  0.00     0.031 C 
ATOM     68  C   UNL A   1      42.804  29.335  34.174  1.00  0.00     0.037 A 
BRANCH  55  69
ATOM     69  C   UNL A   1      40.392  27.986  28.665  1.00  0.00     0.064 A 
ATOM     70  C   UNL A   1      41.128  28.303  27.514  1.00  0.00     0.173 A 
ATOM     71  C   UNL A   1      39.739  26.744  28.705  1.00  0.00     0.173 A 
ATOM     72  F   UNL A   1      41.763  29.481  27.421  1.00  0.00    -0.203 F 
ATOM     73  C   UNL A   1      41.198  27.416  26.443  1.00  0.00     0.198 A 
ATOM     74  C   UNL A   1      39.836  25.848  27.645  1.00  0.00     0.198 A 
ATOM     75  F   UNL A   1      39.025  26.390  29.785  1.00  0.00    -0.203 F 
ATOM     76  F   UNL A   1      41.880  27.754  25.340  1.00  0.00    -0.200 F 
ATOM     77  C   UNL A   1      40.562  26.186  26.513  1.00  0.00     0.200 A 
ATOM     78  F   UNL A   1      39.236  24.652  27.723  1.00  0.00    -0.200 F 
ATOM     79  F   UNL A   1      40.650  25.324  25.491  1.00  0.00    -0.200 F 
ENDBRANCH  55  69
BRANCH  56  80
ATOM     80  C   UNL A   1      39.681  33.844  36.731  1.00  0.00     0.064 A 
ATOM     81  C   UNL A   1      38.881  33.425  37.804  1.00  0.00     0.173 A 
ATOM     82  C   UNL A   1      40.314  35.091  36.841  1.00  0.00     0.173 A 
ATOM     83  F   UNL A   1      38.237  32.250  37.740  1.00  0.00    -0.203 F 
ATOM     84  C   UNL A   1      38.683  34.239  38.917  1.00  0.00     0.198 A 
ATOM     85  C   UNL A   1      40.145  35.888  37.972  1.00  0.00     0.198 A 
ATOM     86  F   UNL A   1      41.096  35.540  35.849  1.00  0.00    -0.203 F 
ATOM     87  F   UNL A   1      37.852  33.845  39.892  1.00  0.00    -0.200 F 
ATOM     88  C   UNL A   1      39.316  35.469  39.002  1.00  0.00     0.200 A 
ATOM     89  F   UNL A   1      40.773  37.069  38.056  1.00  0.00    -0.200 F 
ATOM     90  F   UNL A   1      39.117  36.256  40.067  1.00  0.00    -0.200 F 
ENDBRANCH  56  80
BRANCH  68  91
ATOM     91  C   UNL A   1      43.986  28.699  34.849  1.00  0.00     0.064 A 
ATOM     92  C   UNL A   1      43.861  27.534  35.620  1.00  0.00     0.173 A 
ATOM     93  C   UNL A   1      45.270  29.235  34.672  1.00  0.00     0.173 A 
ATOM     94  F   UNL A   1      42.653  26.989  35.831  1.00  0.00    -0.203 F 
ATOM     95  C   UNL A   1      44.976  26.943  36.208  1.00  0.00     0.198 A 
ATOM     96  C   UNL A   1      46.387  28.622  35.232  1.00  0.00     0.198 A 
ATOM     97  F   UNL A   1      45.446  30.343  33.937  1.00  0.00    -0.203 F 
ATOM     98  F   UNL A   1      44.827  25.859  36.980  1.00  0.00    -0.200 F 
ATOM     99  C   UNL A   1      46.239  27.482  36.005  1.00  0.00     0.200 A 
ATOM    100  F   UNL A   1      47.608  29.133  35.018  1.00  0.00    -0.200 F 
ATOM    101  F   UNL A   1      47.312  26.902  36.560  1.00  0.00    -0.200 F 
ENDBRANCH  68  91
ENDBRANCH  42  43
ENDBRANCH  34  37
ENDBRANCH  32  33
ENDBRANCH  31  32
ENDBRANCH  30  31
ENDBRANCH   1  30
TORSDOF 18
ENDMDL
MODEL 2
REMARK VINA RESULT:     -11.6      1.709      7.511
REMARK SMILES CC(C)C[C@H](Nc1ncnc2scc(-c3ccccc3)c12)C(=O)NCCCCCCNC(=O)c1ccc(-c2c3nc(c(-c4c(F)c(F)c(F)c(F)c4F)c4ccc([nH]4)c(-c4c(F)c(F)c(F)c(F)c4F)c4nc(c(-c5c(F)c(F)c(F)c(F)c5F)c5ccc2[nH]5)C=C4)C=C3)cc1
REMARK SMILES IDX 27 1 26 2 25 3 24 4 22 5 23 6 5 8 4 9 2 10 1 11 3 12 6 13
REMARK SMILES IDX 7 15 8 16 21 17 9 18 11 19 14 20 10 21 12 22 13 23 15 24
REMARK SMILES IDX 16 25 20 26 17 27 19 28 18 29 28 30 29 31 30 32 31 33 32 34
REMARK SMILES IDX 33 36 34 37 35 38 96 39 36 40 95 41 37 42 38 43 39 44 89 45
REMARK SMILES IDX 40 46 94 47 88 48 90 49 41 50 93 51 87 52 86 53 42 55 74 56
REMARK SMILES IDX 54 57 73 58 55 59 58 60 72 61 91 62 56 63 57 64 71 66 92 67
REMARK SMILES IDX 59 68 43 69 44 70 52 71 45 72 46 73 50 74 53 75 47 76 48 77
REMARK SMILES IDX 51 78 49 79 75 80 76 81 84 82 77 83 78 84 82 85 85 86 79 87
REMARK SMILES IDX 80 88 83 89 81 90 60 91 61 92 69 93 62 94 63 95 67 96 70 97
REMARK SMILES IDX 64 98 65 99 68 100 66 101
REMARK H PARENT 24 7 6 14 31 35 90 54 58 65
REMARK Flexibility Score: inf
ROOT
ATOM      1  C   UNL A   1      34.769  32.667  29.005  1.00  0.00     0.002 C 
ENDROOT
BRANCH   1   2
ATOM      2  C   UNL A   1      34.387  32.135  27.628  1.00  0.00     0.021 C 
BRANCH   2   3
ATOM      3  C   UNL A   1      33.585  30.840  27.632  1.00  0.00     0.116 C 
BRANCH   3   4
ATOM      4  N   UNL A   1      32.547  30.795  26.626  1.00  0.00    -0.354 N 
ATOM      5  C   UNL A   1      31.988  29.739  25.965  1.00  0.00     0.242 C 
ATOM      6  O   UNL A   1      31.070  30.017  25.183  1.00  0.00    -0.273 OA
ATOM      7  H   UNL A   1      32.183  31.673  26.376  1.00  0.00     0.163 HD
BRANCH   5   8
ATOM      8  C   UNL A   1      32.463  28.267  26.113  1.00  0.00     0.170 C 
BRANCH   8   9
ATOM      9  C   UNL A   1      33.693  27.854  25.279  1.00  0.00     0.038 C 
BRANCH   9  10
ATOM     10  C   UNL A   1      33.558  27.594  23.762  1.00  0.00    -0.015 C 
ATOM     11  C   UNL A   1      34.363  28.580  22.909  1.00  0.00     0.007 C 
ATOM     12  C   UNL A   1      34.026  26.173  23.419  1.00  0.00     0.007 C 
ENDBRANCH   9  10
ENDBRANCH   8   9
BRANCH   8  13
ATOM     13  N   UNL A   1      31.336  27.320  26.270  1.00  0.00    -0.358 N 
ATOM     14  H   UNL A   1      30.462  27.708  26.503  1.00  0.00     0.162 HD
BRANCH  13  15
ATOM     15  C   UNL A   1      31.385  25.958  26.125  1.00  0.00     0.139 A 
ATOM     16  N   UNL A   1      31.916  25.242  27.140  1.00  0.00    -0.219 NA
ATOM     17  C   UNL A   1      30.957  25.268  24.955  1.00  0.00     0.062 A 
ATOM     18  C   UNL A   1      32.063  23.921  27.022  1.00  0.00     0.225 A 
ATOM     19  C   UNL A   1      31.242  23.901  24.961  1.00  0.00     0.129 A 
ATOM     20  C   UNL A   1      30.334  25.644  23.678  1.00  0.00     0.006 A 
ATOM     21  N   UNL A   1      31.783  23.184  25.957  1.00  0.00    -0.225 NA
ATOM     22  S   UNL A   1      30.893  23.122  23.493  1.00  0.00    -0.123 S 
ATOM     23  C   UNL A   1      30.321  24.564  22.804  1.00  0.00     0.076 A 
BRANCH  20  24
ATOM     24  C   UNL A   1      29.853  26.937  23.158  1.00  0.00    -0.017 A 
ATOM     25  C   UNL A   1      30.692  27.760  22.395  1.00  0.00     0.009 A 
ATOM     26  C   UNL A   1      28.599  27.447  23.500  1.00  0.00     0.009 A 
ATOM     27  C   UNL A   1      30.290  29.049  22.018  1.00  0.00     0.001 A 
ATOM     28  C   UNL A   1      28.182  28.723  23.121  1.00  0.00     0.001 A 
ATOM     29  C   UNL A   1      29.035  29.530  22.385  1.00  0.00     0.000 A 
ENDBRANCH  20  24
ENDBRANCH  13  15
ENDBRANCH   8  13
ENDBRANCH   5   8
ENDBRANCH   3   4
ENDBRANCH   2   3
ENDBRANCH   1   2
BRANCH   1  30
ATOM     30  C   UNL A   1      34.848  34.189  29.093  1.00  0.00     0.002 C 
BRANCH  30  31
ATOM     31  C   UNL A   1      33.494  34.902  29.094  1.00  0.00     0.021 C 
BRANCH  31  32
ATOM     32  C   UNL A   1      33.511  36.304  29.694  1.00  0.00     0.116 C 
BRANCH  32  33
ATOM     33  N   UNL A   1      32.513  36.460  30.738  1.00  0.00    -0.352 N 
ATOM     34  C   UNL A   1      32.464  35.854  31.966  1.00  0.00     0.251 C 
ATOM     35  H   UNL A   1      31.777  37.081  30.537  1.00  0.00     0.163 HD
ATOM     36  O   UNL A   1      31.452  35.917  32.660  1.00  0.00    -0.269 OA
BRANCH  34  37
ATOM     37  C   UNL A   1      33.642  35.105  32.441  1.00  0.00     0.039 A 
ATOM     38  C   UNL A   1      33.487  33.778  32.844  1.00  0.00     0.014 A 
ATOM     39  C   UNL A   1      34.903  35.710  32.456  1.00  0.00     0.014 A 
ATOM     40  C   UNL A   1      34.608  33.038  33.217  1.00  0.00     0.010 A 
ATOM     41  C   UNL A   1      36.027  34.950  32.755  1.00  0.00     0.010 A 
ATOM     42  C   UNL A   1      35.891  33.608  33.147  1.00  0.00    -0.014 A 
BRANCH  42  43
ATOM     43  C   UNL A   1      37.104  32.826  33.493  1.00  0.00     0.031 A 
ATOM     44  C   UNL A   1      37.843  33.122  34.770  1.00  0.00     0.074 A 
ATOM     45  C   UNL A   1      37.578  31.904  32.631  1.00  0.00     0.049 A 
ATOM     46  N   UNL A   1      38.970  32.623  35.209  1.00  0.00    -0.248 NA
ATOM     47  C   UNL A   1      37.250  34.132  35.661  1.00  0.00     0.031 C 
ATOM     48  C   UNL A   1      36.968  31.554  31.347  1.00  0.00     0.029 A 
ATOM     49  N   UNL A   1      38.691  31.103  32.699  1.00  0.00    -0.354 N 
ATOM     50  C   UNL A   1      39.231  33.275  36.407  1.00  0.00     0.074 A 
ATOM     51  C   UNL A   1      38.168  34.233  36.611  1.00  0.00     0.031 C 
ATOM     52  C   UNL A   1      37.705  30.599  30.756  1.00  0.00     0.029 A 
ATOM     53  C   UNL A   1      38.863  30.305  31.594  1.00  0.00     0.049 A 
ATOM     54  H   UNL A   1      39.308  31.102  33.466  1.00  0.00     0.167 HD
ATOM     55  C   UNL A   1      40.258  33.076  37.266  1.00  0.00     0.037 A 
ATOM     56  C   UNL A   1      39.856  29.446  31.286  1.00  0.00     0.037 A 
ATOM     57  C   UNL A   1      41.290  32.093  37.078  1.00  0.00     0.049 A 
ATOM     58  C   UNL A   1      40.993  29.262  32.258  1.00  0.00     0.074 A 
ATOM     59  C   UNL A   1      42.325  31.759  37.933  1.00  0.00     0.029 A 
ATOM     60  N   UNL A   1      41.421  31.289  35.956  1.00  0.00    -0.354 N 
ATOM     61  N   UNL A   1      41.181  29.822  33.429  1.00  0.00    -0.248 NA
ATOM     62  C   UNL A   1      42.055  28.325  31.867  1.00  0.00     0.031 C 
ATOM     63  C   UNL A   1      43.121  30.801  37.301  1.00  0.00     0.029 A 
ATOM     64  C   UNL A   1      42.542  30.485  36.082  1.00  0.00     0.049 A 
ATOM     65  H   UNL A   1      40.810  31.290  35.184  1.00  0.00     0.167 HD
ATOM     66  C   UNL A   1      42.355  29.272  33.930  1.00  0.00     0.074 A 
ATOM     67  C   UNL A   1      42.829  28.327  32.942  1.00  0.00     0.031 C 
ATOM     68  C   UNL A   1      42.983  29.527  35.103  1.00  0.00     0.037 A 
BRANCH  55  69
ATOM     69  C   UNL A   1      40.330  33.938  38.494  1.00  0.00     0.064 A 
ATOM     70  C   UNL A   1      41.037  35.149  38.508  1.00  0.00     0.173 A 
ATOM     71  C   UNL A   1      39.605  33.587  39.644  1.00  0.00     0.173 A 
ATOM     72  F   UNL A   1      41.753  35.526  37.438  1.00  0.00    -0.203 F 
ATOM     73  C   UNL A   1      41.028  35.969  39.633  1.00  0.00     0.198 A 
ATOM     74  C   UNL A   1      39.574  34.425  40.755  1.00  0.00     0.198 A 
ATOM     75  F   UNL A   1      38.908  32.442  39.681  1.00  0.00    -0.203 F 
ATOM     76  F   UNL A   1      41.738  37.106  39.636  1.00  0.00    -0.200 F 
ATOM     77  C   UNL A   1      40.288  35.613  40.750  1.00  0.00     0.200 A 
ATOM     78  F   UNL A   1      38.843  34.087  41.827  1.00  0.00    -0.200 F 
ATOM     79  F   UNL A   1      40.261  36.416  41.822  1.00  0.00    -0.200 F 
ENDBRANCH  55  69
BRANCH  56  80
ATOM     80  C   UNL A   1      39.833  28.688  30.004  1.00  0.00     0.064 A 
ATOM     81  C   UNL A   1      39.290  27.397  29.939  1.00  0.00     0.173 A 
ATOM     82  C   UNL A   1      40.403  29.212  28.834  1.00  0.00     0.173 A 
ATOM     83  F   UNL A   1      38.751  26.842  31.035  1.00  0.00    -0.203 F 
ATOM     84  C   UNL A   1      39.359  26.642  28.771  1.00  0.00     0.198 A 
ATOM     85  C   UNL A   1      40.439  28.469  27.655  1.00  0.00     0.198 A 
ATOM     86  F   UNL A   1      40.932  30.444  28.835  1.00  0.00    -0.203 F 
ATOM     87  F   UNL A   1      38.901  25.382  28.761  1.00  0.00    -0.200 F 
ATOM     88  C   UNL A   1      39.932  27.179  27.629  1.00  0.00     0.200 A 
ATOM     89  F   UNL A   1      40.978  29.000  26.549  1.00  0.00    -0.200 F 
ATOM     90  F   UNL A   1      40.008  26.450  26.508  1.00  0.00    -0.200 F 
ENDBRANCH  56  80
BRANCH  68  91
ATOM     91  C   UNL A   1      44.216  28.729  35.420  1.00  0.00     0.064 A 
ATOM     92  C   UNL A   1      44.150  27.501  36.094  1.00  0.00     0.173 A 
ATOM     93  C   UNL A   1      45.474  29.177  34.990  1.00  0.00     0.173 A 
ATOM     94  F   UNL A   1      42.973  27.035  36.538  1.00  0.00    -0.203 F 
ATOM     95  C   UNL A   1      45.303  26.763  36.346  1.00  0.00     0.198 A 
ATOM     96  C   UNL A   1      46.620  28.418  35.213  1.00  0.00     0.198 A 
ATOM     97  F   UNL A   1      45.591  30.340  34.333  1.00  0.00    -0.203 F 
ATOM     98  F   UNL A   1      45.224  25.616  37.035  1.00  0.00    -0.200 F 
ATOM     99  C   UNL A   1      46.535  27.217  35.897  1.00  0.00     0.200 A 
ATOM    100  F   UNL A   1      47.805  28.850  34.761  1.00  0.00    -0.200 F 
ATOM    101  F   UNL A   1      47.641  26.496  36.129  1.00  0.00    -0.200 F 
ENDBRANCH  68  91
ENDBRANCH  42  43
ENDBRANCH  34  37
ENDBRANCH  32  33
ENDBRANCH  31  32
ENDBRANCH  30  31
ENDBRANCH   1  30
TORSDOF 18
ENDMDL
MODEL 3
REMARK VINA RESULT:     -11.5      4.900     10.175
REMARK SMILES CC(C)C[C@H](Nc1ncnc2scc(-c3ccccc3)c12)C(=O)NCCCCCCNC(=O)c1ccc(-c2c3nc(c(-c4c(F)c(F)c(F)c(F)c4F)c4ccc([nH]4)c(-c4c(F)c(F)c(F)c(F)c4F)c4nc(c(-c5c(F)c(F)c(F)c(F)c5F)c5ccc2[nH]5)C=C4)C=C3)cc1
REMARK SMILES IDX 27 1 26 2 25 3 24 4 22 5 23 6 5 8 4 9 2 10 1 11 3 12 6 13
REMARK SMILES IDX 7 15 8 16 21 17 9 18 11 19 14 20 10 21 12 22 13 23 15 24
REMARK SMILES IDX 16 25 20 26 17 27 19 28 18 29 28 30 29 31 30 32 31 33 32 34
REMARK SMILES IDX 33 36 34 37 35 38 96 39 36 40 95 41 37 42 38 43 39 44 89 45
REMARK SMILES IDX 40 46 94 47 88 48 90 49 41 50 93 51 87 52 86 53 42 55 74 56
REMARK SMILES IDX 54 57 73 58 55 59 58 60 72 61 91 62 56 63 57 64 71 66 92 67
REMARK SMILES IDX 59 68 43 69 44 70 52 71 45 72 46 73 50 74 53 75 47 76 48 77
REMARK SMILES IDX 51 78 49 79 75 80 76 81 84 82 77 83 78 84 82 85 85 86 79 87
REMARK SMILES IDX 80 88 83 89 81 90 60 91 61 92 69 93 62 94 63 95 67 96 70 97
REMARK SMILES IDX 64 98 65 99 68 100 66 101
REMARK H PARENT 24 7 6 14 31 35 90 54 58 65
REMARK Flexibility Score: inf
ROOT
ATOM      1  C   UNL A   1      34.142  21.724  24.493  1.00  0.00     0.002 C 
ENDROOT
BRANCH   1   2
ATOM      2  C   UNL A   1      33.391  23.044  24.353  1.00  0.00     0.021 C 
BRANCH   2   3
ATOM      3  C   UNL A   1      31.884  22.916  24.179  1.00  0.00     0.116 C 
BRANCH   3   4
ATOM      4  N   UNL A   1      31.135  23.156  25.393  1.00  0.00    -0.354 N 
ATOM      5  C   UNL A   1      30.478  24.269  25.832  1.00  0.00     0.242 C 
ATOM      6  O   UNL A   1      29.878  24.152  26.908  1.00  0.00    -0.273 OA
ATOM      7  H   UNL A   1      31.093  22.388  26.005  1.00  0.00     0.163 HD
BRANCH   5   8
ATOM      8  C   UNL A   1      30.484  25.636  25.093  1.00  0.00     0.170 C 
BRANCH   8   9
ATOM      9  C   UNL A   1      30.799  26.880  25.949  1.00  0.00     0.038 C 
BRANCH   9  10
ATOM     10  C   UNL A   1      32.062  26.918  26.838  1.00  0.00    -0.015 C 
ATOM     11  C   UNL A   1      33.359  26.728  26.045  1.00  0.00     0.007 C 
ATOM     12  C   UNL A   1      32.150  28.254  27.586  1.00  0.00     0.007 C 
ENDBRANCH   9  10
ENDBRANCH   8   9
BRANCH   8  13
ATOM     13  N   UNL A   1      29.446  25.716  24.041  1.00  0.00    -0.358 N 
ATOM     14  H   UNL A   1      29.379  24.950  23.426  1.00  0.00     0.162 HD
BRANCH  13  15
ATOM     15  C   UNL A   1      28.569  26.750  23.833  1.00  0.00     0.139 A 
ATOM     16  N   UNL A   1      27.285  26.559  24.203  1.00  0.00    -0.219 NA
ATOM     17  C   UNL A   1      28.925  27.981  23.211  1.00  0.00     0.062 A 
ATOM     18  C   UNL A   1      26.369  27.499  23.954  1.00  0.00     0.225 A 
ATOM     19  C   UNL A   1      27.843  28.827  22.960  1.00  0.00     0.129 A 
ATOM     20  C   UNL A   1      30.161  28.580  22.690  1.00  0.00     0.006 A 
ATOM     21  N   UNL A   1      26.561  28.640  23.309  1.00  0.00    -0.225 NA
ATOM     22  S   UNL A   1      28.249  30.207  22.059  1.00  0.00    -0.123 S 
ATOM     23  C   UNL A   1      29.882  29.749  21.995  1.00  0.00     0.076 A 
BRANCH  20  24
ATOM     24  C   UNL A   1      31.559  28.110  22.685  1.00  0.00    -0.017 A 
ATOM     25  C   UNL A   1      32.594  28.934  23.147  1.00  0.00     0.009 A 
ATOM     26  C   UNL A   1      31.923  26.889  22.114  1.00  0.00     0.009 A 
ATOM     27  C   UNL A   1      33.935  28.550  23.014  1.00  0.00     0.001 A 
ATOM     28  C   UNL A   1      33.253  26.489  21.987  1.00  0.00     0.001 A 
ATOM     29  C   UNL A   1      34.264  27.328  22.431  1.00  0.00     0.000 A 
ENDBRANCH  20  24
ENDBRANCH  13  15
ENDBRANCH   8  13
ENDBRANCH   5   8
ENDBRANCH   3   4
ENDBRANCH   2   3
ENDBRANCH   1   2
BRANCH   1  30
ATOM     30  C   UNL A   1      35.341  21.779  25.437  1.00  0.00     0.002 C 
BRANCH  30  31
ATOM     31  C   UNL A   1      36.528  20.910  25.017  1.00  0.00     0.021 C 
BRANCH  31  32
ATOM     32  C   UNL A   1      37.895  21.463  25.409  1.00  0.00     0.116 C 
BRANCH  32  33
ATOM     33  N   UNL A   1      38.771  20.427  25.929  1.00  0.00    -0.352 N 
ATOM     34  C   UNL A   1      40.012  20.566  26.492  1.00  0.00     0.251 C 
ATOM     35  H   UNL A   1      38.429  19.507  25.869  1.00  0.00     0.163 HD
ATOM     36  O   UNL A   1      40.727  19.587  26.692  1.00  0.00    -0.269 OA
BRANCH  34  37
ATOM     37  C   UNL A   1      40.492  21.916  26.840  1.00  0.00     0.039 A 
ATOM     38  C   UNL A   1      41.373  22.069  27.911  1.00  0.00     0.014 A 
ATOM     39  C   UNL A   1      40.090  23.024  26.085  1.00  0.00     0.014 A 
ATOM     40  C   UNL A   1      41.894  23.331  28.197  1.00  0.00     0.010 A 
ATOM     41  C   UNL A   1      40.668  24.265  26.324  1.00  0.00     0.010 A 
ATOM     42  C   UNL A   1      41.570  24.433  27.387  1.00  0.00    -0.014 A 
BRANCH  42  43
ATOM     43  C   UNL A   1      42.149  25.776  27.642  1.00  0.00     0.031 A 
ATOM     44  C   UNL A   1      41.335  26.814  28.366  1.00  0.00     0.074 A 
ATOM     45  C   UNL A   1      43.372  26.082  27.163  1.00  0.00     0.049 A 
ATOM     46  N   UNL A   1      41.618  28.069  28.604  1.00  0.00    -0.248 NA
ATOM     47  C   UNL A   1      40.017  26.392  28.868  1.00  0.00     0.031 C 
ATOM     48  C   UNL A   1      44.241  25.171  26.417  1.00  0.00     0.029 A 
ATOM     49  N   UNL A   1      44.089  27.251  27.221  1.00  0.00    -0.354 N 
ATOM     50  C   UNL A   1      40.507  28.589  29.256  1.00  0.00     0.074 A 
ATOM     51  C   UNL A   1      39.529  27.528  29.344  1.00  0.00     0.031 C 
ATOM     52  C   UNL A   1      45.379  25.810  26.100  1.00  0.00     0.029 A 
ATOM     53  C   UNL A   1      45.301  27.187  26.578  1.00  0.00     0.049 A 
ATOM     54  H   UNL A   1      43.765  28.060  27.680  1.00  0.00     0.167 HD
ATOM     55  C   UNL A   1      40.330  29.837  29.751  1.00  0.00     0.037 A 
ATOM     56  C   UNL A   1      46.235  28.139  26.380  1.00  0.00     0.037 A 
ATOM     57  C   UNL A   1      41.323  30.876  29.696  1.00  0.00     0.049 A 
ATOM     58  C   UNL A   1      45.997  29.522  26.930  1.00  0.00     0.074 A 
ATOM     59  C   UNL A   1      41.269  32.145  30.244  1.00  0.00     0.029 A 
ATOM     60  N   UNL A   1      42.546  30.767  29.053  1.00  0.00    -0.354 N 
ATOM     61  N   UNL A   1      44.979  29.976  27.621  1.00  0.00    -0.248 NA
ATOM     62  C   UNL A   1      47.040  30.526  26.674  1.00  0.00     0.031 C 
ATOM     63  C   UNL A   1      42.431  32.828  29.875  1.00  0.00     0.029 A 
ATOM     64  C   UNL A   1      43.240  31.961  29.160  1.00  0.00     0.049 A 
ATOM     65  H   UNL A   1      42.872  29.963  28.588  1.00  0.00     0.167 HD
ATOM     66  C   UNL A   1      45.280  31.299  27.919  1.00  0.00     0.074 A 
ATOM     67  C   UNL A   1      46.580  31.572  27.344  1.00  0.00     0.031 C 
ATOM     68  C   UNL A   1      44.547  32.207  28.607  1.00  0.00     0.037 A 
BRANCH  55  69
ATOM     69  C   UNL A   1      39.014  30.162  30.396  1.00  0.00     0.064 A 
ATOM     70  C   UNL A   1      38.846  30.142  31.788  1.00  0.00     0.173 A 
ATOM     71  C   UNL A   1      37.931  30.588  29.610  1.00  0.00     0.173 A 
ATOM     72  F   UNL A   1      39.847  29.734  32.583  1.00  0.00    -0.203 F 
ATOM     73  C   UNL A   1      37.639  30.521  32.368  1.00  0.00     0.198 A 
ATOM     74  C   UNL A   1      36.737  30.995  30.196  1.00  0.00     0.198 A 
ATOM     75  F   UNL A   1      38.041  30.631  28.274  1.00  0.00    -0.203 F 
ATOM     76  F   UNL A   1      37.490  30.462  33.699  1.00  0.00    -0.200 F 
ATOM     77  C   UNL A   1      36.590  30.958  31.574  1.00  0.00     0.200 A 
ATOM     78  F   UNL A   1      35.730  31.434  29.427  1.00  0.00    -0.200 F 
ATOM     79  F   UNL A   1      35.437  31.345  32.137  1.00  0.00    -0.200 F 
ENDBRANCH  55  69
BRANCH  56  80
ATOM     80  C   UNL A   1      47.484  27.833  25.629  1.00  0.00     0.064 A 
ATOM     81  C   UNL A   1      47.498  27.825  24.227  1.00  0.00     0.173 A 
ATOM     82  C   UNL A   1      48.670  27.486  26.292  1.00  0.00     0.173 A 
ATOM     83  F   UNL A   1      46.384  28.130  23.544  1.00  0.00    -0.203 F 
ATOM     84  C   UNL A   1      48.634  27.439  23.518  1.00  0.00     0.198 A 
ATOM     85  C   UNL A   1      49.817  27.134  25.582  1.00  0.00     0.198 A 
ATOM     86  F   UNL A   1      48.717  27.482  27.632  1.00  0.00    -0.203 F 
ATOM     87  F   UNL A   1      48.594  27.367  22.180  1.00  0.00    -0.200 F 
ATOM     88  C   UNL A   1      49.793  27.095  24.196  1.00  0.00     0.200 A 
ATOM     89  F   UNL A   1      50.940  26.820  26.241  1.00  0.00    -0.200 F 
ATOM     90  F   UNL A   1      50.882  26.713  23.516  1.00  0.00    -0.200 F 
ENDBRANCH  56  80
BRANCH  68  91
ATOM     91  C   UNL A   1      45.154  33.561  28.838  1.00  0.00     0.064 A 
ATOM     92  C   UNL A   1      45.983  33.824  29.939  1.00  0.00     0.173 A 
ATOM     93  C   UNL A   1      44.946  34.593  27.911  1.00  0.00     0.173 A 
ATOM     94  F   UNL A   1      46.202  32.875  30.862  1.00  0.00    -0.203 F 
ATOM     95  C   UNL A   1      46.562  35.078  30.113  1.00  0.00     0.198 A 
ATOM     96  C   UNL A   1      45.555  35.834  28.070  1.00  0.00     0.198 A 
ATOM     97  F   UNL A   1      44.169  34.392  26.836  1.00  0.00    -0.203 F 
ATOM     98  F   UNL A   1      47.311  35.322  31.197  1.00  0.00    -0.200 F 
ATOM     99  C   UNL A   1      46.356  36.078  29.174  1.00  0.00     0.200 A 
ATOM    100  F   UNL A   1      45.370  36.793  27.151  1.00  0.00    -0.200 F 
ATOM    101  F   UNL A   1      46.927  37.280  29.338  1.00  0.00    -0.200 F 
ENDBRANCH  68  91
ENDBRANCH  42  43
ENDBRANCH  34  37
ENDBRANCH  32  33
ENDBRANCH  31  32
ENDBRANCH  30  31
ENDBRANCH   1  30
TORSDOF 18
ENDMDL
