MODEL 1
REMARK VINA RESULT:     -10.6      0.000      0.000
REMARK SMILES CC(C)(C[NH2+]CCc1cccnc1)C(=O)NCCCCCCNC(=O)c1ccc(-c2c3nc(c(-c4c(F)c(F)c(F)c(F)c4F)c4ccc([nH]4)c(-c4c(F)c(F)c(F)c(F)c4F)c4nc(c(-c5c(F)c(F)c(F)c(F)c5F)c5ccc2[nH]5)C=C4)C=C3)cc1
REMARK SMILES IDX 18 1 17 2 16 3 14 4 15 5 2 7 1 8 3 9 4 10 5 11 6 14 7 15
REMARK SMILES IDX 8 16 9 17 13 18 10 19 12 20 11 21 19 22 20 23 21 24 22 25
REMARK SMILES IDX 23 26 24 27 25 29 26 30 27 31 88 32 28 33 87 34 29 35 30 36
REMARK SMILES IDX 31 37 81 38 32 39 86 40 80 41 82 42 33 43 85 44 79 45 78 46
REMARK SMILES IDX 34 48 66 49 46 50 65 51 47 52 50 53 64 54 83 55 48 56 49 57
REMARK SMILES IDX 63 59 84 60 51 61 35 62 36 63 44 64 37 65 38 66 42 67 45 68
REMARK SMILES IDX 39 69 40 70 43 71 41 72 67 73 68 74 76 75 69 76 70 77 74 78
REMARK SMILES IDX 77 79 71 80 72 81 75 82 73 83 52 84 53 85 61 86 54 87 55 88
REMARK SMILES IDX 59 89 62 90 56 91 57 92 60 93 58 94
REMARK H PARENT 16 6 5 12 5 13 23 28 82 47 50 58
REMARK Flexibility Score: inf
ROOT
ATOM      1  C   UNL A   1      39.944  22.210  26.596  1.00  0.00     0.021 C 
ENDROOT
BRANCH   1   2
ATOM      2  C   UNL A   1      38.805  21.522  25.845  1.00  0.00     0.116 C 
BRANCH   2   3
ATOM      3  N   UNL A   1      38.127  22.437  24.953  1.00  0.00    -0.355 N 
ATOM      4  C   UNL A   1      36.846  22.511  24.505  1.00  0.00     0.231 C 
ATOM      5  O   UNL A   1      36.615  23.431  23.711  1.00  0.00    -0.274 OA
ATOM      6  H   UNL A   1      38.710  23.148  24.599  1.00  0.00     0.163 HD
BRANCH   4   7
ATOM      7  C   UNL A   1      35.720  21.583  25.005  1.00  0.00     0.092 C 
ATOM      8  C   UNL A   1      35.484  21.872  26.510  1.00  0.00     0.027 C 
ATOM      9  C   UNL A   1      36.192  20.118  24.914  1.00  0.00     0.027 C 
BRANCH   7  10
ATOM     10  C   UNL A   1      34.378  21.761  24.248  1.00  0.00     0.276 C 
BRANCH  10  11
ATOM     11  N   UNL A   1      33.197  21.771  25.113  1.00  0.00    -0.345 N 
ATOM     12  H   UNL A   1      32.797  22.708  25.101  1.00  0.00     0.346 HD
ATOM     13  H   UNL A   1      33.508  21.491  26.044  1.00  0.00     0.346 HD
BRANCH  11  14
ATOM     14  C   UNL A   1      32.159  20.818  24.707  1.00  0.00     0.265 C 
BRANCH  14  15
ATOM     15  C   UNL A   1      32.519  19.856  23.560  1.00  0.00     0.098 C 
BRANCH  15  16
ATOM     16  C   UNL A   1      32.864  18.460  24.007  1.00  0.00    -0.024 A 
ATOM     17  C   UNL A   1      32.682  18.059  25.334  1.00  0.00     0.007 A 
ATOM     18  C   UNL A   1      33.361  17.515  23.116  1.00  0.00     0.114 A 
ATOM     19  C   UNL A   1      32.981  16.753  25.708  1.00  0.00     0.020 A 
ATOM     20  N   UNL A   1      33.664  16.241  23.453  1.00  0.00    -0.264 NA
ATOM     21  C   UNL A   1      33.463  15.888  24.740  1.00  0.00     0.111 A 
ENDBRANCH  15  16
ENDBRANCH  14  15
ENDBRANCH  11  14
ENDBRANCH  10  11
ENDBRANCH   7  10
ENDBRANCH   4   7
ENDBRANCH   2   3
ENDBRANCH   1   2
BRANCH   1  22
ATOM     22  C   UNL A   1      41.340  21.677  26.253  1.00  0.00     0.002 C 
BRANCH  22  23
ATOM     23  C   UNL A   1      41.703  20.329  26.887  1.00  0.00     0.002 C 
BRANCH  23  24
ATOM     24  C   UNL A   1      42.094  19.224  25.903  1.00  0.00     0.021 C 
BRANCH  24  25
ATOM     25  C   UNL A   1      43.498  18.659  26.097  1.00  0.00     0.116 C 
BRANCH  25  26
ATOM     26  N   UNL A   1      44.234  18.570  24.847  1.00  0.00    -0.352 N 
ATOM     27  C   UNL A   1      44.781  19.567  24.082  1.00  0.00     0.251 C 
ATOM     28  H   UNL A   1      44.359  17.658  24.499  1.00  0.00     0.163 HD
ATOM     29  O   UNL A   1      45.214  19.317  22.959  1.00  0.00    -0.269 OA
BRANCH  27  30
ATOM     30  C   UNL A   1      44.832  20.953  24.592  1.00  0.00     0.039 A 
ATOM     31  C   UNL A   1      45.419  21.190  25.838  1.00  0.00     0.014 A 
ATOM     32  C   UNL A   1      44.292  22.014  23.858  1.00  0.00     0.014 A 
ATOM     33  C   UNL A   1      45.524  22.497  26.319  1.00  0.00     0.010 A 
ATOM     34  C   UNL A   1      44.454  23.322  24.309  1.00  0.00     0.010 A 
ATOM     35  C   UNL A   1      45.073  23.576  25.541  1.00  0.00    -0.014 A 
BRANCH  35  36
ATOM     36  C   UNL A   1      45.264  24.977  25.993  1.00  0.00     0.031 A 
ATOM     37  C   UNL A   1      46.622  25.616  25.942  1.00  0.00     0.074 A 
ATOM     38  C   UNL A   1      44.221  25.651  26.516  1.00  0.00     0.049 A 
ATOM     39  N   UNL A   1      46.996  26.803  26.354  1.00  0.00    -0.248 NA
ATOM     40  C   UNL A   1      47.713  24.806  25.378  1.00  0.00     0.031 C 
ATOM     41  C   UNL A   1      42.865  25.121  26.667  1.00  0.00     0.029 A 
ATOM     42  N   UNL A   1      44.141  26.921  27.031  1.00  0.00    -0.354 N 
ATOM     43  C   UNL A   1      48.361  26.875  26.110  1.00  0.00     0.074 A 
ATOM     44  C   UNL A   1      48.760  25.597  25.559  1.00  0.00     0.031 C 
ATOM     45  C   UNL A   1      42.084  26.063  27.220  1.00  0.00     0.029 A 
ATOM     46  C   UNL A   1      42.892  27.248  27.495  1.00  0.00     0.049 A 
ATOM     47  H   UNL A   1      44.907  27.538  27.064  1.00  0.00     0.167 HD
ATOM     48  C   UNL A   1      49.199  27.920  26.310  1.00  0.00     0.037 A 
ATOM     49  C   UNL A   1      42.446  28.373  28.085  1.00  0.00     0.037 A 
ATOM     50  C   UNL A   1      48.792  29.198  26.833  1.00  0.00     0.049 A 
ATOM     51  C   UNL A   1      43.399  29.519  28.297  1.00  0.00     0.074 A 
ATOM     52  C   UNL A   1      49.552  30.344  27.001  1.00  0.00     0.029 A 
ATOM     53  N   UNL A   1      47.514  29.498  27.280  1.00  0.00    -0.354 N 
ATOM     54  N   UNL A   1      44.671  29.602  27.994  1.00  0.00    -0.248 NA
ATOM     55  C   UNL A   1      42.851  30.727  28.929  1.00  0.00     0.031 C 
ATOM     56  C   UNL A   1      48.745  31.322  27.592  1.00  0.00     0.029 A 
ATOM     57  C   UNL A   1      47.470  30.801  27.750  1.00  0.00     0.049 A 
ATOM     58  H   UNL A   1      46.750  28.877  27.265  1.00  0.00     0.167 HD
ATOM     59  C   UNL A   1      45.072  30.874  28.377  1.00  0.00     0.074 A 
ATOM     60  C   UNL A   1      43.902  31.535  28.919  1.00  0.00     0.031 C 
ATOM     61  C   UNL A   1      46.299  31.443  28.291  1.00  0.00     0.037 A 
BRANCH  48  62
ATOM     62  C   UNL A   1      50.646  27.726  25.959  1.00  0.00     0.064 A 
ATOM     63  C   UNL A   1      51.595  27.356  26.923  1.00  0.00     0.173 A 
ATOM     64  C   UNL A   1      51.081  27.873  24.633  1.00  0.00     0.173 A 
ATOM     65  F   UNL A   1      51.232  27.212  28.207  1.00  0.00    -0.203 F 
ATOM     66  C   UNL A   1      52.931  27.168  26.580  1.00  0.00     0.198 A 
ATOM     67  C   UNL A   1      52.413  27.656  24.287  1.00  0.00     0.198 A 
ATOM     68  F   UNL A   1      50.214  28.220  23.669  1.00  0.00    -0.203 F 
ATOM     69  F   UNL A   1      53.828  26.860  27.526  1.00  0.00    -0.200 F 
ATOM     70  C   UNL A   1      53.338  27.311  25.262  1.00  0.00     0.200 A 
ATOM     71  F   UNL A   1      52.801  27.782  23.011  1.00  0.00    -0.200 F 
ATOM     72  F   UNL A   1      54.622  27.122  24.931  1.00  0.00    -0.200 F 
ENDBRANCH  48  62
BRANCH  49  73
ATOM     73  C   UNL A   1      41.025  28.477  28.503  1.00  0.00     0.064 A 
ATOM     74  C   UNL A   1      40.620  28.074  29.784  1.00  0.00     0.173 A 
ATOM     75  C   UNL A   1      40.045  28.985  27.638  1.00  0.00     0.173 A 
ATOM     76  F   UNL A   1      41.517  27.563  30.638  1.00  0.00    -0.203 F 
ATOM     77  C   UNL A   1      39.286  28.159  30.176  1.00  0.00     0.198 A 
ATOM     78  C   UNL A   1      38.716  29.095  28.041  1.00  0.00     0.198 A 
ATOM     79  F   UNL A   1      40.383  29.388  26.404  1.00  0.00    -0.203 F 
ATOM     80  F   UNL A   1      38.918  27.730  31.391  1.00  0.00    -0.200 F 
ATOM     81  C   UNL A   1      38.337  28.676  29.307  1.00  0.00     0.200 A 
ATOM     82  F   UNL A   1      37.805  29.608  27.203  1.00  0.00    -0.200 F 
ATOM     83  F   UNL A   1      37.055  28.763  29.687  1.00  0.00    -0.200 F 
ENDBRANCH  49  73
BRANCH  61  84
ATOM     84  C   UNL A   1      46.436  32.856  28.779  1.00  0.00     0.064 A 
ATOM     85  C   UNL A   1      46.803  33.141  30.102  1.00  0.00     0.173 A 
ATOM     86  C   UNL A   1      46.232  33.934  27.905  1.00  0.00     0.173 A 
ATOM     87  F   UNL A   1      46.993  32.144  30.980  1.00  0.00    -0.203 F 
ATOM     88  C   UNL A   1      46.938  34.456  30.538  1.00  0.00     0.198 A 
ATOM     89  C   UNL A   1      46.396  35.246  28.337  1.00  0.00     0.198 A 
ATOM     90  F   UNL A   1      45.885  33.714  26.629  1.00  0.00    -0.203 F 
ATOM     91  F   UNL A   1      47.245  34.707  31.820  1.00  0.00    -0.200 F 
ATOM     92  C   UNL A   1      46.742  35.507  29.656  1.00  0.00     0.200 A 
ATOM     93  F   UNL A   1      46.219  36.260  27.480  1.00  0.00    -0.200 F 
ATOM     94  F   UNL A   1      46.880  36.772  30.076  1.00  0.00    -0.200 F 
ENDBRANCH  61  84
ENDBRANCH  35  36
ENDBRANCH  27  30
ENDBRANCH  25  26
ENDBRANCH  24  25
ENDBRANCH  23  24
ENDBRANCH  22  23
ENDBRANCH   1  22
TORSDOF 18
ENDMDL
MODEL 2
REMARK VINA RESULT:     -10.5      4.564      7.945
REMARK SMILES CC(C)(C[NH2+]CCc1cccnc1)C(=O)NCCCCCCNC(=O)c1ccc(-c2c3nc(c(-c4c(F)c(F)c(F)c(F)c4F)c4ccc([nH]4)c(-c4c(F)c(F)c(F)c(F)c4F)c4nc(c(-c5c(F)c(F)c(F)c(F)c5F)c5ccc2[nH]5)C=C4)C=C3)cc1
REMARK SMILES IDX 18 1 17 2 16 3 14 4 15 5 2 7 1 8 3 9 4 10 5 11 6 14 7 15
REMARK SMILES IDX 8 16 9 17 13 18 10 19 12 20 11 21 19 22 20 23 21 24 22 25
REMARK SMILES IDX 23 26 24 27 25 29 26 30 27 31 88 32 28 33 87 34 29 35 30 36
REMARK SMILES IDX 31 37 81 38 32 39 86 40 80 41 82 42 33 43 85 44 79 45 78 46
REMARK SMILES IDX 34 48 66 49 46 50 65 51 47 52 50 53 64 54 83 55 48 56 49 57
REMARK SMILES IDX 63 59 84 60 51 61 35 62 36 63 44 64 37 65 38 66 42 67 45 68
REMARK SMILES IDX 39 69 40 70 43 71 41 72 67 73 68 74 76 75 69 76 70 77 74 78
REMARK SMILES IDX 77 79 71 80 72 81 75 82 73 83 52 84 53 85 61 86 54 87 55 88
REMARK SMILES IDX 59 89 62 90 56 91 57 92 60 93 58 94
REMARK H PARENT 16 6 5 12 5 13 23 28 82 47 50 58
REMARK Flexibility Score: inf
ROOT
ATOM      1  C   UNL A   1      44.693  23.936  29.563  1.00  0.00     0.021 C 
ENDROOT
BRANCH   1   2
ATOM      2  C   UNL A   1      45.641  24.030  28.368  1.00  0.00     0.116 C 
BRANCH   2   3
ATOM      3  N   UNL A   1      46.222  25.349  28.254  1.00  0.00    -0.355 N 
ATOM      4  C   UNL A   1      46.253  26.260  27.246  1.00  0.00     0.231 C 
ATOM      5  O   UNL A   1      46.878  27.300  27.491  1.00  0.00    -0.274 OA
ATOM      6  H   UNL A   1      46.689  25.646  29.068  1.00  0.00     0.163 HD
BRANCH   4   7
ATOM      7  C   UNL A   1      45.497  26.076  25.915  1.00  0.00     0.092 C 
ATOM      8  C   UNL A   1      45.736  27.335  25.042  1.00  0.00     0.027 C 
ATOM      9  C   UNL A   1      43.981  26.026  26.196  1.00  0.00     0.027 C 
BRANCH   7  10
ATOM     10  C   UNL A   1      45.934  24.823  25.112  1.00  0.00     0.276 C 
BRANCH  10  11
ATOM     11  N   UNL A   1      44.823  24.015  24.607  1.00  0.00    -0.345 N 
ATOM     12  H   UNL A   1      44.266  24.592  23.978  1.00  0.00     0.346 HD
ATOM     13  H   UNL A   1      44.291  23.699  25.420  1.00  0.00     0.346 HD
BRANCH  11  14
ATOM     14  C   UNL A   1      45.247  22.813  23.882  1.00  0.00     0.265 C 
BRANCH  14  15
ATOM     15  C   UNL A   1      46.119  21.811  24.661  1.00  0.00     0.098 C 
BRANCH  15  16
ATOM     16  C   UNL A   1      45.411  20.537  25.040  1.00  0.00    -0.024 A 
ATOM     17  C   UNL A   1      44.040  20.523  25.310  1.00  0.00     0.007 A 
ATOM     18  C   UNL A   1      46.091  19.327  25.121  1.00  0.00     0.114 A 
ATOM     19  C   UNL A   1      43.410  19.324  25.627  1.00  0.00     0.020 A 
ATOM     20  N   UNL A   1      45.505  18.148  25.431  1.00  0.00    -0.264 NA
ATOM     21  C   UNL A   1      44.178  18.173  25.673  1.00  0.00     0.111 A 
ENDBRANCH  15  16
ENDBRANCH  14  15
ENDBRANCH  11  14
ENDBRANCH  10  11
ENDBRANCH   7  10
ENDBRANCH   4   7
ENDBRANCH   2   3
ENDBRANCH   1   2
BRANCH   1  22
ATOM     22  C   UNL A   1      43.625  22.842  29.438  1.00  0.00     0.002 C 
BRANCH  22  23
ATOM     23  C   UNL A   1      42.330  23.265  28.732  1.00  0.00     0.002 C 
BRANCH  23  24
ATOM     24  C   UNL A   1      41.646  22.173  27.906  1.00  0.00     0.021 C 
BRANCH  24  25
ATOM     25  C   UNL A   1      41.521  22.477  26.417  1.00  0.00     0.116 C 
BRANCH  25  26
ATOM     26  N   UNL A   1      40.139  22.480  25.968  1.00  0.00    -0.352 N 
ATOM     27  C   UNL A   1      39.132  23.370  26.241  1.00  0.00     0.251 C 
ATOM     28  H   UNL A   1      39.889  21.732  25.379  1.00  0.00     0.163 HD
ATOM     29  O   UNL A   1      37.975  23.111  25.917  1.00  0.00    -0.269 OA
BRANCH  27  30
ATOM     30  C   UNL A   1      39.428  24.633  26.949  1.00  0.00     0.039 A 
ATOM     31  C   UNL A   1      39.000  24.780  28.271  1.00  0.00     0.014 A 
ATOM     32  C   UNL A   1      40.109  25.675  26.312  1.00  0.00     0.014 A 
ATOM     33  C   UNL A   1      39.312  25.944  28.976  1.00  0.00     0.010 A 
ATOM     34  C   UNL A   1      40.474  26.809  27.035  1.00  0.00     0.010 A 
ATOM     35  C   UNL A   1      40.081  26.953  28.374  1.00  0.00    -0.014 A 
BRANCH  35  36
ATOM     36  C   UNL A   1      40.504  28.153  29.139  1.00  0.00     0.031 A 
ATOM     37  C   UNL A   1      41.885  28.238  29.722  1.00  0.00     0.074 A 
ATOM     38  C   UNL A   1      39.614  29.139  29.367  1.00  0.00     0.049 A 
ATOM     39  N   UNL A   1      42.411  29.173  30.474  1.00  0.00    -0.248 NA
ATOM     40  C   UNL A   1      42.789  27.111  29.446  1.00  0.00     0.031 C 
ATOM     41  C   UNL A   1      38.227  29.148  28.896  1.00  0.00     0.029 A 
ATOM     42  N   UNL A   1      39.737  30.316  30.062  1.00  0.00    -0.354 N 
ATOM     43  C   UNL A   1      43.697  28.743  30.769  1.00  0.00     0.074 A 
ATOM     44  C   UNL A   1      43.858  27.440  30.157  1.00  0.00     0.031 C 
ATOM     45  C   UNL A   1      37.634  30.282  29.302  1.00  0.00     0.029 A 
ATOM     46  C   UNL A   1      38.585  31.061  30.090  1.00  0.00     0.049 A 
ATOM     47  H   UNL A   1      40.573  30.598  30.500  1.00  0.00     0.167 HD
ATOM     48  C   UNL A   1      44.661  29.384  31.472  1.00  0.00     0.037 A 
ATOM     49  C   UNL A   1      38.320  32.237  30.690  1.00  0.00     0.037 A 
ATOM     50  C   UNL A   1      44.506  30.691  32.057  1.00  0.00     0.049 A 
ATOM     51  C   UNL A   1      39.409  32.928  31.465  1.00  0.00     0.074 A 
ATOM     52  C   UNL A   1      45.449  31.456  32.721  1.00  0.00     0.029 A 
ATOM     53  N   UNL A   1      43.328  31.423  32.052  1.00  0.00    -0.354 N 
ATOM     54  N   UNL A   1      40.645  32.545  31.675  1.00  0.00    -0.248 NA
ATOM     55  C   UNL A   1      39.066  34.216  32.083  1.00  0.00     0.031 C 
ATOM     56  C   UNL A   1      44.829  32.631  33.159  1.00  0.00     0.029 A 
ATOM     57  C   UNL A   1      43.511  32.619  32.727  1.00  0.00     0.049 A 
ATOM     58  H   UNL A   1      42.485  31.135  31.632  1.00  0.00     0.167 HD
ATOM     59  C   UNL A   1      41.233  33.551  32.429  1.00  0.00     0.074 A 
ATOM     60  C   UNL A   1      40.223  34.571  32.625  1.00  0.00     0.031 C 
ATOM     61  C   UNL A   1      42.495  33.622  32.918  1.00  0.00     0.037 A 
BRANCH  48  62
ATOM     62  C   UNL A   1      45.977  28.682  31.646  1.00  0.00     0.064 A 
ATOM     63  C   UNL A   1      47.013  28.817  30.709  1.00  0.00     0.173 A 
ATOM     64  C   UNL A   1      46.219  27.897  32.783  1.00  0.00     0.173 A 
ATOM     65  F   UNL A   1      46.828  29.549  29.600  1.00  0.00    -0.203 F 
ATOM     66  C   UNL A   1      48.232  28.170  30.890  1.00  0.00     0.198 A 
ATOM     67  C   UNL A   1      47.450  27.274  32.976  1.00  0.00     0.198 A 
ATOM     68  F   UNL A   1      45.265  27.739  33.713  1.00  0.00    -0.203 F 
ATOM     69  F   UNL A   1      49.191  28.276  29.960  1.00  0.00    -0.200 F 
ATOM     70  C   UNL A   1      48.452  27.405  32.026  1.00  0.00     0.200 A 
ATOM     71  F   UNL A   1      47.665  26.547  34.080  1.00  0.00    -0.200 F 
ATOM     72  F   UNL A   1      49.629  26.789  32.203  1.00  0.00    -0.200 F 
ENDBRANCH  48  62
BRANCH  49  73
ATOM     73  C   UNL A   1      36.970  32.843  30.567  1.00  0.00     0.064 A 
ATOM     74  C   UNL A   1      36.017  32.689  31.585  1.00  0.00     0.173 A 
ATOM     75  C   UNL A   1      36.605  33.590  29.438  1.00  0.00     0.173 A 
ATOM     76  F   UNL A   1      36.313  31.965  32.674  1.00  0.00    -0.203 F 
ATOM     77  C   UNL A   1      34.745  33.247  31.469  1.00  0.00     0.198 A 
ATOM     78  C   UNL A   1      35.343  34.170  29.336  1.00  0.00     0.198 A 
ATOM     79  F   UNL A   1      37.483  33.770  28.440  1.00  0.00    -0.203 F 
ATOM     80  F   UNL A   1      33.840  33.051  32.437  1.00  0.00    -0.200 F 
ATOM     81  C   UNL A   1      34.412  33.992  30.348  1.00  0.00     0.200 A 
ATOM     82  F   UNL A   1      35.029  34.901  28.258  1.00  0.00    -0.200 F 
ATOM     83  F   UNL A   1      33.191  34.532  30.240  1.00  0.00    -0.200 F 
ENDBRANCH  49  73
BRANCH  61  84
ATOM     84  C   UNL A   1      42.859  34.851  33.698  1.00  0.00     0.064 A 
ATOM     85  C   UNL A   1      42.794  34.876  35.099  1.00  0.00     0.173 A 
ATOM     86  C   UNL A   1      43.313  36.004  33.040  1.00  0.00     0.173 A 
ATOM     87  F   UNL A   1      42.350  33.804  35.773  1.00  0.00    -0.203 F 
ATOM     88  C   UNL A   1      43.147  36.019  35.811  1.00  0.00     0.198 A 
ATOM     89  C   UNL A   1      43.693  37.135  33.757  1.00  0.00     0.198 A 
ATOM     90  F   UNL A   1      43.399  36.030  31.702  1.00  0.00    -0.203 F 
ATOM     91  F   UNL A   1      43.032  36.036  37.147  1.00  0.00    -0.200 F 
ATOM     92  C   UNL A   1      43.602  37.145  35.142  1.00  0.00     0.200 A 
ATOM     93  F   UNL A   1      44.145  38.217  33.109  1.00  0.00    -0.200 F 
ATOM     94  F   UNL A   1      43.948  38.241  35.829  1.00  0.00    -0.200 F 
ENDBRANCH  61  84
ENDBRANCH  35  36
ENDBRANCH  27  30
ENDBRANCH  25  26
ENDBRANCH  24  25
ENDBRANCH  23  24
ENDBRANCH  22  23
ENDBRANCH   1  22
TORSDOF 18
ENDMDL
MODEL 3
REMARK VINA RESULT:     -10.5      6.857     11.514
REMARK SMILES CC(C)(C[NH2+]CCc1cccnc1)C(=O)NCCCCCCNC(=O)c1ccc(-c2c3nc(c(-c4c(F)c(F)c(F)c(F)c4F)c4ccc([nH]4)c(-c4c(F)c(F)c(F)c(F)c4F)c4nc(c(-c5c(F)c(F)c(F)c(F)c5F)c5ccc2[nH]5)C=C4)C=C3)cc1
REMARK SMILES IDX 18 1 17 2 16 3 14 4 15 5 2 7 1 8 3 9 4 10 5 11 6 14 7 15
REMARK SMILES IDX 8 16 9 17 13 18 10 19 12 20 11 21 19 22 20 23 21 24 22 25
REMARK SMILES IDX 23 26 24 27 25 29 26 30 27 31 88 32 28 33 87 34 29 35 30 36
REMARK SMILES IDX 31 37 81 38 32 39 86 40 80 41 82 42 33 43 85 44 79 45 78 46
REMARK SMILES IDX 34 48 66 49 46 50 65 51 47 52 50 53 64 54 83 55 48 56 49 57
REMARK SMILES IDX 63 59 84 60 51 61 35 62 36 63 44 64 37 65 38 66 42 67 45 68
REMARK SMILES IDX 39 69 40 70 43 71 41 72 67 73 68 74 76 75 69 76 70 77 74 78
REMARK SMILES IDX 77 79 71 80 72 81 75 82 73 83 52 84 53 85 61 86 54 87 55 88
REMARK SMILES IDX 59 89 62 90 56 91 57 92 60 93 58 94
REMARK H PARENT 16 6 5 12 5 13 23 28 82 47 50 58
REMARK Flexibility Score: inf
ROOT
ATOM      1  C   UNL A   1      33.107  29.445  24.814  1.00  0.00     0.021 C 
ENDROOT
BRANCH   1   2
ATOM      2  C   UNL A   1      33.455  27.957  24.799  1.00  0.00     0.116 C 
BRANCH   2   3
ATOM      3  N   UNL A   1      33.577  27.454  23.449  1.00  0.00    -0.355 N 
ATOM      4  C   UNL A   1      33.620  26.197  22.933  1.00  0.00     0.231 C 
ATOM      5  O   UNL A   1      33.761  26.134  21.704  1.00  0.00    -0.274 OA
ATOM      6  H   UNL A   1      33.643  28.162  22.768  1.00  0.00     0.163 HD
BRANCH   4   7
ATOM      7  C   UNL A   1      33.420  24.925  23.782  1.00  0.00     0.092 C 
ATOM      8  C   UNL A   1      34.672  24.738  24.678  1.00  0.00     0.027 C 
ATOM      9  C   UNL A   1      33.367  23.697  22.850  1.00  0.00     0.027 C 
BRANCH   7  10
ATOM     10  C   UNL A   1      32.161  24.967  24.686  1.00  0.00     0.276 C 
BRANCH  10  11
ATOM     11  N   UNL A   1      30.907  24.691  23.983  1.00  0.00    -0.345 N 
ATOM     12  H   UNL A   1      30.213  24.394  24.668  1.00  0.00     0.346 HD
ATOM     13  H   UNL A   1      31.106  23.967  23.292  1.00  0.00     0.346 HD
BRANCH  11  14
ATOM     14  C   UNL A   1      30.373  25.844  23.252  1.00  0.00     0.265 C 
BRANCH  14  15
ATOM     15  C   UNL A   1      29.122  26.516  23.846  1.00  0.00     0.098 C 
BRANCH  15  16
ATOM     16  C   UNL A   1      28.810  27.870  23.265  1.00  0.00    -0.024 A 
ATOM     17  C   UNL A   1      29.790  28.620  22.608  1.00  0.00     0.007 A 
ATOM     18  C   UNL A   1      27.535  28.419  23.347  1.00  0.00     0.114 A 
ATOM     19  C   UNL A   1      29.463  29.853  22.055  1.00  0.00     0.020 A 
ATOM     20  N   UNL A   1      27.190  29.616  22.824  1.00  0.00    -0.264 NA
ATOM     21  C   UNL A   1      28.160  30.304  22.186  1.00  0.00     0.111 A 
ENDBRANCH  15  16
ENDBRANCH  14  15
ENDBRANCH  11  14
ENDBRANCH  10  11
ENDBRANCH   7  10
ENDBRANCH   4   7
ENDBRANCH   2   3
ENDBRANCH   1   2
BRANCH   1  22
ATOM     22  C   UNL A   1      31.724  29.765  25.395  1.00  0.00     0.002 C 
BRANCH  22  23
ATOM     23  C   UNL A   1      31.730  30.427  26.778  1.00  0.00     0.002 C 
BRANCH  23  24
ATOM     24  C   UNL A   1      31.544  31.946  26.779  1.00  0.00     0.021 C 
BRANCH  24  25
ATOM     25  C   UNL A   1      32.799  32.747  27.110  1.00  0.00     0.116 C 
BRANCH  25  26
ATOM     26  N   UNL A   1      32.493  34.102  27.539  1.00  0.00    -0.352 N 
ATOM     27  C   UNL A   1      33.015  34.830  28.576  1.00  0.00     0.251 C 
ATOM     28  H   UNL A   1      31.809  34.565  27.004  1.00  0.00     0.163 HD
ATOM     29  O   UNL A   1      32.504  35.900  28.898  1.00  0.00    -0.269 OA
BRANCH  27  30
ATOM     30  C   UNL A   1      34.182  34.322  29.328  1.00  0.00     0.039 A 
ATOM     31  C   UNL A   1      33.961  33.585  30.495  1.00  0.00     0.014 A 
ATOM     32  C   UNL A   1      35.487  34.581  28.899  1.00  0.00     0.014 A 
ATOM     33  C   UNL A   1      35.044  33.052  31.195  1.00  0.00     0.010 A 
ATOM     34  C   UNL A   1      36.564  33.997  29.562  1.00  0.00     0.010 A 
ATOM     35  C   UNL A   1      36.352  33.224  30.714  1.00  0.00    -0.014 A 
BRANCH  35  36
ATOM     36  C   UNL A   1      37.508  32.584  31.392  1.00  0.00     0.031 A 
ATOM     37  C   UNL A   1      38.221  31.428  30.751  1.00  0.00     0.074 A 
ATOM     38  C   UNL A   1      37.869  33.002  32.620  1.00  0.00     0.049 A 
ATOM     39  N   UNL A   1      39.205  30.700  31.219  1.00  0.00    -0.248 NA
ATOM     40  C   UNL A   1      37.753  31.018  29.419  1.00  0.00     0.031 C 
ATOM     41  C   UNL A   1      37.221  34.081  33.368  1.00  0.00     0.029 A 
ATOM     42  N   UNL A   1      38.859  32.563  33.463  1.00  0.00    -0.354 N 
ATOM     43  C   UNL A   1      39.463  29.742  30.248  1.00  0.00     0.074 A 
ATOM     44  C   UNL A   1      38.501  29.950  29.185  1.00  0.00     0.031 C 
ATOM     45  C   UNL A   1      37.840  34.230  34.550  1.00  0.00     0.029 A 
ATOM     46  C   UNL A   1      38.903  33.236  34.658  1.00  0.00     0.049 A 
ATOM     47  H   UNL A   1      39.479  31.833  33.232  1.00  0.00     0.167 HD
ATOM     48  C   UNL A   1      40.425  28.789  30.236  1.00  0.00     0.037 A 
ATOM     49  C   UNL A   1      39.705  33.066  35.727  1.00  0.00     0.037 A 
ATOM     50  C   UNL A   1      41.396  28.603  31.283  1.00  0.00     0.049 A 
ATOM     51  C   UNL A   1      40.766  32.000  35.688  1.00  0.00     0.074 A 
ATOM     52  C   UNL A   1      42.457  27.716  31.328  1.00  0.00     0.029 A 
ATOM     53  N   UNL A   1      41.418  29.315  32.474  1.00  0.00    -0.354 N 
ATOM     54  N   UNL A   1      41.047  31.148  34.732  1.00  0.00    -0.248 NA
ATOM     55  C   UNL A   1      41.621  31.874  36.875  1.00  0.00     0.031 C 
ATOM     56  C   UNL A   1      43.094  27.858  32.565  1.00  0.00     0.029 A 
ATOM     57  C   UNL A   1      42.458  28.866  33.273  1.00  0.00     0.049 A 
ATOM     58  H   UNL A   1      40.789  30.031  32.716  1.00  0.00     0.167 HD
ATOM     59  C   UNL A   1      42.122  30.401  35.191  1.00  0.00     0.074 A 
ATOM     60  C   UNL A   1      42.455  30.912  36.506  1.00  0.00     0.031 C 
ATOM     61  C   UNL A   1      42.774  29.381  34.581  1.00  0.00     0.037 A 
BRANCH  48  62
ATOM     62  C   UNL A   1      40.479  27.871  29.049  1.00  0.00     0.064 A 
ATOM     63  C   UNL A   1      41.327  28.125  27.960  1.00  0.00     0.173 A 
ATOM     64  C   UNL A   1      39.704  26.703  29.018  1.00  0.00     0.173 A 
ATOM     65  F   UNL A   1      42.081  29.235  27.937  1.00  0.00    -0.203 F 
ATOM     66  C   UNL A   1      41.375  27.259  26.872  1.00  0.00     0.198 A 
ATOM     67  C   UNL A   1      39.776  25.822  27.940  1.00  0.00     0.198 A 
ATOM     68  F   UNL A   1      38.880  26.408  30.035  1.00  0.00    -0.203 F 
ATOM     69  F   UNL A   1      42.158  27.545  25.823  1.00  0.00    -0.200 F 
ATOM     70  C   UNL A   1      40.606  26.105  26.866  1.00  0.00     0.200 A 
ATOM     71  F   UNL A   1      39.041  24.702  27.943  1.00  0.00    -0.200 F 
ATOM     72  F   UNL A   1      40.659  25.268  25.821  1.00  0.00    -0.200 F 
ENDBRANCH  48  62
BRANCH  49  73
ATOM     73  C   UNL A   1      39.546  33.940  36.917  1.00  0.00     0.064 A 
ATOM     74  C   UNL A   1      38.777  33.527  38.015  1.00  0.00     0.173 A 
ATOM     75  C   UNL A   1      40.160  35.198  36.987  1.00  0.00     0.173 A 
ATOM     76  F   UNL A   1      38.153  32.341  37.985  1.00  0.00    -0.203 F 
ATOM     77  C   UNL A   1      38.615  34.348  39.129  1.00  0.00     0.198 A 
ATOM     78  C   UNL A   1      40.021  36.006  38.113  1.00  0.00     0.198 A 
ATOM     79  F   UNL A   1      40.911  35.636  35.965  1.00  0.00    -0.203 F 
ATOM     80  F   UNL A   1      37.842  33.946  40.147  1.00  0.00    -0.200 F 
ATOM     81  C   UNL A   1      39.243  35.583  39.180  1.00  0.00     0.200 A 
ATOM     82  F   UNL A   1      40.640  37.193  38.164  1.00  0.00    -0.200 F 
ATOM     83  F   UNL A   1      39.092  36.369  40.254  1.00  0.00    -0.200 F 
ENDBRANCH  49  73
BRANCH  61  84
ATOM     84  C   UNL A   1      43.923  28.761  35.321  1.00  0.00     0.064 A 
ATOM     85  C   UNL A   1      43.734  27.678  36.191  1.00  0.00     0.173 A 
ATOM     86  C   UNL A   1      45.230  29.232  35.131  1.00  0.00     0.173 A 
ATOM     87  F   UNL A   1      42.500  27.201  36.418  1.00  0.00    -0.203 F 
ATOM     88  C   UNL A   1      44.810  27.103  36.862  1.00  0.00     0.198 A 
ATOM     89  C   UNL A   1      46.307  28.638  35.781  1.00  0.00     0.198 A 
ATOM     90  F   UNL A   1      45.465  30.263  34.305  1.00  0.00    -0.203 F 
ATOM     91  F   UNL A   1      44.601  26.098  37.724  1.00  0.00    -0.200 F 
ATOM     92  C   UNL A   1      46.096  27.578  36.652  1.00  0.00     0.200 A 
ATOM     93  F   UNL A   1      47.550  29.090  35.567  1.00  0.00    -0.200 F 
ATOM     94  F   UNL A   1      47.131  27.019  37.293  1.00  0.00    -0.200 F 
ENDBRANCH  61  84
ENDBRANCH  35  36
ENDBRANCH  27  30
ENDBRANCH  25  26
ENDBRANCH  24  25
ENDBRANCH  23  24
ENDBRANCH  22  23
ENDBRANCH   1  22
TORSDOF 18
ENDMDL
