MODEL 1
REMARK VINA RESULT:     -11.5      0.000      0.000
REMARK SMILES C[C@@](NC(=O)NCC(N)=O)(C(=O)NCCCCCCNC(=O)c1ccc(-c2c3nc(c(-c4c(F)c(F)c(F)c(F)c4F)c4ccc([nH]4)c(-c4c(F)c(F)c(F)c(F)c4F)c4nc(c(-c5c(F)c(F)c(F)c(F)c5F)c5ccc2[nH]5)C=C4)C=C3)cc1)C(F)(F)F
REMARK SMILES IDX 16 1 15 2 14 3 13 4 11 5 12 6 2 8 1 9 3 10 4 11 5 13 6 14
REMARK SMILES IDX 7 16 8 17 9 18 10 19 86 22 87 23 88 24 89 25 17 26 18 27
REMARK SMILES IDX 19 28 20 29 21 30 22 32 23 33 24 34 85 35 25 36 84 37 26 38
REMARK SMILES IDX 27 39 28 40 78 41 29 42 83 43 77 44 79 45 30 46 82 47 76 48
REMARK SMILES IDX 75 49 31 51 63 52 43 53 62 54 44 55 47 56 61 57 80 58 45 59
REMARK SMILES IDX 46 60 60 62 81 63 48 64 32 65 33 66 41 67 34 68 35 69 39 70
REMARK SMILES IDX 42 71 36 72 37 73 40 74 38 75 64 76 65 77 73 78 66 79 67 80
REMARK SMILES IDX 71 81 74 82 68 83 69 84 72 85 70 86 49 87 50 88 58 89 51 90
REMARK SMILES IDX 52 91 56 92 59 93 53 94 54 95 57 96 55 97
REMARK H PARENT 13 7 3 12 6 15 9 20 9 21 20 31 79 50 47 61
REMARK Flexibility Score: inf
ROOT
ATOM      1  C   UNL A   1      32.218  29.948  27.043  1.00  0.00     0.002 C 
ENDROOT
BRANCH   1   2
ATOM      2  C   UNL A   1      31.621  28.554  27.266  1.00  0.00     0.021 C 
BRANCH   2   3
ATOM      3  C   UNL A   1      32.231  27.496  26.360  1.00  0.00     0.116 C 
BRANCH   3   4
ATOM      4  N   UNL A   1      31.398  27.313  25.184  1.00  0.00    -0.354 N 
ATOM      5  C   UNL A   1      31.741  27.106  23.880  1.00  0.00     0.255 C 
ATOM      6  O   UNL A   1      30.798  27.033  23.090  1.00  0.00    -0.272 OA
ATOM      7  H   UNL A   1      30.429  27.344  25.356  1.00  0.00     0.163 HD
BRANCH   5   8
ATOM      8  C   UNL A   1      33.209  27.111  23.427  1.00  0.00     0.213 C 
ATOM      9  C   UNL A   1      33.937  26.181  24.431  1.00  0.00     0.056 C 
BRANCH   8  10
ATOM     10  N   UNL A   1      33.430  26.560  22.051  1.00  0.00    -0.316 N 
ATOM     11  C   UNL A   1      32.943  25.515  21.367  1.00  0.00     0.316 C 
ATOM     12  H   UNL A   1      34.083  27.082  21.532  1.00  0.00     0.166 HD
ATOM     13  O   UNL A   1      33.011  25.581  20.139  1.00  0.00    -0.249 OA
ATOM     14  N   UNL A   1      32.437  24.410  21.917  1.00  0.00    -0.329 N 
ATOM     15  H   UNL A   1      31.926  23.856  21.283  1.00  0.00     0.165 HD
BRANCH  14  16
ATOM     16  C   UNL A   1      32.483  23.860  23.253  1.00  0.00     0.217 C 
BRANCH  16  17
ATOM     17  C   UNL A   1      31.132  23.628  23.918  1.00  0.00     0.236 C 
ATOM     18  N   UNL A   1      30.064  23.991  23.140  1.00  0.00    -0.368 N 
ATOM     19  O   UNL A   1      30.980  23.117  25.021  1.00  0.00    -0.273 OA
ATOM     20  H   UNL A   1      30.215  24.400  22.257  1.00  0.00     0.159 HD
ATOM     21  H   UNL A   1      29.147  23.842  23.464  1.00  0.00     0.159 HD
ENDBRANCH  16  17
ENDBRANCH  14  16
ENDBRANCH   8  10
BRANCH   8  22
ATOM     22  C   UNL A   1      33.808  28.523  23.619  1.00  0.00     0.420 C 
ATOM     23  F   UNL A   1      34.479  28.654  24.786  1.00  0.00    -0.168 F 
ATOM     24  F   UNL A   1      34.716  28.774  22.636  1.00  0.00    -0.168 F 
ATOM     25  F   UNL A   1      32.893  29.511  23.557  1.00  0.00    -0.168 F 
ENDBRANCH   8  22
ENDBRANCH   5   8
ENDBRANCH   3   4
ENDBRANCH   2   3
ENDBRANCH   1   2
BRANCH   1  26
ATOM     26  C   UNL A   1      31.425  30.835  26.076  1.00  0.00     0.002 C 
BRANCH  26  27
ATOM     27  C   UNL A   1      31.316  32.303  26.491  1.00  0.00     0.021 C 
BRANCH  27  28
ATOM     28  C   UNL A   1      32.534  32.843  27.230  1.00  0.00     0.116 C 
BRANCH  28  29
ATOM     29  N   UNL A   1      32.352  34.214  27.672  1.00  0.00    -0.352 N 
ATOM     30  C   UNL A   1      33.029  34.888  28.653  1.00  0.00     0.251 C 
ATOM     31  H   UNL A   1      31.652  34.726  27.205  1.00  0.00     0.163 HD
ATOM     32  O   UNL A   1      32.654  35.997  29.024  1.00  0.00    -0.269 OA
BRANCH  30  33
ATOM     33  C   UNL A   1      34.204  34.254  29.281  1.00  0.00     0.039 A 
ATOM     34  C   UNL A   1      34.007  33.384  30.354  1.00  0.00     0.014 A 
ATOM     35  C   UNL A   1      35.493  34.509  28.802  1.00  0.00     0.014 A 
ATOM     36  C   UNL A   1      35.105  32.741  30.927  1.00  0.00     0.010 A 
ATOM     37  C   UNL A   1      36.574  33.803  29.317  1.00  0.00     0.010 A 
ATOM     38  C   UNL A   1      36.394  32.929  30.399  1.00  0.00    -0.014 A 
BRANCH  38  39
ATOM     39  C   UNL A   1      37.570  32.254  31.003  1.00  0.00     0.031 A 
ATOM     40  C   UNL A   1      38.052  32.669  32.366  1.00  0.00     0.074 A 
ATOM     41  C   UNL A   1      38.219  31.293  30.317  1.00  0.00     0.049 A 
ATOM     42  N   UNL A   1      39.083  32.239  33.049  1.00  0.00    -0.248 NA
ATOM     43  C   UNL A   1      37.287  33.729  33.045  1.00  0.00     0.031 C 
ATOM     44  C   UNL A   1      37.874  30.834  28.969  1.00  0.00     0.029 A 
ATOM     45  N   UNL A   1      39.307  30.531  30.657  1.00  0.00    -0.354 N 
ATOM     46  C   UNL A   1      39.086  32.972  34.229  1.00  0.00     0.074 A 
ATOM     47  C   UNL A   1      38.006  33.927  34.140  1.00  0.00     0.031 C 
ATOM     48  C   UNL A   1      38.720  29.857  28.607  1.00  0.00     0.029 A 
ATOM     49  C   UNL A   1      39.689  29.645  29.679  1.00  0.00     0.049 A 
ATOM     50  H   UNL A   1      39.772  30.611  31.522  1.00  0.00     0.167 HD
ATOM     51  C   UNL A   1      39.892  32.833  35.308  1.00  0.00     0.037 A 
ATOM     52  C   UNL A   1      40.711  28.768  29.650  1.00  0.00     0.037 A 
ATOM     53  C   UNL A   1      40.960  31.874  35.399  1.00  0.00     0.049 A 
ATOM     54  C   UNL A   1      41.606  28.652  30.856  1.00  0.00     0.074 A 
ATOM     55  C   UNL A   1      41.832  31.647  36.449  1.00  0.00     0.029 A 
ATOM     56  N   UNL A   1      41.300  30.976  34.397  1.00  0.00    -0.354 N 
ATOM     57  N   UNL A   1      41.568  29.317  31.986  1.00  0.00    -0.248 NA
ATOM     58  C   UNL A   1      42.680  27.651  30.788  1.00  0.00     0.031 C 
ATOM     59  C   UNL A   1      42.724  30.639  36.068  1.00  0.00     0.029 A 
ATOM     60  C   UNL A   1      42.369  30.195  34.805  1.00  0.00     0.049 A 
ATOM     61  H   UNL A   1      40.847  30.903  33.525  1.00  0.00     0.167 HD
ATOM     62  C   UNL A   1      42.579  28.784  32.777  1.00  0.00     0.074 A 
ATOM     63  C   UNL A   1      43.202  27.732  32.003  1.00  0.00     0.031 C 
ATOM     64  C   UNL A   1      42.958  29.134  34.031  1.00  0.00     0.037 A 
BRANCH  51  65
ATOM     65  C   UNL A   1      39.634  33.728  36.486  1.00  0.00     0.064 A 
ATOM     66  C   UNL A   1      38.821  33.313  37.553  1.00  0.00     0.173 A 
ATOM     67  C   UNL A   1      40.237  34.991  36.575  1.00  0.00     0.173 A 
ATOM     68  F   UNL A   1      38.208  32.121  37.512  1.00  0.00    -0.203 F 
ATOM     69  C   UNL A   1      38.601  34.140  38.652  1.00  0.00     0.198 A 
ATOM     70  C   UNL A   1      40.042  35.802  37.691  1.00  0.00     0.198 A 
ATOM     71  F   UNL A   1      41.026  35.437  35.585  1.00  0.00    -0.203 F 
ATOM     72  F   UNL A   1      37.781  33.742  39.634  1.00  0.00    -0.200 F 
ATOM     73  C   UNL A   1      39.219  35.379  38.725  1.00  0.00     0.200 A 
ATOM     74  F   UNL A   1      40.651  36.993  37.767  1.00  0.00    -0.200 F 
ATOM     75  F   UNL A   1      39.018  36.169  39.788  1.00  0.00    -0.200 F 
ENDBRANCH  51  65
BRANCH  52  76
ATOM     76  C   UNL A   1      40.942  27.920  28.449  1.00  0.00     0.064 A 
ATOM     77  C   UNL A   1      41.730  28.373  27.381  1.00  0.00     0.173 A 
ATOM     78  C   UNL A   1      40.340  26.660  28.323  1.00  0.00     0.173 A 
ATOM     79  F   UNL A   1      42.315  29.578  27.444  1.00  0.00    -0.203 F 
ATOM     80  C   UNL A   1      41.870  27.620  26.216  1.00  0.00     0.198 A 
ATOM     81  C   UNL A   1      40.511  25.890  27.173  1.00  0.00     0.198 A 
ATOM     82  F   UNL A   1      39.584  26.173  29.317  1.00  0.00    -0.203 F 
ATOM     83  F   UNL A   1      42.567  28.112  25.183  1.00  0.00    -0.200 F 
ATOM     84  C   UNL A   1      41.261  26.378  26.115  1.00  0.00     0.200 A 
ATOM     85  F   UNL A   1      39.937  24.683  27.086  1.00  0.00    -0.200 F 
ATOM     86  F   UNL A   1      41.389  25.658  24.992  1.00  0.00    -0.200 F 
ENDBRANCH  52  76
BRANCH  64  87
ATOM     87  C   UNL A   1      44.050  28.324  34.671  1.00  0.00     0.064 A 
ATOM     88  C   UNL A   1      43.783  27.159  35.403  1.00  0.00     0.173 A 
ATOM     89  C   UNL A   1      45.392  28.715  34.527  1.00  0.00     0.173 A 
ATOM     90  F   UNL A   1      42.517  26.748  35.580  1.00  0.00    -0.203 F 
ATOM     91  C   UNL A   1      44.812  26.439  36.003  1.00  0.00     0.198 A 
ATOM     92  C   UNL A   1      46.421  27.972  35.096  1.00  0.00     0.198 A 
ATOM     93  F   UNL A   1      45.704  29.816  33.827  1.00  0.00    -0.203 F 
ATOM     94  F   UNL A   1      44.526  25.365  36.754  1.00  0.00    -0.200 F 
ATOM     95  C   UNL A   1      46.130  26.841  35.844  1.00  0.00     0.200 A 
ATOM     96  F   UNL A   1      47.694  28.352  34.924  1.00  0.00    -0.200 F 
ATOM     97  F   UNL A   1      47.119  26.145  36.420  1.00  0.00    -0.200 F 
ENDBRANCH  64  87
ENDBRANCH  38  39
ENDBRANCH  30  33
ENDBRANCH  28  29
ENDBRANCH  27  28
ENDBRANCH  26  27
ENDBRANCH   1  26
TORSDOF 17
ENDMDL
MODEL 2
REMARK VINA RESULT:     -11.3      1.263      7.693
REMARK SMILES C[C@@](NC(=O)NCC(N)=O)(C(=O)NCCCCCCNC(=O)c1ccc(-c2c3nc(c(-c4c(F)c(F)c(F)c(F)c4F)c4ccc([nH]4)c(-c4c(F)c(F)c(F)c(F)c4F)c4nc(c(-c5c(F)c(F)c(F)c(F)c5F)c5ccc2[nH]5)C=C4)C=C3)cc1)C(F)(F)F
REMARK SMILES IDX 16 1 15 2 14 3 13 4 11 5 12 6 2 8 1 9 3 10 4 11 5 13 6 14
REMARK SMILES IDX 7 16 8 17 9 18 10 19 86 22 87 23 88 24 89 25 17 26 18 27
REMARK SMILES IDX 19 28 20 29 21 30 22 32 23 33 24 34 85 35 25 36 84 37 26 38
REMARK SMILES IDX 27 39 28 40 78 41 29 42 83 43 77 44 79 45 30 46 82 47 76 48
REMARK SMILES IDX 75 49 31 51 63 52 43 53 62 54 44 55 47 56 61 57 80 58 45 59
REMARK SMILES IDX 46 60 60 62 81 63 48 64 32 65 33 66 41 67 34 68 35 69 39 70
REMARK SMILES IDX 42 71 36 72 37 73 40 74 38 75 64 76 65 77 73 78 66 79 67 80
REMARK SMILES IDX 71 81 74 82 68 83 69 84 72 85 70 86 49 87 50 88 58 89 51 90
REMARK SMILES IDX 52 91 56 92 59 93 53 94 54 95 57 96 55 97
REMARK H PARENT 13 7 3 12 6 15 9 20 9 21 20 31 79 50 47 61
REMARK Flexibility Score: inf
ROOT
ATOM      1  C   UNL A   1      32.425  29.964  27.020  1.00  0.00     0.002 C 
ENDROOT
BRANCH   1   2
ATOM      2  C   UNL A   1      31.820  28.650  27.525  1.00  0.00     0.021 C 
BRANCH   2   3
ATOM      3  C   UNL A   1      32.172  27.458  26.648  1.00  0.00     0.116 C 
BRANCH   3   4
ATOM      4  N   UNL A   1      32.933  27.903  25.494  1.00  0.00    -0.354 N 
ATOM      5  C   UNL A   1      33.318  27.227  24.373  1.00  0.00     0.255 C 
ATOM      6  O   UNL A   1      34.006  27.870  23.577  1.00  0.00    -0.272 OA
ATOM      7  H   UNL A   1      33.217  28.845  25.525  1.00  0.00     0.163 HD
BRANCH   5   8
ATOM      8  C   UNL A   1      33.027  25.729  24.202  1.00  0.00     0.213 C 
ATOM      9  C   UNL A   1      31.589  25.539  24.750  1.00  0.00     0.056 C 
BRANCH   8  10
ATOM     10  N   UNL A   1      33.039  25.258  22.779  1.00  0.00    -0.316 N 
ATOM     11  C   UNL A   1      32.665  25.794  21.608  1.00  0.00     0.316 C 
ATOM     12  H   UNL A   1      33.403  24.349  22.681  1.00  0.00     0.166 HD
ATOM     13  O   UNL A   1      33.185  25.321  20.596  1.00  0.00    -0.249 OA
ATOM     14  N   UNL A   1      31.754  26.757  21.465  1.00  0.00    -0.329 N 
ATOM     15  H   UNL A   1      31.769  27.181  20.576  1.00  0.00     0.165 HD
BRANCH  14  16
ATOM     16  C   UNL A   1      30.748  27.307  22.346  1.00  0.00     0.217 C 
BRANCH  16  17
ATOM     17  C   UNL A   1      30.487  28.800  22.199  1.00  0.00     0.236 C 
ATOM     18  N   UNL A   1      31.622  29.566  22.253  1.00  0.00    -0.368 N 
ATOM     19  O   UNL A   1      29.385  29.296  21.996  1.00  0.00    -0.273 OA
ATOM     20  H   UNL A   1      32.495  29.142  22.419  1.00  0.00     0.159 HD
ATOM     21  H   UNL A   1      31.564  30.540  22.128  1.00  0.00     0.159 HD
ENDBRANCH  16  17
ENDBRANCH  14  16
ENDBRANCH   8  10
BRANCH   8  22
ATOM     22  C   UNL A   1      33.962  24.909  25.120  1.00  0.00     0.420 C 
ATOM     23  F   UNL A   1      34.942  25.658  25.674  1.00  0.00    -0.168 F 
ATOM     24  F   UNL A   1      33.249  24.397  26.161  1.00  0.00    -0.168 F 
ATOM     25  F   UNL A   1      34.543  23.861  24.502  1.00  0.00    -0.168 F 
ENDBRANCH   8  22
ENDBRANCH   5   8
ENDBRANCH   3   4
ENDBRANCH   2   3
ENDBRANCH   1   2
BRANCH   1  26
ATOM     26  C   UNL A   1      31.501  30.785  26.115  1.00  0.00     0.002 C 
BRANCH  26  27
ATOM     27  C   UNL A   1      31.340  32.252  26.519  1.00  0.00     0.021 C 
BRANCH  27  28
ATOM     28  C   UNL A   1      32.540  32.841  27.249  1.00  0.00     0.116 C 
BRANCH  28  29
ATOM     29  N   UNL A   1      32.335  34.230  27.621  1.00  0.00    -0.352 N 
ATOM     30  C   UNL A   1      32.976  34.953  28.591  1.00  0.00     0.251 C 
ATOM     31  H   UNL A   1      31.646  34.715  27.110  1.00  0.00     0.163 HD
ATOM     32  O   UNL A   1      32.583  36.075  28.899  1.00  0.00    -0.269 OA
BRANCH  30  33
ATOM     33  C   UNL A   1      34.135  34.358  29.284  1.00  0.00     0.039 A 
ATOM     34  C   UNL A   1      33.917  33.611  30.442  1.00  0.00     0.014 A 
ATOM     35  C   UNL A   1      35.430  34.527  28.782  1.00  0.00     0.014 A 
ATOM     36  C   UNL A   1      34.999  33.003  31.080  1.00  0.00     0.010 A 
ATOM     37  C   UNL A   1      36.492  33.851  29.369  1.00  0.00     0.010 A 
ATOM     38  C   UNL A   1      36.292  33.101  30.537  1.00  0.00    -0.014 A 
BRANCH  38  39
ATOM     39  C   UNL A   1      37.451  32.462  31.210  1.00  0.00     0.031 A 
ATOM     40  C   UNL A   1      38.177  31.333  30.532  1.00  0.00     0.074 A 
ATOM     41  C   UNL A   1      37.830  32.877  32.434  1.00  0.00     0.049 A 
ATOM     42  N   UNL A   1      39.181  30.613  30.967  1.00  0.00    -0.248 NA
ATOM     43  C   UNL A   1      37.696  30.940  29.197  1.00  0.00     0.031 C 
ATOM     44  C   UNL A   1      37.177  33.933  33.210  1.00  0.00     0.029 A 
ATOM     45  N   UNL A   1      38.855  32.458  33.242  1.00  0.00    -0.354 N 
ATOM     46  C   UNL A   1      39.448  29.692  29.962  1.00  0.00     0.074 A 
ATOM     47  C   UNL A   1      38.455  29.888  28.931  1.00  0.00     0.031 C 
ATOM     48  C   UNL A   1      37.830  34.093  34.372  1.00  0.00     0.029 A 
ATOM     49  C   UNL A   1      38.923  33.127  34.440  1.00  0.00     0.049 A 
ATOM     50  H   UNL A   1      39.484  31.743  32.989  1.00  0.00     0.167 HD
ATOM     51  C   UNL A   1      40.455  28.790  29.887  1.00  0.00     0.037 A 
ATOM     52  C   UNL A   1      39.768  32.971  35.478  1.00  0.00     0.037 A 
ATOM     53  C   UNL A   1      41.449  28.604  30.910  1.00  0.00     0.049 A 
ATOM     54  C   UNL A   1      40.865  31.943  35.376  1.00  0.00     0.074 A 
ATOM     55  C   UNL A   1      42.516  27.723  30.930  1.00  0.00     0.029 A 
ATOM     56  N   UNL A   1      41.500  29.320  32.098  1.00  0.00    -0.354 N 
ATOM     57  N   UNL A   1      41.136  31.112  34.398  1.00  0.00    -0.248 NA
ATOM     58  C   UNL A   1      41.784  31.843  36.517  1.00  0.00     0.031 C 
ATOM     59  C   UNL A   1      43.188  27.877  32.146  1.00  0.00     0.029 A 
ATOM     60  C   UNL A   1      42.579  28.897  32.858  1.00  0.00     0.049 A 
ATOM     61  H   UNL A   1      40.864  30.024  32.361  1.00  0.00     0.167 HD
ATOM     62  C   UNL A   1      42.280  30.425  34.787  1.00  0.00     0.074 A 
ATOM     63  C   UNL A   1      42.659  30.948  36.082  1.00  0.00     0.031 C 
ATOM     64  C   UNL A   1      42.956  29.449  34.133  1.00  0.00     0.037 A 
BRANCH  51  65
ATOM     65  C   UNL A   1      40.543  27.950  28.645  1.00  0.00     0.064 A 
ATOM     66  C   UNL A   1      41.304  28.360  27.538  1.00  0.00     0.173 A 
ATOM     67  C   UNL A   1      39.900  26.706  28.572  1.00  0.00     0.173 A 
ATOM     68  F   UNL A   1      41.927  29.548  27.550  1.00  0.00    -0.203 F 
ATOM     69  C   UNL A   1      41.398  27.568  26.397  1.00  0.00     0.198 A 
ATOM     70  C   UNL A   1      40.023  25.900  27.442  1.00  0.00     0.198 A 
ATOM     71  F   UNL A   1      39.162  26.263  29.601  1.00  0.00    -0.203 F 
ATOM     72  F   UNL A   1      42.090  28.004  25.336  1.00  0.00    -0.200 F 
ATOM     73  C   UNL A   1      40.765  26.335  26.354  1.00  0.00     0.200 A 
ATOM     74  F   UNL A   1      39.424  24.702  27.406  1.00  0.00    -0.200 F 
ATOM     75  F   UNL A   1      40.867  25.567  25.260  1.00  0.00    -0.200 F 
ENDBRANCH  51  65
BRANCH  52  76
ATOM     76  C   UNL A   1      39.625  33.810  36.698  1.00  0.00     0.064 A 
ATOM     77  C   UNL A   1      38.866  33.375  37.794  1.00  0.00     0.173 A 
ATOM     78  C   UNL A   1      40.205  35.085  36.776  1.00  0.00     0.173 A 
ATOM     79  F   UNL A   1      38.276  32.170  37.764  1.00  0.00    -0.203 F 
ATOM     80  C   UNL A   1      38.653  34.199  38.898  1.00  0.00     0.198 A 
ATOM     81  C   UNL A   1      40.023  35.893  37.896  1.00  0.00     0.198 A 
ATOM     82  F   UNL A   1      40.950  35.548  35.761  1.00  0.00    -0.203 F 
ATOM     83  F   UNL A   1      37.861  33.785  39.896  1.00  0.00    -0.200 F 
ATOM     84  C   UNL A   1      39.234  35.457  38.949  1.00  0.00     0.200 A 
ATOM     85  F   UNL A   1      40.602  37.101  37.949  1.00  0.00    -0.200 F 
ATOM     86  F   UNL A   1      39.023  36.252  40.007  1.00  0.00    -0.200 F 
ENDBRANCH  52  76
BRANCH  64  87
ATOM     87  C   UNL A   1      44.215  28.936  34.772  1.00  0.00     0.064 A 
ATOM     88  C   UNL A   1      45.465  29.523  34.534  1.00  0.00     0.173 A 
ATOM     89  C   UNL A   1      44.160  27.846  35.658  1.00  0.00     0.173 A 
ATOM     90  F   UNL A   1      45.575  30.558  33.687  1.00  0.00    -0.203 F 
ATOM     91  C   UNL A   1      46.619  29.014  35.123  1.00  0.00     0.198 A 
ATOM     92  C   UNL A   1      45.309  27.365  36.276  1.00  0.00     0.198 A 
ATOM     93  F   UNL A   1      42.987  27.255  35.931  1.00  0.00    -0.203 F 
ATOM     94  F   UNL A   1      47.812  29.550  34.828  1.00  0.00    -0.200 F 
ATOM     95  C   UNL A   1      46.540  27.941  35.999  1.00  0.00     0.200 A 
ATOM     96  F   UNL A   1      45.227  26.341  37.136  1.00  0.00    -0.200 F 
ATOM     97  F   UNL A   1      47.651  27.454  36.568  1.00  0.00    -0.200 F 
ENDBRANCH  64  87
ENDBRANCH  38  39
ENDBRANCH  30  33
ENDBRANCH  28  29
ENDBRANCH  27  28
ENDBRANCH  26  27
ENDBRANCH   1  26
TORSDOF 17
ENDMDL
MODEL 3
REMARK VINA RESULT:     -11.3      1.225      2.353
REMARK SMILES C[C@@](NC(=O)NCC(N)=O)(C(=O)NCCCCCCNC(=O)c1ccc(-c2c3nc(c(-c4c(F)c(F)c(F)c(F)c4F)c4ccc([nH]4)c(-c4c(F)c(F)c(F)c(F)c4F)c4nc(c(-c5c(F)c(F)c(F)c(F)c5F)c5ccc2[nH]5)C=C4)C=C3)cc1)C(F)(F)F
REMARK SMILES IDX 16 1 15 2 14 3 13 4 11 5 12 6 2 8 1 9 3 10 4 11 5 13 6 14
REMARK SMILES IDX 7 16 8 17 9 18 10 19 86 22 87 23 88 24 89 25 17 26 18 27
REMARK SMILES IDX 19 28 20 29 21 30 22 32 23 33 24 34 85 35 25 36 84 37 26 38
REMARK SMILES IDX 27 39 28 40 78 41 29 42 83 43 77 44 79 45 30 46 82 47 76 48
REMARK SMILES IDX 75 49 31 51 63 52 43 53 62 54 44 55 47 56 61 57 80 58 45 59
REMARK SMILES IDX 46 60 60 62 81 63 48 64 32 65 33 66 41 67 34 68 35 69 39 70
REMARK SMILES IDX 42 71 36 72 37 73 40 74 38 75 64 76 65 77 73 78 66 79 67 80
REMARK SMILES IDX 71 81 74 82 68 83 69 84 72 85 70 86 49 87 50 88 58 89 51 90
REMARK SMILES IDX 52 91 56 92 59 93 53 94 54 95 57 96 55 97
REMARK H PARENT 13 7 3 12 6 15 9 20 9 21 20 31 79 50 47 61
REMARK Flexibility Score: inf
ROOT
ATOM      1  C   UNL A   1      32.367  29.982  26.956  1.00  0.00     0.002 C 
ENDROOT
BRANCH   1   2
ATOM      2  C   UNL A   1      31.776  28.671  27.488  1.00  0.00     0.021 C 
BRANCH   2   3
ATOM      3  C   UNL A   1      32.246  27.451  26.712  1.00  0.00     0.116 C 
BRANCH   3   4
ATOM      4  N   UNL A   1      32.996  27.869  25.541  1.00  0.00    -0.354 N 
ATOM      5  C   UNL A   1      33.351  27.174  24.422  1.00  0.00     0.255 C 
ATOM      6  O   UNL A   1      34.037  27.796  23.608  1.00  0.00    -0.272 OA
ATOM      7  H   UNL A   1      33.297  28.806  25.557  1.00  0.00     0.163 HD
BRANCH   5   8
ATOM      8  C   UNL A   1      33.032  25.679  24.273  1.00  0.00     0.213 C 
ATOM      9  C   UNL A   1      31.587  25.527  24.813  1.00  0.00     0.056 C 
BRANCH   8  10
ATOM     10  N   UNL A   1      33.044  25.185  22.857  1.00  0.00    -0.316 N 
ATOM     11  C   UNL A   1      32.684  25.707  21.676  1.00  0.00     0.316 C 
ATOM     12  H   UNL A   1      33.396  24.270  22.777  1.00  0.00     0.166 HD
ATOM     13  O   UNL A   1      33.202  25.211  20.674  1.00  0.00    -0.249 OA
ATOM     14  N   UNL A   1      31.787  26.680  21.512  1.00  0.00    -0.329 N 
ATOM     15  H   UNL A   1      31.813  27.090  20.617  1.00  0.00     0.165 HD
BRANCH  14  16
ATOM     16  C   UNL A   1      30.785  27.259  22.379  1.00  0.00     0.217 C 
BRANCH  16  17
ATOM     17  C   UNL A   1      30.600  28.765  22.260  1.00  0.00     0.236 C 
ATOM     18  N   UNL A   1      31.777  29.464  22.197  1.00  0.00    -0.368 N 
ATOM     19  O   UNL A   1      29.514  29.327  22.171  1.00  0.00    -0.273 OA
ATOM     20  H   UNL A   1      32.636  28.987  22.273  1.00  0.00     0.159 HD
ATOM     21  H   UNL A   1      31.764  30.440  22.079  1.00  0.00     0.159 HD
ENDBRANCH  16  17
ENDBRANCH  14  16
ENDBRANCH   8  10
BRANCH   8  22
ATOM     22  C   UNL A   1      33.943  24.855  25.211  1.00  0.00     0.420 C 
ATOM     23  F   UNL A   1      35.099  25.491  25.510  1.00  0.00    -0.168 F 
ATOM     24  F   UNL A   1      33.312  24.649  26.399  1.00  0.00    -0.168 F 
ATOM     25  F   UNL A   1      34.256  23.637  24.726  1.00  0.00    -0.168 F 
ENDBRANCH   8  22
ENDBRANCH   5   8
ENDBRANCH   3   4
ENDBRANCH   2   3
ENDBRANCH   1   2
BRANCH   1  26
ATOM     26  C   UNL A   1      31.401  30.820  26.111  1.00  0.00     0.002 C 
BRANCH  26  27
ATOM     27  C   UNL A   1      31.315  32.295  26.504  1.00  0.00     0.021 C 
BRANCH  27  28
ATOM     28  C   UNL A   1      32.583  32.857  27.133  1.00  0.00     0.116 C 
BRANCH  28  29
ATOM     29  N   UNL A   1      32.405  34.212  27.626  1.00  0.00    -0.352 N 
ATOM     30  C   UNL A   1      33.075  34.842  28.641  1.00  0.00     0.251 C 
ATOM     31  H   UNL A   1      31.713  34.746  27.173  1.00  0.00     0.163 HD
ATOM     32  O   UNL A   1      32.703  35.938  29.051  1.00  0.00    -0.269 OA
BRANCH  30  33
ATOM     33  C   UNL A   1      34.240  34.175  29.255  1.00  0.00     0.039 A 
ATOM     34  C   UNL A   1      34.028  33.276  30.301  1.00  0.00     0.014 A 
ATOM     35  C   UNL A   1      35.534  34.430  28.790  1.00  0.00     0.014 A 
ATOM     36  C   UNL A   1      35.116  32.604  30.859  1.00  0.00     0.010 A 
ATOM     37  C   UNL A   1      36.604  33.697  29.289  1.00  0.00     0.010 A 
ATOM     38  C   UNL A   1      36.409  32.793  30.343  1.00  0.00    -0.014 A 
BRANCH  38  39
ATOM     39  C   UNL A   1      37.575  32.087  30.932  1.00  0.00     0.031 A 
ATOM     40  C   UNL A   1      38.063  32.467  32.303  1.00  0.00     0.074 A 
ATOM     41  C   UNL A   1      38.207  31.130  30.226  1.00  0.00     0.049 A 
ATOM     42  N   UNL A   1      39.088  32.006  32.976  1.00  0.00    -0.248 NA
ATOM     43  C   UNL A   1      37.316  33.524  33.004  1.00  0.00     0.031 C 
ATOM     44  C   UNL A   1      37.855  30.705  28.870  1.00  0.00     0.029 A 
ATOM     45  N   UNL A   1      39.283  30.344  30.550  1.00  0.00    -0.354 N 
ATOM     46  C   UNL A   1      39.103  32.714  34.171  1.00  0.00     0.074 A 
ATOM     47  C   UNL A   1      38.038  33.688  34.102  1.00  0.00     0.031 C 
ATOM     48  C   UNL A   1      38.685  29.721  28.487  1.00  0.00     0.029 A 
ATOM     49  C   UNL A   1      39.650  29.472  29.553  1.00  0.00     0.049 A 
ATOM     50  H   UNL A   1      39.750  30.398  31.416  1.00  0.00     0.167 HD
ATOM     51  C   UNL A   1      39.908  32.541  35.247  1.00  0.00     0.037 A 
ATOM     52  C   UNL A   1      40.658  28.579  29.506  1.00  0.00     0.037 A 
ATOM     53  C   UNL A   1      40.960  31.563  35.317  1.00  0.00     0.049 A 
ATOM     54  C   UNL A   1      41.552  28.424  30.709  1.00  0.00     0.074 A 
ATOM     55  C   UNL A   1      41.829  31.300  36.362  1.00  0.00     0.029 A 
ATOM     56  N   UNL A   1      41.285  30.680  34.296  1.00  0.00    -0.354 N 
ATOM     57  N   UNL A   1      41.525  29.067  31.852  1.00  0.00    -0.248 NA
ATOM     58  C   UNL A   1      42.609  27.408  30.620  1.00  0.00     0.031 C 
ATOM     59  C   UNL A   1      42.704  30.286  35.959  1.00  0.00     0.029 A 
ATOM     60  C   UNL A   1      42.342  29.874  34.688  1.00  0.00     0.049 A 
ATOM     61  H   UNL A   1      40.830  30.633  33.424  1.00  0.00     0.167 HD
ATOM     62  C   UNL A   1      42.528  28.502  32.631  1.00  0.00     0.074 A 
ATOM     63  C   UNL A   1      43.133  27.455  31.835  1.00  0.00     0.031 C 
ATOM     64  C   UNL A   1      42.913  28.819  33.891  1.00  0.00     0.037 A 
BRANCH  51  65
ATOM     65  C   UNL A   1      39.665  33.415  36.443  1.00  0.00     0.064 A 
ATOM     66  C   UNL A   1      38.791  33.021  37.470  1.00  0.00     0.173 A 
ATOM     67  C   UNL A   1      40.341  34.635  36.591  1.00  0.00     0.173 A 
ATOM     68  F   UNL A   1      38.108  31.871  37.371  1.00  0.00    -0.203 F 
ATOM     69  C   UNL A   1      38.585  33.828  38.586  1.00  0.00     0.198 A 
ATOM     70  C   UNL A   1      40.158  35.424  37.725  1.00  0.00     0.198 A 
ATOM     71  F   UNL A   1      41.189  35.059  35.642  1.00  0.00    -0.203 F 
ATOM     72  F   UNL A   1      37.708  33.454  39.528  1.00  0.00    -0.200 F 
ATOM     73  C   UNL A   1      39.275  35.023  38.717  1.00  0.00     0.200 A 
ATOM     74  F   UNL A   1      40.836  36.571  37.857  1.00  0.00    -0.200 F 
ATOM     75  F   UNL A   1      39.086  35.793  39.797  1.00  0.00    -0.200 F 
ENDBRANCH  51  65
BRANCH  52  76
ATOM     76  C   UNL A   1      40.875  27.752  28.288  1.00  0.00     0.064 A 
ATOM     77  C   UNL A   1      40.299  26.480  28.161  1.00  0.00     0.173 A 
ATOM     78  C   UNL A   1      41.701  28.197  27.245  1.00  0.00     0.173 A 
ATOM     79  F   UNL A   1      39.514  26.000  29.138  1.00  0.00    -0.203 F 
ATOM     80  C   UNL A   1      40.578  25.666  27.065  1.00  0.00     0.198 A 
ATOM     81  C   UNL A   1      41.949  27.398  26.131  1.00  0.00     0.198 A 
ATOM     82  F   UNL A   1      42.269  29.409  27.308  1.00  0.00    -0.203 F 
ATOM     83  F   UNL A   1      40.074  24.426  27.009  1.00  0.00    -0.200 F 
ATOM     84  C   UNL A   1      41.402  26.127  26.049  1.00  0.00     0.200 A 
ATOM     85  F   UNL A   1      42.731  27.855  25.143  1.00  0.00    -0.200 F 
ATOM     86  F   UNL A   1      41.677  25.342  24.999  1.00  0.00    -0.200 F 
ENDBRANCH  52  76
BRANCH  64  87
ATOM     87  C   UNL A   1      43.992  27.979  34.514  1.00  0.00     0.064 A 
ATOM     88  C   UNL A   1      45.343  28.351  34.473  1.00  0.00     0.173 A 
ATOM     89  C   UNL A   1      43.659  26.790  35.183  1.00  0.00     0.173 A 
ATOM     90  F   UNL A   1      45.716  29.471  33.835  1.00  0.00    -0.203 F 
ATOM     91  C   UNL A   1      46.325  27.543  35.040  1.00  0.00     0.198 A 
ATOM     92  C   UNL A   1      44.638  26.005  35.783  1.00  0.00     0.198 A 
ATOM     93  F   UNL A   1      42.379  26.394  35.263  1.00  0.00    -0.203 F 
ATOM     94  F   UNL A   1      47.617  27.885  34.930  1.00  0.00    -0.200 F 
ATOM     95  C   UNL A   1      45.972  26.375  35.701  1.00  0.00     0.200 A 
ATOM     96  F   UNL A   1      44.293  24.888  36.437  1.00  0.00    -0.200 F 
ATOM     97  F   UNL A   1      46.918  25.601  36.249  1.00  0.00    -0.200 F 
ENDBRANCH  64  87
ENDBRANCH  38  39
ENDBRANCH  30  33
ENDBRANCH  28  29
ENDBRANCH  27  28
ENDBRANCH  26  27
ENDBRANCH   1  26
TORSDOF 17
ENDMDL
