MODEL 1
REMARK VINA RESULT:     -12.9      0.000      0.000
REMARK SMILES O=C(Cc1ccc(F)c(F)c1)NC1(C(=O)NCCCCCCNC(=O)c2ccc(-c3c4nc(c(-c5c(F)c(F)c(F)c(F)c5F)c5ccc([nH]5)c(-c5c(F)c(F)c(F)c(F)c5F)c5nc(c(-c6c(F)c(F)c(F)c(F)c6F)c6ccc3[nH]6)C=C5)C=C4)cc2)CCCC1
REMARK SMILES IDX 19 1 18 2 17 3 16 4 14 5 15 6 13 8 89 9 92 10 90 11 91 12
REMARK SMILES IDX 12 13 1 14 2 15 3 17 4 18 5 19 11 20 6 21 9 22 7 23 10 24
REMARK SMILES IDX 8 25 20 26 21 27 22 28 23 29 24 30 25 32 26 33 27 34 88 35
REMARK SMILES IDX 28 36 87 37 29 38 30 39 31 40 81 41 32 42 86 43 80 44 82 45
REMARK SMILES IDX 33 46 85 47 79 48 78 49 34 51 66 52 46 53 65 54 47 55 50 56
REMARK SMILES IDX 64 57 83 58 48 59 49 60 63 62 84 63 51 64 35 65 36 66 44 67
REMARK SMILES IDX 37 68 38 69 42 70 45 71 39 72 40 73 43 74 41 75 67 76 68 77
REMARK SMILES IDX 76 78 69 79 70 80 74 81 77 82 71 83 72 84 75 85 73 86 52 87
REMARK SMILES IDX 53 88 61 89 54 90 55 91 59 92 62 93 56 94 57 95 60 96 58 97
REMARK H PARENT 16 7 12 16 23 31 82 50 50 61
REMARK Flexibility Score: inf
ROOT
ATOM      1  C   UNL A   1      33.130  30.038  27.204  1.00  0.00     0.002 C 
ENDROOT
BRANCH   1   2
ATOM      2  C   UNL A   1      33.860  29.523  25.965  1.00  0.00     0.021 C 
BRANCH   2   3
ATOM      3  C   UNL A   1      32.983  29.409  24.729  1.00  0.00     0.116 C 
BRANCH   3   4
ATOM      4  N   UNL A   1      33.715  29.026  23.554  1.00  0.00    -0.354 N 
ATOM      5  C   UNL A   1      33.687  27.881  22.830  1.00  0.00     0.245 C 
ATOM      6  O   UNL A   1      34.228  27.953  21.714  1.00  0.00    -0.272 OA
ATOM      7  H   UNL A   1      34.342  29.709  23.219  1.00  0.00     0.163 HD
BRANCH   5   8
ATOM      8  C   UNL A   1      32.924  26.581  23.267  1.00  0.00     0.119 C 
ATOM      9  C   UNL A   1      33.555  25.959  24.527  1.00  0.00     0.038 C 
ATOM     10  C   UNL A   1      32.814  25.413  22.269  1.00  0.00     0.038 C 
ATOM     11  C   UNL A   1      34.300  24.707  24.092  1.00  0.00     0.003 C 
ATOM     12  C   UNL A   1      33.626  24.236  22.815  1.00  0.00     0.003 C 
BRANCH   8  13
ATOM     13  N   UNL A   1      31.587  27.092  23.620  1.00  0.00    -0.341 N 
ATOM     14  O   UNL A   1      30.843  27.398  21.461  1.00  0.00    -0.275 OA
ATOM     15  C   UNL A   1      30.664  27.490  22.671  1.00  0.00     0.225 C 
ATOM     16  H   UNL A   1      31.340  27.151  24.571  1.00  0.00     0.164 HD
BRANCH  15  17
ATOM     17  C   UNL A   1      29.362  27.989  23.269  1.00  0.00     0.135 C 
BRANCH  17  18
ATOM     18  C   UNL A   1      29.066  29.432  22.915  1.00  0.00    -0.036 A 
ATOM     19  C   UNL A   1      29.413  30.456  23.811  1.00  0.00     0.007 A 
ATOM     20  C   UNL A   1      28.405  29.778  21.723  1.00  0.00     0.046 A 
ATOM     21  C   UNL A   1      29.137  31.792  23.507  1.00  0.00     0.043 A 
ATOM     22  C   UNL A   1      28.140  31.111  21.424  1.00  0.00     0.159 A 
ATOM     23  C   UNL A   1      28.507  32.112  22.310  1.00  0.00     0.158 A 
ATOM     24  F   UNL A   1      27.527  31.412  20.272  1.00  0.00    -0.204 F 
ATOM     25  F   UNL A   1      28.249  33.394  22.021  1.00  0.00    -0.204 F 
ENDBRANCH  17  18
ENDBRANCH  15  17
ENDBRANCH   8  13
ENDBRANCH   5   8
ENDBRANCH   3   4
ENDBRANCH   2   3
ENDBRANCH   1   2
BRANCH   1  26
ATOM     26  C   UNL A   1      31.711  30.558  26.952  1.00  0.00     0.002 C 
BRANCH  26  27
ATOM     27  C   UNL A   1      31.577  32.082  26.885  1.00  0.00     0.021 C 
BRANCH  27  28
ATOM     28  C   UNL A   1      32.821  32.845  27.319  1.00  0.00     0.116 C 
BRANCH  28  29
ATOM     29  N   UNL A   1      32.523  34.231  27.638  1.00  0.00    -0.352 N 
ATOM     30  C   UNL A   1      33.046  35.018  28.634  1.00  0.00     0.251 C 
ATOM     31  H   UNL A   1      31.856  34.665  27.060  1.00  0.00     0.163 HD
ATOM     32  O   UNL A   1      32.544  36.098  28.905  1.00  0.00    -0.269 OA
BRANCH  30  33
ATOM     33  C   UNL A   1      34.218  34.530  29.387  1.00  0.00     0.039 A 
ATOM     34  C   UNL A   1      34.025  33.939  30.637  1.00  0.00     0.014 A 
ATOM     35  C   UNL A   1      35.500  34.645  28.843  1.00  0.00     0.014 A 
ATOM     36  C   UNL A   1      35.118  33.404  31.319  1.00  0.00     0.010 A 
ATOM     37  C   UNL A   1      36.574  34.046  29.488  1.00  0.00     0.010 A 
ATOM     38  C   UNL A   1      36.394  33.422  30.731  1.00  0.00    -0.014 A 
BRANCH  38  39
ATOM     39  C   UNL A   1      37.566  32.798  31.390  1.00  0.00     0.031 A 
ATOM     40  C   UNL A   1      38.286  31.665  30.716  1.00  0.00     0.074 A 
ATOM     41  C   UNL A   1      37.924  33.191  32.628  1.00  0.00     0.049 A 
ATOM     42  N   UNL A   1      39.228  30.887  31.182  1.00  0.00    -0.248 NA
ATOM     43  C   UNL A   1      37.868  31.347  29.341  1.00  0.00     0.031 C 
ATOM     44  C   UNL A   1      37.286  34.264  33.392  1.00  0.00     0.029 A 
ATOM     45  N   UNL A   1      38.900  32.718  33.469  1.00  0.00    -0.354 N 
ATOM     46  C   UNL A   1      39.506  29.983  30.168  1.00  0.00     0.074 A 
ATOM     47  C   UNL A   1      38.595  30.271  29.081  1.00  0.00     0.031 C 
ATOM     48  C   UNL A   1      37.899  34.381  34.579  1.00  0.00     0.029 A 
ATOM     49  C   UNL A   1      38.937  33.360  34.682  1.00  0.00     0.049 A 
ATOM     50  H   UNL A   1      39.515  31.989  33.225  1.00  0.00     0.167 HD
ATOM     51  C   UNL A   1      40.451  29.014  30.138  1.00  0.00     0.037 A 
ATOM     52  C   UNL A   1      39.710  33.137  35.763  1.00  0.00     0.037 A 
ATOM     53  C   UNL A   1      41.364  28.746  31.218  1.00  0.00     0.049 A 
ATOM     54  C   UNL A   1      40.729  32.032  35.717  1.00  0.00     0.074 A 
ATOM     55  C   UNL A   1      42.381  27.810  31.274  1.00  0.00     0.029 A 
ATOM     56  N   UNL A   1      41.374  29.418  32.433  1.00  0.00    -0.354 N 
ATOM     57  N   UNL A   1      41.005  31.199  34.742  1.00  0.00    -0.248 NA
ATOM     58  C   UNL A   1      41.548  31.838  36.921  1.00  0.00     0.031 C 
ATOM     59  C   UNL A   1      42.969  27.878  32.539  1.00  0.00     0.029 A 
ATOM     60  C   UNL A   1      42.364  28.901  33.253  1.00  0.00     0.049 A 
ATOM     61  H   UNL A   1      40.766  30.154  32.676  1.00  0.00     0.167 HD
ATOM     62  C   UNL A   1      42.042  30.399  35.205  1.00  0.00     0.074 A 
ATOM     63  C   UNL A   1      42.361  30.863  36.539  1.00  0.00     0.031 C 
ATOM     64  C   UNL A   1      42.670  29.371  34.581  1.00  0.00     0.037 A 
BRANCH  51  65
ATOM     65  C   UNL A   1      40.555  28.176  28.897  1.00  0.00     0.064 A 
ATOM     66  C   UNL A   1      41.347  28.593  27.816  1.00  0.00     0.173 A 
ATOM     67  C   UNL A   1      39.820  26.989  28.748  1.00  0.00     0.173 A 
ATOM     68  F   UNL A   1      42.069  29.722  27.902  1.00  0.00    -0.203 F 
ATOM     69  C   UNL A   1      41.388  27.863  26.631  1.00  0.00     0.198 A 
ATOM     70  C   UNL A   1      39.890  26.243  27.575  1.00  0.00     0.198 A 
ATOM     71  F   UNL A   1      39.058  26.537  29.755  1.00  0.00    -0.203 F 
ATOM     72  F   UNL A   1      42.125  28.302  25.600  1.00  0.00    -0.200 F 
ATOM     73  C   UNL A   1      40.664  26.687  26.513  1.00  0.00     0.200 A 
ATOM     74  F   UNL A   1      39.213  25.092  27.473  1.00  0.00    -0.200 F 
ATOM     75  F   UNL A   1      40.714  25.978  25.376  1.00  0.00    -0.200 F 
ENDBRANCH  51  65
BRANCH  52  76
ATOM     76  C   UNL A   1      39.564  34.002  36.963  1.00  0.00     0.064 A 
ATOM     77  C   UNL A   1      38.775  33.615  38.057  1.00  0.00     0.173 A 
ATOM     78  C   UNL A   1      40.193  35.253  37.023  1.00  0.00     0.173 A 
ATOM     79  F   UNL A   1      38.148  32.430  38.049  1.00  0.00    -0.203 F 
ATOM     80  C   UNL A   1      38.604  34.458  39.153  1.00  0.00     0.198 A 
ATOM     81  C   UNL A   1      40.045  36.082  38.134  1.00  0.00     0.198 A 
ATOM     82  F   UNL A   1      40.974  35.658  36.011  1.00  0.00    -0.203 F 
ATOM     83  F   UNL A   1      37.812  34.081  40.167  1.00  0.00    -0.200 F 
ATOM     84  C   UNL A   1      39.242  35.687  39.193  1.00  0.00     0.200 A 
ATOM     85  F   UNL A   1      40.685  37.258  38.178  1.00  0.00    -0.200 F 
ATOM     86  F   UNL A   1      39.086  36.492  40.253  1.00  0.00    -0.200 F 
ENDBRANCH  52  76
BRANCH  64  87
ATOM     87  C   UNL A   1      43.783  28.687  35.325  1.00  0.00     0.064 A 
ATOM     88  C   UNL A   1      43.505  27.628  36.203  1.00  0.00     0.173 A 
ATOM     89  C   UNL A   1      45.115  29.109  35.207  1.00  0.00     0.173 A 
ATOM     90  F   UNL A   1      42.247  27.191  36.362  1.00  0.00    -0.203 F 
ATOM     91  C   UNL A   1      44.519  27.023  36.941  1.00  0.00     0.198 A 
ATOM     92  C   UNL A   1      46.133  28.477  35.917  1.00  0.00     0.198 A 
ATOM     93  F   UNL A   1      45.436  30.109  34.371  1.00  0.00    -0.203 F 
ATOM     94  F   UNL A   1      44.225  26.036  37.799  1.00  0.00    -0.200 F 
ATOM     95  C   UNL A   1      45.833  27.442  36.790  1.00  0.00     0.200 A 
ATOM     96  F   UNL A   1      47.404  28.862  35.747  1.00  0.00    -0.200 F 
ATOM     97  F   UNL A   1      46.811  26.842  37.482  1.00  0.00    -0.200 F 
ENDBRANCH  64  87
ENDBRANCH  38  39
ENDBRANCH  30  33
ENDBRANCH  28  29
ENDBRANCH  27  28
ENDBRANCH  26  27
ENDBRANCH   1  26
TORSDOF 16
ENDMDL
MODEL 2
REMARK VINA RESULT:     -12.9      0.874      1.911
REMARK SMILES O=C(Cc1ccc(F)c(F)c1)NC1(C(=O)NCCCCCCNC(=O)c2ccc(-c3c4nc(c(-c5c(F)c(F)c(F)c(F)c5F)c5ccc([nH]5)c(-c5c(F)c(F)c(F)c(F)c5F)c5nc(c(-c6c(F)c(F)c(F)c(F)c6F)c6ccc3[nH]6)C=C5)C=C4)cc2)CCCC1
REMARK SMILES IDX 19 1 18 2 17 3 16 4 14 5 15 6 13 8 89 9 92 10 90 11 91 12
REMARK SMILES IDX 12 13 1 14 2 15 3 17 4 18 5 19 11 20 6 21 9 22 7 23 10 24
REMARK SMILES IDX 8 25 20 26 21 27 22 28 23 29 24 30 25 32 26 33 27 34 88 35
REMARK SMILES IDX 28 36 87 37 29 38 30 39 31 40 81 41 32 42 86 43 80 44 82 45
REMARK SMILES IDX 33 46 85 47 79 48 78 49 34 51 66 52 46 53 65 54 47 55 50 56
REMARK SMILES IDX 64 57 83 58 48 59 49 60 63 62 84 63 51 64 35 65 36 66 44 67
REMARK SMILES IDX 37 68 38 69 42 70 45 71 39 72 40 73 43 74 41 75 67 76 68 77
REMARK SMILES IDX 76 78 69 79 70 80 74 81 77 82 71 83 72 84 75 85 73 86 52 87
REMARK SMILES IDX 53 88 61 89 54 90 55 91 59 92 62 93 56 94 57 95 60 96 58 97
REMARK H PARENT 16 7 12 16 23 31 82 50 50 61
REMARK Flexibility Score: inf
ROOT
ATOM      1  C   UNL A   1      32.778  29.931  27.293  1.00  0.00     0.002 C 
ENDROOT
BRANCH   1   2
ATOM      2  C   UNL A   1      33.989  29.343  26.571  1.00  0.00     0.021 C 
BRANCH   2   3
ATOM      3  C   UNL A   1      33.927  27.838  26.375  1.00  0.00     0.116 C 
BRANCH   3   4
ATOM      4  N   UNL A   1      32.656  27.275  26.742  1.00  0.00    -0.354 N 
ATOM      5  C   UNL A   1      31.672  26.744  25.975  1.00  0.00     0.245 C 
ATOM      6  O   UNL A   1      30.817  26.092  26.598  1.00  0.00    -0.272 OA
ATOM      7  H   UNL A   1      32.469  27.276  27.708  1.00  0.00     0.163 HD
BRANCH   5   8
ATOM      8  C   UNL A   1      31.646  26.806  24.407  1.00  0.00     0.119 C 
ATOM      9  C   UNL A   1      31.670  25.395  23.791  1.00  0.00     0.038 C 
ATOM     10  C   UNL A   1      32.765  27.570  23.676  1.00  0.00     0.038 C 
ATOM     11  C   UNL A   1      33.055  25.178  23.204  1.00  0.00     0.003 C 
ATOM     12  C   UNL A   1      33.602  26.560  22.888  1.00  0.00     0.003 C 
BRANCH   8  13
ATOM     13  N   UNL A   1      30.332  27.414  24.128  1.00  0.00    -0.341 N 
ATOM     14  O   UNL A   1      30.588  27.559  21.843  1.00  0.00    -0.275 OA
ATOM     15  C   UNL A   1      29.928  27.771  22.855  1.00  0.00     0.225 C 
ATOM     16  H   UNL A   1      29.717  27.573  24.880  1.00  0.00     0.164 HD
BRANCH  15  17
ATOM     17  C   UNL A   1      28.543  28.389  22.813  1.00  0.00     0.135 C 
BRANCH  17  18
ATOM     18  C   UNL A   1      28.574  29.902  22.759  1.00  0.00    -0.036 A 
ATOM     19  C   UNL A   1      29.102  30.628  23.838  1.00  0.00     0.007 A 
ATOM     20  C   UNL A   1      28.043  30.612  21.667  1.00  0.00     0.046 A 
ATOM     21  C   UNL A   1      29.129  32.025  23.811  1.00  0.00     0.043 A 
ATOM     22  C   UNL A   1      28.080  32.002  21.645  1.00  0.00     0.159 A 
ATOM     23  C   UNL A   1      28.622  32.705  22.709  1.00  0.00     0.158 A 
ATOM     24  F   UNL A   1      27.583  32.651  20.583  1.00  0.00    -0.204 F 
ATOM     25  F   UNL A   1      28.654  34.043  22.686  1.00  0.00    -0.204 F 
ENDBRANCH  17  18
ENDBRANCH  15  17
ENDBRANCH   8  13
ENDBRANCH   5   8
ENDBRANCH   3   4
ENDBRANCH   2   3
ENDBRANCH   1   2
BRANCH   1  26
ATOM     26  C   UNL A   1      31.768  30.645  26.389  1.00  0.00     0.002 C 
BRANCH  26  27
ATOM     27  C   UNL A   1      31.540  32.126  26.706  1.00  0.00     0.021 C 
BRANCH  27  28
ATOM     28  C   UNL A   1      32.753  32.840  27.287  1.00  0.00     0.116 C 
BRANCH  28  29
ATOM     29  N   UNL A   1      32.456  34.220  27.634  1.00  0.00    -0.352 N 
ATOM     30  C   UNL A   1      32.988  34.991  28.636  1.00  0.00     0.251 C 
ATOM     31  H   UNL A   1      31.780  34.662  27.071  1.00  0.00     0.163 HD
ATOM     32  O   UNL A   1      32.486  36.066  28.932  1.00  0.00    -0.269 OA
BRANCH  30  33
ATOM     33  C   UNL A   1      34.169  34.495  29.368  1.00  0.00     0.039 A 
ATOM     34  C   UNL A   1      33.994  33.890  30.614  1.00  0.00     0.014 A 
ATOM     35  C   UNL A   1      35.444  34.614  28.807  1.00  0.00     0.014 A 
ATOM     36  C   UNL A   1      35.095  33.346  31.274  1.00  0.00     0.010 A 
ATOM     37  C   UNL A   1      36.526  34.007  29.430  1.00  0.00     0.010 A 
ATOM     38  C   UNL A   1      36.363  33.369  30.669  1.00  0.00    -0.014 A 
BRANCH  38  39
ATOM     39  C   UNL A   1      37.544  32.737  31.304  1.00  0.00     0.031 A 
ATOM     40  C   UNL A   1      38.243  31.601  30.615  1.00  0.00     0.074 A 
ATOM     41  C   UNL A   1      37.927  33.126  32.535  1.00  0.00     0.049 A 
ATOM     42  N   UNL A   1      39.189  30.816  31.062  1.00  0.00    -0.248 NA
ATOM     43  C   UNL A   1      37.797  31.288  29.247  1.00  0.00     0.031 C 
ATOM     44  C   UNL A   1      37.311  34.202  33.313  1.00  0.00     0.029 A 
ATOM     45  N   UNL A   1      38.916  32.646  33.357  1.00  0.00    -0.354 N 
ATOM     46  C   UNL A   1      39.441  29.911  30.041  1.00  0.00     0.074 A 
ATOM     47  C   UNL A   1      38.511  30.207  28.972  1.00  0.00     0.031 C 
ATOM     48  C   UNL A   1      37.948  34.314  34.488  1.00  0.00     0.029 A 
ATOM     49  C   UNL A   1      38.981  33.285  34.570  1.00  0.00     0.049 A 
ATOM     50  H   UNL A   1      39.522  31.913  33.100  1.00  0.00     0.167 HD
ATOM     51  C   UNL A   1      40.380  28.937  29.991  1.00  0.00     0.037 A 
ATOM     52  C   UNL A   1      39.773  33.057  35.635  1.00  0.00     0.037 A 
ATOM     53  C   UNL A   1      41.312  28.662  31.054  1.00  0.00     0.049 A 
ATOM     54  C   UNL A   1      40.784  31.945  35.568  1.00  0.00     0.074 A 
ATOM     55  C   UNL A   1      42.324  27.719  31.089  1.00  0.00     0.029 A 
ATOM     56  N   UNL A   1      41.349  29.332  32.269  1.00  0.00    -0.354 N 
ATOM     57  N   UNL A   1      41.036  31.111  34.588  1.00  0.00    -0.248 NA
ATOM     58  C   UNL A   1      41.625  31.744  36.756  1.00  0.00     0.031 C 
ATOM     59  C   UNL A   1      42.937  27.781  32.343  1.00  0.00     0.029 A 
ATOM     60  C   UNL A   1      42.352  28.808  33.069  1.00  0.00     0.049 A 
ATOM     61  H   UNL A   1      40.750  30.071  32.525  1.00  0.00     0.167 HD
ATOM     62  C   UNL A   1      42.076  30.305  35.029  1.00  0.00     0.074 A 
ATOM     63  C   UNL A   1      42.424  30.764  36.357  1.00  0.00     0.031 C 
ATOM     64  C   UNL A   1      42.686  29.273  34.391  1.00  0.00     0.037 A 
BRANCH  51  65
ATOM     65  C   UNL A   1      40.454  28.100  28.747  1.00  0.00     0.064 A 
ATOM     66  C   UNL A   1      39.786  26.868  28.675  1.00  0.00     0.173 A 
ATOM     67  C   UNL A   1      41.238  28.484  27.648  1.00  0.00     0.173 A 
ATOM     68  F   UNL A   1      39.024  26.449  29.697  1.00  0.00    -0.203 F 
ATOM     69  C   UNL A   1      39.912  26.047  27.557  1.00  0.00     0.198 A 
ATOM     70  C   UNL A   1      41.335  27.677  26.518  1.00  0.00     0.198 A 
ATOM     71  F   UNL A   1      41.886  29.658  27.660  1.00  0.00    -0.203 F 
ATOM     72  F   UNL A   1      39.292  24.859  27.525  1.00  0.00    -0.200 F 
ATOM     73  C   UNL A   1      40.682  26.454  26.478  1.00  0.00     0.200 A 
ATOM     74  F   UNL A   1      42.056  28.085  25.465  1.00  0.00    -0.200 F 
ATOM     75  F   UNL A   1      40.793  25.669  25.397  1.00  0.00    -0.200 F 
ENDBRANCH  51  65
BRANCH  52  76
ATOM     76  C   UNL A   1      39.656  33.920  36.839  1.00  0.00     0.064 A 
ATOM     77  C   UNL A   1      38.863  33.550  37.936  1.00  0.00     0.173 A 
ATOM     78  C   UNL A   1      40.317  35.155  36.900  1.00  0.00     0.173 A 
ATOM     79  F   UNL A   1      38.206  32.382  37.927  1.00  0.00    -0.203 F 
ATOM     80  C   UNL A   1      38.719  34.393  39.036  1.00  0.00     0.198 A 
ATOM     81  C   UNL A   1      40.196  35.983  38.014  1.00  0.00     0.198 A 
ATOM     82  F   UNL A   1      41.103  35.544  35.885  1.00  0.00    -0.203 F 
ATOM     83  F   UNL A   1      37.924  34.033  40.053  1.00  0.00    -0.200 F 
ATOM     84  C   UNL A   1      39.389  35.606  39.077  1.00  0.00     0.200 A 
ATOM     85  F   UNL A   1      40.866  37.142  38.059  1.00  0.00    -0.200 F 
ATOM     86  F   UNL A   1      39.259  36.411  40.140  1.00  0.00    -0.200 F 
ENDBRANCH  52  76
BRANCH  64  87
ATOM     87  C   UNL A   1      43.808  28.581  35.113  1.00  0.00     0.064 A 
ATOM     88  C   UNL A   1      45.140  28.962  34.887  1.00  0.00     0.173 A 
ATOM     89  C   UNL A   1      43.572  27.511  35.988  1.00  0.00     0.173 A 
ATOM     90  F   UNL A   1      45.424  29.972  34.051  1.00  0.00    -0.203 F 
ATOM     91  C   UNL A   1      46.192  28.292  35.505  1.00  0.00     0.198 A 
ATOM     92  C   UNL A   1      44.624  26.868  36.634  1.00  0.00     0.198 A 
ATOM     93  F   UNL A   1      42.316  27.115  36.248  1.00  0.00    -0.203 F 
ATOM     94  F   UNL A   1      47.458  28.652  35.247  1.00  0.00    -0.200 F 
ATOM     95  C   UNL A   1      45.934  27.252  36.385  1.00  0.00     0.200 A 
ATOM     96  F   UNL A   1      44.371  25.884  37.508  1.00  0.00    -0.200 F 
ATOM     97  F   UNL A   1      46.946  26.625  36.998  1.00  0.00    -0.200 F 
ENDBRANCH  64  87
ENDBRANCH  38  39
ENDBRANCH  30  33
ENDBRANCH  28  29
ENDBRANCH  27  28
ENDBRANCH  26  27
ENDBRANCH   1  26
TORSDOF 16
ENDMDL
MODEL 3
REMARK VINA RESULT:     -12.6      2.362      3.995
REMARK SMILES O=C(Cc1ccc(F)c(F)c1)NC1(C(=O)NCCCCCCNC(=O)c2ccc(-c3c4nc(c(-c5c(F)c(F)c(F)c(F)c5F)c5ccc([nH]5)c(-c5c(F)c(F)c(F)c(F)c5F)c5nc(c(-c6c(F)c(F)c(F)c(F)c6F)c6ccc3[nH]6)C=C5)C=C4)cc2)CCCC1
REMARK SMILES IDX 19 1 18 2 17 3 16 4 14 5 15 6 13 8 89 9 92 10 90 11 91 12
REMARK SMILES IDX 12 13 1 14 2 15 3 17 4 18 5 19 11 20 6 21 9 22 7 23 10 24
REMARK SMILES IDX 8 25 20 26 21 27 22 28 23 29 24 30 25 32 26 33 27 34 88 35
REMARK SMILES IDX 28 36 87 37 29 38 30 39 31 40 81 41 32 42 86 43 80 44 82 45
REMARK SMILES IDX 33 46 85 47 79 48 78 49 34 51 66 52 46 53 65 54 47 55 50 56
REMARK SMILES IDX 64 57 83 58 48 59 49 60 63 62 84 63 51 64 35 65 36 66 44 67
REMARK SMILES IDX 37 68 38 69 42 70 45 71 39 72 40 73 43 74 41 75 67 76 68 77
REMARK SMILES IDX 76 78 69 79 70 80 74 81 77 82 71 83 72 84 75 85 73 86 52 87
REMARK SMILES IDX 53 88 61 89 54 90 55 91 59 92 62 93 56 94 57 95 60 96 58 97
REMARK H PARENT 16 7 12 16 23 31 82 50 50 61
REMARK Flexibility Score: inf
ROOT
ATOM      1  C   UNL A   1      32.152  29.685  27.213  1.00  0.00     0.002 C 
ENDROOT
BRANCH   1   2
ATOM      2  C   UNL A   1      33.644  29.356  27.224  1.00  0.00     0.021 C 
BRANCH   2   3
ATOM      3  C   UNL A   1      34.043  28.249  26.264  1.00  0.00     0.116 C 
BRANCH   3   4
ATOM      4  N   UNL A   1      34.098  28.683  24.895  1.00  0.00    -0.354 N 
ATOM      5  C   UNL A   1      33.370  28.300  23.818  1.00  0.00     0.245 C 
ATOM      6  O   UNL A   1      33.461  29.050  22.831  1.00  0.00    -0.272 OA
ATOM      7  H   UNL A   1      34.777  29.372  24.709  1.00  0.00     0.163 HD
BRANCH   5   8
ATOM      8  C   UNL A   1      32.373  27.089  23.813  1.00  0.00     0.119 C 
ATOM      9  C   UNL A   1      31.665  26.951  22.453  1.00  0.00     0.038 C 
ATOM     10  C   UNL A   1      31.235  27.060  24.850  1.00  0.00     0.038 C 
ATOM     11  C   UNL A   1      30.229  27.415  22.638  1.00  0.00     0.003 C 
ATOM     12  C   UNL A   1      29.904  27.208  24.108  1.00  0.00     0.003 C 
BRANCH   8  13
ATOM     13  N   UNL A   1      33.268  25.930  23.992  1.00  0.00    -0.341 N 
ATOM     14  O   UNL A   1      33.874  25.721  21.779  1.00  0.00    -0.275 OA
ATOM     15  C   UNL A   1      33.923  25.322  22.937  1.00  0.00     0.225 C 
ATOM     16  H   UNL A   1      33.405  25.576  24.900  1.00  0.00     0.164 HD
BRANCH  15  17
ATOM     17  C   UNL A   1      34.780  24.143  23.360  1.00  0.00     0.135 C 
BRANCH  17  18
ATOM     18  C   UNL A   1      33.995  22.852  23.469  1.00  0.00    -0.036 A 
ATOM     19  C   UNL A   1      32.929  22.609  22.589  1.00  0.00     0.007 A 
ATOM     20  C   UNL A   1      34.276  21.900  24.465  1.00  0.00     0.046 A 
ATOM     21  C   UNL A   1      32.185  21.428  22.681  1.00  0.00     0.043 A 
ATOM     22  C   UNL A   1      33.536  20.725  24.546  1.00  0.00     0.159 A 
ATOM     23  C   UNL A   1      32.498  20.489  23.658  1.00  0.00     0.158 A 
ATOM     24  F   UNL A   1      33.839  19.828  25.493  1.00  0.00    -0.204 F 
ATOM     25  F   UNL A   1      31.787  19.358  23.739  1.00  0.00    -0.204 F 
ENDBRANCH  17  18
ENDBRANCH  15  17
ENDBRANCH   8  13
ENDBRANCH   5   8
ENDBRANCH   3   4
ENDBRANCH   2   3
ENDBRANCH   1   2
BRANCH   1  26
ATOM     26  C   UNL A   1      31.724  30.722  26.169  1.00  0.00     0.002 C 
BRANCH  26  27
ATOM     27  C   UNL A   1      31.444  32.124  26.719  1.00  0.00     0.021 C 
BRANCH  27  28
ATOM     28  C   UNL A   1      32.650  32.809  27.347  1.00  0.00     0.116 C 
BRANCH  28  29
ATOM     29  N   UNL A   1      32.389  34.208  27.638  1.00  0.00    -0.352 N 
ATOM     30  C   UNL A   1      32.952  35.008  28.600  1.00  0.00     0.251 C 
ATOM     31  H   UNL A   1      31.717  34.642  27.065  1.00  0.00     0.163 HD
ATOM     32  O   UNL A   1      32.479  36.106  28.857  1.00  0.00    -0.269 OA
BRANCH  30  33
ATOM     33  C   UNL A   1      34.132  34.515  29.338  1.00  0.00     0.039 A 
ATOM     34  C   UNL A   1      33.949  33.889  30.572  1.00  0.00     0.014 A 
ATOM     35  C   UNL A   1      35.411  34.659  28.794  1.00  0.00     0.014 A 
ATOM     36  C   UNL A   1      35.050  33.349  31.237  1.00  0.00     0.010 A 
ATOM     37  C   UNL A   1      36.493  34.056  29.420  1.00  0.00     0.010 A 
ATOM     38  C   UNL A   1      36.324  33.397  30.647  1.00  0.00    -0.014 A 
BRANCH  38  39
ATOM     39  C   UNL A   1      37.505  32.770  31.287  1.00  0.00     0.031 A 
ATOM     40  C   UNL A   1      38.207  31.632  30.603  1.00  0.00     0.074 A 
ATOM     41  C   UNL A   1      37.888  33.166  32.516  1.00  0.00     0.049 A 
ATOM     42  N   UNL A   1      39.154  30.851  31.055  1.00  0.00    -0.248 NA
ATOM     43  C   UNL A   1      37.762  31.311  29.237  1.00  0.00     0.031 C 
ATOM     44  C   UNL A   1      37.269  34.245  33.288  1.00  0.00     0.029 A 
ATOM     45  N   UNL A   1      38.877  32.692  33.340  1.00  0.00    -0.354 N 
ATOM     46  C   UNL A   1      39.408  29.941  30.039  1.00  0.00     0.074 A 
ATOM     47  C   UNL A   1      38.478  30.230  28.968  1.00  0.00     0.031 C 
ATOM     48  C   UNL A   1      37.905  34.364  34.463  1.00  0.00     0.029 A 
ATOM     49  C   UNL A   1      38.940  33.337  34.550  1.00  0.00     0.049 A 
ATOM     50  H   UNL A   1      39.484  31.958  33.088  1.00  0.00     0.167 HD
ATOM     51  C   UNL A   1      40.348  28.968  29.995  1.00  0.00     0.037 A 
ATOM     52  C   UNL A   1      39.732  33.115  35.617  1.00  0.00     0.037 A 
ATOM     53  C   UNL A   1      41.280  28.699  31.059  1.00  0.00     0.049 A 
ATOM     54  C   UNL A   1      40.745  32.005  35.556  1.00  0.00     0.074 A 
ATOM     55  C   UNL A   1      42.293  27.758  31.099  1.00  0.00     0.029 A 
ATOM     56  N   UNL A   1      41.316  29.376  32.270  1.00  0.00    -0.354 N 
ATOM     57  N   UNL A   1      40.998  31.167  34.580  1.00  0.00    -0.248 NA
ATOM     58  C   UNL A   1      41.585  31.811  36.745  1.00  0.00     0.031 C 
ATOM     59  C   UNL A   1      42.905  27.828  32.353  1.00  0.00     0.029 A 
ATOM     60  C   UNL A   1      42.319  28.857  33.074  1.00  0.00     0.049 A 
ATOM     61  H   UNL A   1      40.716  30.115  32.522  1.00  0.00     0.167 HD
ATOM     62  C   UNL A   1      42.040  30.364  35.026  1.00  0.00     0.074 A 
ATOM     63  C   UNL A   1      42.386  30.831  36.352  1.00  0.00     0.031 C 
ATOM     64  C   UNL A   1      42.651  29.330  34.394  1.00  0.00     0.037 A 
BRANCH  51  65
ATOM     65  C   UNL A   1      40.425  28.124  28.755  1.00  0.00     0.064 A 
ATOM     66  C   UNL A   1      39.758  26.891  28.688  1.00  0.00     0.173 A 
ATOM     67  C   UNL A   1      41.209  28.504  27.655  1.00  0.00     0.173 A 
ATOM     68  F   UNL A   1      38.996  26.477  29.712  1.00  0.00    -0.203 F 
ATOM     69  C   UNL A   1      39.886  26.065  27.574  1.00  0.00     0.198 A 
ATOM     70  C   UNL A   1      41.307  27.692  26.528  1.00  0.00     0.198 A 
ATOM     71  F   UNL A   1      41.855  29.679  27.660  1.00  0.00    -0.203 F 
ATOM     72  F   UNL A   1      39.268  24.876  27.549  1.00  0.00    -0.200 F 
ATOM     73  C   UNL A   1      40.656  26.467  26.494  1.00  0.00     0.200 A 
ATOM     74  F   UNL A   1      42.029  28.095  25.474  1.00  0.00    -0.200 F 
ATOM     75  F   UNL A   1      40.769  25.677  25.417  1.00  0.00    -0.200 F 
ENDBRANCH  51  65
BRANCH  52  76
ATOM     76  C   UNL A   1      39.613  33.985  36.817  1.00  0.00     0.064 A 
ATOM     77  C   UNL A   1      40.287  35.212  36.906  1.00  0.00     0.173 A 
ATOM     78  C   UNL A   1      38.841  33.583  37.916  1.00  0.00     0.173 A 
ATOM     79  F   UNL A   1      41.042  35.640  35.885  1.00  0.00    -0.203 F 
ATOM     80  C   UNL A   1      40.210  35.992  38.058  1.00  0.00     0.198 A 
ATOM     81  C   UNL A   1      38.740  34.380  39.055  1.00  0.00     0.198 A 
ATOM     82  F   UNL A   1      38.161  32.428  37.870  1.00  0.00    -0.203 F 
ATOM     83  F   UNL A   1      40.896  37.141  38.133  1.00  0.00    -0.200 F 
ATOM     84  C   UNL A   1      39.433  35.579  39.129  1.00  0.00     0.200 A 
ATOM     85  F   UNL A   1      37.967  33.987  40.077  1.00  0.00    -0.200 F 
ATOM     86  F   UNL A   1      39.350  36.335  40.231  1.00  0.00    -0.200 F 
ENDBRANCH  52  76
BRANCH  64  87
ATOM     87  C   UNL A   1      43.774  28.643  35.120  1.00  0.00     0.064 A 
ATOM     88  C   UNL A   1      43.510  27.575  35.991  1.00  0.00     0.173 A 
ATOM     89  C   UNL A   1      45.104  29.072  34.993  1.00  0.00     0.173 A 
ATOM     90  F   UNL A   1      42.256  27.131  36.158  1.00  0.00    -0.203 F 
ATOM     91  C   UNL A   1      44.534  26.967  36.711  1.00  0.00     0.198 A 
ATOM     92  C   UNL A   1      46.131  28.438  35.686  1.00  0.00     0.198 A 
ATOM     93  F   UNL A   1      45.412  30.082  34.164  1.00  0.00    -0.203 F 
ATOM     94  F   UNL A   1      44.253  25.970  37.563  1.00  0.00    -0.200 F 
ATOM     95  C   UNL A   1      45.845  27.392  36.552  1.00  0.00     0.200 A 
ATOM     96  F   UNL A   1      47.399  28.829  35.507  1.00  0.00    -0.200 F 
ATOM     97  F   UNL A   1      46.832  26.790  37.228  1.00  0.00    -0.200 F 
ENDBRANCH  64  87
ENDBRANCH  38  39
ENDBRANCH  30  33
ENDBRANCH  28  29
ENDBRANCH  27  28
ENDBRANCH  26  27
ENDBRANCH   1  26
TORSDOF 16
ENDMDL
