MODEL 1
REMARK VINA RESULT:     -13.3      0.000      0.000
REMARK SMILES Cc1c(CC(=O)NCCCCCCNC(=O)c2ccc(-c3c4nc(c(-c5c(F)c(F)c(F)c(F)c5F)c5ccc([nH]5)c(-c5c(F)c(F)c(F)c(F)c5F)c5nc(c(-c6c(F)c(F)c(F)c(F)c6F)c6ccc3[nH]6)C=C5)C=C4)cc2)cc(-c2ccc(S(C)(=O)=O)cc2)n1-c1cccc(F)c1
REMARK SMILES IDX 10 1 9 2 8 3 7 4 5 5 6 6 4 8 3 9 1 10 2 11 92 12 80 13 81 14
REMARK SMILES IDX 93 15 94 16 99 17 95 18 97 19 96 20 98 21 82 22 83 23 91 24
REMARK SMILES IDX 84 25 90 26 85 27 86 28 87 29 88 30 89 31 11 32 12 33 13 34
REMARK SMILES IDX 14 35 15 36 16 38 17 39 18 40 79 41 19 42 78 43 20 44 21 45
REMARK SMILES IDX 22 46 72 47 23 48 77 49 71 50 73 51 24 52 76 53 70 54 69 55
REMARK SMILES IDX 25 57 57 58 37 59 56 60 38 61 41 62 55 63 74 64 39 65 40 66
REMARK SMILES IDX 54 68 75 69 42 70 26 71 27 72 35 73 28 74 29 75 33 76 36 77
REMARK SMILES IDX 30 78 31 79 34 80 32 81 58 82 59 83 67 84 60 85 61 86 65 87
REMARK SMILES IDX 68 88 62 89 63 90 66 91 64 92 43 93 44 94 52 95 45 96 46 97
REMARK SMILES IDX 50 98 53 99 47 100 48 101 51 102 49 103
REMARK H PARENT 7 7 14 37 73 56 41 67
REMARK Flexibility Score: inf
ROOT
ATOM      1  C   UNL A   1      31.455  28.672  25.960  1.00  0.00     0.002 C 
ENDROOT
BRANCH   1   2
ATOM      2  C   UNL A   1      31.476  29.605  24.743  1.00  0.00     0.021 C 
BRANCH   2   3
ATOM      3  C   UNL A   1      30.251  29.493  23.832  1.00  0.00     0.116 C 
BRANCH   3   4
ATOM      4  N   UNL A   1      30.558  28.786  22.602  1.00  0.00    -0.356 N 
ATOM      5  C   UNL A   1      30.700  27.443  22.384  1.00  0.00     0.224 C 
ATOM      6  O   UNL A   1      31.024  27.068  21.254  1.00  0.00    -0.275 OA
ATOM      7  H   UNL A   1      30.683  29.356  21.809  1.00  0.00     0.163 HD
BRANCH   5   8
ATOM      8  C   UNL A   1      30.406  26.441  23.487  1.00  0.00     0.137 C 
BRANCH   8   9
ATOM      9  C   UNL A   1      31.425  25.353  23.590  1.00  0.00    -0.017 A 
ATOM     10  C   UNL A   1      33.637  26.690  23.772  1.00  0.00     0.065 C 
ATOM     11  C   UNL A   1      32.801  25.454  23.767  1.00  0.00     0.024 A 
ATOM     12  N   UNL A   1      33.328  24.168  23.880  1.00  0.00    -0.313 N 
ATOM     13  C   UNL A   1      31.122  23.981  23.499  1.00  0.00     0.033 A 
ATOM     14  C   UNL A   1      32.277  23.269  23.727  1.00  0.00     0.053 A 
BRANCH  12  15
ATOM     15  C   UNL A   1      34.686  23.817  24.141  1.00  0.00     0.049 A 
ATOM     16  C   UNL A   1      35.438  23.129  23.173  1.00  0.00     0.027 A 
ATOM     17  C   UNL A   1      35.248  24.087  25.392  1.00  0.00     0.065 A 
ATOM     18  C   UNL A   1      36.739  22.709  23.459  1.00  0.00     0.005 A 
ATOM     19  C   UNL A   1      36.541  23.649  25.665  1.00  0.00     0.125 A 
ATOM     20  C   UNL A   1      37.291  22.963  24.713  1.00  0.00     0.039 A 
ATOM     21  F   UNL A   1      37.066  23.867  26.877  1.00  0.00    -0.207 F 
ENDBRANCH  12  15
BRANCH  14  22
ATOM     22  C   UNL A   1      32.357  21.828  23.885  1.00  0.00    -0.001 A 
ATOM     23  C   UNL A   1      32.612  21.263  25.140  1.00  0.00     0.011 A 
ATOM     24  C   UNL A   1      32.156  21.020  22.760  1.00  0.00     0.011 A 
ATOM     25  C   UNL A   1      32.749  19.889  25.249  1.00  0.00     0.021 A 
ATOM     26  C   UNL A   1      32.291  19.649  22.859  1.00  0.00     0.021 A 
ATOM     27  C   UNL A   1      32.624  19.109  24.093  1.00  0.00     0.067 A 
BRANCH  27  28
ATOM     28  S   UNL A   1      33.018  17.400  24.175  1.00  0.00     0.175 S 
ATOM     29  C   UNL A   1      34.755  17.483  24.603  1.00  0.00     0.163 C 
ATOM     30  O   UNL A   1      32.204  16.890  25.256  1.00  0.00    -0.224 OA
ATOM     31  O   UNL A   1      32.926  16.841  22.843  1.00  0.00    -0.224 OA
ENDBRANCH  27  28
ENDBRANCH  14  22
ENDBRANCH   8   9
ENDBRANCH   5   8
ENDBRANCH   3   4
ENDBRANCH   2   3
ENDBRANCH   1   2
BRANCH   1  32
ATOM     32  C   UNL A   1      32.183  29.174  27.214  1.00  0.00     0.002 C 
BRANCH  32  33
ATOM     33  C   UNL A   1      33.709  28.960  27.287  1.00  0.00     0.021 C 
BRANCH  33  34
ATOM     34  C   UNL A   1      34.616  30.207  27.244  1.00  0.00     0.116 C 
BRANCH  34  35
ATOM     35  N   UNL A   1      34.148  31.314  28.054  1.00  0.00    -0.352 N 
ATOM     36  C   UNL A   1      34.795  31.958  29.092  1.00  0.00     0.251 C 
ATOM     37  H   UNL A   1      33.249  31.652  27.838  1.00  0.00     0.163 HD
ATOM     38  O   UNL A   1      34.317  33.004  29.528  1.00  0.00    -0.269 OA
BRANCH  36  39
ATOM     39  C   UNL A   1      36.026  31.405  29.751  1.00  0.00     0.039 A 
ATOM     40  C   UNL A   1      37.265  31.691  29.198  1.00  0.00     0.014 A 
ATOM     41  C   UNL A   1      35.964  30.364  30.698  1.00  0.00     0.014 A 
ATOM     42  C   UNL A   1      38.406  30.950  29.594  1.00  0.00     0.010 A 
ATOM     43  C   UNL A   1      37.117  29.573  31.054  1.00  0.00     0.010 A 
ATOM     44  C   UNL A   1      38.372  29.815  30.477  1.00  0.00    -0.014 A 
BRANCH  44  45
ATOM     45  C   UNL A   1      39.535  28.781  30.276  1.00  0.00     0.031 A 
ATOM     46  C   UNL A   1      40.306  28.860  31.541  1.00  0.00     0.074 A 
ATOM     47  C   UNL A   1      40.122  27.985  29.309  1.00  0.00     0.049 A 
ATOM     48  N   UNL A   1      40.764  30.012  31.954  1.00  0.00    -0.248 NA
ATOM     49  C   UNL A   1      40.331  27.789  32.531  1.00  0.00     0.031 C 
ATOM     50  C   UNL A   1      39.855  27.994  27.877  1.00  0.00     0.029 A 
ATOM     51  N   UNL A   1      41.075  26.940  29.364  1.00  0.00    -0.354 N 
ATOM     52  C   UNL A   1      41.457  29.728  33.099  1.00  0.00     0.074 A 
ATOM     53  C   UNL A   1      40.938  28.438  33.530  1.00  0.00     0.031 C 
ATOM     54  C   UNL A   1      40.357  26.899  27.248  1.00  0.00     0.029 A 
ATOM     55  C   UNL A   1      41.182  26.145  28.178  1.00  0.00     0.049 A 
ATOM     56  H   UNL A   1      41.626  26.772  30.163  1.00  0.00     0.167 HD
ATOM     57  C   UNL A   1      42.749  30.168  33.112  1.00  0.00     0.037 A 
ATOM     58  C   UNL A   1      41.969  25.050  27.884  1.00  0.00     0.037 A 
ATOM     59  C   UNL A   1      43.693  29.098  32.960  1.00  0.00     0.049 A 
ATOM     60  C   UNL A   1      43.167  25.191  28.713  1.00  0.00     0.074 A 
ATOM     61  C   UNL A   1      43.821  27.854  33.542  1.00  0.00     0.029 A 
ATOM     62  N   UNL A   1      44.414  29.057  31.786  1.00  0.00    -0.354 N 
ATOM     63  N   UNL A   1      44.109  26.028  28.396  1.00  0.00    -0.248 NA
ATOM     64  C   UNL A   1      43.424  24.364  29.883  1.00  0.00     0.031 C 
ATOM     65  C   UNL A   1      44.203  26.990  32.491  1.00  0.00     0.029 A 
ATOM     66  C   UNL A   1      44.577  27.748  31.389  1.00  0.00     0.049 A 
ATOM     67  H   UNL A   1      44.760  29.843  31.305  1.00  0.00     0.167 HD
ATOM     68  C   UNL A   1      44.756  26.207  29.572  1.00  0.00     0.074 A 
ATOM     69  C   UNL A   1      44.520  24.989  30.321  1.00  0.00     0.031 C 
ATOM     70  C   UNL A   1      44.877  27.488  30.000  1.00  0.00     0.037 A 
BRANCH  57  71
ATOM     71  C   UNL A   1      42.915  31.546  32.536  1.00  0.00     0.064 A 
ATOM     72  C   UNL A   1      43.064  32.631  33.404  1.00  0.00     0.173 A 
ATOM     73  C   UNL A   1      42.762  31.828  31.161  1.00  0.00     0.173 A 
ATOM     74  F   UNL A   1      43.264  32.421  34.713  1.00  0.00    -0.203 F 
ATOM     75  C   UNL A   1      43.007  33.941  32.928  1.00  0.00     0.198 A 
ATOM     76  C   UNL A   1      42.648  33.134  30.699  1.00  0.00     0.198 A 
ATOM     77  F   UNL A   1      42.718  30.831  30.260  1.00  0.00    -0.203 F 
ATOM     78  F   UNL A   1      43.178  34.966  33.775  1.00  0.00    -0.200 F 
ATOM     79  C   UNL A   1      42.765  34.191  31.583  1.00  0.00     0.200 A 
ATOM     80  F   UNL A   1      42.426  33.364  29.396  1.00  0.00    -0.200 F 
ATOM     81  F   UNL A   1      42.667  35.451  31.138  1.00  0.00    -0.200 F 
ENDBRANCH  57  71
BRANCH  58  82
ATOM     82  C   UNL A   1      42.154  23.950  26.844  1.00  0.00     0.064 A 
ATOM     83  C   UNL A   1      42.980  24.158  25.696  1.00  0.00     0.173 A 
ATOM     84  C   UNL A   1      41.906  22.605  27.143  1.00  0.00     0.173 A 
ATOM     85  F   UNL A   1      43.258  25.390  25.248  1.00  0.00    -0.203 F 
ATOM     86  C   UNL A   1      43.615  23.122  25.004  1.00  0.00     0.198 A 
ATOM     87  C   UNL A   1      42.516  21.556  26.417  1.00  0.00     0.198 A 
ATOM     88  F   UNL A   1      41.154  22.281  28.203  1.00  0.00    -0.203 F 
ATOM     89  F   UNL A   1      44.490  23.404  24.027  1.00  0.00    -0.200 F 
ATOM     90  C   UNL A   1      43.399  21.816  25.379  1.00  0.00     0.200 A 
ATOM     91  F   UNL A   1      42.302  20.282  26.775  1.00  0.00    -0.200 F 
ATOM     92  F   UNL A   1      44.059  20.823  24.766  1.00  0.00    -0.200 F 
ENDBRANCH  58  82
BRANCH  70  93
ATOM     93  C   UNL A   1      45.142  28.555  28.937  1.00  0.00     0.064 A 
ATOM     94  C   UNL A   1      44.188  29.225  28.128  1.00  0.00     0.173 A 
ATOM     95  C   UNL A   1      46.482  28.873  28.671  1.00  0.00     0.173 A 
ATOM     96  F   UNL A   1      42.869  29.139  28.349  1.00  0.00    -0.203 F 
ATOM     97  C   UNL A   1      44.564  30.054  27.064  1.00  0.00     0.198 A 
ATOM     98  C   UNL A   1      46.853  29.751  27.651  1.00  0.00     0.198 A 
ATOM     99  F   UNL A   1      47.457  28.341  29.425  1.00  0.00    -0.203 F 
ATOM    100  F   UNL A   1      43.628  30.604  26.276  1.00  0.00    -0.200 F 
ATOM    101  C   UNL A   1      45.898  30.315  26.828  1.00  0.00     0.200 A 
ATOM    102  F   UNL A   1      48.148  30.047  27.472  1.00  0.00    -0.200 F 
ATOM    103  F   UNL A   1      46.261  31.125  25.823  1.00  0.00    -0.200 F 
ENDBRANCH  70  93
ENDBRANCH  44  45
ENDBRANCH  36  39
ENDBRANCH  34  35
ENDBRANCH  33  34
ENDBRANCH  32  33
ENDBRANCH   1  32
TORSDOF 17
ENDMDL
MODEL 2
REMARK VINA RESULT:     -12.9      1.762      2.193
REMARK SMILES Cc1c(CC(=O)NCCCCCCNC(=O)c2ccc(-c3c4nc(c(-c5c(F)c(F)c(F)c(F)c5F)c5ccc([nH]5)c(-c5c(F)c(F)c(F)c(F)c5F)c5nc(c(-c6c(F)c(F)c(F)c(F)c6F)c6ccc3[nH]6)C=C5)C=C4)cc2)cc(-c2ccc(S(C)(=O)=O)cc2)n1-c1cccc(F)c1
REMARK SMILES IDX 10 1 9 2 8 3 7 4 5 5 6 6 4 8 3 9 1 10 2 11 92 12 80 13 81 14
REMARK SMILES IDX 93 15 94 16 99 17 95 18 97 19 96 20 98 21 82 22 83 23 91 24
REMARK SMILES IDX 84 25 90 26 85 27 86 28 87 29 88 30 89 31 11 32 12 33 13 34
REMARK SMILES IDX 14 35 15 36 16 38 17 39 18 40 79 41 19 42 78 43 20 44 21 45
REMARK SMILES IDX 22 46 72 47 23 48 77 49 71 50 73 51 24 52 76 53 70 54 69 55
REMARK SMILES IDX 25 57 57 58 37 59 56 60 38 61 41 62 55 63 74 64 39 65 40 66
REMARK SMILES IDX 54 68 75 69 42 70 26 71 27 72 35 73 28 74 29 75 33 76 36 77
REMARK SMILES IDX 30 78 31 79 34 80 32 81 58 82 59 83 67 84 60 85 61 86 65 87
REMARK SMILES IDX 68 88 62 89 63 90 66 91 64 92 43 93 44 94 52 95 45 96 46 97
REMARK SMILES IDX 50 98 53 99 47 100 48 101 51 102 49 103
REMARK H PARENT 7 7 14 37 73 56 41 67
REMARK Flexibility Score: inf
ROOT
ATOM      1  C   UNL A   1      33.786  28.863  26.812  1.00  0.00     0.002 C 
ENDROOT
BRANCH   1   2
ATOM      2  C   UNL A   1      32.757  27.817  27.258  1.00  0.00     0.021 C 
BRANCH   2   3
ATOM      3  C   UNL A   1      31.491  27.760  26.399  1.00  0.00     0.116 C 
BRANCH   3   4
ATOM      4  N   UNL A   1      30.594  26.704  26.831  1.00  0.00    -0.356 N 
ATOM      5  C   UNL A   1      30.092  25.647  26.124  1.00  0.00     0.224 C 
ATOM      6  O   UNL A   1      29.290  24.898  26.687  1.00  0.00    -0.275 OA
ATOM      7  H   UNL A   1      30.306  26.755  27.771  1.00  0.00     0.163 HD
BRANCH   5   8
ATOM      8  C   UNL A   1      30.557  25.372  24.704  1.00  0.00     0.137 C 
BRANCH   8   9
ATOM      9  C   UNL A   1      31.654  24.360  24.622  1.00  0.00    -0.017 A 
ATOM     10  C   UNL A   1      33.773  25.849  24.618  1.00  0.00     0.065 C 
ATOM     11  C   UNL A   1      33.031  24.555  24.639  1.00  0.00     0.024 A 
ATOM     12  N   UNL A   1      33.655  23.309  24.615  1.00  0.00    -0.313 N 
ATOM     13  C   UNL A   1      31.438  22.975  24.487  1.00  0.00     0.033 A 
ATOM     14  C   UNL A   1      32.658  22.342  24.535  1.00  0.00     0.053 A 
BRANCH  12  15
ATOM     15  C   UNL A   1      35.056  23.049  24.692  1.00  0.00     0.049 A 
ATOM     16  C   UNL A   1      35.671  22.203  23.754  1.00  0.00     0.027 A 
ATOM     17  C   UNL A   1      35.805  23.573  25.749  1.00  0.00     0.065 A 
ATOM     18  C   UNL A   1      37.025  21.879  23.878  1.00  0.00     0.005 A 
ATOM     19  C   UNL A   1      37.149  23.229  25.865  1.00  0.00     0.125 A 
ATOM     20  C   UNL A   1      37.765  22.388  24.943  1.00  0.00     0.039 A 
ATOM     21  F   UNL A   1      37.859  23.693  26.902  1.00  0.00    -0.207 F 
ENDBRANCH  12  15
BRANCH  14  22
ATOM     22  C   UNL A   1      32.856  20.905  24.598  1.00  0.00    -0.001 A 
ATOM     23  C   UNL A   1      33.345  20.305  25.764  1.00  0.00     0.011 A 
ATOM     24  C   UNL A   1      32.529  20.135  23.475  1.00  0.00     0.011 A 
ATOM     25  C   UNL A   1      33.587  18.941  25.773  1.00  0.00     0.021 A 
ATOM     26  C   UNL A   1      32.768  18.775  23.476  1.00  0.00     0.021 A 
ATOM     27  C   UNL A   1      33.329  18.206  24.609  1.00  0.00     0.067 A 
BRANCH  27  28
ATOM     28  S   UNL A   1      33.842  16.529  24.533  1.00  0.00     0.175 S 
ATOM     29  C   UNL A   1      32.511  15.736  25.431  1.00  0.00     0.163 C 
ATOM     30  O   UNL A   1      33.828  16.208  23.123  1.00  0.00    -0.224 OA
ATOM     31  O   UNL A   1      35.047  16.379  25.321  1.00  0.00    -0.224 OA
ENDBRANCH  27  28
ENDBRANCH  14  22
ENDBRANCH   8   9
ENDBRANCH   5   8
ENDBRANCH   3   4
ENDBRANCH   2   3
ENDBRANCH   1   2
BRANCH   1  32
ATOM     32  C   UNL A   1      33.221  30.169  26.237  1.00  0.00     0.002 C 
BRANCH  32  33
ATOM     33  C   UNL A   1      32.974  31.332  27.218  1.00  0.00     0.021 C 
BRANCH  33  34
ATOM     34  C   UNL A   1      34.200  32.111  27.738  1.00  0.00     0.116 C 
BRANCH  34  35
ATOM     35  N   UNL A   1      34.404  32.016  29.170  1.00  0.00    -0.352 N 
ATOM     36  C   UNL A   1      35.541  31.633  29.857  1.00  0.00     0.251 C 
ATOM     37  H   UNL A   1      33.630  32.257  29.728  1.00  0.00     0.163 HD
ATOM     38  O   UNL A   1      35.582  31.806  31.074  1.00  0.00    -0.269 OA
BRANCH  36  39
ATOM     39  C   UNL A   1      36.704  30.958  29.190  1.00  0.00     0.039 A 
ATOM     40  C   UNL A   1      36.527  29.687  28.664  1.00  0.00     0.014 A 
ATOM     41  C   UNL A   1      38.027  31.412  29.354  1.00  0.00     0.014 A 
ATOM     42  C   UNL A   1      37.654  28.903  28.311  1.00  0.00     0.010 A 
ATOM     43  C   UNL A   1      39.171  30.588  29.049  1.00  0.00     0.010 A 
ATOM     44  C   UNL A   1      39.018  29.284  28.556  1.00  0.00    -0.014 A 
BRANCH  44  45
ATOM     45  C   UNL A   1      40.024  28.090  28.714  1.00  0.00     0.031 A 
ATOM     46  C   UNL A   1      40.717  28.374  29.994  1.00  0.00     0.074 A 
ATOM     47  C   UNL A   1      40.544  27.012  28.021  1.00  0.00     0.049 A 
ATOM     48  N   UNL A   1      41.316  29.522  30.169  1.00  0.00    -0.248 NA
ATOM     49  C   UNL A   1      40.521  27.584  31.204  1.00  0.00     0.031 C 
ATOM     50  C   UNL A   1      40.371  26.706  26.607  1.00  0.00     0.029 A 
ATOM     51  N   UNL A   1      41.325  25.898  28.409  1.00  0.00    -0.354 N 
ATOM     52  C   UNL A   1      41.887  29.439  31.410  1.00  0.00     0.074 A 
ATOM     53  C   UNL A   1      41.155  28.373  32.078  1.00  0.00     0.031 C 
ATOM     54  C   UNL A   1      40.741  25.434  26.302  1.00  0.00     0.029 A 
ATOM     55  C   UNL A   1      41.385  24.830  27.457  1.00  0.00     0.049 A 
ATOM     56  H   UNL A   1      41.794  25.859  29.274  1.00  0.00     0.167 HD
ATOM     57  C   UNL A   1      43.227  29.697  31.445  1.00  0.00     0.037 A 
ATOM     58  C   UNL A   1      42.016  23.603  27.503  1.00  0.00     0.037 A 
ATOM     59  C   UNL A   1      44.008  28.508  31.637  1.00  0.00     0.049 A 
ATOM     60  C   UNL A   1      43.169  23.785  28.388  1.00  0.00     0.074 A 
ATOM     61  C   UNL A   1      43.912  27.439  32.503  1.00  0.00     0.029 A 
ATOM     62  N   UNL A   1      44.786  28.089  30.580  1.00  0.00    -0.354 N 
ATOM     63  N   UNL A   1      44.242  24.389  27.976  1.00  0.00    -0.248 NA
ATOM     64  C   UNL A   1      43.226  23.243  29.737  1.00  0.00     0.031 C 
ATOM     65  C   UNL A   1      44.225  26.302  31.724  1.00  0.00     0.029 A 
ATOM     66  C   UNL A   1      44.776  26.713  30.516  1.00  0.00     0.049 A 
ATOM     67  H   UNL A   1      45.274  28.681  29.965  1.00  0.00     0.167 HD
ATOM     68  C   UNL A   1      44.835  24.765  29.135  1.00  0.00     0.074 A 
ATOM     69  C   UNL A   1      44.374  23.808  30.121  1.00  0.00     0.031 C 
ATOM     70  C   UNL A   1      45.120  26.084  29.262  1.00  0.00     0.037 A 
BRANCH  57  71
ATOM     71  C   UNL A   1      43.632  30.858  30.582  1.00  0.00     0.064 A 
ATOM     72  C   UNL A   1      43.803  32.114  31.171  1.00  0.00     0.173 A 
ATOM     73  C   UNL A   1      43.690  30.787  29.173  1.00  0.00     0.173 A 
ATOM     74  F   UNL A   1      43.808  32.234  32.506  1.00  0.00    -0.203 F 
ATOM     75  C   UNL A   1      43.967  33.256  30.386  1.00  0.00     0.198 A 
ATOM     76  C   UNL A   1      43.797  31.933  28.394  1.00  0.00     0.198 A 
ATOM     77  F   UNL A   1      43.638  29.598  28.547  1.00  0.00    -0.203 F 
ATOM     78  F   UNL A   1      44.155  34.446  30.973  1.00  0.00    -0.200 F 
ATOM     79  C   UNL A   1      43.930  33.169  29.000  1.00  0.00     0.200 A 
ATOM     80  F   UNL A   1      43.772  31.835  27.056  1.00  0.00    -0.200 F 
ATOM     81  F   UNL A   1      44.045  34.274  28.252  1.00  0.00    -0.200 F 
ENDBRANCH  57  71
BRANCH  58  82
ATOM     82  C   UNL A   1      42.099  22.268  26.770  1.00  0.00     0.064 A 
ATOM     83  C   UNL A   1      43.018  22.079  25.692  1.00  0.00     0.173 A 
ATOM     84  C   UNL A   1      41.633  21.081  27.349  1.00  0.00     0.173 A 
ATOM     85  F   UNL A   1      43.506  23.117  24.998  1.00  0.00    -0.203 F 
ATOM     86  C   UNL A   1      43.532  20.831  25.326  1.00  0.00     0.198 A 
ATOM     87  C   UNL A   1      42.123  19.816  26.950  1.00  0.00     0.198 A 
ATOM     88  F   UNL A   1      40.776  21.127  28.376  1.00  0.00    -0.203 F 
ATOM     89  F   UNL A   1      44.499  20.750  24.399  1.00  0.00    -0.200 F 
ATOM     90  C   UNL A   1      43.099  19.697  25.971  1.00  0.00     0.200 A 
ATOM     91  F   UNL A   1      41.697  18.707  27.572  1.00  0.00    -0.200 F 
ATOM     92  F   UNL A   1      43.640  18.506  25.674  1.00  0.00    -0.200 F 
ENDBRANCH  58  82
BRANCH  70  93
ATOM     93  C   UNL A   1      45.606  26.815  28.010  1.00  0.00     0.064 A 
ATOM     94  C   UNL A   1      44.843  27.181  26.870  1.00  0.00     0.173 A 
ATOM     95  C   UNL A   1      46.976  27.108  27.933  1.00  0.00     0.173 A 
ATOM     96  F   UNL A   1      43.507  27.098  26.843  1.00  0.00    -0.203 F 
ATOM     97  C   UNL A   1      45.437  27.689  25.709  1.00  0.00     0.198 A 
ATOM     98  C   UNL A   1      47.555  27.675  26.797  1.00  0.00     0.198 A 
ATOM     99  F   UNL A   1      47.771  26.860  28.985  1.00  0.00    -0.203 F 
ATOM    100  F   UNL A   1      44.686  27.946  24.627  1.00  0.00    -0.200 F 
ATOM    101  C   UNL A   1      46.794  27.935  25.675  1.00  0.00     0.200 A 
ATOM    102  F   UNL A   1      48.863  27.970  26.799  1.00  0.00    -0.200 F 
ATOM    103  F   UNL A   1      47.362  28.442  24.572  1.00  0.00    -0.200 F 
ENDBRANCH  70  93
ENDBRANCH  44  45
ENDBRANCH  36  39
ENDBRANCH  34  35
ENDBRANCH  33  34
ENDBRANCH  32  33
ENDBRANCH   1  32
TORSDOF 17
ENDMDL
MODEL 3
REMARK VINA RESULT:     -12.3      3.507      8.745
REMARK SMILES Cc1c(CC(=O)NCCCCCCNC(=O)c2ccc(-c3c4nc(c(-c5c(F)c(F)c(F)c(F)c5F)c5ccc([nH]5)c(-c5c(F)c(F)c(F)c(F)c5F)c5nc(c(-c6c(F)c(F)c(F)c(F)c6F)c6ccc3[nH]6)C=C5)C=C4)cc2)cc(-c2ccc(S(C)(=O)=O)cc2)n1-c1cccc(F)c1
REMARK SMILES IDX 10 1 9 2 8 3 7 4 5 5 6 6 4 8 3 9 1 10 2 11 92 12 80 13 81 14
REMARK SMILES IDX 93 15 94 16 99 17 95 18 97 19 96 20 98 21 82 22 83 23 91 24
REMARK SMILES IDX 84 25 90 26 85 27 86 28 87 29 88 30 89 31 11 32 12 33 13 34
REMARK SMILES IDX 14 35 15 36 16 38 17 39 18 40 79 41 19 42 78 43 20 44 21 45
REMARK SMILES IDX 22 46 72 47 23 48 77 49 71 50 73 51 24 52 76 53 70 54 69 55
REMARK SMILES IDX 25 57 57 58 37 59 56 60 38 61 41 62 55 63 74 64 39 65 40 66
REMARK SMILES IDX 54 68 75 69 42 70 26 71 27 72 35 73 28 74 29 75 33 76 36 77
REMARK SMILES IDX 30 78 31 79 34 80 32 81 58 82 59 83 67 84 60 85 61 86 65 87
REMARK SMILES IDX 68 88 62 89 63 90 66 91 64 92 43 93 44 94 52 95 45 96 46 97
REMARK SMILES IDX 50 98 53 99 47 100 48 101 51 102 49 103
REMARK H PARENT 7 7 14 37 73 56 41 67
REMARK Flexibility Score: inf
ROOT
ATOM      1  C   UNL A   1      36.129  22.627  25.561  1.00  0.00     0.002 C 
ENDROOT
BRANCH   1   2
ATOM      2  C   UNL A   1      35.104  21.555  25.950  1.00  0.00     0.021 C 
BRANCH   2   3
ATOM      3  C   UNL A   1      34.205  21.086  24.804  1.00  0.00     0.116 C 
BRANCH   3   4
ATOM      4  N   UNL A   1      34.371  21.907  23.620  1.00  0.00    -0.356 N 
ATOM      5  C   UNL A   1      33.464  22.712  22.987  1.00  0.00     0.224 C 
ATOM      6  O   UNL A   1      33.814  23.279  21.948  1.00  0.00    -0.275 OA
ATOM      7  H   UNL A   1      35.267  21.882  23.212  1.00  0.00     0.163 HD
BRANCH   5   8
ATOM      8  C   UNL A   1      32.086  22.948  23.581  1.00  0.00     0.137 C 
BRANCH   8   9
ATOM      9  C   UNL A   1      31.844  24.368  23.978  1.00  0.00    -0.017 A 
ATOM     10  C   UNL A   1      33.328  24.608  26.088  1.00  0.00     0.065 C 
ATOM     11  C   UNL A   1      32.413  25.099  25.016  1.00  0.00     0.024 A 
ATOM     12  N   UNL A   1      31.936  26.406  24.951  1.00  0.00    -0.313 N 
ATOM     13  C   UNL A   1      30.931  25.222  23.329  1.00  0.00     0.033 A 
ATOM     14  C   UNL A   1      31.031  26.471  23.895  1.00  0.00     0.053 A 
BRANCH  12  15
ATOM     15  C   UNL A   1      32.317  27.502  25.782  1.00  0.00     0.049 A 
ATOM     16  C   UNL A   1      31.346  28.206  26.515  1.00  0.00     0.027 A 
ATOM     17  C   UNL A   1      33.648  27.928  25.807  1.00  0.00     0.065 A 
ATOM     18  C   UNL A   1      31.705  29.332  27.261  1.00  0.00     0.005 A 
ATOM     19  C   UNL A   1      33.985  29.060  26.545  1.00  0.00     0.125 A 
ATOM     20  C   UNL A   1      33.029  29.765  27.270  1.00  0.00     0.039 A 
ATOM     21  F   UNL A   1      35.251  29.496  26.535  1.00  0.00    -0.207 F 
ENDBRANCH  12  15
BRANCH  14  22
ATOM     22  C   UNL A   1      30.381  27.671  23.400  1.00  0.00    -0.001 A 
ATOM     23  C   UNL A   1      31.134  28.706  22.832  1.00  0.00     0.011 A 
ATOM     24  C   UNL A   1      28.987  27.761  23.488  1.00  0.00     0.011 A 
ATOM     25  C   UNL A   1      30.495  29.866  22.429  1.00  0.00     0.021 A 
ATOM     26  C   UNL A   1      28.342  28.915  23.090  1.00  0.00     0.021 A 
ATOM     27  C   UNL A   1      29.109  29.963  22.604  1.00  0.00     0.067 A 
BRANCH  27  28
ATOM     28  S   UNL A   1      28.322  31.506  22.311  1.00  0.00     0.175 S 
ATOM     29  C   UNL A   1      27.901  31.337  20.579  1.00  0.00     0.163 C 
ATOM     30  O   UNL A   1      27.158  31.489  23.169  1.00  0.00    -0.224 OA
ATOM     31  O   UNL A   1      29.312  32.556  22.417  1.00  0.00    -0.224 OA
ENDBRANCH  27  28
ENDBRANCH  14  22
ENDBRANCH   8   9
ENDBRANCH   5   8
ENDBRANCH   3   4
ENDBRANCH   2   3
ENDBRANCH   1   2
BRANCH   1  32
ATOM     32  C   UNL A   1      37.589  22.165  25.457  1.00  0.00     0.002 C 
BRANCH  32  33
ATOM     33  C   UNL A   1      38.667  23.054  26.108  1.00  0.00     0.021 C 
BRANCH  33  34
ATOM     34  C   UNL A   1      39.821  22.357  26.858  1.00  0.00     0.116 C 
BRANCH  34  35
ATOM     35  N   UNL A   1      40.884  21.872  26.000  1.00  0.00    -0.352 N 
ATOM     36  C   UNL A   1      42.154  22.389  25.822  1.00  0.00     0.251 C 
ATOM     37  H   UNL A   1      40.674  21.068  25.474  1.00  0.00     0.163 HD
ATOM     38  O   UNL A   1      42.981  21.723  25.201  1.00  0.00    -0.269 OA
BRANCH  36  39
ATOM     39  C   UNL A   1      42.550  23.755  26.304  1.00  0.00     0.039 A 
ATOM     40  C   UNL A   1      42.575  24.001  27.669  1.00  0.00     0.014 A 
ATOM     41  C   UNL A   1      42.586  24.870  25.444  1.00  0.00     0.014 A 
ATOM     42  C   UNL A   1      42.639  25.333  28.148  1.00  0.00     0.010 A 
ATOM     43  C   UNL A   1      42.590  26.226  25.936  1.00  0.00     0.010 A 
ATOM     44  C   UNL A   1      42.573  26.501  27.312  1.00  0.00    -0.014 A 
BRANCH  44  45
ATOM     45  C   UNL A   1      42.009  27.788  28.011  1.00  0.00     0.031 A 
ATOM     46  C   UNL A   1      43.171  28.708  28.055  1.00  0.00     0.074 A 
ATOM     47  C   UNL A   1      40.898  28.254  28.690  1.00  0.00     0.049 A 
ATOM     48  N   UNL A   1      44.289  28.320  28.609  1.00  0.00    -0.248 NA
ATOM     49  C   UNL A   1      43.265  29.918  27.245  1.00  0.00     0.031 C 
ATOM     50  C   UNL A   1      39.763  27.473  29.165  1.00  0.00     0.029 A 
ATOM     51  N   UNL A   1      40.481  29.545  29.092  1.00  0.00    -0.354 N 
ATOM     52  C   UNL A   1      45.121  29.405  28.527  1.00  0.00     0.074 A 
ATOM     53  C   UNL A   1      44.546  30.227  27.472  1.00  0.00     0.031 C 
ATOM     54  C   UNL A   1      38.706  28.254  29.513  1.00  0.00     0.029 A 
ATOM     55  C   UNL A   1      39.108  29.651  29.487  1.00  0.00     0.049 A 
ATOM     56  H   UNL A   1      41.092  30.317  29.100  1.00  0.00     0.167 HD
ATOM     57  C   UNL A   1      45.659  29.806  29.715  1.00  0.00     0.037 A 
ATOM     58  C   UNL A   1      38.362  30.733  29.905  1.00  0.00     0.037 A 
ATOM     59  C   UNL A   1      45.067  31.020  30.202  1.00  0.00     0.049 A 
ATOM     60  C   UNL A   1      39.316  31.654  30.526  1.00  0.00     0.074 A 
ATOM     61  C   UNL A   1      44.764  32.230  29.614  1.00  0.00     0.029 A 
ATOM     62  N   UNL A   1      44.292  30.930  31.338  1.00  0.00    -0.354 N 
ATOM     63  N   UNL A   1      39.780  31.436  31.720  1.00  0.00    -0.248 NA
ATOM     64  C   UNL A   1      39.743  32.896  29.899  1.00  0.00     0.031 C 
ATOM     65  C   UNL A   1      43.505  32.596  30.145  1.00  0.00     0.029 A 
ATOM     66  C   UNL A   1      43.212  31.778  31.229  1.00  0.00     0.049 A 
ATOM     67  H   UNL A   1      44.483  30.351  32.110  1.00  0.00     0.167 HD
ATOM     68  C   UNL A   1      40.913  32.179  31.739  1.00  0.00     0.074 A 
ATOM     69  C   UNL A   1      40.680  33.245  30.785  1.00  0.00     0.031 C 
ATOM     70  C   UNL A   1      42.055  31.520  32.055  1.00  0.00     0.037 A 
BRANCH  57  71
ATOM     71  C   UNL A   1      46.107  28.664  30.582  1.00  0.00     0.064 A 
ATOM     72  C   UNL A   1      45.166  28.006  31.379  1.00  0.00     0.173 A 
ATOM     73  C   UNL A   1      47.465  28.324  30.765  1.00  0.00     0.173 A 
ATOM     74  F   UNL A   1      43.858  28.252  31.214  1.00  0.00    -0.203 F 
ATOM     75  C   UNL A   1      45.566  27.091  32.351  1.00  0.00     0.198 A 
ATOM     76  C   UNL A   1      47.865  27.455  31.773  1.00  0.00     0.198 A 
ATOM     77  F   UNL A   1      48.412  28.841  29.963  1.00  0.00    -0.203 F 
ATOM     78  F   UNL A   1      44.645  26.452  33.086  1.00  0.00    -0.200 F 
ATOM     79  C   UNL A   1      46.915  26.842  32.571  1.00  0.00     0.200 A 
ATOM     80  F   UNL A   1      49.170  27.213  31.968  1.00  0.00    -0.200 F 
ATOM     81  F   UNL A   1      47.297  25.994  33.536  1.00  0.00    -0.200 F 
ENDBRANCH  57  71
BRANCH  58  82
ATOM     82  C   UNL A   1      36.927  31.163  30.192  1.00  0.00     0.064 A 
ATOM     83  C   UNL A   1      36.453  31.287  31.535  1.00  0.00     0.173 A 
ATOM     84  C   UNL A   1      36.159  31.848  29.242  1.00  0.00     0.173 A 
ATOM     85  F   UNL A   1      37.046  30.641  32.549  1.00  0.00    -0.203 F 
ATOM     86  C   UNL A   1      35.404  32.132  31.909  1.00  0.00     0.198 A 
ATOM     87  C   UNL A   1      35.071  32.669  29.616  1.00  0.00     0.198 A 
ATOM     88  F   UNL A   1      36.508  31.817  27.950  1.00  0.00    -0.203 F 
ATOM     89  F   UNL A   1      35.110  32.305  33.207  1.00  0.00    -0.200 F 
ATOM     90  C   UNL A   1      34.723  32.842  30.948  1.00  0.00     0.200 A 
ATOM     91  F   UNL A   1      34.400  33.358  28.681  1.00  0.00    -0.200 F 
ATOM     92  F   UNL A   1      33.762  33.707  31.306  1.00  0.00    -0.200 F 
ENDBRANCH  58  82
BRANCH  70  93
ATOM     93  C   UNL A   1      41.961  30.440  33.134  1.00  0.00     0.064 A 
ATOM     94  C   UNL A   1      41.521  29.100  32.980  1.00  0.00     0.173 A 
ATOM     95  C   UNL A   1      42.279  30.820  34.446  1.00  0.00     0.173 A 
ATOM     96  F   UNL A   1      41.315  28.545  31.778  1.00  0.00    -0.203 F 
ATOM     97  C   UNL A   1      41.310  28.256  34.075  1.00  0.00     0.198 A 
ATOM     98  C   UNL A   1      42.129  29.954  35.531  1.00  0.00     0.198 A 
ATOM     99  F   UNL A   1      42.766  32.047  34.687  1.00  0.00    -0.203 F 
ATOM    100  F   UNL A   1      40.817  27.021  33.888  1.00  0.00    -0.200 F 
ATOM    101  C   UNL A   1      41.615  28.685  35.351  1.00  0.00     0.200 A 
ATOM    102  F   UNL A   1      42.489  30.360  36.756  1.00  0.00    -0.200 F 
ATOM    103  F   UNL A   1      41.433  27.871  36.400  1.00  0.00    -0.200 F 
ENDBRANCH  70  93
ENDBRANCH  44  45
ENDBRANCH  36  39
ENDBRANCH  34  35
ENDBRANCH  33  34
ENDBRANCH  32  33
ENDBRANCH   1  32
TORSDOF 17
ENDMDL
