MODEL 1
REMARK VINA RESULT:     -11.7      0.000      0.000
REMARK SMILES CC[C@H](NC(=O)NC[C@@]1(C)CCCO1)C(=O)NCCCCCCNC(=O)c1ccc(-c2c3nc(c(-c4c(F)c(F)c(F)c(F)c4F)c4ccc([nH]4)c(-c4c(F)c(F)c(F)c(F)c4F)c4nc(c(-c5c(F)c(F)c(F)c(F)c5F)c5ccc2[nH]5)C=C4)C=C3)cc1
REMARK SMILES IDX 20 1 19 2 18 3 17 4 15 5 16 6 3 8 2 9 1 10 4 11 5 12 6 14
REMARK SMILES IDX 7 15 8 17 9 18 10 19 11 20 14 21 12 22 13 23 21 24 22 25
REMARK SMILES IDX 23 26 24 27 25 28 26 30 27 31 28 32 89 33 29 34 88 35 30 36
REMARK SMILES IDX 31 37 32 38 82 39 33 40 87 41 81 42 83 43 34 44 86 45 80 46
REMARK SMILES IDX 79 47 35 49 67 50 47 51 66 52 48 53 51 54 65 55 84 56 49 57
REMARK SMILES IDX 50 58 64 60 85 61 52 62 36 63 37 64 45 65 38 66 39 67 43 68
REMARK SMILES IDX 46 69 40 70 41 71 44 72 42 73 68 74 69 75 77 76 70 77 71 78
REMARK SMILES IDX 75 79 78 80 72 81 73 82 76 83 74 84 53 85 54 86 62 87 55 88
REMARK SMILES IDX 56 89 60 90 63 91 57 92 58 93 61 94 59 95
REMARK H PARENT 17 7 4 13 7 16 24 29 83 48 51 59
REMARK Flexibility Score: inf
ROOT
ATOM      1  C   UNL A   1      33.167  29.975  27.187  1.00  0.00     0.002 C 
ENDROOT
BRANCH   1   2
ATOM      2  C   UNL A   1      33.732  28.764  26.434  1.00  0.00     0.021 C 
BRANCH   2   3
ATOM      3  C   UNL A   1      32.817  27.541  26.438  1.00  0.00     0.116 C 
BRANCH   3   4
ATOM      4  N   UNL A   1      33.563  26.331  26.156  1.00  0.00    -0.354 N 
ATOM      5  C   UNL A   1      33.389  25.350  25.229  1.00  0.00     0.242 C 
ATOM      6  O   UNL A   1      34.258  24.476  25.171  1.00  0.00    -0.273 OA
ATOM      7  H   UNL A   1      34.339  26.192  26.745  1.00  0.00     0.163 HD
BRANCH   5   8
ATOM      8  C   UNL A   1      32.228  25.377  24.214  1.00  0.00     0.172 C 
BRANCH   8   9
ATOM      9  C   UNL A   1      31.296  24.179  24.465  1.00  0.00     0.032 C 
ATOM     10  C   UNL A   1      30.866  24.023  25.914  1.00  0.00     0.006 C 
ENDBRANCH   8   9
BRANCH   8  11
ATOM     11  N   UNL A   1      32.750  25.428  22.847  1.00  0.00    -0.326 N 
ATOM     12  C   UNL A   1      32.670  26.265  21.815  1.00  0.00     0.315 C 
ATOM     13  H   UNL A   1      33.301  24.640  22.636  1.00  0.00     0.166 HD
ATOM     14  O   UNL A   1      33.118  25.871  20.735  1.00  0.00    -0.249 OA
ATOM     15  N   UNL A   1      32.166  27.498  21.864  1.00  0.00    -0.335 N 
ATOM     16  H   UNL A   1      32.046  27.896  20.972  1.00  0.00     0.165 HD
BRANCH  15  17
ATOM     17  C   UNL A   1      31.753  28.386  22.935  1.00  0.00     0.152 C 
BRANCH  17  18
ATOM     18  C   UNL A   1      30.252  28.753  22.925  1.00  0.00     0.083 C 
ATOM     19  C   UNL A   1      29.342  27.571  23.287  1.00  0.00     0.044 C 
ATOM     20  C   UNL A   1      29.954  29.973  23.800  1.00  0.00     0.039 C 
ATOM     21  O   UNL A   1      29.904  29.158  21.580  1.00  0.00    -0.373 OA
ATOM     22  C   UNL A   1      28.788  30.618  23.089  1.00  0.00     0.031 C 
ATOM     23  C   UNL A   1      29.100  30.343  21.635  1.00  0.00     0.161 C 
ENDBRANCH  17  18
ENDBRANCH  15  17
ENDBRANCH   8  11
ENDBRANCH   5   8
ENDBRANCH   3   4
ENDBRANCH   2   3
ENDBRANCH   1   2
BRANCH   1  24
ATOM     24  C   UNL A   1      31.801  30.468  26.701  1.00  0.00     0.002 C 
BRANCH  24  25
ATOM     25  C   UNL A   1      31.583  31.978  26.800  1.00  0.00     0.021 C 
BRANCH  25  26
ATOM     26  C   UNL A   1      32.794  32.760  27.289  1.00  0.00     0.116 C 
BRANCH  26  27
ATOM     27  N   UNL A   1      32.465  34.136  27.626  1.00  0.00    -0.352 N 
ATOM     28  C   UNL A   1      33.005  34.926  28.608  1.00  0.00     0.251 C 
ATOM     29  H   UNL A   1      31.762  34.554  27.077  1.00  0.00     0.163 HD
ATOM     30  O   UNL A   1      32.512  36.015  28.884  1.00  0.00    -0.269 OA
BRANCH  28  31
ATOM     31  C   UNL A   1      34.184  34.439  29.352  1.00  0.00     0.039 A 
ATOM     32  C   UNL A   1      33.999  33.755  30.556  1.00  0.00     0.014 A 
ATOM     33  C   UNL A   1      35.469  34.636  28.837  1.00  0.00     0.014 A 
ATOM     34  C   UNL A   1      35.103  33.217  31.219  1.00  0.00     0.010 A 
ATOM     35  C   UNL A   1      36.556  34.040  29.461  1.00  0.00     0.010 A 
ATOM     36  C   UNL A   1      36.386  33.333  30.662  1.00  0.00    -0.014 A 
BRANCH  36  37
ATOM     37  C   UNL A   1      37.585  32.760  31.321  1.00  0.00     0.031 A 
ATOM     38  C   UNL A   1      38.300  31.611  30.671  1.00  0.00     0.074 A 
ATOM     39  C   UNL A   1      37.959  33.192  32.539  1.00  0.00     0.049 A 
ATOM     40  N   UNL A   1      39.245  30.843  31.148  1.00  0.00    -0.248 NA
ATOM     41  C   UNL A   1      37.860  31.255  29.312  1.00  0.00     0.031 C 
ATOM     42  C   UNL A   1      37.325  34.278  33.284  1.00  0.00     0.029 A 
ATOM     43  N   UNL A   1      38.949  32.745  33.378  1.00  0.00    -0.354 N 
ATOM     44  C   UNL A   1      39.486  29.892  30.166  1.00  0.00     0.074 A 
ATOM     45  C   UNL A   1      38.559  30.153  29.086  1.00  0.00     0.031 C 
ATOM     46  C   UNL A   1      37.938  34.413  34.471  1.00  0.00     0.029 A 
ATOM     47  C   UNL A   1      38.979  33.395  34.586  1.00  0.00     0.049 A 
ATOM     48  H   UNL A   1      39.577  32.026  33.137  1.00  0.00     0.167 HD
ATOM     49  C   UNL A   1      40.409  28.901  30.159  1.00  0.00     0.037 A 
ATOM     50  C   UNL A   1      39.746  33.180  35.673  1.00  0.00     0.037 A 
ATOM     51  C   UNL A   1      41.348  28.670  31.224  1.00  0.00     0.049 A 
ATOM     52  C   UNL A   1      40.771  32.079  35.643  1.00  0.00     0.074 A 
ATOM     53  C   UNL A   1      42.366  27.736  31.289  1.00  0.00     0.029 A 
ATOM     54  N   UNL A   1      41.381  29.386  32.413  1.00  0.00    -0.354 N 
ATOM     55  N   UNL A   1      41.030  31.218  34.690  1.00  0.00    -0.248 NA
ATOM     56  C   UNL A   1      41.615  31.924  36.837  1.00  0.00     0.031 C 
ATOM     57  C   UNL A   1      42.987  27.856  32.538  1.00  0.00     0.029 A 
ATOM     58  C   UNL A   1      42.392  28.901  33.227  1.00  0.00     0.049 A 
ATOM     59  H   UNL A   1      40.776  30.127  32.644  1.00  0.00     0.167 HD
ATOM     60  C   UNL A   1      42.085  30.441  35.151  1.00  0.00     0.074 A 
ATOM     61  C   UNL A   1      42.418  30.934  36.471  1.00  0.00     0.031 C 
ATOM     62  C   UNL A   1      42.722  29.418  34.531  1.00  0.00     0.037 A 
BRANCH  49  63
ATOM     63  C   UNL A   1      40.430  27.988  28.967  1.00  0.00     0.064 A 
ATOM     64  C   UNL A   1      41.189  28.280  27.823  1.00  0.00     0.173 A 
ATOM     65  C   UNL A   1      39.679  26.802  28.968  1.00  0.00     0.173 A 
ATOM     66  F   UNL A   1      41.917  29.406  27.766  1.00  0.00    -0.203 F 
ATOM     67  C   UNL A   1      41.159  27.445  26.709  1.00  0.00     0.198 A 
ATOM     68  C   UNL A   1      39.679  25.952  27.865  1.00  0.00     0.198 A 
ATOM     69  F   UNL A   1      38.940  26.469  30.037  1.00  0.00    -0.203 F 
ATOM     70  F   UNL A   1      41.838  27.782  25.604  1.00  0.00    -0.200 F 
ATOM     71  C   UNL A   1      40.408  26.281  26.732  1.00  0.00     0.200 A 
ATOM     72  F   UNL A   1      38.962  24.820  27.894  1.00  0.00    -0.200 F 
ATOM     73  F   UNL A   1      40.377  25.480  25.659  1.00  0.00    -0.200 F 
ENDBRANCH  49  63
BRANCH  50  74
ATOM     74  C   UNL A   1      39.578  34.044  36.869  1.00  0.00     0.064 A 
ATOM     75  C   UNL A   1      38.788  33.628  37.950  1.00  0.00     0.173 A 
ATOM     76  C   UNL A   1      40.229  35.282  36.973  1.00  0.00     0.173 A 
ATOM     77  F   UNL A   1      38.132  32.461  37.888  1.00  0.00    -0.203 F 
ATOM     78  C   UNL A   1      38.649  34.422  39.087  1.00  0.00     0.198 A 
ATOM     79  C   UNL A   1      40.109  36.063  38.121  1.00  0.00     0.198 A 
ATOM     80  F   UNL A   1      41.002  35.721  35.969  1.00  0.00    -0.203 F 
ATOM     81  F   UNL A   1      37.865  34.014  40.093  1.00  0.00    -0.200 F 
ATOM     82  C   UNL A   1      39.316  35.635  39.174  1.00  0.00     0.200 A 
ATOM     83  F   UNL A   1      40.768  37.227  38.209  1.00  0.00    -0.200 F 
ATOM     84  F   UNL A   1      39.194  36.391  40.274  1.00  0.00    -0.200 F 
ENDBRANCH  50  74
BRANCH  62  85
ATOM     85  C   UNL A   1      43.884  28.789  35.243  1.00  0.00     0.064 A 
ATOM     86  C   UNL A   1      43.717  27.708  36.119  1.00  0.00     0.173 A 
ATOM     87  C   UNL A   1      45.191  29.227  34.977  1.00  0.00     0.173 A 
ATOM     88  F   UNL A   1      42.488  27.264  36.417  1.00  0.00    -0.203 F 
ATOM     89  C   UNL A   1      44.818  27.094  36.712  1.00  0.00     0.198 A 
ATOM     90  C   UNL A   1      46.289  28.594  35.549  1.00  0.00     0.198 A 
ATOM     91  F   UNL A   1      45.403  30.254  34.140  1.00  0.00    -0.203 F 
ATOM     92  F   UNL A   1      44.635  26.081  37.571  1.00  0.00    -0.200 F 
ATOM     93  C   UNL A   1      46.102  27.530  36.419  1.00  0.00     0.200 A 
ATOM     94  F   UNL A   1      47.529  29.006  35.254  1.00  0.00    -0.200 F 
ATOM     95  F   UNL A   1      47.160  26.924  36.975  1.00  0.00    -0.200 F 
ENDBRANCH  62  85
ENDBRANCH  36  37
ENDBRANCH  28  31
ENDBRANCH  26  27
ENDBRANCH  25  26
ENDBRANCH  24  25
ENDBRANCH   1  24
TORSDOF 17
ENDMDL
MODEL 2
REMARK VINA RESULT:     -11.6      5.888     11.385
REMARK SMILES CC[C@H](NC(=O)NC[C@@]1(C)CCCO1)C(=O)NCCCCCCNC(=O)c1ccc(-c2c3nc(c(-c4c(F)c(F)c(F)c(F)c4F)c4ccc([nH]4)c(-c4c(F)c(F)c(F)c(F)c4F)c4nc(c(-c5c(F)c(F)c(F)c(F)c5F)c5ccc2[nH]5)C=C4)C=C3)cc1
REMARK SMILES IDX 20 1 19 2 18 3 17 4 15 5 16 6 3 8 2 9 1 10 4 11 5 12 6 14
REMARK SMILES IDX 7 15 8 17 9 18 10 19 11 20 14 21 12 22 13 23 21 24 22 25
REMARK SMILES IDX 23 26 24 27 25 28 26 30 27 31 28 32 89 33 29 34 88 35 30 36
REMARK SMILES IDX 31 37 32 38 82 39 33 40 87 41 81 42 83 43 34 44 86 45 80 46
REMARK SMILES IDX 79 47 35 49 67 50 47 51 66 52 48 53 51 54 65 55 84 56 49 57
REMARK SMILES IDX 50 58 64 60 85 61 52 62 36 63 37 64 45 65 38 66 39 67 43 68
REMARK SMILES IDX 46 69 40 70 41 71 44 72 42 73 68 74 69 75 77 76 70 77 71 78
REMARK SMILES IDX 75 79 78 80 72 81 73 82 76 83 74 84 53 85 54 86 62 87 55 88
REMARK SMILES IDX 56 89 60 90 63 91 57 92 58 93 61 94 59 95
REMARK H PARENT 17 7 4 13 7 16 24 29 83 48 51 59
REMARK Flexibility Score: inf
ROOT
ATOM      1  C   UNL A   1      37.413  22.422  24.656  1.00  0.00     0.002 C 
ENDROOT
BRANCH   1   2
ATOM      2  C   UNL A   1      37.128  23.471  25.739  1.00  0.00     0.021 C 
BRANCH   2   3
ATOM      3  C   UNL A   1      35.643  23.680  26.032  1.00  0.00     0.116 C 
BRANCH   3   4
ATOM      4  N   UNL A   1      35.101  24.761  25.233  1.00  0.00    -0.354 N 
ATOM      5  C   UNL A   1      33.965  24.863  24.490  1.00  0.00     0.242 C 
ATOM      6  O   UNL A   1      33.722  25.964  23.990  1.00  0.00    -0.273 OA
ATOM      7  H   UNL A   1      35.658  25.573  25.227  1.00  0.00     0.163 HD
BRANCH   5   8
ATOM      8  C   UNL A   1      32.959  23.701  24.365  1.00  0.00     0.172 C 
BRANCH   8   9
ATOM      9  C   UNL A   1      32.123  23.878  23.086  1.00  0.00     0.032 C 
ATOM     10  C   UNL A   1      30.644  24.112  23.340  1.00  0.00     0.006 C 
ENDBRANCH   8   9
BRANCH   8  11
ATOM     11  N   UNL A   1      32.147  23.599  25.579  1.00  0.00    -0.326 N 
ATOM     12  C   UNL A   1      31.785  22.632  26.419  1.00  0.00     0.315 C 
ATOM     13  H   UNL A   1      31.770  24.470  25.841  1.00  0.00     0.166 HD
ATOM     14  O   UNL A   1      30.923  22.909  27.257  1.00  0.00    -0.249 OA
ATOM     15  N   UNL A   1      32.294  21.400  26.437  1.00  0.00    -0.335 N 
ATOM     16  H   UNL A   1      31.787  20.786  27.016  1.00  0.00     0.165 HD
BRANCH  15  17
ATOM     17  C   UNL A   1      33.427  20.759  25.795  1.00  0.00     0.152 C 
BRANCH  17  18
ATOM     18  C   UNL A   1      33.055  19.617  24.822  1.00  0.00     0.083 C 
ATOM     19  C   UNL A   1      32.357  20.117  23.549  1.00  0.00     0.044 C 
ATOM     20  C   UNL A   1      34.259  18.735  24.485  1.00  0.00     0.039 C 
ATOM     21  O   UNL A   1      32.122  18.743  25.501  1.00  0.00    -0.373 OA
ATOM     22  C   UNL A   1      33.629  17.380  24.268  1.00  0.00     0.031 C 
ATOM     23  C   UNL A   1      32.497  17.379  25.270  1.00  0.00     0.161 C 
ENDBRANCH  17  18
ENDBRANCH  15  17
ENDBRANCH   8  11
ENDBRANCH   5   8
ENDBRANCH   3   4
ENDBRANCH   2   3
ENDBRANCH   1   2
BRANCH   1  24
ATOM     24  C   UNL A   1      37.017  20.987  25.016  1.00  0.00     0.002 C 
BRANCH  24  25
ATOM     25  C   UNL A   1      38.153  19.966  24.959  1.00  0.00     0.021 C 
BRANCH  25  26
ATOM     26  C   UNL A   1      39.284  20.225  25.945  1.00  0.00     0.116 C 
BRANCH  26  27
ATOM     27  N   UNL A   1      40.268  19.154  25.952  1.00  0.00    -0.352 N 
ATOM     28  C   UNL A   1      41.631  19.248  26.071  1.00  0.00     0.251 C 
ATOM     29  H   UNL A   1      39.908  18.242  25.857  1.00  0.00     0.163 HD
ATOM     30  O   UNL A   1      42.349  18.270  25.893  1.00  0.00    -0.269 OA
BRANCH  28  31
ATOM     31  C   UNL A   1      42.232  20.557  26.399  1.00  0.00     0.039 A 
ATOM     32  C   UNL A   1      42.650  21.396  25.363  1.00  0.00     0.014 A 
ATOM     33  C   UNL A   1      42.351  20.960  27.732  1.00  0.00     0.014 A 
ATOM     34  C   UNL A   1      43.140  22.669  25.663  1.00  0.00     0.010 A 
ATOM     35  C   UNL A   1      42.770  22.251  28.023  1.00  0.00     0.010 A 
ATOM     36  C   UNL A   1      43.177  23.114  26.992  1.00  0.00    -0.014 A 
BRANCH  36  37
ATOM     37  C   UNL A   1      43.670  24.465  27.356  1.00  0.00     0.031 A 
ATOM     38  C   UNL A   1      42.701  25.479  27.893  1.00  0.00     0.074 A 
ATOM     39  C   UNL A   1      44.945  24.812  27.103  1.00  0.00     0.049 A 
ATOM     40  N   UNL A   1      42.868  26.760  28.100  1.00  0.00    -0.248 NA
ATOM     41  C   UNL A   1      41.348  24.988  28.199  1.00  0.00     0.031 C 
ATOM     42  C   UNL A   1      45.970  23.925  26.554  1.00  0.00     0.029 A 
ATOM     43  N   UNL A   1      45.587  26.016  27.247  1.00  0.00    -0.354 N 
ATOM     44  C   UNL A   1      41.633  27.233  28.524  1.00  0.00     0.074 A 
ATOM     45  C   UNL A   1      40.718  26.113  28.502  1.00  0.00     0.031 C 
ATOM     46  C   UNL A   1      47.113  24.615  26.405  1.00  0.00     0.029 A 
ATOM     47  C   UNL A   1      46.887  26.001  26.806  1.00  0.00     0.049 A 
ATOM     48  H   UNL A   1      45.156  26.815  27.628  1.00  0.00     0.167 HD
ATOM     49  C   UNL A   1      41.298  28.486  28.913  1.00  0.00     0.037 A 
ATOM     50  C   UNL A   1      47.788  26.998  26.717  1.00  0.00     0.037 A 
ATOM     51  C   UNL A   1      42.224  29.587  28.962  1.00  0.00     0.049 A 
ATOM     52  C   UNL A   1      47.400  28.382  27.160  1.00  0.00     0.074 A 
ATOM     53  C   UNL A   1      42.006  30.880  29.401  1.00  0.00     0.029 A 
ATOM     54  N   UNL A   1      43.550  29.519  28.556  1.00  0.00    -0.354 N 
ATOM     55  N   UNL A   1      46.247  28.812  27.611  1.00  0.00    -0.248 NA
ATOM     56  C   UNL A   1      48.439  29.419  27.089  1.00  0.00     0.031 C 
ATOM     57  C   UNL A   1      43.187  31.607  29.218  1.00  0.00     0.029 A 
ATOM     58  C   UNL A   1      44.157  30.753  28.718  1.00  0.00     0.049 A 
ATOM     59  H   UNL A   1      43.993  28.712  28.205  1.00  0.00     0.167 HD
ATOM     60  C   UNL A   1      46.428  30.156  27.908  1.00  0.00     0.074 A 
ATOM     61  C   UNL A   1      47.804  30.472  27.586  1.00  0.00     0.031 C 
ATOM     62  C   UNL A   1      45.535  31.044  28.409  1.00  0.00     0.037 A 
BRANCH  49  63
ATOM     63  C   UNL A   1      39.868  28.729  29.297  1.00  0.00     0.064 A 
ATOM     64  C   UNL A   1      39.415  28.550  30.614  1.00  0.00     0.173 A 
ATOM     65  C   UNL A   1      38.935  29.146  28.336  1.00  0.00     0.173 A 
ATOM     66  F   UNL A   1      40.263  28.142  31.570  1.00  0.00    -0.203 F 
ATOM     67  C   UNL A   1      38.074  28.734  30.943  1.00  0.00     0.198 A 
ATOM     68  C   UNL A   1      37.602  29.363  28.675  1.00  0.00     0.198 A 
ATOM     69  F   UNL A   1      39.314  29.340  27.063  1.00  0.00    -0.203 F 
ATOM     70  F   UNL A   1      37.653  28.490  32.191  1.00  0.00    -0.200 F 
ATOM     71  C   UNL A   1      37.170  29.144  29.975  1.00  0.00     0.200 A 
ATOM     72  F   UNL A   1      36.733  29.773  27.742  1.00  0.00    -0.200 F 
ATOM     73  F   UNL A   1      35.880  29.318  30.291  1.00  0.00    -0.200 F 
ENDBRANCH  49  63
BRANCH  50  74
ATOM     74  C   UNL A   1      49.151  26.708  26.201  1.00  0.00     0.064 A 
ATOM     75  C   UNL A   1      50.123  26.130  27.029  1.00  0.00     0.173 A 
ATOM     76  C   UNL A   1      49.498  26.967  24.868  1.00  0.00     0.173 A 
ATOM     77  F   UNL A   1      49.843  25.881  28.316  1.00  0.00    -0.203 F 
ATOM     78  C   UNL A   1      51.395  25.829  26.545  1.00  0.00     0.198 A 
ATOM     79  C   UNL A   1      50.762  26.643  24.378  1.00  0.00     0.198 A 
ATOM     80  F   UNL A   1      48.601  27.513  24.033  1.00  0.00    -0.203 F 
ATOM     81  F   UNL A   1      52.314  25.304  27.364  1.00  0.00    -0.200 F 
ATOM     82  C   UNL A   1      51.710  26.079  25.217  1.00  0.00     0.200 A 
ATOM     83  F   UNL A   1      51.058  26.871  23.090  1.00  0.00    -0.200 F 
ATOM     84  F   UNL A   1      52.928  25.776  24.748  1.00  0.00    -0.200 F 
ENDBRANCH  50  74
BRANCH  62  85
ATOM     85  C   UNL A   1      46.022  32.434  28.697  1.00  0.00     0.064 A 
ATOM     86  C   UNL A   1      46.577  32.781  29.936  1.00  0.00     0.173 A 
ATOM     87  C   UNL A   1      46.005  33.407  27.685  1.00  0.00     0.173 A 
ATOM     88  F   UNL A   1      46.602  31.891  30.938  1.00  0.00    -0.203 F 
ATOM     89  C   UNL A   1      47.089  34.058  30.155  1.00  0.00     0.198 A 
ATOM     90  C   UNL A   1      46.542  34.672  27.899  1.00  0.00     0.198 A 
ATOM     91  F   UNL A   1      45.490  33.121  26.480  1.00  0.00    -0.203 F 
ATOM     92  F   UNL A   1      47.588  34.380  31.357  1.00  0.00    -0.200 F 
ATOM     93  C   UNL A   1      47.081  34.998  29.135  1.00  0.00     0.200 A 
ATOM     94  F   UNL A   1      46.547  35.574  26.908  1.00  0.00    -0.200 F 
ATOM     95  F   UNL A   1      47.592  36.220  29.342  1.00  0.00    -0.200 F 
ENDBRANCH  62  85
ENDBRANCH  36  37
ENDBRANCH  28  31
ENDBRANCH  26  27
ENDBRANCH  25  26
ENDBRANCH  24  25
ENDBRANCH   1  24
TORSDOF 17
ENDMDL
MODEL 3
REMARK VINA RESULT:     -11.5      5.881     11.409
REMARK SMILES CC[C@H](NC(=O)NC[C@@]1(C)CCCO1)C(=O)NCCCCCCNC(=O)c1ccc(-c2c3nc(c(-c4c(F)c(F)c(F)c(F)c4F)c4ccc([nH]4)c(-c4c(F)c(F)c(F)c(F)c4F)c4nc(c(-c5c(F)c(F)c(F)c(F)c5F)c5ccc2[nH]5)C=C4)C=C3)cc1
REMARK SMILES IDX 20 1 19 2 18 3 17 4 15 5 16 6 3 8 2 9 1 10 4 11 5 12 6 14
REMARK SMILES IDX 7 15 8 17 9 18 10 19 11 20 14 21 12 22 13 23 21 24 22 25
REMARK SMILES IDX 23 26 24 27 25 28 26 30 27 31 28 32 89 33 29 34 88 35 30 36
REMARK SMILES IDX 31 37 32 38 82 39 33 40 87 41 81 42 83 43 34 44 86 45 80 46
REMARK SMILES IDX 79 47 35 49 67 50 47 51 66 52 48 53 51 54 65 55 84 56 49 57
REMARK SMILES IDX 50 58 64 60 85 61 52 62 36 63 37 64 45 65 38 66 39 67 43 68
REMARK SMILES IDX 46 69 40 70 41 71 44 72 42 73 68 74 69 75 77 76 70 77 71 78
REMARK SMILES IDX 75 79 78 80 72 81 73 82 76 83 74 84 53 85 54 86 62 87 55 88
REMARK SMILES IDX 56 89 60 90 63 91 57 92 58 93 61 94 59 95
REMARK H PARENT 17 7 4 13 7 16 24 29 83 48 51 59
REMARK Flexibility Score: inf
ROOT
ATOM      1  C   UNL A   1      37.160  22.202  24.343  1.00  0.00     0.002 C 
ENDROOT
BRANCH   1   2
ATOM      2  C   UNL A   1      36.203  23.363  24.643  1.00  0.00     0.021 C 
BRANCH   2   3
ATOM      3  C   UNL A   1      35.138  23.589  23.572  1.00  0.00     0.116 C 
BRANCH   3   4
ATOM      4  N   UNL A   1      34.211  24.630  23.969  1.00  0.00    -0.354 N 
ATOM      5  C   UNL A   1      33.001  24.584  24.591  1.00  0.00     0.242 C 
ATOM      6  O   UNL A   1      32.483  25.664  24.885  1.00  0.00    -0.273 OA
ATOM      7  H   UNL A   1      34.513  25.541  23.746  1.00  0.00     0.163 HD
BRANCH   5   8
ATOM      8  C   UNL A   1      32.349  23.254  25.019  1.00  0.00     0.172 C 
BRANCH   8   9
ATOM      9  C   UNL A   1      30.856  23.482  25.311  1.00  0.00     0.032 C 
ATOM     10  C   UNL A   1      30.456  23.199  26.748  1.00  0.00     0.006 C 
ENDBRANCH   8   9
BRANCH   8  11
ATOM     11  N   UNL A   1      33.077  22.670  26.146  1.00  0.00    -0.326 N 
ATOM     12  C   UNL A   1      33.350  21.444  26.588  1.00  0.00     0.315 C 
ATOM     13  H   UNL A   1      33.465  23.362  26.729  1.00  0.00     0.166 HD
ATOM     14  O   UNL A   1      33.863  21.350  27.706  1.00  0.00    -0.249 OA
ATOM     15  N   UNL A   1      33.132  20.317  25.909  1.00  0.00    -0.335 N 
ATOM     16  H   UNL A   1      33.246  19.511  26.462  1.00  0.00     0.165 HD
BRANCH  15  17
ATOM     17  C   UNL A   1      32.764  20.011  24.539  1.00  0.00     0.152 C 
BRANCH  17  18
ATOM     18  C   UNL A   1      32.894  18.520  24.155  1.00  0.00     0.083 C 
ATOM     19  C   UNL A   1      32.366  18.215  22.747  1.00  0.00     0.044 C 
ATOM     20  C   UNL A   1      34.322  18.002  24.337  1.00  0.00     0.039 C 
ATOM     21  O   UNL A   1      32.092  17.752  25.083  1.00  0.00    -0.373 OA
ATOM     22  C   UNL A   1      34.108  16.553  24.704  1.00  0.00     0.031 C 
ATOM     23  C   UNL A   1      32.833  16.604  25.515  1.00  0.00     0.161 C 
ENDBRANCH  17  18
ENDBRANCH  15  17
ENDBRANCH   8  11
ENDBRANCH   5   8
ENDBRANCH   3   4
ENDBRANCH   2   3
ENDBRANCH   1   2
BRANCH   1  24
ATOM     24  C   UNL A   1      36.833  20.884  25.051  1.00  0.00     0.002 C 
BRANCH  24  25
ATOM     25  C   UNL A   1      37.950  19.841  25.029  1.00  0.00     0.021 C 
BRANCH  25  26
ATOM     26  C   UNL A   1      39.231  20.272  25.728  1.00  0.00     0.116 C 
BRANCH  26  27
ATOM     27  N   UNL A   1      40.187  19.184  25.852  1.00  0.00    -0.352 N 
ATOM     28  C   UNL A   1      41.537  19.256  26.084  1.00  0.00     0.251 C 
ATOM     29  H   UNL A   1      39.817  18.276  25.755  1.00  0.00     0.163 HD
ATOM     30  O   UNL A   1      42.246  18.259  25.998  1.00  0.00    -0.269 OA
BRANCH  28  31
ATOM     31  C   UNL A   1      42.136  20.563  26.421  1.00  0.00     0.039 A 
ATOM     32  C   UNL A   1      42.535  21.418  25.390  1.00  0.00     0.014 A 
ATOM     33  C   UNL A   1      42.274  20.948  27.757  1.00  0.00     0.014 A 
ATOM     34  C   UNL A   1      43.022  22.689  25.701  1.00  0.00     0.010 A 
ATOM     35  C   UNL A   1      42.691  22.237  28.060  1.00  0.00     0.010 A 
ATOM     36  C   UNL A   1      43.078  23.116  27.036  1.00  0.00    -0.014 A 
BRANCH  36  37
ATOM     37  C   UNL A   1      43.569  24.465  27.411  1.00  0.00     0.031 A 
ATOM     38  C   UNL A   1      42.597  25.477  27.943  1.00  0.00     0.074 A 
ATOM     39  C   UNL A   1      44.848  24.810  27.171  1.00  0.00     0.049 A 
ATOM     40  N   UNL A   1      42.764  26.757  28.159  1.00  0.00    -0.248 NA
ATOM     41  C   UNL A   1      41.241  24.988  28.234  1.00  0.00     0.031 C 
ATOM     42  C   UNL A   1      45.877  23.925  26.628  1.00  0.00     0.029 A 
ATOM     43  N   UNL A   1      45.490  26.012  27.327  1.00  0.00    -0.354 N 
ATOM     44  C   UNL A   1      41.527  27.230  28.573  1.00  0.00     0.074 A 
ATOM     45  C   UNL A   1      40.610  26.112  28.537  1.00  0.00     0.031 C 
ATOM     46  C   UNL A   1      47.021  24.613  26.493  1.00  0.00     0.029 A 
ATOM     47  C   UNL A   1      46.795  25.998  26.900  1.00  0.00     0.049 A 
ATOM     48  H   UNL A   1      45.057  26.811  27.709  1.00  0.00     0.167 HD
ATOM     49  C   UNL A   1      41.190  28.482  28.965  1.00  0.00     0.037 A 
ATOM     50  C   UNL A   1      47.698  26.994  26.823  1.00  0.00     0.037 A 
ATOM     51  C   UNL A   1      42.118  29.581  29.029  1.00  0.00     0.049 A 
ATOM     52  C   UNL A   1      47.308  28.376  27.270  1.00  0.00     0.074 A 
ATOM     53  C   UNL A   1      41.897  30.872  29.472  1.00  0.00     0.029 A 
ATOM     54  N   UNL A   1      43.447  29.512  28.634  1.00  0.00    -0.354 N 
ATOM     55  N   UNL A   1      46.151  28.805  27.712  1.00  0.00    -0.248 NA
ATOM     56  C   UNL A   1      48.350  29.412  27.214  1.00  0.00     0.031 C 
ATOM     57  C   UNL A   1      43.081  31.598  29.304  1.00  0.00     0.029 A 
ATOM     58  C   UNL A   1      44.054  30.745  28.808  1.00  0.00     0.049 A 
ATOM     59  H   UNL A   1      43.892  28.707  28.284  1.00  0.00     0.167 HD
ATOM     60  C   UNL A   1      46.332  30.148  28.018  1.00  0.00     0.074 A 
ATOM     61  C   UNL A   1      47.711  30.463  27.710  1.00  0.00     0.031 C 
ATOM     62  C   UNL A   1      45.436  31.035  28.515  1.00  0.00     0.037 A 
BRANCH  49  63
ATOM     63  C   UNL A   1      39.756  28.726  29.337  1.00  0.00     0.064 A 
ATOM     64  C   UNL A   1      38.821  29.208  28.407  1.00  0.00     0.173 A 
ATOM     65  C   UNL A   1      39.309  28.474  30.643  1.00  0.00     0.173 A 
ATOM     66  F   UNL A   1      39.198  29.475  27.148  1.00  0.00    -0.203 F 
ATOM     67  C   UNL A   1      37.507  29.473  28.783  1.00  0.00     0.198 A 
ATOM     68  C   UNL A   1      37.986  28.707  31.006  1.00  0.00     0.198 A 
ATOM     69  F   UNL A   1      40.158  28.006  31.571  1.00  0.00    -0.203 F 
ATOM     70  F   UNL A   1      36.652  29.998  27.895  1.00  0.00    -0.200 F 
ATOM     71  C   UNL A   1      37.089  29.219  30.080  1.00  0.00     0.200 A 
ATOM     72  F   UNL A   1      37.580  28.448  32.257  1.00  0.00    -0.200 F 
ATOM     73  F   UNL A   1      35.825  29.477  30.441  1.00  0.00    -0.200 F 
ENDBRANCH  49  63
BRANCH  50  74
ATOM     74  C   UNL A   1      49.065  26.704  26.319  1.00  0.00     0.064 A 
ATOM     75  C   UNL A   1      50.050  26.188  27.173  1.00  0.00     0.173 A 
ATOM     76  C   UNL A   1      49.405  26.900  24.973  1.00  0.00     0.173 A 
ATOM     77  F   UNL A   1      49.777  26.001  28.472  1.00  0.00    -0.203 F 
ATOM     78  C   UNL A   1      51.326  25.888  26.701  1.00  0.00     0.198 A 
ATOM     79  C   UNL A   1      50.673  26.576  24.497  1.00  0.00     0.198 A 
ATOM     80  F   UNL A   1      48.495  27.385  24.115  1.00  0.00    -0.203 F 
ATOM     81  F   UNL A   1      52.258  25.423  27.544  1.00  0.00    -0.200 F 
ATOM     82  C   UNL A   1      51.634  26.075  25.361  1.00  0.00     0.200 A 
ATOM     83  F   UNL A   1      50.962  26.743  23.198  1.00  0.00    -0.200 F 
ATOM     84  F   UNL A   1      52.857  25.771  24.904  1.00  0.00    -0.200 F 
ENDBRANCH  50  74
BRANCH  62  85
ATOM     85  C   UNL A   1      45.922  32.423  28.814  1.00  0.00     0.064 A 
ATOM     86  C   UNL A   1      45.823  33.459  27.876  1.00  0.00     0.173 A 
ATOM     87  C   UNL A   1      46.421  32.732  30.089  1.00  0.00     0.173 A 
ATOM     88  F   UNL A   1      45.368  33.210  26.640  1.00  0.00    -0.203 F 
ATOM     89  C   UNL A   1      46.215  34.755  28.202  1.00  0.00     0.198 A 
ATOM     90  C   UNL A   1      46.785  34.034  30.419  1.00  0.00     0.198 A 
ATOM     91  F   UNL A   1      46.530  31.776  31.024  1.00  0.00    -0.203 F 
ATOM     92  F   UNL A   1      46.140  35.727  27.281  1.00  0.00    -0.200 F 
ATOM     93  C   UNL A   1      46.685  35.044  29.474  1.00  0.00     0.200 A 
ATOM     94  F   UNL A   1      47.225  34.313  31.654  1.00  0.00    -0.200 F 
ATOM     95  F   UNL A   1      47.043  36.296  29.791  1.00  0.00    -0.200 F 
ENDBRANCH  62  85
ENDBRANCH  36  37
ENDBRANCH  28  31
ENDBRANCH  26  27
ENDBRANCH  25  26
ENDBRANCH  24  25
ENDBRANCH   1  24
TORSDOF 17
ENDMDL
