MODEL 1
REMARK VINA RESULT:     -12.3      0.000      0.000
REMARK SMILES O=C(NCCCCCCNC(=O)c1cc(O)cc(-c2cc(O)ccc2Cl)c1)c1ccc(-c2c3nc(c(-c4c(F)c(F)c(F)c(F)c4F)c4ccc([nH]4)c(-c4c(F)c(F)c(F)c(F)c4F)c4nc(c(-c5c(F)c(F)c(F)c(F)c5F)c5ccc2[nH]5)C=C4)C=C3)cc1
REMARK SMILES IDX 6 1 5 2 4 3 3 4 1 5 2 6 28 8 29 9 90 10 30 11 89 12 31 13
REMARK SMILES IDX 32 14 33 15 83 16 34 17 88 18 82 19 84 20 35 21 87 22 81 23
REMARK SMILES IDX 80 24 36 26 68 27 48 28 67 29 49 30 52 31 66 32 85 33 50 34
REMARK SMILES IDX 51 35 65 37 86 38 53 39 37 40 38 41 46 42 39 43 40 44 44 45
REMARK SMILES IDX 47 46 41 47 42 48 45 49 43 50 69 51 70 52 78 53 71 54 72 55
REMARK SMILES IDX 76 56 79 57 73 58 74 59 77 60 75 61 54 62 55 63 63 64 56 65
REMARK SMILES IDX 57 66 61 67 64 68 58 69 59 70 62 71 60 72 7 73 8 74 9 75
REMARK SMILES IDX 10 76 11 77 12 79 13 80 14 81 27 82 15 83 18 84 17 85 16 86
REMARK SMILES IDX 19 88 20 89 25 90 21 91 24 92 26 93 23 94 22 95
REMARK H PARENT 3 7 84 25 52 36 10 78 16 87 22 96
REMARK Flexibility Score: inf
ROOT
ATOM      1  C   UNL A   1      31.449  30.427  25.849  1.00  0.00     0.002 C 
ENDROOT
BRANCH   1   2
ATOM      2  C   UNL A   1      31.281  31.850  26.383  1.00  0.00     0.021 C 
BRANCH   2   3
ATOM      3  C   UNL A   1      32.546  32.459  26.973  1.00  0.00     0.116 C 
BRANCH   3   4
ATOM      4  N   UNL A   1      32.340  33.823  27.431  1.00  0.00    -0.352 N 
ATOM      5  O   UNL A   1      32.568  35.595  28.811  1.00  0.00    -0.269 OA
ATOM      6  C   UNL A   1      32.990  34.509  28.426  1.00  0.00     0.251 C 
ATOM      7  H   UNL A   1      31.637  34.325  26.961  1.00  0.00     0.163 HD
BRANCH   6   8
ATOM      8  C   UNL A   1      34.193  33.921  29.050  1.00  0.00     0.039 A 
ATOM      9  C   UNL A   1      34.078  32.866  29.960  1.00  0.00     0.014 A 
ATOM     10  C   UNL A   1      35.451  34.426  28.711  1.00  0.00     0.014 A 
ATOM     11  C   UNL A   1      35.206  32.402  30.626  1.00  0.00     0.010 A 
ATOM     12  C   UNL A   1      36.592  33.896  29.316  1.00  0.00     0.010 A 
ATOM     13  C   UNL A   1      36.476  32.895  30.294  1.00  0.00    -0.014 A 
BRANCH  13  14
ATOM     14  C   UNL A   1      37.681  32.293  30.916  1.00  0.00     0.031 A 
ATOM     15  C   UNL A   1      38.458  31.213  30.223  1.00  0.00     0.074 A 
ATOM     16  C   UNL A   1      38.057  32.726  32.134  1.00  0.00     0.049 A 
ATOM     17  N   UNL A   1      39.507  30.552  30.645  1.00  0.00    -0.248 NA
ATOM     18  C   UNL A   1      37.992  30.814  28.888  1.00  0.00     0.031 C 
ATOM     19  C   UNL A   1      37.366  33.758  32.909  1.00  0.00     0.029 A 
ATOM     20  N   UNL A   1      39.104  32.353  32.937  1.00  0.00    -0.354 N 
ATOM     21  C   UNL A   1      39.815  29.646  29.638  1.00  0.00     0.074 A 
ATOM     22  C   UNL A   1      38.823  29.823  28.598  1.00  0.00     0.031 C 
ATOM     23  C   UNL A   1      38.013  33.949  34.066  1.00  0.00     0.029 A 
ATOM     24  C   UNL A   1      39.124  33.007  34.145  1.00  0.00     0.049 A 
ATOM     25  H   UNL A   1      39.777  31.684  32.674  1.00  0.00     0.167 HD
ATOM     26  C   UNL A   1      40.835  28.755  29.591  1.00  0.00     0.037 A 
ATOM     27  C   UNL A   1      39.921  32.841  35.215  1.00  0.00     0.037 A 
ATOM     28  C   UNL A   1      41.814  28.591  30.637  1.00  0.00     0.049 A 
ATOM     29  C   UNL A   1      41.022  31.823  35.153  1.00  0.00     0.074 A 
ATOM     30  C   UNL A   1      42.917  27.755  30.663  1.00  0.00     0.029 A 
ATOM     31  N   UNL A   1      41.796  29.265  31.851  1.00  0.00    -0.354 N 
ATOM     32  N   UNL A   1      41.340  31.012  34.174  1.00  0.00    -0.248 NA
ATOM     33  C   UNL A   1      41.875  31.697  36.341  1.00  0.00     0.031 C 
ATOM     34  C   UNL A   1      43.526  27.872  31.917  1.00  0.00     0.029 A 
ATOM     35  C   UNL A   1      42.846  28.834  32.648  1.00  0.00     0.049 A 
ATOM     36  H   UNL A   1      41.136  29.948  32.108  1.00  0.00     0.167 HD
ATOM     37  C   UNL A   1      42.440  30.292  34.617  1.00  0.00     0.074 A 
ATOM     38  C   UNL A   1      42.743  30.774  35.949  1.00  0.00     0.031 C 
ATOM     39  C   UNL A   1      43.135  29.320  33.976  1.00  0.00     0.037 A 
BRANCH  26  40
ATOM     40  C   UNL A   1      40.923  27.861  28.385  1.00  0.00     0.064 A 
ATOM     41  C   UNL A   1      41.658  28.220  27.243  1.00  0.00     0.173 A 
ATOM     42  C   UNL A   1      40.279  26.614  28.379  1.00  0.00     0.173 A 
ATOM     43  F   UNL A   1      42.288  29.404  27.190  1.00  0.00    -0.203 F 
ATOM     44  C   UNL A   1      41.710  27.385  26.131  1.00  0.00     0.198 A 
ATOM     45  C   UNL A   1      40.363  25.766  27.277  1.00  0.00     0.198 A 
ATOM     46  F   UNL A   1      39.571  26.212  29.445  1.00  0.00    -0.203 F 
ATOM     47  F   UNL A   1      42.367  27.778  25.029  1.00  0.00    -0.200 F 
ATOM     48  C   UNL A   1      41.068  26.156  26.150  1.00  0.00     0.200 A 
ATOM     49  F   UNL A   1      39.755  24.571  27.305  1.00  0.00    -0.200 F 
ATOM     50  F   UNL A   1      41.119  25.353  25.078  1.00  0.00    -0.200 F 
ENDBRANCH  26  40
BRANCH  27  51
ATOM     51  C   UNL A   1      39.677  33.654  36.433  1.00  0.00     0.064 A 
ATOM     52  C   UNL A   1      40.218  34.938  36.570  1.00  0.00     0.173 A 
ATOM     53  C   UNL A   1      38.853  33.177  37.466  1.00  0.00     0.173 A 
ATOM     54  F   UNL A   1      41.021  35.432  35.617  1.00  0.00    -0.203 F 
ATOM     55  C   UNL A   1      39.953  35.712  37.699  1.00  0.00     0.198 A 
ATOM     56  C   UNL A   1      38.563  33.964  38.578  1.00  0.00     0.198 A 
ATOM     57  F   UNL A   1      38.302  31.958  37.376  1.00  0.00    -0.203 F 
ATOM     58  F   UNL A   1      40.509  36.925  37.820  1.00  0.00    -0.200 F 
ATOM     59  C   UNL A   1      39.118  35.229  38.696  1.00  0.00     0.200 A 
ATOM     60  F   UNL A   1      37.738  33.501  39.526  1.00  0.00    -0.200 F 
ATOM     61  F   UNL A   1      38.850  35.982  39.771  1.00  0.00    -0.200 F 
ENDBRANCH  27  51
BRANCH  39  62
ATOM     62  C   UNL A   1      44.314  28.730  34.694  1.00  0.00     0.064 A 
ATOM     63  C   UNL A   1      44.200  27.570  35.473  1.00  0.00     0.173 A 
ATOM     64  C   UNL A   1      45.587  29.307  34.557  1.00  0.00     0.173 A 
ATOM     65  F   UNL A   1      43.003  26.991  35.652  1.00  0.00    -0.203 F 
ATOM     66  C   UNL A   1      45.313  27.020  36.105  1.00  0.00     0.198 A 
ATOM     67  C   UNL A   1      46.701  28.737  35.163  1.00  0.00     0.198 A 
ATOM     68  F   UNL A   1      45.751  30.415  33.819  1.00  0.00    -0.203 F 
ATOM     69  F   UNL A   1      45.173  25.937  36.882  1.00  0.00    -0.200 F 
ATOM     70  C   UNL A   1      46.563  27.597  35.941  1.00  0.00     0.200 A 
ATOM     71  F   UNL A   1      47.911  29.287  34.990  1.00  0.00    -0.200 F 
ATOM     72  F   UNL A   1      47.636  27.059  36.538  1.00  0.00    -0.200 F 
ENDBRANCH  39  62
ENDBRANCH  13  14
ENDBRANCH   6   8
ENDBRANCH   3   4
ENDBRANCH   2   3
ENDBRANCH   1   2
BRANCH   1  73
ATOM     73  C   UNL A   1      32.896  29.935  25.748  1.00  0.00     0.002 C 
BRANCH  73  74
ATOM     74  C   UNL A   1      33.278  28.817  26.721  1.00  0.00     0.021 C 
BRANCH  74  75
ATOM     75  C   UNL A   1      34.106  27.690  26.112  1.00  0.00     0.116 C 
BRANCH  75  76
ATOM     76  N   UNL A   1      33.560  26.381  26.426  1.00  0.00    -0.352 N 
ATOM     77  C   UNL A   1      32.645  25.635  25.727  1.00  0.00     0.251 C 
ATOM     78  H   UNL A   1      33.894  25.972  27.257  1.00  0.00     0.163 HD
ATOM     79  O   UNL A   1      32.145  24.636  26.231  1.00  0.00    -0.269 OA
BRANCH  77  80
ATOM     80  C   UNL A   1      32.247  26.057  24.369  1.00  0.00     0.044 A 
ATOM     81  C   UNL A   1      32.873  25.516  23.243  1.00  0.00     0.060 A 
ATOM     82  C   UNL A   1      31.224  27.001  24.235  1.00  0.00     0.023 A 
ATOM     83  C   UNL A   1      32.536  26.007  21.992  1.00  0.00     0.116 A 
ATOM     84  C   UNL A   1      30.854  27.471  22.966  1.00  0.00    -0.012 A 
ATOM     85  C   UNL A   1      31.552  26.982  21.848  1.00  0.00     0.055 A 
BRANCH  83  86
ATOM     86  O   UNL A   1      33.161  25.562  20.864  1.00  0.00    -0.508 OA
ATOM     87  H   UNL A   1      32.654  25.256  20.138  1.00  0.00     0.293 HD
ENDBRANCH  83  86
BRANCH  84  88
ATOM     88  C   UNL A   1      29.765  28.451  22.814  1.00  0.00     0.004 A 
ATOM     89  C   UNL A   1      30.062  29.739  22.320  1.00  0.00     0.056 A 
ATOM     90  C   UNL A   1      28.425  28.169  23.155  1.00  0.00     0.049 A 
ATOM     91  C   UNL A   1      29.054  30.691  22.171  1.00  0.00     0.116 A 
ATOM     92  C   UNL A   1      27.423  29.132  22.993  1.00  0.00     0.025 A 
ATOM     93  Cl  UNL A   1      27.945  26.644  23.825  1.00  0.00    -0.084 Cl
ATOM     94  C   UNL A   1      27.739  30.395  22.499  1.00  0.00     0.048 A 
BRANCH  91  95
ATOM     95  O   UNL A   1      29.321  31.942  21.702  1.00  0.00    -0.508 OA
ATOM     96  H   UNL A   1      30.113  32.377  21.950  1.00  0.00     0.293 HD
ENDBRANCH  91  95
ENDBRANCH  84  88
ENDBRANCH  77  80
ENDBRANCH  75  76
ENDBRANCH  74  75
ENDBRANCH  73  74
ENDBRANCH   1  73
TORSDOF 16
ENDMDL
MODEL 2
REMARK VINA RESULT:     -12.3      5.686     11.101
REMARK SMILES O=C(NCCCCCCNC(=O)c1cc(O)cc(-c2cc(O)ccc2Cl)c1)c1ccc(-c2c3nc(c(-c4c(F)c(F)c(F)c(F)c4F)c4ccc([nH]4)c(-c4c(F)c(F)c(F)c(F)c4F)c4nc(c(-c5c(F)c(F)c(F)c(F)c5F)c5ccc2[nH]5)C=C4)C=C3)cc1
REMARK SMILES IDX 6 1 5 2 4 3 3 4 1 5 2 6 28 8 29 9 90 10 30 11 89 12 31 13
REMARK SMILES IDX 32 14 33 15 83 16 34 17 88 18 82 19 84 20 35 21 87 22 81 23
REMARK SMILES IDX 80 24 36 26 68 27 48 28 67 29 49 30 52 31 66 32 85 33 50 34
REMARK SMILES IDX 51 35 65 37 86 38 53 39 37 40 38 41 46 42 39 43 40 44 44 45
REMARK SMILES IDX 47 46 41 47 42 48 45 49 43 50 69 51 70 52 78 53 71 54 72 55
REMARK SMILES IDX 76 56 79 57 73 58 74 59 77 60 75 61 54 62 55 63 63 64 56 65
REMARK SMILES IDX 57 66 61 67 64 68 58 69 59 70 62 71 60 72 7 73 8 74 9 75
REMARK SMILES IDX 10 76 11 77 12 79 13 80 14 81 27 82 15 83 18 84 17 85 16 86
REMARK SMILES IDX 19 88 20 89 25 90 21 91 24 92 26 93 23 94 22 95
REMARK H PARENT 3 7 84 25 52 36 10 78 16 87 22 96
REMARK Flexibility Score: inf
ROOT
ATOM      1  C   UNL A   1      36.846  20.537  24.968  1.00  0.00     0.002 C 
ENDROOT
BRANCH   1   2
ATOM      2  C   UNL A   1      38.086  19.644  24.949  1.00  0.00     0.021 C 
BRANCH   2   3
ATOM      3  C   UNL A   1      39.135  19.992  25.997  1.00  0.00     0.116 C 
BRANCH   3   4
ATOM      4  N   UNL A   1      40.263  19.077  25.974  1.00  0.00    -0.352 N 
ATOM      5  O   UNL A   1      42.436  18.479  25.842  1.00  0.00    -0.269 OA
ATOM      6  C   UNL A   1      41.604  19.354  26.063  1.00  0.00     0.251 C 
ATOM      7  H   UNL A   1      40.033  18.124  25.884  1.00  0.00     0.163 HD
BRANCH   6   8
ATOM      8  C   UNL A   1      42.045  20.721  26.406  1.00  0.00     0.039 A 
ATOM      9  C   UNL A   1      42.225  21.681  25.406  1.00  0.00     0.014 A 
ATOM     10  C   UNL A   1      42.267  21.048  27.746  1.00  0.00     0.014 A 
ATOM     11  C   UNL A   1      42.751  22.926  25.730  1.00  0.00     0.010 A 
ATOM     12  C   UNL A   1      42.710  22.330  28.078  1.00  0.00     0.010 A 
ATOM     13  C   UNL A   1      42.976  23.271  27.071  1.00  0.00    -0.014 A 
BRANCH  13  14
ATOM     14  C   UNL A   1      43.408  24.649  27.409  1.00  0.00     0.031 A 
ATOM     15  C   UNL A   1      42.444  25.651  27.974  1.00  0.00     0.074 A 
ATOM     16  C   UNL A   1      44.690  24.994  27.182  1.00  0.00     0.049 A 
ATOM     17  N   UNL A   1      42.647  26.907  28.284  1.00  0.00    -0.248 NA
ATOM     18  C   UNL A   1      41.070  25.187  28.211  1.00  0.00     0.031 C 
ATOM     19  C   UNL A   1      45.709  24.107  26.619  1.00  0.00     0.029 A 
ATOM     20  N   UNL A   1      45.353  26.175  27.388  1.00  0.00    -0.354 N 
ATOM     21  C   UNL A   1      41.425  27.390  28.733  1.00  0.00     0.074 A 
ATOM     22  C   UNL A   1      40.479  26.298  28.628  1.00  0.00     0.031 C 
ATOM     23  C   UNL A   1      46.872  24.767  26.538  1.00  0.00     0.029 A 
ATOM     24  C   UNL A   1      46.664  26.142  26.980  1.00  0.00     0.049 A 
ATOM     25  H   UNL A   1      44.932  26.970  27.789  1.00  0.00     0.167 HD
ATOM     26  C   UNL A   1      41.128  28.629  29.195  1.00  0.00     0.037 A 
ATOM     27  C   UNL A   1      47.589  27.118  26.928  1.00  0.00     0.037 A 
ATOM     28  C   UNL A   1      42.082  29.705  29.293  1.00  0.00     0.049 A 
ATOM     29  C   UNL A   1      47.225  28.492  27.411  1.00  0.00     0.074 A 
ATOM     30  C   UNL A   1      41.895  30.981  29.796  1.00  0.00     0.029 A 
ATOM     31  N   UNL A   1      43.400  29.636  28.861  1.00  0.00    -0.354 N 
ATOM     32  N   UNL A   1      46.083  28.922  27.888  1.00  0.00    -0.248 NA
ATOM     33  C   UNL A   1      48.277  29.514  27.350  1.00  0.00     0.031 C 
ATOM     34  C   UNL A   1      43.077  31.704  29.607  1.00  0.00     0.029 A 
ATOM     35  C   UNL A   1      44.026  30.860  29.051  1.00  0.00     0.049 A 
ATOM     36  H   UNL A   1      43.828  28.838  28.478  1.00  0.00     0.167 HD
ATOM     37  C   UNL A   1      46.281  30.259  28.202  1.00  0.00     0.074 A 
ATOM     38  C   UNL A   1      47.659  30.563  27.875  1.00  0.00     0.031 C 
ATOM     39  C   UNL A   1      45.399  31.151  28.717  1.00  0.00     0.037 A 
BRANCH  26  40
ATOM     40  C   UNL A   1      39.703  28.900  29.594  1.00  0.00     0.064 A 
ATOM     41  C   UNL A   1      39.243  28.688  30.903  1.00  0.00     0.173 A 
ATOM     42  C   UNL A   1      38.788  29.401  28.655  1.00  0.00     0.173 A 
ATOM     43  F   UNL A   1      40.072  28.203  31.840  1.00  0.00    -0.203 F 
ATOM     44  C   UNL A   1      37.915  28.928  31.246  1.00  0.00     0.198 A 
ATOM     45  C   UNL A   1      37.469  29.673  29.010  1.00  0.00     0.198 A 
ATOM     46  F   UNL A   1      39.172  29.633  27.392  1.00  0.00    -0.203 F 
ATOM     47  F   UNL A   1      37.485  28.659  32.487  1.00  0.00    -0.200 F 
ATOM     48  C   UNL A   1      37.030  29.425  30.301  1.00  0.00     0.200 A 
ATOM     49  F   UNL A   1      36.620  30.170  28.099  1.00  0.00    -0.200 F 
ATOM     50  F   UNL A   1      35.752  29.656  30.633  1.00  0.00    -0.200 F 
ENDBRANCH  26  40
BRANCH  27  51
ATOM     51  C   UNL A   1      48.932  26.814  26.375  1.00  0.00     0.064 A 
ATOM     52  C   UNL A   1      49.941  26.267  27.177  1.00  0.00     0.173 A 
ATOM     53  C   UNL A   1      49.217  27.021  25.016  1.00  0.00     0.173 A 
ATOM     54  F   UNL A   1      49.721  26.064  28.484  1.00  0.00    -0.203 F 
ATOM     55  C   UNL A   1      51.189  25.947  26.644  1.00  0.00     0.198 A 
ATOM     56  C   UNL A   1      50.453  26.670  24.477  1.00  0.00     0.198 A 
ATOM     57  F   UNL A   1      48.281  27.532  24.203  1.00  0.00    -0.203 F 
ATOM     58  F   UNL A   1      52.147  25.455  27.440  1.00  0.00    -0.200 F 
ATOM     59  C   UNL A   1      51.439  26.139  25.293  1.00  0.00     0.200 A 
ATOM     60  F   UNL A   1      50.682  26.837  23.168  1.00  0.00    -0.200 F 
ATOM     61  F   UNL A   1      52.633  25.814  24.779  1.00  0.00    -0.200 F 
ENDBRANCH  27  51
BRANCH  39  62
ATOM     62  C   UNL A   1      45.904  32.539  28.988  1.00  0.00     0.064 A 
ATOM     63  C   UNL A   1      46.517  32.878  30.203  1.00  0.00     0.173 A 
ATOM     64  C   UNL A   1      45.818  33.529  27.997  1.00  0.00     0.173 A 
ATOM     65  F   UNL A   1      46.608  31.974  31.190  1.00  0.00    -0.203 F 
ATOM     66  C   UNL A   1      47.008  34.163  30.423  1.00  0.00     0.198 A 
ATOM     67  C   UNL A   1      46.338  34.802  28.208  1.00  0.00     0.198 A 
ATOM     68  F   UNL A   1      45.244  33.255  26.816  1.00  0.00    -0.203 F 
ATOM     69  F   UNL A   1      47.550  34.478  31.607  1.00  0.00    -0.200 F 
ATOM     70  C   UNL A   1      46.928  35.120  29.422  1.00  0.00     0.200 A 
ATOM     71  F   UNL A   1      46.273  35.720  27.234  1.00  0.00    -0.200 F 
ATOM     72  F   UNL A   1      47.413  36.351  29.630  1.00  0.00    -0.200 F 
ENDBRANCH  39  62
ENDBRANCH  13  14
ENDBRANCH   6   8
ENDBRANCH   3   4
ENDBRANCH   2   3
ENDBRANCH   1   2
BRANCH   1  73
ATOM     73  C   UNL A   1      37.041  21.937  24.378  1.00  0.00     0.002 C 
BRANCH  73  74
ATOM     74  C   UNL A   1      37.328  23.044  25.395  1.00  0.00     0.021 C 
BRANCH  74  75
ATOM     75  C   UNL A   1      36.090  23.659  26.042  1.00  0.00     0.116 C 
BRANCH  75  76
ATOM     76  N   UNL A   1      35.522  24.720  25.230  1.00  0.00    -0.352 N 
ATOM     77  C   UNL A   1      34.263  24.821  24.693  1.00  0.00     0.251 C 
ATOM     78  H   UNL A   1      36.125  25.474  25.036  1.00  0.00     0.163 HD
ATOM     79  O   UNL A   1      34.006  25.691  23.869  1.00  0.00    -0.269 OA
BRANCH  77  80
ATOM     80  C   UNL A   1      33.221  23.856  25.098  1.00  0.00     0.044 A 
ATOM     81  C   UNL A   1      32.128  24.267  25.866  1.00  0.00     0.060 A 
ATOM     82  C   UNL A   1      33.347  22.524  24.688  1.00  0.00     0.023 A 
ATOM     83  C   UNL A   1      31.223  23.313  26.304  1.00  0.00     0.116 A 
ATOM     84  C   UNL A   1      32.410  21.564  25.098  1.00  0.00    -0.012 A 
ATOM     85  C   UNL A   1      31.363  21.976  25.942  1.00  0.00     0.055 A 
BRANCH  83  86
ATOM     86  O   UNL A   1      30.175  23.649  27.108  1.00  0.00    -0.508 OA
ATOM     87  H   UNL A   1      29.961  24.550  27.248  1.00  0.00     0.293 HD
ENDBRANCH  83  86
BRANCH  84  88
ATOM     88  C   UNL A   1      32.524  20.163  24.656  1.00  0.00     0.004 A 
ATOM     89  C   UNL A   1      32.891  19.174  25.593  1.00  0.00     0.056 A 
ATOM     90  C   UNL A   1      32.296  19.758  23.324  1.00  0.00     0.049 A 
ATOM     91  C   UNL A   1      33.014  17.841  25.203  1.00  0.00     0.116 A 
ATOM     92  C   UNL A   1      32.416  18.415  22.950  1.00  0.00     0.025 A 
ATOM     93  Cl  UNL A   1      31.895  20.887  22.072  1.00  0.00    -0.084 Cl
ATOM     94  C   UNL A   1      32.775  17.455  23.892  1.00  0.00     0.048 A 
BRANCH  91  95
ATOM     95  O   UNL A   1      33.374  16.871  26.090  1.00  0.00    -0.508 OA
ATOM     96  H   UNL A   1      32.945  16.038  26.074  1.00  0.00     0.293 HD
ENDBRANCH  91  95
ENDBRANCH  84  88
ENDBRANCH  77  80
ENDBRANCH  75  76
ENDBRANCH  74  75
ENDBRANCH  73  74
ENDBRANCH   1  73
TORSDOF 16
ENDMDL
MODEL 3
REMARK VINA RESULT:     -12.3      1.929      3.715
REMARK SMILES O=C(NCCCCCCNC(=O)c1cc(O)cc(-c2cc(O)ccc2Cl)c1)c1ccc(-c2c3nc(c(-c4c(F)c(F)c(F)c(F)c4F)c4ccc([nH]4)c(-c4c(F)c(F)c(F)c(F)c4F)c4nc(c(-c5c(F)c(F)c(F)c(F)c5F)c5ccc2[nH]5)C=C4)C=C3)cc1
REMARK SMILES IDX 6 1 5 2 4 3 3 4 1 5 2 6 28 8 29 9 90 10 30 11 89 12 31 13
REMARK SMILES IDX 32 14 33 15 83 16 34 17 88 18 82 19 84 20 35 21 87 22 81 23
REMARK SMILES IDX 80 24 36 26 68 27 48 28 67 29 49 30 52 31 66 32 85 33 50 34
REMARK SMILES IDX 51 35 65 37 86 38 53 39 37 40 38 41 46 42 39 43 40 44 44 45
REMARK SMILES IDX 47 46 41 47 42 48 45 49 43 50 69 51 70 52 78 53 71 54 72 55
REMARK SMILES IDX 76 56 79 57 73 58 74 59 77 60 75 61 54 62 55 63 63 64 56 65
REMARK SMILES IDX 57 66 61 67 64 68 58 69 59 70 62 71 60 72 7 73 8 74 9 75
REMARK SMILES IDX 10 76 11 77 12 79 13 80 14 81 27 82 15 83 18 84 17 85 16 86
REMARK SMILES IDX 19 88 20 89 25 90 21 91 24 92 26 93 23 94 22 95
REMARK H PARENT 3 7 84 25 52 36 10 78 16 87 22 96
REMARK Flexibility Score: inf
ROOT
ATOM      1  C   UNL A   1      31.439  31.074  26.225  1.00  0.00     0.002 C 
ENDROOT
BRANCH   1   2
ATOM      2  C   UNL A   1      31.372  32.556  26.592  1.00  0.00     0.021 C 
BRANCH   2   3
ATOM      3  C   UNL A   1      32.647  33.115  27.211  1.00  0.00     0.116 C 
BRANCH   3   4
ATOM      4  N   UNL A   1      32.455  34.444  27.766  1.00  0.00    -0.352 N 
ATOM      5  O   UNL A   1      32.660  36.096  29.292  1.00  0.00    -0.269 OA
ATOM      6  C   UNL A   1      33.071  35.030  28.843  1.00  0.00     0.251 C 
ATOM      7  H   UNL A   1      31.790  35.003  27.303  1.00  0.00     0.163 HD
BRANCH   6   8
ATOM      8  C   UNL A   1      34.225  34.359  29.476  1.00  0.00     0.039 A 
ATOM      9  C   UNL A   1      34.038  33.500  30.563  1.00  0.00     0.014 A 
ATOM     10  C   UNL A   1      35.507  34.583  28.966  1.00  0.00     0.014 A 
ATOM     11  C   UNL A   1      35.141  32.968  31.221  1.00  0.00     0.010 A 
ATOM     12  C   UNL A   1      36.606  33.976  29.574  1.00  0.00     0.010 A 
ATOM     13  C   UNL A   1      36.434  33.181  30.719  1.00  0.00    -0.014 A 
BRANCH  13  14
ATOM     14  C   UNL A   1      37.586  32.495  31.354  1.00  0.00     0.031 A 
ATOM     15  C   UNL A   1      38.273  31.344  30.681  1.00  0.00     0.074 A 
ATOM     16  C   UNL A   1      37.998  32.919  32.564  1.00  0.00     0.049 A 
ATOM     17  N   UNL A   1      39.266  30.608  31.114  1.00  0.00    -0.248 NA
ATOM     18  C   UNL A   1      37.775  30.959  29.353  1.00  0.00     0.031 C 
ATOM     19  C   UNL A   1      37.392  34.017  33.318  1.00  0.00     0.029 A 
ATOM     20  N   UNL A   1      39.012  32.477  33.373  1.00  0.00    -0.354 N 
ATOM     21  C   UNL A   1      39.498  29.661  30.125  1.00  0.00     0.074 A 
ATOM     22  C   UNL A   1      38.524  29.899  29.081  1.00  0.00     0.031 C 
ATOM     23  C   UNL A   1      38.054  34.176  34.472  1.00  0.00     0.029 A 
ATOM     24  C   UNL A   1      39.086  33.149  34.569  1.00  0.00     0.049 A 
ATOM     25  H   UNL A   1      39.628  31.751  33.122  1.00  0.00     0.167 HD
ATOM     26  C   UNL A   1      40.443  28.690  30.095  1.00  0.00     0.037 A 
ATOM     27  C   UNL A   1      39.868  32.939  35.643  1.00  0.00     0.037 A 
ATOM     28  C   UNL A   1      41.407  28.467  31.143  1.00  0.00     0.049 A 
ATOM     29  C   UNL A   1      40.883  31.834  35.599  1.00  0.00     0.074 A 
ATOM     30  C   UNL A   1      42.439  27.545  31.185  1.00  0.00     0.029 A 
ATOM     31  N   UNL A   1      41.445  29.163  32.345  1.00  0.00    -0.354 N 
ATOM     32  N   UNL A   1      41.134  30.983  34.635  1.00  0.00    -0.248 NA
ATOM     33  C   UNL A   1      41.724  31.662  36.790  1.00  0.00     0.031 C 
ATOM     34  C   UNL A   1      43.057  27.637  32.437  1.00  0.00     0.029 A 
ATOM     35  C   UNL A   1      42.458  28.663  33.150  1.00  0.00     0.049 A 
ATOM     36  H   UNL A   1      40.843  29.901  32.590  1.00  0.00     0.167 HD
ATOM     37  C   UNL A   1      42.172  30.184  35.092  1.00  0.00     0.074 A 
ATOM     38  C   UNL A   1      42.514  30.665  36.416  1.00  0.00     0.031 C 
ATOM     39  C   UNL A   1      42.786  29.149  34.469  1.00  0.00     0.037 A 
BRANCH  26  40
ATOM     40  C   UNL A   1      40.458  27.770  28.905  1.00  0.00     0.064 A 
ATOM     41  C   UNL A   1      41.257  28.022  27.778  1.00  0.00     0.173 A 
ATOM     42  C   UNL A   1      39.675  26.605  28.901  1.00  0.00     0.173 A 
ATOM     43  F   UNL A   1      42.020  29.125  27.724  1.00  0.00    -0.203 F 
ATOM     44  C   UNL A   1      41.240  27.166  26.680  1.00  0.00     0.198 A 
ATOM     45  C   UNL A   1      39.688  25.733  27.815  1.00  0.00     0.198 A 
ATOM     46  F   UNL A   1      38.900  26.307  29.954  1.00  0.00    -0.203 F 
ATOM     47  F   UNL A   1      41.965  27.461  25.591  1.00  0.00    -0.200 F 
ATOM     48  C   UNL A   1      40.461  26.020  26.701  1.00  0.00     0.200 A 
ATOM     49  F   UNL A   1      38.946  24.617  27.845  1.00  0.00    -0.200 F 
ATOM     50  F   UNL A   1      40.446  25.197  25.643  1.00  0.00    -0.200 F 
ENDBRANCH  26  40
BRANCH  27  51
ATOM     51  C   UNL A   1      39.691  33.791  36.846  1.00  0.00     0.064 A 
ATOM     52  C   UNL A   1      40.315  35.040  36.949  1.00  0.00     0.173 A 
ATOM     53  C   UNL A   1      38.851  33.390  37.897  1.00  0.00     0.173 A 
ATOM     54  F   UNL A   1      41.137  35.461  35.977  1.00  0.00    -0.203 F 
ATOM     55  C   UNL A   1      40.115  35.853  38.064  1.00  0.00     0.198 A 
ATOM     56  C   UNL A   1      38.626  34.217  38.994  1.00  0.00     0.198 A 
ATOM     57  F   UNL A   1      38.222  32.207  37.839  1.00  0.00    -0.203 F 
ATOM     58  F   UNL A   1      40.748  37.030  38.153  1.00  0.00    -0.200 F 
ATOM     59  C   UNL A   1      39.262  35.445  39.079  1.00  0.00     0.200 A 
ATOM     60  F   UNL A   1      37.785  33.828  39.961  1.00  0.00    -0.200 F 
ATOM     61  F   UNL A   1      39.056  36.236  40.141  1.00  0.00    -0.200 F 
ENDBRANCH  27  51
BRANCH  39  62
ATOM     62  C   UNL A   1      43.915  28.479  35.198  1.00  0.00     0.064 A 
ATOM     63  C   UNL A   1      45.236  28.936  35.095  1.00  0.00     0.173 A 
ATOM     64  C   UNL A   1      43.660  27.395  36.053  1.00  0.00     0.173 A 
ATOM     65  F   UNL A   1      45.537  29.957  34.278  1.00  0.00    -0.203 F 
ATOM     66  C   UNL A   1      46.265  28.320  35.805  1.00  0.00     0.198 A 
ATOM     67  C   UNL A   1      44.684  26.803  36.785  1.00  0.00     0.198 A 
ATOM     68  F   UNL A   1      42.413  26.920  36.190  1.00  0.00    -0.203 F 
ATOM     69  F   UNL A   1      47.526  28.745  35.657  1.00  0.00    -0.200 F 
ATOM     70  C   UNL A   1      45.986  27.262  36.657  1.00  0.00     0.200 A 
ATOM     71  F   UNL A   1      44.410  25.790  37.619  1.00  0.00    -0.200 F 
ATOM     72  F   UNL A   1      46.974  26.680  37.351  1.00  0.00    -0.200 F 
ENDBRANCH  39  62
ENDBRANCH  13  14
ENDBRANCH   6   8
ENDBRANCH   3   4
ENDBRANCH   2   3
ENDBRANCH   1   2
BRANCH   1  73
ATOM     73  C   UNL A   1      32.458  30.251  27.020  1.00  0.00     0.002 C 
BRANCH  73  74
ATOM     74  C   UNL A   1      33.592  29.637  26.194  1.00  0.00     0.021 C 
BRANCH  74  75
ATOM     75  C   UNL A   1      33.959  28.205  26.573  1.00  0.00     0.116 C 
BRANCH  75  76
ATOM     76  N   UNL A   1      32.787  27.406  26.883  1.00  0.00    -0.352 N 
ATOM     77  C   UNL A   1      32.274  26.325  26.211  1.00  0.00     0.251 C 
ATOM     78  H   UNL A   1      32.290  27.678  27.688  1.00  0.00     0.163 HD
ATOM     79  O   UNL A   1      31.167  25.885  26.497  1.00  0.00    -0.269 OA
BRANCH  77  80
ATOM     80  C   UNL A   1      33.057  25.707  25.122  1.00  0.00     0.044 A 
ATOM     81  C   UNL A   1      32.975  26.200  23.817  1.00  0.00     0.060 A 
ATOM     82  C   UNL A   1      33.889  24.625  25.427  1.00  0.00     0.023 A 
ATOM     83  C   UNL A   1      33.652  25.534  22.808  1.00  0.00     0.116 A 
ATOM     84  C   UNL A   1      34.607  23.973  24.412  1.00  0.00    -0.012 A 
ATOM     85  C   UNL A   1      34.447  24.426  23.091  1.00  0.00     0.055 A 
BRANCH  83  86
ATOM     86  O   UNL A   1      33.556  25.933  21.508  1.00  0.00    -0.508 OA
ATOM     87  H   UNL A   1      34.264  26.396  21.107  1.00  0.00     0.293 HD
ENDBRANCH  83  86
BRANCH  84  88
ATOM     88  C   UNL A   1      35.499  22.844  24.727  1.00  0.00     0.004 A 
ATOM     89  C   UNL A   1      36.845  23.104  25.061  1.00  0.00     0.056 A 
ATOM     90  C   UNL A   1      35.075  21.499  24.698  1.00  0.00     0.049 A 
ATOM     91  C   UNL A   1      37.716  22.056  25.357  1.00  0.00     0.116 A 
ATOM     92  C   UNL A   1      35.959  20.459  25.004  1.00  0.00     0.025 A 
ATOM     93  Cl  UNL A   1      33.463  21.050  24.247  1.00  0.00    -0.084 Cl
ATOM     94  C   UNL A   1      37.282  20.739  25.336  1.00  0.00     0.048 A 
BRANCH  91  95
ATOM     95  O   UNL A   1      39.022  22.285  25.676  1.00  0.00    -0.508 OA
ATOM     96  H   UNL A   1      39.658  21.606  25.561  1.00  0.00     0.293 HD
ENDBRANCH  91  95
ENDBRANCH  84  88
ENDBRANCH  77  80
ENDBRANCH  75  76
ENDBRANCH  74  75
ENDBRANCH  73  74
ENDBRANCH   1  73
TORSDOF 16
ENDMDL
