MODEL 1
REMARK VINA RESULT:     -11.8      0.000      0.000
REMARK SMILES CCCCNC(=O)[C@]1(C)CC[C@@](C)(C(=O)NCCCCCCNC(=O)c2ccc(-c3c4nc(c(-c5c(F)c(F)c(F)c(F)c5F)c5ccc([nH]5)c(-c5c(F)c(F)c(F)c(F)c5F)c5nc(c(-c6c(F)c(F)c(F)c(F)c6F)c6ccc3[nH]6)C=C5)C=C4)cc2)C1(C)C
REMARK SMILES IDX 18 1 17 2 16 3 14 4 15 5 12 7 8 8 10 9 89 10 9 11 11 12
REMARK SMILES IDX 90 13 91 14 13 15 6 16 5 17 7 19 4 20 3 21 2 22 1 23 19 24
REMARK SMILES IDX 20 25 21 26 22 27 23 28 24 29 25 31 26 32 27 33 88 34 28 35
REMARK SMILES IDX 87 36 29 37 30 38 31 39 81 40 32 41 86 42 80 43 82 44 33 45
REMARK SMILES IDX 85 46 79 47 78 48 34 50 66 51 46 52 65 53 47 54 50 55 64 56
REMARK SMILES IDX 83 57 48 58 49 59 63 61 84 62 51 63 35 64 36 65 44 66 37 67
REMARK SMILES IDX 38 68 42 69 45 70 39 71 40 72 43 73 41 74 67 75 68 76 76 77
REMARK SMILES IDX 69 78 70 79 74 80 77 81 71 82 72 83 75 84 73 85 52 86 53 87
REMARK SMILES IDX 61 88 54 89 55 90 59 91 62 92 56 93 57 94 60 95 58 96
REMARK H PARENT 16 6 5 18 23 30 82 49 50 60
REMARK Flexibility Score: inf
ROOT
ATOM      1  C   UNL A   1      33.552  29.559  26.117  1.00  0.00     0.021 C 
ENDROOT
BRANCH   1   2
ATOM      2  C   UNL A   1      33.624  28.335  25.198  1.00  0.00     0.116 C 
BRANCH   2   3
ATOM      3  N   UNL A   1      32.654  28.397  24.132  1.00  0.00    -0.356 N 
ATOM      4  C   UNL A   1      31.626  27.634  23.696  1.00  0.00     0.226 C 
ATOM      5  O   UNL A   1      31.141  28.087  22.645  1.00  0.00    -0.274 OA
ATOM      6  H   UNL A   1      32.770  29.202  23.578  1.00  0.00     0.163 HD
BRANCH   4   7
ATOM      7  C   UNL A   1      30.992  26.344  24.365  1.00  0.00     0.052 C 
ATOM      8  C   UNL A   1      32.298  24.631  25.779  1.00  0.00     0.052 C 
ATOM      9  C   UNL A   1      31.857  25.860  26.628  1.00  0.00     0.018 C 
ATOM     10  C   UNL A   1      31.752  24.942  24.279  1.00  0.00    -0.007 C 
ATOM     11  C   UNL A   1      33.822  24.499  25.817  1.00  0.00     0.022 C 
ATOM     12  C   UNL A   1      30.745  26.559  25.867  1.00  0.00     0.018 C 
ATOM     13  C   UNL A   1      32.840  24.979  23.180  1.00  0.00     0.013 C 
ATOM     14  C   UNL A   1      30.863  23.766  23.768  1.00  0.00     0.013 C 
ATOM     15  C   UNL A   1      29.576  26.271  23.701  1.00  0.00     0.022 C 
BRANCH   8  16
ATOM     16  C   UNL A   1      31.568  23.438  26.491  1.00  0.00     0.226 C 
ATOM     17  N   UNL A   1      31.951  22.138  26.495  1.00  0.00    -0.356 N 
ATOM     18  H   UNL A   1      31.327  21.578  27.011  1.00  0.00     0.163 HD
ATOM     19  O   UNL A   1      30.582  23.661  27.209  1.00  0.00    -0.274 OA
BRANCH  17  20
ATOM     20  C   UNL A   1      33.042  21.352  25.939  1.00  0.00     0.116 C 
BRANCH  20  21
ATOM     21  C   UNL A   1      32.727  20.837  24.535  1.00  0.00     0.021 C 
BRANCH  21  22
ATOM     22  C   UNL A   1      32.553  19.324  24.416  1.00  0.00    -0.002 C 
ATOM     23  C   UNL A   1      33.870  18.565  24.449  1.00  0.00     0.004 C 
ENDBRANCH  21  22
ENDBRANCH  20  21
ENDBRANCH  17  20
ENDBRANCH   8  16
ENDBRANCH   4   7
ENDBRANCH   2   3
ENDBRANCH   1   2
BRANCH   1  24
ATOM     24  C   UNL A   1      32.171  29.863  26.693  1.00  0.00     0.002 C 
BRANCH  24  25
ATOM     25  C   UNL A   1      31.372  30.941  25.955  1.00  0.00     0.002 C 
BRANCH  25  26
ATOM     26  C   UNL A   1      31.244  32.290  26.670  1.00  0.00     0.021 C 
BRANCH  26  27
ATOM     27  C   UNL A   1      32.549  32.893  27.186  1.00  0.00     0.116 C 
BRANCH  27  28
ATOM     28  N   UNL A   1      32.385  34.265  27.634  1.00  0.00    -0.352 N 
ATOM     29  C   UNL A   1      33.019  34.939  28.643  1.00  0.00     0.251 C 
ATOM     30  H   UNL A   1      31.716  34.790  27.138  1.00  0.00     0.163 HD
ATOM     31  O   UNL A   1      32.608  36.044  28.998  1.00  0.00    -0.269 OA
BRANCH  29  32
ATOM     32  C   UNL A   1      34.191  34.348  29.321  1.00  0.00     0.039 A 
ATOM     33  C   UNL A   1      33.990  33.611  30.490  1.00  0.00     0.014 A 
ATOM     34  C   UNL A   1      35.486  34.555  28.835  1.00  0.00     0.014 A 
ATOM     35  C   UNL A   1      35.082  33.043  31.150  1.00  0.00     0.010 A 
ATOM     36  C   UNL A   1      36.568  33.937  29.459  1.00  0.00     0.010 A 
ATOM     37  C   UNL A   1      36.379  33.182  30.627  1.00  0.00    -0.014 A 
BRANCH  37  38
ATOM     38  C   UNL A   1      37.545  32.555  31.299  1.00  0.00     0.031 A 
ATOM     39  C   UNL A   1      38.271  31.413  30.642  1.00  0.00     0.074 A 
ATOM     40  C   UNL A   1      37.910  32.973  32.527  1.00  0.00     0.049 A 
ATOM     41  N   UNL A   1      39.267  30.694  31.097  1.00  0.00    -0.248 NA
ATOM     42  C   UNL A   1      37.800  31.005  29.308  1.00  0.00     0.031 C 
ATOM     43  C   UNL A   1      37.250  34.033  33.290  1.00  0.00     0.029 A 
ATOM     44  N   UNL A   1      38.916  32.543  33.357  1.00  0.00    -0.354 N 
ATOM     45  C   UNL A   1      39.521  29.739  30.121  1.00  0.00     0.074 A 
ATOM     46  C   UNL A   1      38.554  29.944  29.065  1.00  0.00     0.031 C 
ATOM     47  C   UNL A   1      37.873  34.178  34.471  1.00  0.00     0.029 A 
ATOM     48  C   UNL A   1      38.954  33.201  34.562  1.00  0.00     0.049 A 
ATOM     49  H   UNL A   1      39.551  31.831  33.112  1.00  0.00     0.167 HD
ATOM     50  C   UNL A   1      40.485  28.789  30.102  1.00  0.00     0.037 A 
ATOM     51  C   UNL A   1      39.765  33.030  35.624  1.00  0.00     0.037 A 
ATOM     52  C   UNL A   1      41.477  28.621  31.132  1.00  0.00     0.049 A 
ATOM     53  C   UNL A   1      40.852  31.992  35.557  1.00  0.00     0.074 A 
ATOM     54  C   UNL A   1      42.551  27.748  31.161  1.00  0.00     0.029 A 
ATOM     55  N   UNL A   1      41.517  29.343  32.315  1.00  0.00    -0.354 N 
ATOM     56  N   UNL A   1      41.137  31.153  34.591  1.00  0.00    -0.248 NA
ATOM     57  C   UNL A   1      41.741  31.885  36.723  1.00  0.00     0.031 C 
ATOM     58  C   UNL A   1      43.213  27.908  32.382  1.00  0.00     0.029 A 
ATOM     59  C   UNL A   1      42.584  28.919  33.091  1.00  0.00     0.049 A 
ATOM     60  H   UNL A   1      40.882  30.052  32.567  1.00  0.00     0.167 HD
ATOM     61  C   UNL A   1      42.254  30.446  35.015  1.00  0.00     0.074 A 
ATOM     62  C   UNL A   1      42.604  30.963  36.321  1.00  0.00     0.031 C 
ATOM     63  C   UNL A   1      42.930  29.457  34.380  1.00  0.00     0.037 A 
BRANCH  50  64
ATOM     64  C   UNL A   1      40.530  27.851  28.932  1.00  0.00     0.064 A 
ATOM     65  C   UNL A   1      39.751  26.684  28.892  1.00  0.00     0.173 A 
ATOM     66  C   UNL A   1      41.303  28.162  27.804  1.00  0.00     0.173 A 
ATOM     67  F   UNL A   1      39.001  26.336  29.948  1.00  0.00    -0.203 F 
ATOM     68  C   UNL A   1      39.760  25.856  27.772  1.00  0.00     0.198 A 
ATOM     69  C   UNL A   1      41.288  27.348  26.676  1.00  0.00     0.198 A 
ATOM     70  F   UNL A   1      42.062  29.270  27.789  1.00  0.00    -0.203 F 
ATOM     71  F   UNL A   1      39.034  24.729  27.769  1.00  0.00    -0.200 F 
ATOM     72  C   UNL A   1      40.519  26.194  26.661  1.00  0.00     0.200 A 
ATOM     73  F   UNL A   1      42.012  27.682  25.598  1.00  0.00    -0.200 F 
ATOM     74  F   UNL A   1      40.512  25.405  25.578  1.00  0.00    -0.200 F 
ENDBRANCH  50  64
BRANCH  51  75
ATOM     75  C   UNL A   1      39.590  33.867  36.841  1.00  0.00     0.064 A 
ATOM     76  C   UNL A   1      38.833  33.411  37.929  1.00  0.00     0.173 A 
ATOM     77  C   UNL A   1      40.149  35.150  36.927  1.00  0.00     0.173 A 
ATOM     78  F   UNL A   1      38.263  32.198  37.887  1.00  0.00    -0.203 F 
ATOM     79  C   UNL A   1      38.615  34.218  39.044  1.00  0.00     0.198 A 
ATOM     80  C   UNL A   1      39.956  35.945  38.055  1.00  0.00     0.198 A 
ATOM     81  F   UNL A   1      40.886  35.632  35.916  1.00  0.00    -0.203 F 
ATOM     82  F   UNL A   1      37.840  33.780  40.045  1.00  0.00    -0.200 F 
ATOM     83  C   UNL A   1      39.180  35.483  39.108  1.00  0.00     0.200 A 
ATOM     84  F   UNL A   1      40.516  37.161  38.119  1.00  0.00    -0.200 F 
ATOM     85  F   UNL A   1      38.968  36.261  40.178  1.00  0.00    -0.200 F 
ENDBRANCH  51  75
BRANCH  63  86
ATOM     86  C   UNL A   1      44.144  28.903  35.065  1.00  0.00     0.064 A 
ATOM     87  C   UNL A   1      44.065  27.803  35.931  1.00  0.00     0.173 A 
ATOM     88  C   UNL A   1      45.410  29.457  34.817  1.00  0.00     0.173 A 
ATOM     89  F   UNL A   1      42.876  27.248  36.211  1.00  0.00    -0.203 F 
ATOM     90  C   UNL A   1      45.207  27.295  36.546  1.00  0.00     0.198 A 
ATOM     91  C   UNL A   1      46.552  28.926  35.409  1.00  0.00     0.198 A 
ATOM     92  F   UNL A   1      45.540  30.504  33.989  1.00  0.00    -0.203 F 
ATOM     93  F   UNL A   1      45.102  26.274  37.408  1.00  0.00    -0.200 F 
ATOM     94  C   UNL A   1      46.449  27.851  36.279  1.00  0.00     0.200 A 
ATOM     95  F   UNL A   1      47.753  29.456  35.138  1.00  0.00    -0.200 F 
ATOM     96  F   UNL A   1      47.547  27.356  36.867  1.00  0.00    -0.200 F 
ENDBRANCH  63  86
ENDBRANCH  37  38
ENDBRANCH  29  32
ENDBRANCH  27  28
ENDBRANCH  26  27
ENDBRANCH  25  26
ENDBRANCH  24  25
ENDBRANCH   1  24
TORSDOF 17
ENDMDL
MODEL 2
REMARK VINA RESULT:     -11.7      0.665      7.417
REMARK SMILES CCCCNC(=O)[C@]1(C)CC[C@@](C)(C(=O)NCCCCCCNC(=O)c2ccc(-c3c4nc(c(-c5c(F)c(F)c(F)c(F)c5F)c5ccc([nH]5)c(-c5c(F)c(F)c(F)c(F)c5F)c5nc(c(-c6c(F)c(F)c(F)c(F)c6F)c6ccc3[nH]6)C=C5)C=C4)cc2)C1(C)C
REMARK SMILES IDX 18 1 17 2 16 3 14 4 15 5 12 7 8 8 10 9 89 10 9 11 11 12
REMARK SMILES IDX 90 13 91 14 13 15 6 16 5 17 7 19 4 20 3 21 2 22 1 23 19 24
REMARK SMILES IDX 20 25 21 26 22 27 23 28 24 29 25 31 26 32 27 33 88 34 28 35
REMARK SMILES IDX 87 36 29 37 30 38 31 39 81 40 32 41 86 42 80 43 82 44 33 45
REMARK SMILES IDX 85 46 79 47 78 48 34 50 66 51 46 52 65 53 47 54 50 55 64 56
REMARK SMILES IDX 83 57 48 58 49 59 63 61 84 62 51 63 35 64 36 65 44 66 37 67
REMARK SMILES IDX 38 68 42 69 45 70 39 71 40 72 43 73 41 74 67 75 68 76 76 77
REMARK SMILES IDX 69 78 70 79 74 80 77 81 71 82 72 83 75 84 73 85 52 86 53 87
REMARK SMILES IDX 61 88 54 89 55 90 59 91 62 92 56 93 57 94 60 95 58 96
REMARK H PARENT 16 6 5 18 23 30 82 49 50 60
REMARK Flexibility Score: inf
ROOT
ATOM      1  C   UNL A   1      33.601  29.422  26.109  1.00  0.00     0.021 C 
ENDROOT
BRANCH   1   2
ATOM      2  C   UNL A   1      33.612  28.260  25.109  1.00  0.00     0.116 C 
BRANCH   2   3
ATOM      3  N   UNL A   1      32.572  28.384  24.118  1.00  0.00    -0.356 N 
ATOM      4  C   UNL A   1      31.493  27.666  23.733  1.00  0.00     0.226 C 
ATOM      5  O   UNL A   1      30.949  28.166  22.734  1.00  0.00    -0.274 OA
ATOM      6  H   UNL A   1      32.672  29.205  23.583  1.00  0.00     0.163 HD
BRANCH   4   7
ATOM      7  C   UNL A   1      30.869  26.372  24.404  1.00  0.00     0.052 C 
ATOM      8  C   UNL A   1      32.197  24.650  25.786  1.00  0.00     0.052 C 
ATOM      9  C   UNL A   1      31.771  25.873  26.650  1.00  0.00     0.018 C 
ATOM     10  C   UNL A   1      31.628  24.970  24.297  1.00  0.00    -0.007 C 
ATOM     11  C   UNL A   1      33.722  24.516  25.798  1.00  0.00     0.022 C 
ATOM     12  C   UNL A   1      30.647  26.578  25.912  1.00  0.00     0.018 C 
ATOM     13  C   UNL A   1      32.697  25.013  23.181  1.00  0.00     0.013 C 
ATOM     14  C   UNL A   1      30.729  23.797  23.794  1.00  0.00     0.013 C 
ATOM     15  C   UNL A   1      29.443  26.303  23.763  1.00  0.00     0.022 C 
BRANCH   8  16
ATOM     16  C   UNL A   1      31.479  23.453  26.503  1.00  0.00     0.226 C 
ATOM     17  N   UNL A   1      31.848  22.149  26.474  1.00  0.00    -0.356 N 
ATOM     18  H   UNL A   1      31.236  21.587  27.002  1.00  0.00     0.163 HD
ATOM     19  O   UNL A   1      30.519  23.674  27.257  1.00  0.00    -0.274 OA
BRANCH  17  20
ATOM     20  C   UNL A   1      32.912  21.361  25.870  1.00  0.00     0.116 C 
BRANCH  20  21
ATOM     21  C   UNL A   1      32.444  20.621  24.617  1.00  0.00     0.021 C 
BRANCH  21  22
ATOM     22  C   UNL A   1      33.253  19.381  24.247  1.00  0.00    -0.002 C 
ATOM     23  C   UNL A   1      32.539  18.079  24.575  1.00  0.00     0.004 C 
ENDBRANCH  21  22
ENDBRANCH  20  21
ENDBRANCH  17  20
ENDBRANCH   8  16
ENDBRANCH   4   7
ENDBRANCH   2   3
ENDBRANCH   1   2
BRANCH   1  24
ATOM     24  C   UNL A   1      32.245  29.726  26.741  1.00  0.00     0.002 C 
BRANCH  24  25
ATOM     25  C   UNL A   1      31.438  30.839  26.065  1.00  0.00     0.002 C 
BRANCH  25  26
ATOM     26  C   UNL A   1      31.365  32.170  26.821  1.00  0.00     0.021 C 
BRANCH  26  27
ATOM     27  C   UNL A   1      32.695  32.898  27.011  1.00  0.00     0.116 C 
BRANCH  27  28
ATOM     28  N   UNL A   1      32.528  34.203  27.625  1.00  0.00    -0.352 N 
ATOM     29  C   UNL A   1      33.137  34.738  28.728  1.00  0.00     0.251 C 
ATOM     30  H   UNL A   1      31.878  34.794  27.180  1.00  0.00     0.163 HD
ATOM     31  O   UNL A   1      32.723  35.794  29.208  1.00  0.00    -0.269 OA
BRANCH  29  32
ATOM     32  C   UNL A   1      34.283  34.053  29.358  1.00  0.00     0.039 A 
ATOM     33  C   UNL A   1      34.038  33.125  30.374  1.00  0.00     0.014 A 
ATOM     34  C   UNL A   1      35.597  34.354  28.986  1.00  0.00     0.014 A 
ATOM     35  C   UNL A   1      35.105  32.466  30.986  1.00  0.00     0.010 A 
ATOM     36  C   UNL A   1      36.658  33.651  29.554  1.00  0.00     0.010 A 
ATOM     37  C   UNL A   1      36.424  32.706  30.566  1.00  0.00    -0.014 A 
BRANCH  37  38
ATOM     38  C   UNL A   1      37.566  31.987  31.184  1.00  0.00     0.031 A 
ATOM     39  C   UNL A   1      38.038  32.361  32.563  1.00  0.00     0.074 A 
ATOM     40  C   UNL A   1      38.217  31.041  30.480  1.00  0.00     0.049 A 
ATOM     41  N   UNL A   1      39.055  31.898  33.244  1.00  0.00    -0.248 NA
ATOM     42  C   UNL A   1      37.283  33.417  33.259  1.00  0.00     0.031 C 
ATOM     43  C   UNL A   1      37.890  30.629  29.114  1.00  0.00     0.029 A 
ATOM     44  N   UNL A   1      39.303  30.266  30.809  1.00  0.00    -0.354 N 
ATOM     45  C   UNL A   1      39.077  32.619  34.430  1.00  0.00     0.074 A 
ATOM     46  C   UNL A   1      37.996  33.577  34.365  1.00  0.00     0.031 C 
ATOM     47  C   UNL A   1      38.748  29.672  28.725  1.00  0.00     0.029 A 
ATOM     48  C   UNL A   1      39.706  29.425  29.800  1.00  0.00     0.049 A 
ATOM     49  H   UNL A   1      39.750  30.309  31.685  1.00  0.00     0.167 HD
ATOM     50  C   UNL A   1      39.914  32.481  35.486  1.00  0.00     0.037 A 
ATOM     51  C   UNL A   1      40.736  28.559  29.746  1.00  0.00     0.037 A 
ATOM     52  C   UNL A   1      40.958  31.493  35.568  1.00  0.00     0.049 A 
ATOM     53  C   UNL A   1      41.625  28.401  30.950  1.00  0.00     0.074 A 
ATOM     54  C   UNL A   1      41.798  31.213  36.631  1.00  0.00     0.029 A 
ATOM     55  N   UNL A   1      41.302  30.621  34.546  1.00  0.00    -0.354 N 
ATOM     56  N   UNL A   1      41.581  29.029  32.100  1.00  0.00    -0.248 NA
ATOM     57  C   UNL A   1      42.700  27.404  30.854  1.00  0.00     0.031 C 
ATOM     58  C   UNL A   1      42.683  30.205  36.237  1.00  0.00     0.029 A 
ATOM     59  C   UNL A   1      42.358  29.818  34.947  1.00  0.00     0.049 A 
ATOM     60  H   UNL A   1      40.861  30.578  33.667  1.00  0.00     0.167 HD
ATOM     61  C   UNL A   1      42.594  28.480  32.874  1.00  0.00     0.074 A 
ATOM     62  C   UNL A   1      43.229  27.459  32.068  1.00  0.00     0.031 C 
ATOM     63  C   UNL A   1      42.966  28.793  34.139  1.00  0.00     0.037 A 
BRANCH  50  64
ATOM     64  C   UNL A   1      39.745  33.414  36.648  1.00  0.00     0.064 A 
ATOM     65  C   UNL A   1      40.403  34.652  36.704  1.00  0.00     0.173 A 
ATOM     66  C   UNL A   1      38.852  33.099  37.684  1.00  0.00     0.173 A 
ATOM     67  F   UNL A   1      41.274  34.997  35.743  1.00  0.00    -0.203 F 
ATOM     68  C   UNL A   1      40.187  35.531  37.762  1.00  0.00     0.198 A 
ATOM     69  C   UNL A   1      38.617  33.992  38.725  1.00  0.00     0.198 A 
ATOM     70  F   UNL A   1      38.192  31.931  37.677  1.00  0.00    -0.203 F 
ATOM     71  F   UNL A   1      40.853  36.694  37.811  1.00  0.00    -0.200 F 
ATOM     72  C   UNL A   1      39.287  35.206  38.766  1.00  0.00     0.200 A 
ATOM     73  F   UNL A   1      37.737  33.681  39.688  1.00  0.00    -0.200 F 
ATOM     74  F   UNL A   1      39.067  36.061  39.774  1.00  0.00    -0.200 F 
ENDBRANCH  50  64
BRANCH  51  75
ATOM     75  C   UNL A   1      40.980  27.765  28.513  1.00  0.00     0.064 A 
ATOM     76  C   UNL A   1      41.861  28.219  27.522  1.00  0.00     0.173 A 
ATOM     77  C   UNL A   1      40.314  26.552  28.286  1.00  0.00     0.173 A 
ATOM     78  F   UNL A   1      42.508  29.383  27.684  1.00  0.00    -0.203 F 
ATOM     79  C   UNL A   1      42.044  27.508  26.338  1.00  0.00     0.198 A 
ATOM     80  C   UNL A   1      40.520  25.825  27.116  1.00  0.00     0.198 A 
ATOM     81  F   UNL A   1      39.465  26.069  29.205  1.00  0.00    -0.203 F 
ATOM     82  F   UNL A   1      42.848  27.994  25.383  1.00  0.00    -0.200 F 
ATOM     83  C   UNL A   1      41.376  26.308  26.138  1.00  0.00     0.200 A 
ATOM     84  F   UNL A   1      39.885  24.660  26.932  1.00  0.00    -0.200 F 
ATOM     85  F   UNL A   1      41.549  25.626  24.998  1.00  0.00    -0.200 F 
ENDBRANCH  51  75
BRANCH  63  86
ATOM     86  C   UNL A   1      44.077  27.992  34.749  1.00  0.00     0.064 A 
ATOM     87  C   UNL A   1      45.422  28.357  34.591  1.00  0.00     0.173 A 
ATOM     88  C   UNL A   1      43.788  26.867  35.537  1.00  0.00     0.173 A 
ATOM     89  F   UNL A   1      45.751  29.416  33.835  1.00  0.00    -0.203 F 
ATOM     90  C   UNL A   1      46.439  27.607  35.177  1.00  0.00     0.198 A 
ATOM     91  C   UNL A   1      44.806  26.139  36.147  1.00  0.00     0.198 A 
ATOM     92  F   UNL A   1      42.517  26.483  35.727  1.00  0.00    -0.203 F 
ATOM     93  F   UNL A   1      47.720  27.945  34.972  1.00  0.00    -0.200 F 
ATOM     94  C   UNL A   1      46.130  26.504  35.960  1.00  0.00     0.200 A 
ATOM     95  F   UNL A   1      44.504  25.083  36.915  1.00  0.00    -0.200 F 
ATOM     96  F   UNL A   1      47.111  25.789  36.528  1.00  0.00    -0.200 F 
ENDBRANCH  63  86
ENDBRANCH  37  38
ENDBRANCH  29  32
ENDBRANCH  27  28
ENDBRANCH  26  27
ENDBRANCH  25  26
ENDBRANCH  24  25
ENDBRANCH   1  24
TORSDOF 17
ENDMDL
MODEL 3
REMARK VINA RESULT:     -11.7      0.805      1.789
REMARK SMILES CCCCNC(=O)[C@]1(C)CC[C@@](C)(C(=O)NCCCCCCNC(=O)c2ccc(-c3c4nc(c(-c5c(F)c(F)c(F)c(F)c5F)c5ccc([nH]5)c(-c5c(F)c(F)c(F)c(F)c5F)c5nc(c(-c6c(F)c(F)c(F)c(F)c6F)c6ccc3[nH]6)C=C5)C=C4)cc2)C1(C)C
REMARK SMILES IDX 18 1 17 2 16 3 14 4 15 5 12 7 8 8 10 9 89 10 9 11 11 12
REMARK SMILES IDX 90 13 91 14 13 15 6 16 5 17 7 19 4 20 3 21 2 22 1 23 19 24
REMARK SMILES IDX 20 25 21 26 22 27 23 28 24 29 25 31 26 32 27 33 88 34 28 35
REMARK SMILES IDX 87 36 29 37 30 38 31 39 81 40 32 41 86 42 80 43 82 44 33 45
REMARK SMILES IDX 85 46 79 47 78 48 34 50 66 51 46 52 65 53 47 54 50 55 64 56
REMARK SMILES IDX 83 57 48 58 49 59 63 61 84 62 51 63 35 64 36 65 44 66 37 67
REMARK SMILES IDX 38 68 42 69 45 70 39 71 40 72 43 73 41 74 67 75 68 76 76 77
REMARK SMILES IDX 69 78 70 79 74 80 77 81 71 82 72 83 75 84 73 85 52 86 53 87
REMARK SMILES IDX 61 88 54 89 55 90 59 91 62 92 56 93 57 94 60 95 58 96
REMARK H PARENT 16 6 5 18 23 30 82 49 50 60
REMARK Flexibility Score: inf
ROOT
ATOM      1  C   UNL A   1      33.620  29.372  25.462  1.00  0.00     0.021 C 
ENDROOT
BRANCH   1   2
ATOM      2  C   UNL A   1      33.666  28.070  24.653  1.00  0.00     0.116 C 
BRANCH   2   3
ATOM      3  N   UNL A   1      32.615  28.004  23.668  1.00  0.00    -0.356 N 
ATOM      4  C   UNL A   1      31.577  27.182  23.394  1.00  0.00     0.226 C 
ATOM      5  O   UNL A   1      31.000  27.516  22.344  1.00  0.00    -0.274 OA
ATOM      6  H   UNL A   1      32.666  28.751  23.028  1.00  0.00     0.163 HD
BRANCH   4   7
ATOM      7  C   UNL A   1      31.031  25.956  24.237  1.00  0.00     0.052 C 
ATOM      8  C   UNL A   1      32.412  24.631  25.963  1.00  0.00     0.052 C 
ATOM      9  C   UNL A   1      31.809  25.926  26.582  1.00  0.00     0.018 C 
ATOM     10  C   UNL A   1      31.925  24.643  24.411  1.00  0.00    -0.007 C 
ATOM     11  C   UNL A   1      33.937  24.663  26.083  1.00  0.00     0.022 C 
ATOM     12  C   UNL A   1      30.681  26.379  25.674  1.00  0.00     0.018 C 
ATOM     13  C   UNL A   1      33.064  24.618  23.366  1.00  0.00     0.013 C 
ATOM     14  C   UNL A   1      31.181  23.316  24.063  1.00  0.00     0.013 C 
ATOM     15  C   UNL A   1      29.668  25.634  23.538  1.00  0.00     0.022 C 
BRANCH   8  16
ATOM     16  C   UNL A   1      31.759  23.497  26.829  1.00  0.00     0.226 C 
ATOM     17  N   UNL A   1      32.320  22.311  27.170  1.00  0.00    -0.356 N 
ATOM     18  H   UNL A   1      31.710  21.766  27.719  1.00  0.00     0.163 HD
ATOM     19  O   UNL A   1      30.652  23.684  27.355  1.00  0.00    -0.274 OA
BRANCH  17  20
ATOM     20  C   UNL A   1      33.585  21.630  26.939  1.00  0.00     0.116 C 
BRANCH  20  21
ATOM     21  C   UNL A   1      33.648  20.977  25.559  1.00  0.00     0.021 C 
BRANCH  21  22
ATOM     22  C   UNL A   1      34.856  21.359  24.707  1.00  0.00    -0.002 C 
ATOM     23  C   UNL A   1      36.093  20.530  25.015  1.00  0.00     0.004 C 
ENDBRANCH  21  22
ENDBRANCH  20  21
ENDBRANCH  17  20
ENDBRANCH   8  16
ENDBRANCH   4   7
ENDBRANCH   2   3
ENDBRANCH   1   2
BRANCH   1  24
ATOM     24  C   UNL A   1      32.337  29.601  26.257  1.00  0.00     0.002 C 
BRANCH  24  25
ATOM     25  C   UNL A   1      31.361  30.615  25.655  1.00  0.00     0.002 C 
BRANCH  25  26
ATOM     26  C   UNL A   1      31.227  31.945  26.404  1.00  0.00     0.021 C 
BRANCH  26  27
ATOM     27  C   UNL A   1      32.495  32.450  27.090  1.00  0.00     0.116 C 
BRANCH  27  28
ATOM     28  N   UNL A   1      32.394  33.846  27.480  1.00  0.00    -0.352 N 
ATOM     29  C   UNL A   1      33.089  34.543  28.431  1.00  0.00     0.251 C 
ATOM     30  H   UNL A   1      31.724  34.371  26.985  1.00  0.00     0.163 HD
ATOM     31  O   UNL A   1      32.729  35.677  28.749  1.00  0.00    -0.269 OA
BRANCH  29  32
ATOM     32  C   UNL A   1      34.266  33.943  29.091  1.00  0.00     0.039 A 
ATOM     33  C   UNL A   1      34.076  32.856  29.948  1.00  0.00     0.014 A 
ATOM     34  C   UNL A   1      35.546  34.474  28.905  1.00  0.00     0.014 A 
ATOM     35  C   UNL A   1      35.173  32.273  30.584  1.00  0.00     0.010 A 
ATOM     36  C   UNL A   1      36.648  33.853  29.492  1.00  0.00     0.010 A 
ATOM     37  C   UNL A   1      36.472  32.751  30.344  1.00  0.00    -0.014 A 
BRANCH  37  38
ATOM     38  C   UNL A   1      37.651  32.119  30.987  1.00  0.00     0.031 A 
ATOM     39  C   UNL A   1      38.444  31.075  30.250  1.00  0.00     0.074 A 
ATOM     40  C   UNL A   1      37.969  32.439  32.256  1.00  0.00     0.049 A 
ATOM     41  N   UNL A   1      39.462  30.362  30.664  1.00  0.00    -0.248 NA
ATOM     42  C   UNL A   1      38.022  30.769  28.873  1.00  0.00     0.031 C 
ATOM     43  C   UNL A   1      37.243  33.395  33.094  1.00  0.00     0.029 A 
ATOM     44  N   UNL A   1      38.975  31.981  33.071  1.00  0.00    -0.354 N 
ATOM     45  C   UNL A   1      39.782  29.513  29.613  1.00  0.00     0.074 A 
ATOM     46  C   UNL A   1      38.831  29.769  28.555  1.00  0.00     0.031 C 
ATOM     47  C   UNL A   1      37.832  33.460  34.299  1.00  0.00     0.029 A 
ATOM     48  C   UNL A   1      38.956  32.528  34.331  1.00  0.00     0.049 A 
ATOM     49  H   UNL A   1      39.648  31.324  32.780  1.00  0.00     0.167 HD
ATOM     50  C   UNL A   1      40.791  28.612  29.535  1.00  0.00     0.037 A 
ATOM     51  C   UNL A   1      39.750  32.297  35.395  1.00  0.00     0.037 A 
ATOM     52  C   UNL A   1      41.766  28.396  30.571  1.00  0.00     0.049 A 
ATOM     53  C   UNL A   1      40.886  31.319  35.263  1.00  0.00     0.074 A 
ATOM     54  C   UNL A   1      42.879  27.573  30.550  1.00  0.00     0.029 A 
ATOM     55  N   UNL A   1      41.746  29.009  31.815  1.00  0.00    -0.354 N 
ATOM     56  N   UNL A   1      41.231  30.585  34.233  1.00  0.00    -0.248 NA
ATOM     57  C   UNL A   1      41.753  31.147  36.437  1.00  0.00     0.031 C 
ATOM     58  C   UNL A   1      43.505  27.651  31.797  1.00  0.00     0.029 A 
ATOM     59  C   UNL A   1      42.815  28.564  32.577  1.00  0.00     0.049 A 
ATOM     60  H   UNL A   1      41.073  29.662  32.112  1.00  0.00     0.167 HD
ATOM     61  C   UNL A   1      42.371  29.894  34.621  1.00  0.00     0.074 A 
ATOM     62  C   UNL A   1      42.667  30.304  35.977  1.00  0.00     0.031 C 
ATOM     63  C   UNL A   1      43.106  28.998  33.918  1.00  0.00     0.037 A 
BRANCH  50  64
ATOM     64  C   UNL A   1      40.905  27.788  28.287  1.00  0.00     0.064 A 
ATOM     65  C   UNL A   1      41.667  28.212  27.188  1.00  0.00     0.173 A 
ATOM     66  C   UNL A   1      40.306  26.520  28.219  1.00  0.00     0.173 A 
ATOM     67  F   UNL A   1      42.252  29.420  27.199  1.00  0.00    -0.203 F 
ATOM     68  C   UNL A   1      41.810  27.407  26.061  1.00  0.00     0.198 A 
ATOM     69  C   UNL A   1      40.475  25.706  27.103  1.00  0.00     0.198 A 
ATOM     70  F   UNL A   1      39.571  26.064  29.245  1.00  0.00    -0.203 F 
ATOM     71  F   UNL A   1      42.515  27.847  25.010  1.00  0.00    -0.200 F 
ATOM     72  C   UNL A   1      41.223  26.150  26.024  1.00  0.00     0.200 A 
ATOM     73  F   UNL A   1      39.917  24.487  27.074  1.00  0.00    -0.200 F 
ATOM     74  F   UNL A   1      41.377  25.369  24.945  1.00  0.00    -0.200 F 
ENDBRANCH  50  64
BRANCH  51  75
ATOM     75  C   UNL A   1      39.509  33.012  36.676  1.00  0.00     0.064 A 
ATOM     76  C   UNL A   1      38.582  32.528  37.610  1.00  0.00     0.173 A 
ATOM     77  C   UNL A   1      40.176  34.207  36.979  1.00  0.00     0.173 A 
ATOM     78  F   UNL A   1      37.905  31.398  37.358  1.00  0.00    -0.203 F 
ATOM     79  C   UNL A   1      38.308  33.228  38.783  1.00  0.00     0.198 A 
ATOM     80  C   UNL A   1      39.924  34.891  38.166  1.00  0.00     0.198 A 
ATOM     81  F   UNL A   1      41.076  34.710  36.123  1.00  0.00    -0.203 F 
ATOM     82  F   UNL A   1      37.376  32.773  39.631  1.00  0.00    -0.200 F 
ATOM     83  C   UNL A   1      38.983  34.408  39.063  1.00  0.00     0.200 A 
ATOM     84  F   UNL A   1      40.589  36.022  38.439  1.00  0.00    -0.200 F 
ATOM     85  F   UNL A   1      38.717  35.083  40.189  1.00  0.00    -0.200 F 
ENDBRANCH  51  75
BRANCH  63  86
ATOM     86  C   UNL A   1      44.329  28.439  34.582  1.00  0.00     0.064 A 
ATOM     87  C   UNL A   1      45.571  29.086  34.504  1.00  0.00     0.173 A 
ATOM     88  C   UNL A   1      44.247  27.260  35.339  1.00  0.00     0.173 A 
ATOM     89  F   UNL A   1      45.705  30.208  33.781  1.00  0.00    -0.203 F 
ATOM     90  C   UNL A   1      46.693  28.557  35.140  1.00  0.00     0.198 A 
ATOM     91  C   UNL A   1      45.363  26.752  35.998  1.00  0.00     0.198 A 
ATOM     92  F   UNL A   1      43.080  26.609  35.452  1.00  0.00    -0.203 F 
ATOM     93  F   UNL A   1      47.880  29.166  35.012  1.00  0.00    -0.200 F 
ATOM     94  C   UNL A   1      46.586  27.397  35.892  1.00  0.00     0.200 A 
ATOM     95  F   UNL A   1      45.254  25.639  36.736  1.00  0.00    -0.200 F 
ATOM     96  F   UNL A   1      47.665  26.894  36.507  1.00  0.00    -0.200 F 
ENDBRANCH  63  86
ENDBRANCH  37  38
ENDBRANCH  29  32
ENDBRANCH  27  28
ENDBRANCH  26  27
ENDBRANCH  25  26
ENDBRANCH  24  25
ENDBRANCH   1  24
TORSDOF 17
ENDMDL
