MODEL 1
REMARK VINA RESULT:     -12.4      0.000      0.000
REMARK SMILES Cc1cccc2[nH]cc(C[C@H](NC(=O)OC(C)(C)C)C(=O)NCCCCCCNC(=O)c3ccc(-c4c5nc(c(-c6c(F)c(F)c(F)c(F)c6F)c6ccc([nH]6)c(-c6c(F)c(F)c(F)c(F)c6F)c6nc(c(-c7c(F)c(F)c(F)c(F)c7F)c7ccc4[nH]7)C=C6)C=C5)cc3)c12
REMARK SMILES IDX 25 1 24 2 23 3 22 4 20 5 21 6 11 8 10 9 9 10 1 11 2 12 3 13
REMARK SMILES IDX 95 14 4 15 6 16 5 17 7 18 8 19 12 21 13 22 14 24 15 25 16 26
REMARK SMILES IDX 17 27 18 28 19 29 26 30 27 31 28 32 29 33 30 34 31 36 32 37
REMARK SMILES IDX 33 38 94 39 34 40 93 41 35 42 36 43 37 44 87 45 38 46 92 47
REMARK SMILES IDX 86 48 88 49 39 50 91 51 85 52 84 53 40 55 72 56 52 57 71 58
REMARK SMILES IDX 53 59 56 60 70 61 89 62 54 63 55 64 69 66 90 67 57 68 41 69
REMARK SMILES IDX 42 70 50 71 43 72 44 73 48 74 51 75 45 76 46 77 49 78 47 79
REMARK SMILES IDX 73 80 74 81 82 82 75 83 76 84 80 85 83 86 77 87 78 88 81 89
REMARK SMILES IDX 79 90 58 91 59 92 67 93 60 94 61 95 65 96 68 97 62 98 63 99
REMARK SMILES IDX 66 100 64 101
REMARK H PARENT 22 7 7 20 12 23 29 35 88 54 56 65
REMARK Flexibility Score: inf
ROOT
ATOM      1  C   UNL A   1      33.531  28.736  25.510  1.00  0.00     0.002 C 
ENDROOT
BRANCH   1   2
ATOM      2  C   UNL A   1      32.225  28.098  25.976  1.00  0.00     0.021 C 
BRANCH   2   3
ATOM      3  C   UNL A   1      32.419  26.688  26.485  1.00  0.00     0.116 C 
BRANCH   3   4
ATOM      4  N   UNL A   1      31.135  26.089  26.787  1.00  0.00    -0.354 N 
ATOM      5  C   UNL A   1      30.494  25.051  26.183  1.00  0.00     0.243 C 
ATOM      6  O   UNL A   1      29.398  24.703  26.631  1.00  0.00    -0.273 OA
ATOM      7  H   UNL A   1      30.654  26.494  27.543  1.00  0.00     0.163 HD
BRANCH   5   8
ATOM      8  C   UNL A   1      31.155  24.306  25.026  1.00  0.00     0.179 C 
BRANCH   8   9
ATOM      9  C   UNL A   1      30.605  24.773  23.631  1.00  0.00     0.073 C 
BRANCH   9  10
ATOM     10  C   UNL A   1      30.971  26.154  23.096  1.00  0.00    -0.020 A 
ATOM     11  C   UNL A   1      27.873  26.683  24.108  1.00  0.00     0.045 C 
ATOM     12  C   UNL A   1      28.759  27.614  23.329  1.00  0.00    -0.041 A 
ATOM     13  C   UNL A   1      28.232  28.872  22.951  1.00  0.00     0.004 A 
ATOM     14  C   UNL A   1      30.102  27.315  22.971  1.00  0.00     0.006 A 
ATOM     15  C   UNL A   1      28.998  29.823  22.282  1.00  0.00     0.002 A 
ATOM     16  C   UNL A   1      30.846  28.329  22.354  1.00  0.00     0.046 A 
ATOM     17  C   UNL A   1      30.330  29.572  21.986  1.00  0.00     0.027 A 
ATOM     18  N   UNL A   1      32.126  27.873  22.217  1.00  0.00    -0.361 N 
ATOM     19  C   UNL A   1      32.225  26.617  22.738  1.00  0.00     0.087 A 
ATOM     20  H   UNL A   1      32.865  28.375  21.805  1.00  0.00     0.166 HD
ENDBRANCH   9  10
ENDBRANCH   8   9
BRANCH   8  21
ATOM     21  N   UNL A   1      31.067  22.825  25.188  1.00  0.00    -0.309 N 
ATOM     22  C   UNL A   1      32.083  21.890  25.229  1.00  0.00     0.408 C 
ATOM     23  H   UNL A   1      30.156  22.464  25.279  1.00  0.00     0.167 HD
ATOM     24  O   UNL A   1      31.839  20.704  25.097  1.00  0.00    -0.225 OA
BRANCH  22  25
ATOM     25  O   UNL A   1      33.297  22.406  25.530  1.00  0.00    -0.444 OA
BRANCH  25  26
ATOM     26  C   UNL A   1      34.314  22.764  24.543  1.00  0.00     0.106 C 
ATOM     27  C   UNL A   1      33.827  22.783  23.081  1.00  0.00     0.056 C 
ATOM     28  C   UNL A   1      34.943  24.116  24.876  1.00  0.00     0.056 C 
ATOM     29  C   UNL A   1      35.384  21.665  24.687  1.00  0.00     0.056 C 
ENDBRANCH  25  26
ENDBRANCH  22  25
ENDBRANCH   8  21
ENDBRANCH   5   8
ENDBRANCH   3   4
ENDBRANCH   2   3
ENDBRANCH   1   2
BRANCH   1  30
ATOM     30  C   UNL A   1      34.492  29.012  26.666  1.00  0.00     0.002 C 
BRANCH  30  31
ATOM     31  C   UNL A   1      34.052  30.155  27.587  1.00  0.00     0.021 C 
BRANCH  31  32
ATOM     32  C   UNL A   1      35.076  31.272  27.648  1.00  0.00     0.116 C 
BRANCH  32  33
ATOM     33  N   UNL A   1      34.874  32.096  28.834  1.00  0.00    -0.352 N 
ATOM     34  C   UNL A   1      35.429  31.917  30.075  1.00  0.00     0.251 C 
ATOM     35  H   UNL A   1      34.272  32.869  28.732  1.00  0.00     0.163 HD
ATOM     36  O   UNL A   1      34.930  32.412  31.077  1.00  0.00    -0.269 OA
BRANCH  34  37
ATOM     37  C   UNL A   1      36.685  31.166  30.158  1.00  0.00     0.039 A 
ATOM     38  C   UNL A   1      37.916  31.791  29.950  1.00  0.00     0.014 A 
ATOM     39  C   UNL A   1      36.594  29.791  30.392  1.00  0.00     0.014 A 
ATOM     40  C   UNL A   1      39.061  31.007  29.954  1.00  0.00     0.010 A 
ATOM     41  C   UNL A   1      37.727  29.046  30.540  1.00  0.00     0.010 A 
ATOM     42  C   UNL A   1      38.940  29.636  30.220  1.00  0.00    -0.014 A 
BRANCH  42  43
ATOM     43  C   UNL A   1      40.088  28.756  30.217  1.00  0.00     0.031 A 
ATOM     44  C   UNL A   1      40.636  28.503  31.569  1.00  0.00     0.074 A 
ATOM     45  C   UNL A   1      40.438  28.072  29.107  1.00  0.00     0.049 A 
ATOM     46  N   UNL A   1      41.763  28.909  32.049  1.00  0.00    -0.248 NA
ATOM     47  C   UNL A   1      39.756  27.869  32.567  1.00  0.00     0.031 C 
ATOM     48  C   UNL A   1      39.756  28.013  27.807  1.00  0.00     0.029 A 
ATOM     49  N   UNL A   1      41.473  27.210  28.935  1.00  0.00    -0.354 N 
ATOM     50  C   UNL A   1      41.824  28.409  33.344  1.00  0.00     0.074 A 
ATOM     51  C   UNL A   1      40.497  27.962  33.673  1.00  0.00     0.031 C 
ATOM     52  C   UNL A   1      40.284  27.016  27.056  1.00  0.00     0.029 A 
ATOM     53  C   UNL A   1      41.439  26.478  27.750  1.00  0.00     0.049 A 
ATOM     54  H   UNL A   1      42.194  27.110  29.598  1.00  0.00     0.167 HD
ATOM     55  C   UNL A   1      43.021  28.160  33.941  1.00  0.00     0.037 A 
ATOM     56  C   UNL A   1      42.309  25.495  27.405  1.00  0.00     0.037 A 
ATOM     57  C   UNL A   1      44.094  28.805  33.228  1.00  0.00     0.049 A 
ATOM     58  C   UNL A   1      43.511  25.686  28.253  1.00  0.00     0.074 A 
ATOM     59  C   UNL A   1      44.461  30.114  32.991  1.00  0.00     0.029 A 
ATOM     60  N   UNL A   1      44.727  28.052  32.272  1.00  0.00    -0.354 N 
ATOM     61  N   UNL A   1      44.311  26.710  28.153  1.00  0.00    -0.248 NA
ATOM     62  C   UNL A   1      43.572  24.958  29.509  1.00  0.00     0.031 C 
ATOM     63  C   UNL A   1      44.952  30.130  31.650  1.00  0.00     0.029 A 
ATOM     64  C   UNL A   1      44.931  28.824  31.158  1.00  0.00     0.049 A 
ATOM     65  H   UNL A   1      44.992  27.109  32.371  1.00  0.00     0.167 HD
ATOM     66  C   UNL A   1      44.662  27.009  29.461  1.00  0.00     0.074 A 
ATOM     67  C   UNL A   1      44.262  25.837  30.238  1.00  0.00     0.031 C 
ATOM     68  C   UNL A   1      44.971  28.291  29.813  1.00  0.00     0.037 A 
BRANCH  55  69
ATOM     69  C   UNL A   1      43.260  27.032  34.914  1.00  0.00     0.064 A 
ATOM     70  C   UNL A   1      43.498  27.323  36.270  1.00  0.00     0.173 A 
ATOM     71  C   UNL A   1      43.529  25.701  34.523  1.00  0.00     0.173 A 
ATOM     72  F   UNL A   1      43.322  28.567  36.741  1.00  0.00    -0.203 F 
ATOM     73  C   UNL A   1      43.997  26.362  37.156  1.00  0.00     0.198 A 
ATOM     74  C   UNL A   1      43.970  24.731  35.420  1.00  0.00     0.198 A 
ATOM     75  F   UNL A   1      43.487  25.311  33.243  1.00  0.00    -0.203 F 
ATOM     76  F   UNL A   1      44.309  26.712  38.411  1.00  0.00    -0.200 F 
ATOM     77  C   UNL A   1      44.228  25.066  36.731  1.00  0.00     0.200 A 
ATOM     78  F   UNL A   1      44.215  23.488  34.980  1.00  0.00    -0.200 F 
ATOM     79  F   UNL A   1      44.745  24.155  37.566  1.00  0.00    -0.200 F 
ENDBRANCH  55  69
BRANCH  56  80
ATOM     80  C   UNL A   1      42.085  24.211  26.694  1.00  0.00     0.064 A 
ATOM     81  C   UNL A   1      43.025  23.754  25.751  1.00  0.00     0.173 A 
ATOM     82  C   UNL A   1      41.175  23.257  27.183  1.00  0.00     0.173 A 
ATOM     83  F   UNL A   1      43.945  24.596  25.255  1.00  0.00    -0.203 F 
ATOM     84  C   UNL A   1      43.101  22.409  25.378  1.00  0.00     0.198 A 
ATOM     85  C   UNL A   1      41.249  21.913  26.807  1.00  0.00     0.198 A 
ATOM     86  F   UNL A   1      40.272  23.589  28.117  1.00  0.00    -0.203 F 
ATOM     87  F   UNL A   1      44.072  21.997  24.551  1.00  0.00    -0.200 F 
ATOM     88  C   UNL A   1      42.227  21.485  25.925  1.00  0.00     0.200 A 
ATOM     89  F   UNL A   1      40.422  21.019  27.366  1.00  0.00    -0.200 F 
ATOM     90  F   UNL A   1      42.356  20.181  25.641  1.00  0.00    -0.200 F 
ENDBRANCH  56  80
BRANCH  68  91
ATOM     91  C   UNL A   1      45.189  29.273  28.690  1.00  0.00     0.064 A 
ATOM     92  C   UNL A   1      44.185  30.087  28.136  1.00  0.00     0.173 A 
ATOM     93  C   UNL A   1      46.497  29.469  28.230  1.00  0.00     0.173 A 
ATOM     94  F   UNL A   1      42.925  30.024  28.577  1.00  0.00    -0.203 F 
ATOM     95  C   UNL A   1      44.474  31.025  27.143  1.00  0.00     0.198 A 
ATOM     96  C   UNL A   1      46.789  30.430  27.266  1.00  0.00     0.198 A 
ATOM     97  F   UNL A   1      47.504  28.753  28.753  1.00  0.00    -0.203 F 
ATOM     98  F   UNL A   1      43.494  31.781  26.623  1.00  0.00    -0.200 F 
ATOM     99  C   UNL A   1      45.778  31.201  26.715  1.00  0.00     0.200 A 
ATOM    100  F   UNL A   1      48.059  30.625  26.887  1.00  0.00    -0.200 F 
ATOM    101  F   UNL A   1      46.065  32.127  25.790  1.00  0.00    -0.200 F 
ENDBRANCH  68  91
ENDBRANCH  42  43
ENDBRANCH  34  37
ENDBRANCH  32  33
ENDBRANCH  31  32
ENDBRANCH  30  31
ENDBRANCH   1  30
TORSDOF 18
ENDMDL
MODEL 2
REMARK VINA RESULT:     -12.2      3.423      9.086
REMARK SMILES Cc1cccc2[nH]cc(C[C@H](NC(=O)OC(C)(C)C)C(=O)NCCCCCCNC(=O)c3ccc(-c4c5nc(c(-c6c(F)c(F)c(F)c(F)c6F)c6ccc([nH]6)c(-c6c(F)c(F)c(F)c(F)c6F)c6nc(c(-c7c(F)c(F)c(F)c(F)c7F)c7ccc4[nH]7)C=C6)C=C5)cc3)c12
REMARK SMILES IDX 25 1 24 2 23 3 22 4 20 5 21 6 11 8 10 9 9 10 1 11 2 12 3 13
REMARK SMILES IDX 95 14 4 15 6 16 5 17 7 18 8 19 12 21 13 22 14 24 15 25 16 26
REMARK SMILES IDX 17 27 18 28 19 29 26 30 27 31 28 32 29 33 30 34 31 36 32 37
REMARK SMILES IDX 33 38 94 39 34 40 93 41 35 42 36 43 37 44 87 45 38 46 92 47
REMARK SMILES IDX 86 48 88 49 39 50 91 51 85 52 84 53 40 55 72 56 52 57 71 58
REMARK SMILES IDX 53 59 56 60 70 61 89 62 54 63 55 64 69 66 90 67 57 68 41 69
REMARK SMILES IDX 42 70 50 71 43 72 44 73 48 74 51 75 45 76 46 77 49 78 47 79
REMARK SMILES IDX 73 80 74 81 82 82 75 83 76 84 80 85 83 86 77 87 78 88 81 89
REMARK SMILES IDX 79 90 58 91 59 92 67 93 60 94 61 95 65 96 68 97 62 98 63 99
REMARK SMILES IDX 66 100 64 101
REMARK H PARENT 22 7 7 20 12 23 29 35 88 54 56 65
REMARK Flexibility Score: inf
ROOT
ATOM      1  C   UNL A   1      36.937  22.172  24.898  1.00  0.00     0.002 C 
ENDROOT
BRANCH   1   2
ATOM      2  C   UNL A   1      36.053  23.019  25.812  1.00  0.00     0.021 C 
BRANCH   2   3
ATOM      3  C   UNL A   1      35.368  24.145  25.072  1.00  0.00     0.116 C 
BRANCH   3   4
ATOM      4  N   UNL A   1      35.060  23.732  23.718  1.00  0.00    -0.354 N 
ATOM      5  C   UNL A   1      33.860  23.670  23.077  1.00  0.00     0.243 C 
ATOM      6  O   UNL A   1      33.846  23.296  21.902  1.00  0.00    -0.273 OA
ATOM      7  H   UNL A   1      35.835  23.453  23.180  1.00  0.00     0.163 HD
BRANCH   5   8
ATOM      8  C   UNL A   1      32.584  24.120  23.786  1.00  0.00     0.179 C 
BRANCH   8   9
ATOM      9  C   UNL A   1      31.662  22.907  24.166  1.00  0.00     0.073 C 
BRANCH   9  10
ATOM     10  C   UNL A   1      32.271  21.661  24.802  1.00  0.00    -0.020 A 
ATOM     11  C   UNL A   1      31.795  20.606  21.710  1.00  0.00     0.045 C 
ATOM     12  C   UNL A   1      32.226  19.799  22.903  1.00  0.00    -0.041 A 
ATOM     13  C   UNL A   1      32.450  18.414  22.722  1.00  0.00     0.004 A 
ATOM     14  C   UNL A   1      32.447  20.351  24.195  1.00  0.00     0.006 A 
ATOM     15  C   UNL A   1      32.910  17.599  23.752  1.00  0.00     0.002 A 
ATOM     16  C   UNL A   1      32.967  19.501  25.178  1.00  0.00     0.046 A 
ATOM     17  C   UNL A   1      33.195  18.135  25.000  1.00  0.00     0.027 A 
ATOM     18  N   UNL A   1      33.216  20.259  26.286  1.00  0.00    -0.361 N 
ATOM     19  C   UNL A   1      32.888  21.558  26.038  1.00  0.00     0.087 A 
ATOM     20  H   UNL A   1      33.577  19.919  27.137  1.00  0.00     0.166 HD
ENDBRANCH   9  10
ENDBRANCH   8   9
BRANCH   8  21
ATOM     21  N   UNL A   1      31.845  25.156  23.009  1.00  0.00    -0.309 N 
ATOM     22  C   UNL A   1      31.644  26.490  23.304  1.00  0.00     0.408 C 
ATOM     23  H   UNL A   1      31.443  24.844  22.165  1.00  0.00     0.167 HD
ATOM     24  O   UNL A   1      30.798  27.136  22.711  1.00  0.00    -0.225 OA
BRANCH  22  25
ATOM     25  O   UNL A   1      32.524  26.997  24.199  1.00  0.00    -0.444 OA
BRANCH  25  26
ATOM     26  C   UNL A   1      32.166  27.483  25.529  1.00  0.00     0.106 C 
ATOM     27  C   UNL A   1      31.721  28.957  25.589  1.00  0.00     0.056 C 
ATOM     28  C   UNL A   1      31.079  26.609  26.153  1.00  0.00     0.056 C 
ATOM     29  C   UNL A   1      33.462  27.331  26.348  1.00  0.00     0.056 C 
ENDBRANCH  25  26
ENDBRANCH  22  25
ENDBRANCH   8  21
ENDBRANCH   5   8
ENDBRANCH   3   4
ENDBRANCH   2   3
ENDBRANCH   1   2
BRANCH   1  30
ATOM     30  C   UNL A   1      38.231  21.732  25.581  1.00  0.00     0.002 C 
BRANCH  30  31
ATOM     31  C   UNL A   1      39.036  22.881  26.197  1.00  0.00     0.021 C 
BRANCH  31  32
ATOM     32  C   UNL A   1      40.035  22.396  27.229  1.00  0.00     0.116 C 
BRANCH  32  33
ATOM     33  N   UNL A   1      41.383  22.365  26.673  1.00  0.00    -0.352 N 
ATOM     34  C   UNL A   1      42.133  23.433  26.252  1.00  0.00     0.251 C 
ATOM     35  H   UNL A   1      41.801  21.478  26.591  1.00  0.00     0.163 HD
ATOM     36  O   UNL A   1      43.068  23.292  25.475  1.00  0.00    -0.269 OA
BRANCH  34  37
ATOM     37  C   UNL A   1      41.822  24.750  26.818  1.00  0.00     0.039 A 
ATOM     38  C   UNL A   1      41.063  25.681  26.106  1.00  0.00     0.014 A 
ATOM     39  C   UNL A   1      42.366  25.054  28.069  1.00  0.00     0.014 A 
ATOM     40  C   UNL A   1      40.880  26.940  26.659  1.00  0.00     0.010 A 
ATOM     41  C   UNL A   1      42.065  26.237  28.676  1.00  0.00     0.010 A 
ATOM     42  C   UNL A   1      41.414  27.206  27.928  1.00  0.00    -0.014 A 
BRANCH  42  43
ATOM     43  C   UNL A   1      41.280  28.503  28.553  1.00  0.00     0.031 A 
ATOM     44  C   UNL A   1      42.350  29.452  28.170  1.00  0.00     0.074 A 
ATOM     45  C   UNL A   1      40.155  28.842  29.217  1.00  0.00     0.049 A 
ATOM     46  N   UNL A   1      43.297  29.912  28.916  1.00  0.00    -0.248 NA
ATOM     47  C   UNL A   1      42.487  29.803  26.745  1.00  0.00     0.031 C 
ATOM     48  C   UNL A   1      38.909  28.078  29.371  1.00  0.00     0.029 A 
ATOM     49  N   UNL A   1      39.864  30.007  29.851  1.00  0.00    -0.354 N 
ATOM     50  C   UNL A   1      44.033  30.769  28.105  1.00  0.00     0.074 A 
ATOM     51  C   UNL A   1      43.621  30.507  26.752  1.00  0.00     0.031 C 
ATOM     52  C   UNL A   1      37.940  28.876  29.881  1.00  0.00     0.029 A 
ATOM     53  C   UNL A   1      38.534  30.150  30.241  1.00  0.00     0.049 A 
ATOM     54  H   UNL A   1      40.544  30.699  30.024  1.00  0.00     0.167 HD
ATOM     55  C   UNL A   1      44.727  31.811  28.639  1.00  0.00     0.037 A 
ATOM     56  C   UNL A   1      37.993  31.260  30.802  1.00  0.00     0.037 A 
ATOM     57  C   UNL A   1      44.874  31.652  30.064  1.00  0.00     0.049 A 
ATOM     58  C   UNL A   1      39.126  32.051  31.340  1.00  0.00     0.074 A 
ATOM     59  C   UNL A   1      45.536  30.763  30.885  1.00  0.00     0.029 A 
ATOM     60  N   UNL A   1      43.916  32.250  30.844  1.00  0.00    -0.354 N 
ATOM     61  N   UNL A   1      39.872  31.662  32.337  1.00  0.00    -0.248 NA
ATOM     62  C   UNL A   1      39.704  33.071  30.481  1.00  0.00     0.031 C 
ATOM     63  C   UNL A   1      44.668  30.561  32.001  1.00  0.00     0.029 A 
ATOM     64  C   UNL A   1      43.555  31.389  31.846  1.00  0.00     0.049 A 
ATOM     65  H   UNL A   1      43.549  33.153  30.705  1.00  0.00     0.167 HD
ATOM     66  C   UNL A   1      41.153  32.065  31.994  1.00  0.00     0.074 A 
ATOM     67  C   UNL A   1      40.971  33.014  30.897  1.00  0.00     0.031 C 
ATOM     68  C   UNL A   1      42.236  31.364  32.441  1.00  0.00     0.037 A 
BRANCH  55  69
ATOM     69  C   UNL A   1      44.919  33.137  27.949  1.00  0.00     0.064 A 
ATOM     70  C   UNL A   1      46.206  33.519  27.525  1.00  0.00     0.173 A 
ATOM     71  C   UNL A   1      43.945  34.161  27.927  1.00  0.00     0.173 A 
ATOM     72  F   UNL A   1      47.220  32.642  27.550  1.00  0.00    -0.203 F 
ATOM     73  C   UNL A   1      46.498  34.832  27.139  1.00  0.00     0.198 A 
ATOM     74  C   UNL A   1      44.224  35.453  27.487  1.00  0.00     0.198 A 
ATOM     75  F   UNL A   1      42.719  33.988  28.434  1.00  0.00    -0.203 F 
ATOM     76  F   UNL A   1      47.759  35.174  26.845  1.00  0.00    -0.200 F 
ATOM     77  C   UNL A   1      45.506  35.796  27.116  1.00  0.00     0.200 A 
ATOM     78  F   UNL A   1      43.255  36.378  27.501  1.00  0.00    -0.200 F 
ATOM     79  F   UNL A   1      45.792  37.063  26.789  1.00  0.00    -0.200 F 
ENDBRANCH  55  69
BRANCH  56  80
ATOM     80  C   UNL A   1      36.660  31.887  30.615  1.00  0.00     0.064 A 
ATOM     81  C   UNL A   1      35.777  32.007  31.707  1.00  0.00     0.173 A 
ATOM     82  C   UNL A   1      36.384  32.693  29.497  1.00  0.00     0.173 A 
ATOM     83  F   UNL A   1      35.985  31.291  32.823  1.00  0.00    -0.203 F 
ATOM     84  C   UNL A   1      34.731  32.933  31.709  1.00  0.00     0.198 A 
ATOM     85  C   UNL A   1      35.335  33.616  29.499  1.00  0.00     0.198 A 
ATOM     86  F   UNL A   1      37.194  32.680  28.428  1.00  0.00    -0.203 F 
ATOM     87  F   UNL A   1      33.973  33.085  32.804  1.00  0.00    -0.200 F 
ATOM     88  C   UNL A   1      34.524  33.754  30.614  1.00  0.00     0.200 A 
ATOM     89  F   UNL A   1      35.163  34.431  28.448  1.00  0.00    -0.200 F 
ATOM     90  F   UNL A   1      33.581  34.705  30.648  1.00  0.00    -0.200 F 
ENDBRANCH  56  80
BRANCH  68  91
ATOM     91  C   UNL A   1      41.988  30.346  33.525  1.00  0.00     0.064 A 
ATOM     92  C   UNL A   1      41.666  28.996  33.293  1.00  0.00     0.173 A 
ATOM     93  C   UNL A   1      42.192  30.735  34.854  1.00  0.00     0.173 A 
ATOM     94  F   UNL A   1      41.537  28.523  32.050  1.00  0.00    -0.203 F 
ATOM     95  C   UNL A   1      41.519  28.092  34.346  1.00  0.00     0.198 A 
ATOM     96  C   UNL A   1      42.080  29.824  35.901  1.00  0.00     0.198 A 
ATOM     97  F   UNL A   1      42.545  31.998  35.135  1.00  0.00    -0.203 F 
ATOM     98  F   UNL A   1      41.198  26.813  34.097  1.00  0.00    -0.200 F 
ATOM     99  C   UNL A   1      41.734  28.506  35.649  1.00  0.00     0.200 A 
ATOM    100  F   UNL A   1      42.332  30.219  37.156  1.00  0.00    -0.200 F 
ATOM    101  F   UNL A   1      41.632  27.631  36.660  1.00  0.00    -0.200 F 
ENDBRANCH  68  91
ENDBRANCH  42  43
ENDBRANCH  34  37
ENDBRANCH  32  33
ENDBRANCH  31  32
ENDBRANCH  30  31
ENDBRANCH   1  30
TORSDOF 18
ENDMDL
MODEL 3
REMARK VINA RESULT:     -12.2      1.101      1.684
REMARK SMILES Cc1cccc2[nH]cc(C[C@H](NC(=O)OC(C)(C)C)C(=O)NCCCCCCNC(=O)c3ccc(-c4c5nc(c(-c6c(F)c(F)c(F)c(F)c6F)c6ccc([nH]6)c(-c6c(F)c(F)c(F)c(F)c6F)c6nc(c(-c7c(F)c(F)c(F)c(F)c7F)c7ccc4[nH]7)C=C6)C=C5)cc3)c12
REMARK SMILES IDX 25 1 24 2 23 3 22 4 20 5 21 6 11 8 10 9 9 10 1 11 2 12 3 13
REMARK SMILES IDX 95 14 4 15 6 16 5 17 7 18 8 19 12 21 13 22 14 24 15 25 16 26
REMARK SMILES IDX 17 27 18 28 19 29 26 30 27 31 28 32 29 33 30 34 31 36 32 37
REMARK SMILES IDX 33 38 94 39 34 40 93 41 35 42 36 43 37 44 87 45 38 46 92 47
REMARK SMILES IDX 86 48 88 49 39 50 91 51 85 52 84 53 40 55 72 56 52 57 71 58
REMARK SMILES IDX 53 59 56 60 70 61 89 62 54 63 55 64 69 66 90 67 57 68 41 69
REMARK SMILES IDX 42 70 50 71 43 72 44 73 48 74 51 75 45 76 46 77 49 78 47 79
REMARK SMILES IDX 73 80 74 81 82 82 75 83 76 84 80 85 83 86 77 87 78 88 81 89
REMARK SMILES IDX 79 90 58 91 59 92 67 93 60 94 61 95 65 96 68 97 62 98 63 99
REMARK SMILES IDX 66 100 64 101
REMARK H PARENT 22 7 7 20 12 23 29 35 88 54 56 65
REMARK Flexibility Score: inf
ROOT
ATOM      1  C   UNL A   1      34.036  28.507  25.898  1.00  0.00     0.002 C 
ENDROOT
BRANCH   1   2
ATOM      2  C   UNL A   1      33.645  27.038  26.039  1.00  0.00     0.021 C 
BRANCH   2   3
ATOM      3  C   UNL A   1      32.172  26.856  26.327  1.00  0.00     0.116 C 
BRANCH   3   4
ATOM      4  N   UNL A   1      31.817  25.455  26.226  1.00  0.00    -0.354 N 
ATOM      5  C   UNL A   1      31.583  24.693  25.123  1.00  0.00     0.243 C 
ATOM      6  O   UNL A   1      31.306  23.501  25.287  1.00  0.00    -0.273 OA
ATOM      7  H   UNL A   1      31.733  24.984  27.086  1.00  0.00     0.163 HD
BRANCH   5   8
ATOM      8  C   UNL A   1      31.727  25.293  23.727  1.00  0.00     0.179 C 
BRANCH   8   9
ATOM      9  C   UNL A   1      30.440  26.078  23.286  1.00  0.00     0.073 C 
BRANCH   9  10
ATOM     10  C   UNL A   1      30.553  27.536  22.849  1.00  0.00    -0.020 A 
ATOM     11  C   UNL A   1      27.387  27.411  23.777  1.00  0.00     0.045 C 
ATOM     12  C   UNL A   1      28.101  28.540  23.089  1.00  0.00    -0.041 A 
ATOM     13  C   UNL A   1      27.358  29.701  22.770  1.00  0.00     0.004 A 
ATOM     14  C   UNL A   1      29.485  28.520  22.763  1.00  0.00     0.006 A 
ATOM     15  C   UNL A   1      27.947  30.821  22.189  1.00  0.00     0.002 A 
ATOM     16  C   UNL A   1      30.041  29.694  22.237  1.00  0.00     0.046 A 
ATOM     17  C   UNL A   1      29.310  30.842  21.927  1.00  0.00     0.027 A 
ATOM     18  N   UNL A   1      31.387  29.493  22.120  1.00  0.00    -0.361 N 
ATOM     19  C   UNL A   1      31.707  28.247  22.566  1.00  0.00     0.087 A 
ATOM     20  H   UNL A   1      32.029  30.151  21.767  1.00  0.00     0.166 HD
ENDBRANCH   9  10
ENDBRANCH   8   9
BRANCH   8  21
ATOM     21  N   UNL A   1      32.127  24.273  22.715  1.00  0.00    -0.309 N 
ATOM     22  C   UNL A   1      33.389  23.948  22.255  1.00  0.00     0.408 C 
ATOM     23  H   UNL A   1      31.388  23.758  22.319  1.00  0.00     0.167 HD
ATOM     24  O   UNL A   1      33.528  23.288  21.242  1.00  0.00    -0.225 OA
BRANCH  22  25
ATOM     25  O   UNL A   1      34.393  24.331  23.079  1.00  0.00    -0.444 OA
BRANCH  25  26
ATOM     26  C   UNL A   1      35.237  23.412  23.840  1.00  0.00     0.106 C 
ATOM     27  C   UNL A   1      36.496  22.919  23.102  1.00  0.00     0.056 C 
ATOM     28  C   UNL A   1      35.650  24.031  25.174  1.00  0.00     0.056 C 
ATOM     29  C   UNL A   1      34.324  22.200  24.112  1.00  0.00     0.056 C 
ENDBRANCH  25  26
ENDBRANCH  22  25
ENDBRANCH   8  21
ENDBRANCH   5   8
ENDBRANCH   3   4
ENDBRANCH   2   3
ENDBRANCH   1   2
BRANCH   1  30
ATOM     30  C   UNL A   1      34.437  29.137  27.232  1.00  0.00     0.002 C 
BRANCH  30  31
ATOM     31  C   UNL A   1      33.958  30.582  27.411  1.00  0.00     0.021 C 
BRANCH  31  32
ATOM     32  C   UNL A   1      35.091  31.521  27.778  1.00  0.00     0.116 C 
BRANCH  32  33
ATOM     33  N   UNL A   1      34.805  32.215  29.029  1.00  0.00    -0.352 N 
ATOM     34  C   UNL A   1      35.357  31.970  30.259  1.00  0.00     0.251 C 
ATOM     35  H   UNL A   1      34.142  32.942  28.983  1.00  0.00     0.163 HD
ATOM     36  O   UNL A   1      34.805  32.329  31.291  1.00  0.00    -0.269 OA
BRANCH  34  37
ATOM     37  C   UNL A   1      36.671  31.320  30.300  1.00  0.00     0.039 A 
ATOM     38  C   UNL A   1      37.849  32.066  30.222  1.00  0.00     0.014 A 
ATOM     39  C   UNL A   1      36.693  29.924  30.359  1.00  0.00     0.014 A 
ATOM     40  C   UNL A   1      39.056  31.385  30.176  1.00  0.00     0.010 A 
ATOM     41  C   UNL A   1      37.880  29.262  30.461  1.00  0.00     0.010 A 
ATOM     42  C   UNL A   1      39.047  29.985  30.266  1.00  0.00    -0.014 A 
BRANCH  42  43
ATOM     43  C   UNL A   1      40.267  29.211  30.202  1.00  0.00     0.031 A 
ATOM     44  C   UNL A   1      40.889  28.986  31.527  1.00  0.00     0.074 A 
ATOM     45  C   UNL A   1      40.630  28.578  29.066  1.00  0.00     0.049 A 
ATOM     46  N   UNL A   1      41.995  29.483  31.969  1.00  0.00    -0.248 NA
ATOM     47  C   UNL A   1      40.109  28.261  32.545  1.00  0.00     0.031 C 
ATOM     48  C   UNL A   1      39.904  28.478  27.793  1.00  0.00     0.029 A 
ATOM     49  N   UNL A   1      41.728  27.813  28.838  1.00  0.00    -0.354 N 
ATOM     50  C   UNL A   1      42.151  28.970  33.252  1.00  0.00     0.074 A 
ATOM     51  C   UNL A   1      40.883  28.402  33.624  1.00  0.00     0.031 C 
ATOM     52  C   UNL A   1      40.486  27.543  27.003  1.00  0.00     0.029 A 
ATOM     53  C   UNL A   1      41.711  27.099  27.641  1.00  0.00     0.049 A 
ATOM     54  H   UNL A   1      42.482  27.767  29.470  1.00  0.00     0.167 HD
ATOM     55  C   UNL A   1      43.389  28.818  33.797  1.00  0.00     0.037 A 
ATOM     56  C   UNL A   1      42.649  26.202  27.245  1.00  0.00     0.037 A 
ATOM     57  C   UNL A   1      44.371  29.567  33.055  1.00  0.00     0.049 A 
ATOM     58  C   UNL A   1      43.863  26.485  28.048  1.00  0.00     0.074 A 
ATOM     59  C   UNL A   1      44.613  30.906  32.828  1.00  0.00     0.029 A 
ATOM     60  N   UNL A   1      45.029  28.887  32.061  1.00  0.00    -0.354 N 
ATOM     61  N   UNL A   1      44.566  27.577  27.937  1.00  0.00    -0.248 NA
ATOM     62  C   UNL A   1      44.038  25.746  29.287  1.00  0.00     0.031 C 
ATOM     63  C   UNL A   1      45.046  30.986  31.470  1.00  0.00     0.029 A 
ATOM     64  C   UNL A   1      45.119  29.691  30.955  1.00  0.00     0.049 A 
ATOM     65  H   UNL A   1      45.379  27.969  32.132  1.00  0.00     0.167 HD
ATOM     66  C   UNL A   1      44.942  27.886  29.235  1.00  0.00     0.074 A 
ATOM     67  C   UNL A   1      44.677  26.672  30.005  1.00  0.00     0.031 C 
ATOM     68  C   UNL A   1      45.151  29.184  29.600  1.00  0.00     0.037 A 
BRANCH  55  69
ATOM     69  C   UNL A   1      43.764  27.702  34.738  1.00  0.00     0.064 A 
ATOM     70  C   UNL A   1      43.707  26.368  34.292  1.00  0.00     0.173 A 
ATOM     71  C   UNL A   1      43.919  27.868  36.133  1.00  0.00     0.173 A 
ATOM     72  F   UNL A   1      43.514  26.092  32.993  1.00  0.00    -0.203 F 
ATOM     73  C   UNL A   1      43.768  25.288  35.179  1.00  0.00     0.198 A 
ATOM     74  C   UNL A   1      44.039  26.790  37.008  1.00  0.00     0.198 A 
ATOM     75  F   UNL A   1      43.848  29.068  36.720  1.00  0.00    -0.203 F 
ATOM     76  F   UNL A   1      43.603  24.040  34.721  1.00  0.00    -0.200 F 
ATOM     77  C   UNL A   1      43.939  25.500  36.535  1.00  0.00     0.200 A 
ATOM     78  F   UNL A   1      44.175  27.019  38.322  1.00  0.00    -0.200 F 
ATOM     79  F   UNL A   1      43.955  24.470  37.391  1.00  0.00    -0.200 F 
ENDBRANCH  55  69
BRANCH  56  80
ATOM     80  C   UNL A   1      42.509  24.914  26.519  1.00  0.00     0.064 A 
ATOM     81  C   UNL A   1      43.280  24.667  25.366  1.00  0.00     0.173 A 
ATOM     82  C   UNL A   1      41.924  23.792  27.132  1.00  0.00     0.173 A 
ATOM     83  F   UNL A   1      43.894  25.681  24.737  1.00  0.00    -0.203 F 
ATOM     84  C   UNL A   1      43.515  23.371  24.901  1.00  0.00     0.198 A 
ATOM     85  C   UNL A   1      42.157  22.496  26.664  1.00  0.00     0.198 A 
ATOM     86  F   UNL A   1      41.211  23.923  28.259  1.00  0.00    -0.203 F 
ATOM     87  F   UNL A   1      44.333  23.171  23.858  1.00  0.00    -0.200 F 
ATOM     88  C   UNL A   1      42.973  22.284  25.564  1.00  0.00     0.200 A 
ATOM     89  F   UNL A   1      41.656  21.447  27.331  1.00  0.00    -0.200 F 
ATOM     90  F   UNL A   1      43.270  21.036  25.176  1.00  0.00    -0.200 F 
ENDBRANCH  56  80
BRANCH  68  91
ATOM     91  C   UNL A   1      45.237  30.199  28.487  1.00  0.00     0.064 A 
ATOM     92  C   UNL A   1      44.143  30.930  27.988  1.00  0.00     0.173 A 
ATOM     93  C   UNL A   1      46.503  30.516  27.980  1.00  0.00     0.173 A 
ATOM     94  F   UNL A   1      42.913  30.749  28.477  1.00  0.00    -0.203 F 
ATOM     95  C   UNL A   1      44.309  31.905  27.003  1.00  0.00     0.198 A 
ATOM     96  C   UNL A   1      46.671  31.514  27.024  1.00  0.00     0.198 A 
ATOM     97  F   UNL A   1      47.589  29.884  28.450  1.00  0.00    -0.203 F 
ATOM     98  F   UNL A   1      43.247  32.579  26.535  1.00  0.00    -0.200 F 
ATOM     99  C   UNL A   1      45.575  32.201  26.528  1.00  0.00     0.200 A 
ATOM    100  F   UNL A   1      47.902  31.826  26.599  1.00  0.00    -0.200 F 
ATOM    101  F   UNL A   1      45.742  33.163  25.610  1.00  0.00    -0.200 F 
ENDBRANCH  68  91
ENDBRANCH  42  43
ENDBRANCH  34  37
ENDBRANCH  32  33
ENDBRANCH  31  32
ENDBRANCH  30  31
ENDBRANCH   1  30
TORSDOF 18
ENDMDL
