MODEL 1
REMARK VINA RESULT:     -13.2      0.000      0.000
REMARK SMILES O=C(NCCCCCCNC(=O)c1ccc(-c2c3nc(c(-c4c(F)c(F)c(F)c(F)c4F)c4ccc([nH]4)c(-c4c(F)c(F)c(F)c(F)c4F)c4nc(c(-c5c(F)c(F)c(F)c(F)c5F)c5ccc2[nH]5)C=C4)C=C3)cc1)C1=Cc2cc(Cl)cc(-c3ccccc3)c2O[C@@H]1C(F)(F)F
REMARK SMILES IDX 7 1 6 2 5 3 4 4 3 5 1 6 2 7 76 9 77 10 92 11 78 12 91 13
REMARK SMILES IDX 79 14 90 15 80 16 83 17 81 18 82 19 93 20 94 21 95 22 96 23
REMARK SMILES IDX 84 24 85 25 89 26 86 27 88 28 87 29 8 30 9 31 10 32 11 33
REMARK SMILES IDX 12 35 13 36 14 37 75 38 15 39 74 40 16 41 17 42 18 43 68 44
REMARK SMILES IDX 19 45 73 46 67 47 69 48 20 49 72 50 66 51 65 52 21 54 53 55
REMARK SMILES IDX 33 56 52 57 34 58 37 59 51 60 70 61 35 62 36 63 50 65 71 66
REMARK SMILES IDX 38 67 22 68 23 69 31 70 24 71 25 72 29 73 32 74 26 75 27 76
REMARK SMILES IDX 30 77 28 78 54 79 55 80 63 81 56 82 57 83 61 84 64 85 58 86
REMARK SMILES IDX 59 87 62 88 60 89 39 90 40 91 48 92 41 93 42 94 46 95 49 96
REMARK SMILES IDX 43 97 44 98 47 99 45 100
REMARK H PARENT 3 8 10 34 69 53 37 64
REMARK Flexibility Score: inf
ROOT
ATOM      1  C   UNL A   1      31.207  28.412  23.953  1.00  0.00     0.002 C 
ENDROOT
BRANCH   1   2
ATOM      2  C   UNL A   1      30.445  27.107  23.694  1.00  0.00     0.002 C 
BRANCH   2   3
ATOM      3  C   UNL A   1      30.089  26.255  24.915  1.00  0.00     0.021 C 
BRANCH   3   4
ATOM      4  C   UNL A   1      30.989  26.403  26.144  1.00  0.00     0.116 C 
BRANCH   4   5
ATOM      5  N   UNL A   1      31.245  25.170  26.876  1.00  0.00    -0.352 N 
ATOM      6  O   UNL A   1      32.265  23.244  27.425  1.00  0.00    -0.270 OA
ATOM      7  C   UNL A   1      32.087  24.126  26.586  1.00  0.00     0.251 C 
ATOM      8  H   UNL A   1      30.733  25.069  27.711  1.00  0.00     0.163 HD
BRANCH   7   9
ATOM      9  C   UNL A   1      32.901  24.091  25.333  1.00  0.00     0.067 C 
ATOM     10  C   UNL A   1      34.225  24.291  25.350  1.00  0.00     0.025 C 
ATOM     11  C   UNL A   1      32.349  23.144  24.299  1.00  0.00     0.314 C 
ATOM     12  C   UNL A   1      35.033  23.114  25.015  1.00  0.00     0.019 A 
ATOM     13  O   UNL A   1      33.048  21.876  24.325  1.00  0.00    -0.475 OA
ATOM     14  C   UNL A   1      36.378  23.113  25.399  1.00  0.00     0.032 A 
ATOM     15  C   UNL A   1      34.382  21.909  24.667  1.00  0.00     0.135 A 
ATOM     16  C   UNL A   1      37.053  21.903  25.499  1.00  0.00     0.042 A 
ATOM     17  C   UNL A   1      35.049  20.680  24.817  1.00  0.00     0.026 A 
ATOM     18  Cl  UNL A   1      38.655  21.873  26.126  1.00  0.00    -0.084 Cl
ATOM     19  C   UNL A   1      36.400  20.703  25.221  1.00  0.00     0.033 A 
BRANCH  11  20
ATOM     20  C   UNL A   1      32.366  23.804  22.903  1.00  0.00     0.429 C 
ATOM     21  F   UNL A   1      32.932  22.995  21.976  1.00  0.00    -0.167 F 
ATOM     22  F   UNL A   1      31.111  24.081  22.468  1.00  0.00    -0.167 F 
ATOM     23  F   UNL A   1      33.052  24.972  22.882  1.00  0.00    -0.167 F 
ENDBRANCH  11  20
BRANCH  17  24
ATOM     24  C   UNL A   1      34.348  19.383  24.776  1.00  0.00    -0.015 A 
ATOM     25  C   UNL A   1      35.016  18.262  24.251  1.00  0.00     0.009 A 
ATOM     26  C   UNL A   1      33.036  19.206  25.226  1.00  0.00     0.009 A 
ATOM     27  C   UNL A   1      34.403  17.017  24.141  1.00  0.00     0.001 A 
ATOM     28  C   UNL A   1      32.412  17.955  25.118  1.00  0.00     0.001 A 
ATOM     29  C   UNL A   1      33.092  16.866  24.570  1.00  0.00     0.000 A 
ENDBRANCH  17  24
ENDBRANCH   7   9
ENDBRANCH   4   5
ENDBRANCH   3   4
ENDBRANCH   2   3
ENDBRANCH   1   2
BRANCH   1  30
ATOM     30  C   UNL A   1      32.727  28.370  23.766  1.00  0.00     0.021 C 
BRANCH  30  31
ATOM     31  C   UNL A   1      33.563  28.967  24.888  1.00  0.00     0.116 C 
BRANCH  31  32
ATOM     32  N   UNL A   1      32.941  30.154  25.453  1.00  0.00    -0.352 N 
ATOM     33  C   UNL A   1      33.178  30.832  26.625  1.00  0.00     0.251 C 
ATOM     34  H   UNL A   1      32.225  30.540  24.898  1.00  0.00     0.163 HD
ATOM     35  O   UNL A   1      32.363  31.672  26.997  1.00  0.00    -0.269 OA
BRANCH  33  36
ATOM     36  C   UNL A   1      34.384  30.577  27.453  1.00  0.00     0.039 A 
ATOM     37  C   UNL A   1      35.307  31.616  27.626  1.00  0.00     0.014 A 
ATOM     38  C   UNL A   1      34.666  29.320  27.989  1.00  0.00     0.014 A 
ATOM     39  C   UNL A   1      36.482  31.404  28.357  1.00  0.00     0.010 A 
ATOM     40  C   UNL A   1      35.788  29.133  28.797  1.00  0.00     0.010 A 
ATOM     41  C   UNL A   1      36.721  30.165  28.969  1.00  0.00    -0.014 A 
BRANCH  41  42
ATOM     42  C   UNL A   1      37.960  29.909  29.752  1.00  0.00     0.031 A 
ATOM     43  C   UNL A   1      39.016  28.984  29.209  1.00  0.00     0.074 A 
ATOM     44  C   UNL A   1      38.109  30.454  30.975  1.00  0.00     0.049 A 
ATOM     45  N   UNL A   1      40.115  28.549  29.777  1.00  0.00    -0.248 NA
ATOM     46  C   UNL A   1      38.790  28.445  27.858  1.00  0.00     0.031 C 
ATOM     47  C   UNL A   1      37.139  31.329  31.633  1.00  0.00     0.029 A 
ATOM     48  N   UNL A   1      39.128  30.339  31.888  1.00  0.00    -0.354 N 
ATOM     49  C   UNL A   1      40.693  27.675  28.865  1.00  0.00     0.074 A 
ATOM     50  C   UNL A   1      39.797  27.594  27.732  1.00  0.00     0.031 C 
ATOM     51  C   UNL A   1      37.614  31.682  32.838  1.00  0.00     0.029 A 
ATOM     52  C   UNL A   1      38.902  31.030  33.053  1.00  0.00     0.049 A 
ATOM     53  H   UNL A   1      39.941  29.809  31.724  1.00  0.00     0.167 HD
ATOM     54  C   UNL A   1      41.875  27.018  28.950  1.00  0.00     0.037 A 
ATOM     55  C   UNL A   1      39.647  31.121  34.172  1.00  0.00     0.037 A 
ATOM     56  C   UNL A   1      42.781  27.128  30.063  1.00  0.00     0.049 A 
ATOM     57  C   UNL A   1      40.965  30.399  34.238  1.00  0.00     0.074 A 
ATOM     58  C   UNL A   1      44.027  26.549  30.224  1.00  0.00     0.029 A 
ATOM     59  N   UNL A   1      42.535  27.873  31.208  1.00  0.00    -0.354 N 
ATOM     60  N   UNL A   1      41.526  29.618  33.347  1.00  0.00    -0.248 NA
ATOM     61  C   UNL A   1      41.757  30.577  35.463  1.00  0.00     0.031 C 
ATOM     62  C   UNL A   1      44.519  26.913  31.483  1.00  0.00     0.029 A 
ATOM     63  C   UNL A   1      43.600  27.757  32.086  1.00  0.00     0.049 A 
ATOM     64  H   UNL A   1      41.722  28.405  31.372  1.00  0.00     0.167 HD
ATOM     65  C   UNL A   1      42.743  29.230  33.890  1.00  0.00     0.074 A 
ATOM     66  C   UNL A   1      42.847  29.875  35.183  1.00  0.00     0.031 C 
ATOM     67  C   UNL A   1      43.688  28.410  33.367  1.00  0.00     0.037 A 
BRANCH  54  68
ATOM     68  C   UNL A   1      42.258  26.131  27.801  1.00  0.00     0.064 A 
ATOM     69  C   UNL A   1      43.090  26.585  26.765  1.00  0.00     0.173 A 
ATOM     70  C   UNL A   1      41.805  24.804  27.740  1.00  0.00     0.173 A 
ATOM     71  F   UNL A   1      43.541  27.848  26.768  1.00  0.00    -0.203 F 
ATOM     72  C   UNL A   1      43.421  25.759  25.694  1.00  0.00     0.198 A 
ATOM     73  C   UNL A   1      42.165  23.970  26.685  1.00  0.00     0.198 A 
ATOM     74  F   UNL A   1      41.014  24.314  28.706  1.00  0.00    -0.203 F 
ATOM     75  F   UNL A   1      44.166  26.235  24.688  1.00  0.00    -0.200 F 
ATOM     76  C   UNL A   1      42.964  24.451  25.658  1.00  0.00     0.200 A 
ATOM     77  F   UNL A   1      41.733  22.700  26.657  1.00  0.00    -0.200 F 
ATOM     78  F   UNL A   1      43.285  23.656  24.628  1.00  0.00    -0.200 F 
ENDBRANCH  54  68
BRANCH  55  79
ATOM     79  C   UNL A   1      39.169  31.951  35.308  1.00  0.00     0.064 A 
ATOM     80  C   UNL A   1      39.429  33.327  35.355  1.00  0.00     0.173 A 
ATOM     81  C   UNL A   1      38.433  31.389  36.361  1.00  0.00     0.173 A 
ATOM     82  F   UNL A   1      40.146  33.906  34.380  1.00  0.00    -0.203 F 
ATOM     83  C   UNL A   1      38.983  34.108  36.418  1.00  0.00     0.198 A 
ATOM     84  C   UNL A   1      37.964  32.176  37.411  1.00  0.00     0.198 A 
ATOM     85  F   UNL A   1      38.153  30.078  36.361  1.00  0.00    -0.203 F 
ATOM     86  F   UNL A   1      39.278  35.415  36.456  1.00  0.00    -0.200 F 
ATOM     87  C   UNL A   1      38.245  33.533  37.442  1.00  0.00     0.200 A 
ATOM     88  F   UNL A   1      37.239  31.620  38.391  1.00  0.00    -0.200 F 
ATOM     89  F   UNL A   1      37.809  34.288  38.461  1.00  0.00    -0.200 F 
ENDBRANCH  55  79
BRANCH  67  90
ATOM     90  C   UNL A   1      44.929  28.188  34.179  1.00  0.00     0.064 A 
ATOM     91  C   UNL A   1      46.053  29.016  34.046  1.00  0.00     0.173 A 
ATOM     92  C   UNL A   1      44.978  27.159  35.132  1.00  0.00     0.173 A 
ATOM     93  F   UNL A   1      46.059  30.004  33.139  1.00  0.00    -0.203 F 
ATOM     94  C   UNL A   1      47.190  28.808  34.823  1.00  0.00     0.198 A 
ATOM     95  C   UNL A   1      46.106  26.971  35.925  1.00  0.00     0.198 A 
ATOM     96  F   UNL A   1      43.927  26.342  35.302  1.00  0.00    -0.203 F 
ATOM     97  F   UNL A   1      48.269  29.584  34.648  1.00  0.00    -0.200 F 
ATOM     98  C   UNL A   1      47.214  27.791  35.766  1.00  0.00     0.200 A 
ATOM     99  F   UNL A   1      46.124  25.996  36.844  1.00  0.00    -0.200 F 
ATOM    100  F   UNL A   1      48.307  27.596  36.515  1.00  0.00    -0.200 F 
ENDBRANCH  67  90
ENDBRANCH  41  42
ENDBRANCH  33  36
ENDBRANCH  31  32
ENDBRANCH  30  31
ENDBRANCH   1  30
TORSDOF 15
ENDMDL
MODEL 2
REMARK VINA RESULT:     -13.2      2.997      7.826
REMARK SMILES O=C(NCCCCCCNC(=O)c1ccc(-c2c3nc(c(-c4c(F)c(F)c(F)c(F)c4F)c4ccc([nH]4)c(-c4c(F)c(F)c(F)c(F)c4F)c4nc(c(-c5c(F)c(F)c(F)c(F)c5F)c5ccc2[nH]5)C=C4)C=C3)cc1)C1=Cc2cc(Cl)cc(-c3ccccc3)c2O[C@@H]1C(F)(F)F
REMARK SMILES IDX 7 1 6 2 5 3 4 4 3 5 1 6 2 7 76 9 77 10 92 11 78 12 91 13
REMARK SMILES IDX 79 14 90 15 80 16 83 17 81 18 82 19 93 20 94 21 95 22 96 23
REMARK SMILES IDX 84 24 85 25 89 26 86 27 88 28 87 29 8 30 9 31 10 32 11 33
REMARK SMILES IDX 12 35 13 36 14 37 75 38 15 39 74 40 16 41 17 42 18 43 68 44
REMARK SMILES IDX 19 45 73 46 67 47 69 48 20 49 72 50 66 51 65 52 21 54 53 55
REMARK SMILES IDX 33 56 52 57 34 58 37 59 51 60 70 61 35 62 36 63 50 65 71 66
REMARK SMILES IDX 38 67 22 68 23 69 31 70 24 71 25 72 29 73 32 74 26 75 27 76
REMARK SMILES IDX 30 77 28 78 54 79 55 80 63 81 56 82 57 83 61 84 64 85 58 86
REMARK SMILES IDX 59 87 62 88 60 89 39 90 40 91 48 92 41 93 42 94 46 95 49 96
REMARK SMILES IDX 43 97 44 98 47 99 45 100
REMARK H PARENT 3 8 10 34 69 53 37 64
REMARK Flexibility Score: inf
ROOT
ATOM      1  C   UNL A   1      31.870  29.539  24.997  1.00  0.00     0.002 C 
ENDROOT
BRANCH   1   2
ATOM      2  C   UNL A   1      30.720  28.890  24.217  1.00  0.00     0.002 C 
BRANCH   2   3
ATOM      3  C   UNL A   1      30.933  28.674  22.716  1.00  0.00     0.021 C 
BRANCH   3   4
ATOM      4  C   UNL A   1      30.767  27.245  22.195  1.00  0.00     0.116 C 
BRANCH   4   5
ATOM      5  N   UNL A   1      32.003  26.584  21.797  1.00  0.00    -0.352 N 
ATOM      6  O   UNL A   1      33.616  25.019  21.770  1.00  0.00    -0.270 OA
ATOM      7  C   UNL A   1      32.660  25.518  22.360  1.00  0.00     0.251 C 
ATOM      8  H   UNL A   1      32.436  26.961  20.997  1.00  0.00     0.163 HD
BRANCH   7   9
ATOM      9  C   UNL A   1      32.170  24.858  23.609  1.00  0.00     0.067 C 
ATOM     10  C   UNL A   1      31.635  23.631  23.589  1.00  0.00     0.025 C 
ATOM     11  C   UNL A   1      32.948  25.264  24.833  1.00  0.00     0.314 C 
ATOM     12  C   UNL A   1      32.436  22.596  24.252  1.00  0.00     0.019 A 
ATOM     13  O   UNL A   1      33.951  24.274  25.169  1.00  0.00    -0.475 OA
ATOM     14  C   UNL A   1      32.172  21.260  23.933  1.00  0.00     0.032 A 
ATOM     15  C   UNL A   1      33.647  22.961  24.880  1.00  0.00     0.135 A 
ATOM     16  C   UNL A   1      33.144  20.300  24.180  1.00  0.00     0.042 A 
ATOM     17  C   UNL A   1      34.652  21.998  25.083  1.00  0.00     0.026 A 
ATOM     18  Cl  UNL A   1      32.899  18.683  23.644  1.00  0.00    -0.084 Cl
ATOM     19  C   UNL A   1      34.370  20.661  24.739  1.00  0.00     0.033 A 
BRANCH  11  20
ATOM     20  C   UNL A   1      31.988  25.557  26.007  1.00  0.00     0.429 C 
ATOM     21  F   UNL A   1      32.452  26.557  26.793  1.00  0.00    -0.167 F 
ATOM     22  F   UNL A   1      30.764  25.941  25.565  1.00  0.00    -0.167 F 
ATOM     23  F   UNL A   1      31.792  24.481  26.808  1.00  0.00    -0.167 F 
ENDBRANCH  11  20
BRANCH  17  24
ATOM     24  C   UNL A   1      36.039  22.357  25.437  1.00  0.00    -0.015 A 
ATOM     25  C   UNL A   1      37.054  21.397  25.277  1.00  0.00     0.009 A 
ATOM     26  C   UNL A   1      36.403  23.610  25.939  1.00  0.00     0.009 A 
ATOM     27  C   UNL A   1      38.377  21.649  25.630  1.00  0.00     0.001 A 
ATOM     28  C   UNL A   1      37.732  23.871  26.298  1.00  0.00     0.001 A 
ATOM     29  C   UNL A   1      38.715  22.891  26.151  1.00  0.00     0.000 A 
ENDBRANCH  17  24
ENDBRANCH   7   9
ENDBRANCH   4   5
ENDBRANCH   3   4
ENDBRANCH   2   3
ENDBRANCH   1   2
BRANCH   1  30
ATOM     30  C   UNL A   1      33.270  28.961  24.766  1.00  0.00     0.021 C 
BRANCH  30  31
ATOM     31  C   UNL A   1      34.220  28.996  25.954  1.00  0.00     0.116 C 
BRANCH  31  32
ATOM     32  N   UNL A   1      33.997  30.165  26.790  1.00  0.00    -0.352 N 
ATOM     33  C   UNL A   1      34.704  30.665  27.857  1.00  0.00     0.251 C 
ATOM     34  H   UNL A   1      33.200  30.691  26.548  1.00  0.00     0.163 HD
ATOM     35  O   UNL A   1      34.187  31.536  28.552  1.00  0.00    -0.269 OA
BRANCH  33  36
ATOM     36  C   UNL A   1      36.067  30.184  28.194  1.00  0.00     0.039 A 
ATOM     37  C   UNL A   1      36.283  29.615  29.456  1.00  0.00     0.014 A 
ATOM     38  C   UNL A   1      37.152  30.357  27.332  1.00  0.00     0.014 A 
ATOM     39  C   UNL A   1      37.563  29.194  29.833  1.00  0.00     0.010 A 
ATOM     40  C   UNL A   1      38.408  29.853  27.669  1.00  0.00     0.010 A 
ATOM     41  C   UNL A   1      38.634  29.289  28.932  1.00  0.00    -0.014 A 
BRANCH  41  42
ATOM     42  C   UNL A   1      40.006  28.851  29.304  1.00  0.00     0.031 A 
ATOM     43  C   UNL A   1      40.886  29.750  30.131  1.00  0.00     0.074 A 
ATOM     44  C   UNL A   1      40.485  27.677  28.848  1.00  0.00     0.049 A 
ATOM     45  N   UNL A   1      42.142  29.601  30.474  1.00  0.00    -0.248 NA
ATOM     46  C   UNL A   1      40.282  31.005  30.609  1.00  0.00     0.031 C 
ATOM     47  C   UNL A   1      39.751  26.737  28.001  1.00  0.00     0.029 A 
ATOM     48  N   UNL A   1      41.711  27.083  29.021  1.00  0.00    -0.354 N 
ATOM     49  C   UNL A   1      42.480  30.747  31.182  1.00  0.00     0.074 A 
ATOM     50  C   UNL A   1      41.318  31.608  31.172  1.00  0.00     0.031 C 
ATOM     51  C   UNL A   1      40.535  25.679  27.739  1.00  0.00     0.029 A 
ATOM     52  C   UNL A   1      41.837  25.882  28.367  1.00  0.00     0.049 A 
ATOM     53  H   UNL A   1      42.431  27.481  29.562  1.00  0.00     0.167 HD
ATOM     54  C   UNL A   1      43.644  31.045  31.808  1.00  0.00     0.037 A 
ATOM     55  C   UNL A   1      42.887  25.043  28.277  1.00  0.00     0.037 A 
ATOM     56  C   UNL A   1      44.787  30.172  31.846  1.00  0.00     0.049 A 
ATOM     57  C   UNL A   1      44.164  25.386  28.995  1.00  0.00     0.074 A 
ATOM     58  C   UNL A   1      45.994  30.354  32.498  1.00  0.00     0.029 A 
ATOM     59  N   UNL A   1      44.861  28.943  31.205  1.00  0.00    -0.354 N 
ATOM     60  N   UNL A   1      44.454  26.448  29.707  1.00  0.00    -0.248 NA
ATOM     61  C   UNL A   1      45.258  24.409  28.903  1.00  0.00     0.031 C 
ATOM     62  C   UNL A   1      46.812  29.253  32.220  1.00  0.00     0.029 A 
ATOM     63  C   UNL A   1      46.098  28.363  31.434  1.00  0.00     0.049 A 
ATOM     64  H   UNL A   1      44.140  28.543  30.666  1.00  0.00     0.167 HD
ATOM     65  C   UNL A   1      45.751  26.259  30.166  1.00  0.00     0.074 A 
ATOM     66  C   UNL A   1      46.186  24.971  29.665  1.00  0.00     0.031 C 
ATOM     67  C   UNL A   1      46.513  27.078  30.931  1.00  0.00     0.037 A 
BRANCH  54  68
ATOM     68  C   UNL A   1      43.733  32.370  32.511  1.00  0.00     0.064 A 
ATOM     69  C   UNL A   1      43.352  32.518  33.854  1.00  0.00     0.173 A 
ATOM     70  C   UNL A   1      44.219  33.503  31.842  1.00  0.00     0.173 A 
ATOM     71  F   UNL A   1      42.869  31.469  34.537  1.00  0.00    -0.203 F 
ATOM     72  C   UNL A   1      43.419  33.756  34.488  1.00  0.00     0.198 A 
ATOM     73  C   UNL A   1      44.316  34.733  32.488  1.00  0.00     0.198 A 
ATOM     74  F   UNL A   1      44.604  33.419  30.559  1.00  0.00    -0.203 F 
ATOM     75  F   UNL A   1      42.993  33.884  35.752  1.00  0.00    -0.200 F 
ATOM     76  C   UNL A   1      43.907  34.860  33.807  1.00  0.00     0.200 A 
ATOM     77  F   UNL A   1      44.801  35.798  31.833  1.00  0.00    -0.200 F 
ATOM     78  F   UNL A   1      43.973  36.051  34.419  1.00  0.00    -0.200 F 
ENDBRANCH  54  68
BRANCH  55  79
ATOM     79  C   UNL A   1      42.761  23.787  27.495  1.00  0.00     0.064 A 
ATOM     80  C   UNL A   1      43.142  23.736  26.147  1.00  0.00     0.173 A 
ATOM     81  C   UNL A   1      42.272  22.610  28.080  1.00  0.00     0.173 A 
ATOM     82  F   UNL A   1      43.596  24.842  25.538  1.00  0.00    -0.203 F 
ATOM     83  C   UNL A   1      43.025  22.561  25.409  1.00  0.00     0.198 A 
ATOM     84  C   UNL A   1      42.182  21.427  27.349  1.00  0.00     0.198 A 
ATOM     85  F   UNL A   1      41.900  22.604  29.367  1.00  0.00    -0.203 F 
ATOM     86  F   UNL A   1      43.361  22.550  24.112  1.00  0.00    -0.200 F 
ATOM     87  C   UNL A   1      42.552  21.405  26.013  1.00  0.00     0.200 A 
ATOM     88  F   UNL A   1      41.738  20.309  27.939  1.00  0.00    -0.200 F 
ATOM     89  F   UNL A   1      42.448  20.271  25.305  1.00  0.00    -0.200 F 
ENDBRANCH  55  79
BRANCH  67  90
ATOM     90  C   UNL A   1      47.885  26.596  31.297  1.00  0.00     0.064 A 
ATOM     91  C   UNL A   1      48.103  25.783  32.418  1.00  0.00     0.173 A 
ATOM     92  C   UNL A   1      48.988  26.918  30.492  1.00  0.00     0.173 A 
ATOM     93  F   UNL A   1      47.082  25.460  33.226  1.00  0.00    -0.203 F 
ATOM     94  C   UNL A   1      49.381  25.327  32.733  1.00  0.00     0.198 A 
ATOM     95  C   UNL A   1      50.259  26.438  30.794  1.00  0.00     0.198 A 
ATOM     96  F   UNL A   1      48.832  27.688  29.405  1.00  0.00    -0.203 F 
ATOM     97  F   UNL A   1      49.574  24.587  33.834  1.00  0.00    -0.200 F 
ATOM     98  C   UNL A   1      50.456  25.649  31.917  1.00  0.00     0.200 A 
ATOM     99  F   UNL A   1      51.295  26.739  29.999  1.00  0.00    -0.200 F 
ATOM    100  F   UNL A   1      51.683  25.204  32.219  1.00  0.00    -0.200 F 
ENDBRANCH  67  90
ENDBRANCH  41  42
ENDBRANCH  33  36
ENDBRANCH  31  32
ENDBRANCH  30  31
ENDBRANCH   1  30
TORSDOF 15
ENDMDL
MODEL 3
REMARK VINA RESULT:     -13.1      2.974      7.754
REMARK SMILES O=C(NCCCCCCNC(=O)c1ccc(-c2c3nc(c(-c4c(F)c(F)c(F)c(F)c4F)c4ccc([nH]4)c(-c4c(F)c(F)c(F)c(F)c4F)c4nc(c(-c5c(F)c(F)c(F)c(F)c5F)c5ccc2[nH]5)C=C4)C=C3)cc1)C1=Cc2cc(Cl)cc(-c3ccccc3)c2O[C@@H]1C(F)(F)F
REMARK SMILES IDX 7 1 6 2 5 3 4 4 3 5 1 6 2 7 76 9 77 10 92 11 78 12 91 13
REMARK SMILES IDX 79 14 90 15 80 16 83 17 81 18 82 19 93 20 94 21 95 22 96 23
REMARK SMILES IDX 84 24 85 25 89 26 86 27 88 28 87 29 8 30 9 31 10 32 11 33
REMARK SMILES IDX 12 35 13 36 14 37 75 38 15 39 74 40 16 41 17 42 18 43 68 44
REMARK SMILES IDX 19 45 73 46 67 47 69 48 20 49 72 50 66 51 65 52 21 54 53 55
REMARK SMILES IDX 33 56 52 57 34 58 37 59 51 60 70 61 35 62 36 63 50 65 71 66
REMARK SMILES IDX 38 67 22 68 23 69 31 70 24 71 25 72 29 73 32 74 26 75 27 76
REMARK SMILES IDX 30 77 28 78 54 79 55 80 63 81 56 82 57 83 61 84 64 85 58 86
REMARK SMILES IDX 59 87 62 88 60 89 39 90 40 91 48 92 41 93 42 94 46 95 49 96
REMARK SMILES IDX 43 97 44 98 47 99 45 100
REMARK H PARENT 3 8 10 34 69 53 37 64
REMARK Flexibility Score: inf
ROOT
ATOM      1  C   UNL A   1      34.006  27.918  24.007  1.00  0.00     0.002 C 
ENDROOT
BRANCH   1   2
ATOM      2  C   UNL A   1      33.304  27.901  22.644  1.00  0.00     0.002 C 
BRANCH   2   3
ATOM      3  C   UNL A   1      31.789  27.678  22.645  1.00  0.00     0.021 C 
BRANCH   3   4
ATOM      4  C   UNL A   1      31.278  26.416  21.945  1.00  0.00     0.116 C 
BRANCH   4   5
ATOM      5  N   UNL A   1      32.314  25.534  21.425  1.00  0.00    -0.352 N 
ATOM      6  O   UNL A   1      33.586  23.690  21.244  1.00  0.00    -0.270 OA
ATOM      7  C   UNL A   1      32.812  24.358  21.928  1.00  0.00     0.251 C 
ATOM      8  H   UNL A   1      32.723  25.829  20.579  1.00  0.00     0.163 HD
BRANCH   7   9
ATOM      9  C   UNL A   1      32.341  23.793  23.229  1.00  0.00     0.067 C 
ATOM     10  C   UNL A   1      31.953  22.516  23.340  1.00  0.00     0.025 C 
ATOM     11  C   UNL A   1      33.007  24.429  24.421  1.00  0.00     0.314 C 
ATOM     12  C   UNL A   1      32.835  21.669  24.150  1.00  0.00     0.019 A 
ATOM     13  O   UNL A   1      34.100  23.612  24.908  1.00  0.00    -0.475 OA
ATOM     14  C   UNL A   1      32.742  20.284  23.986  1.00  0.00     0.032 A 
ATOM     15  C   UNL A   1      33.965  22.248  24.771  1.00  0.00     0.135 A 
ATOM     16  C   UNL A   1      33.806  19.482  24.381  1.00  0.00     0.042 A 
ATOM     17  C   UNL A   1      35.063  21.443  25.123  1.00  0.00     0.026 A 
ATOM     18  Cl  UNL A   1      33.775  17.797  24.036  1.00  0.00    -0.084 Cl
ATOM     19  C   UNL A   1      34.953  20.051  24.934  1.00  0.00     0.033 A 
BRANCH  11  20
ATOM     20  C   UNL A   1      31.964  24.739  25.517  1.00  0.00     0.429 C 
ATOM     21  F   UNL A   1      30.947  25.494  25.038  1.00  0.00    -0.167 F 
ATOM     22  F   UNL A   1      31.410  23.605  26.013  1.00  0.00    -0.167 F 
ATOM     23  F   UNL A   1      32.492  25.408  26.572  1.00  0.00    -0.167 F 
ENDBRANCH  11  20
BRANCH  17  24
ATOM     24  C   UNL A   1      36.380  22.005  25.478  1.00  0.00    -0.015 A 
ATOM     25  C   UNL A   1      37.514  21.174  25.420  1.00  0.00     0.009 A 
ATOM     26  C   UNL A   1      36.565  23.329  25.885  1.00  0.00     0.009 A 
ATOM     27  C   UNL A   1      38.782  21.622  25.781  1.00  0.00     0.001 A 
ATOM     28  C   UNL A   1      37.838  23.787  26.251  1.00  0.00     0.001 A 
ATOM     29  C   UNL A   1      38.941  22.933  26.207  1.00  0.00     0.000 A 
ENDBRANCH  17  24
ENDBRANCH   7   9
ENDBRANCH   4   5
ENDBRANCH   3   4
ENDBRANCH   2   3
ENDBRANCH   1   2
BRANCH   1  30
ATOM     30  C   UNL A   1      33.160  28.344  25.211  1.00  0.00     0.021 C 
BRANCH  30  31
ATOM     31  C   UNL A   1      33.893  28.480  26.538  1.00  0.00     0.116 C 
BRANCH  31  32
ATOM     32  N   UNL A   1      33.768  29.819  27.090  1.00  0.00    -0.352 N 
ATOM     33  C   UNL A   1      34.583  30.532  27.935  1.00  0.00     0.251 C 
ATOM     34  H   UNL A   1      32.955  30.300  26.808  1.00  0.00     0.163 HD
ATOM     35  O   UNL A   1      34.149  31.558  28.451  1.00  0.00    -0.269 OA
BRANCH  33  36
ATOM     36  C   UNL A   1      35.969  30.097  28.245  1.00  0.00     0.039 A 
ATOM     37  C   UNL A   1      36.238  29.576  29.517  1.00  0.00     0.014 A 
ATOM     38  C   UNL A   1      37.022  30.271  27.345  1.00  0.00     0.014 A 
ATOM     39  C   UNL A   1      37.540  29.201  29.868  1.00  0.00     0.010 A 
ATOM     40  C   UNL A   1      38.301  29.810  27.659  1.00  0.00     0.010 A 
ATOM     41  C   UNL A   1      38.580  29.294  28.931  1.00  0.00    -0.014 A 
BRANCH  41  42
ATOM     42  C   UNL A   1      39.974  28.904  29.274  1.00  0.00     0.031 A 
ATOM     43  C   UNL A   1      40.845  29.842  30.066  1.00  0.00     0.074 A 
ATOM     44  C   UNL A   1      40.479  27.740  28.822  1.00  0.00     0.049 A 
ATOM     45  N   UNL A   1      42.114  29.737  30.379  1.00  0.00    -0.248 NA
ATOM     46  C   UNL A   1      40.215  31.084  30.543  1.00  0.00     0.031 C 
ATOM     47  C   UNL A   1      39.754  26.766  28.006  1.00  0.00     0.029 A 
ATOM     48  N   UNL A   1      41.727  27.187  28.972  1.00  0.00    -0.354 N 
ATOM     49  C   UNL A   1      42.433  30.903  31.064  1.00  0.00     0.074 A 
ATOM     50  C   UNL A   1      41.245  31.727  31.071  1.00  0.00     0.031 C 
ATOM     51  C   UNL A   1      40.564  25.729  27.738  1.00  0.00     0.029 A 
ATOM     52  C   UNL A   1      41.874  25.982  28.330  1.00  0.00     0.049 A 
ATOM     53  H   UNL A   1      42.447  27.615  29.488  1.00  0.00     0.167 HD
ATOM     54  C   UNL A   1      43.603  31.246  31.655  1.00  0.00     0.037 A 
ATOM     55  C   UNL A   1      42.948  25.175  28.225  1.00  0.00     0.037 A 
ATOM     56  C   UNL A   1      44.773  30.409  31.676  1.00  0.00     0.049 A 
ATOM     57  C   UNL A   1      44.231  25.567  28.905  1.00  0.00     0.074 A 
ATOM     58  C   UNL A   1      45.990  30.639  32.295  1.00  0.00     0.029 A 
ATOM     59  N   UNL A   1      44.870  29.175  31.050  1.00  0.00    -0.354 N 
ATOM     60  N   UNL A   1      44.505  26.647  29.596  1.00  0.00    -0.248 NA
ATOM     61  C   UNL A   1      45.352  24.624  28.799  1.00  0.00     0.031 C 
ATOM     62  C   UNL A   1      46.835  29.560  32.010  1.00  0.00     0.029 A 
ATOM     63  C   UNL A   1      46.130  28.637  31.255  1.00  0.00     0.049 A 
ATOM     64  H   UNL A   1      44.149  28.745  30.535  1.00  0.00     0.167 HD
ATOM     65  C   UNL A   1      45.818  26.505  30.024  1.00  0.00     0.074 A 
ATOM     66  C   UNL A   1      46.281  25.225  29.530  1.00  0.00     0.031 C 
ATOM     67  C   UNL A   1      46.572  27.359  30.758  1.00  0.00     0.037 A 
BRANCH  54  68
ATOM     68  C   UNL A   1      43.667  32.583  32.338  1.00  0.00     0.064 A 
ATOM     69  C   UNL A   1      44.072  33.740  31.654  1.00  0.00     0.173 A 
ATOM     70  C   UNL A   1      43.303  32.715  33.687  1.00  0.00     0.173 A 
ATOM     71  F   UNL A   1      44.442  33.668  30.367  1.00  0.00    -0.203 F 
ATOM     72  C   UNL A   1      44.147  34.969  32.304  1.00  0.00     0.198 A 
ATOM     73  C   UNL A   1      43.348  33.952  34.325  1.00  0.00     0.198 A 
ATOM     74  F   UNL A   1      42.901  31.644  34.387  1.00  0.00    -0.203 F 
ATOM     75  F   UNL A   1      44.595  36.047  31.646  1.00  0.00    -0.200 F 
ATOM     76  C   UNL A   1      43.780  35.076  33.637  1.00  0.00     0.200 A 
ATOM     77  F   UNL A   1      42.980  34.056  35.610  1.00  0.00    -0.200 F 
ATOM     78  F   UNL A   1      43.851  36.260  34.261  1.00  0.00    -0.200 F 
ENDBRANCH  54  68
BRANCH  55  79
ATOM     79  C   UNL A   1      42.842  23.904  27.462  1.00  0.00     0.064 A 
ATOM     80  C   UNL A   1      42.370  22.734  28.074  1.00  0.00     0.173 A 
ATOM     81  C   UNL A   1      43.194  23.836  26.107  1.00  0.00     0.173 A 
ATOM     82  F   UNL A   1      42.039  22.746  29.374  1.00  0.00    -0.203 F 
ATOM     83  C   UNL A   1      42.269  21.541  27.363  1.00  0.00     0.198 A 
ATOM     84  C   UNL A   1      43.067  22.648  25.390  1.00  0.00     0.198 A 
ATOM     85  F   UNL A   1      43.645  24.928  25.474  1.00  0.00    -0.203 F 
ATOM     86  F   UNL A   1      41.851  20.429  27.982  1.00  0.00    -0.200 F 
ATOM     87  C   UNL A   1      42.611  21.500  26.019  1.00  0.00     0.200 A 
ATOM     88  F   UNL A   1      43.384  22.616  24.088  1.00  0.00    -0.200 F 
ATOM     89  F   UNL A   1      42.504  20.354  25.334  1.00  0.00    -0.200 F 
ENDBRANCH  55  79
BRANCH  67  90
ATOM     90  C   UNL A   1      47.968  26.925  31.096  1.00  0.00     0.064 A 
ATOM     91  C   UNL A   1      49.068  27.319  30.321  1.00  0.00     0.173 A 
ATOM     92  C   UNL A   1      48.210  26.139  32.233  1.00  0.00     0.173 A 
ATOM     93  F   UNL A   1      48.885  28.059  29.217  1.00  0.00    -0.203 F 
ATOM     94  C   UNL A   1      50.359  26.923  30.660  1.00  0.00     0.198 A 
ATOM     95  C   UNL A   1      49.505  25.768  32.584  1.00  0.00     0.198 A 
ATOM     96  F   UNL A   1      47.192  25.739  33.010  1.00  0.00    -0.203 F 
ATOM     97  F   UNL A   1      51.392  27.275  29.881  1.00  0.00    -0.200 F 
ATOM     98  C   UNL A   1      50.578  26.154  31.794  1.00  0.00     0.200 A 
ATOM     99  F   UNL A   1      49.716  25.035  33.686  1.00  0.00    -0.200 F 
ATOM    100  F   UNL A   1      51.821  25.780  32.121  1.00  0.00    -0.200 F 
ENDBRANCH  67  90
ENDBRANCH  41  42
ENDBRANCH  33  36
ENDBRANCH  31  32
ENDBRANCH  30  31
ENDBRANCH   1  30
TORSDOF 15
ENDMDL
