MODEL 1
REMARK VINA RESULT:     -11.0      0.000      0.000
REMARK SMILES Cn1cc(SCC[C@H]2CCC[C@]2([NH2+]C2CC2)C(=O)NCCCCCCNC(=O)c2ccc(-c3c4nc(c(-c5c(F)c(F)c(F)c(F)c5F)c5ccc([nH]5)c(-c5c(F)c(F)c(F)c(F)c5F)c5nc(c(-c6c(F)c(F)c(F)c(F)c6F)c6ccc3[nH]6)C=C5)C=C4)cc2)cn1
REMARK SMILES IDX 21 1 20 2 19 3 17 4 18 5 12 7 8 8 9 9 10 10 11 11 7 12 6 13
REMARK SMILES IDX 5 14 4 15 1 16 2 17 3 18 93 19 92 20 13 21 14 24 15 25 16 26
REMARK SMILES IDX 22 27 23 28 24 29 25 30 26 31 27 32 28 34 29 35 30 36 91 37
REMARK SMILES IDX 31 38 90 39 32 40 33 41 34 42 84 43 35 44 89 45 83 46 85 47
REMARK SMILES IDX 36 48 88 49 82 50 81 51 37 53 69 54 49 55 68 56 50 57 53 58
REMARK SMILES IDX 67 59 86 60 51 61 52 62 66 64 87 65 54 66 38 67 39 68 47 69
REMARK SMILES IDX 40 70 41 71 45 72 48 73 42 74 43 75 46 76 44 77 70 78 71 79
REMARK SMILES IDX 79 80 72 81 73 82 77 83 80 84 74 85 75 86 78 87 76 88 55 89
REMARK SMILES IDX 56 90 64 91 57 92 58 93 62 94 65 95 59 96 60 97 63 98 61 99
REMARK H PARENT 19 6 13 22 13 23 26 33 85 52 53 63
REMARK Flexibility Score: inf
ROOT
ATOM      1  C   UNL A   1      33.475  21.676  26.057  1.00  0.00     0.021 C 
ENDROOT
BRANCH   1   2
ATOM      2  C   UNL A   1      33.239  23.060  26.667  1.00  0.00     0.116 C 
BRANCH   2   3
ATOM      3  N   UNL A   1      31.826  23.301  26.913  1.00  0.00    -0.351 N 
ATOM      4  C   UNL A   1      31.030  24.346  26.520  1.00  0.00     0.281 C 
ATOM      5  O   UNL A   1      29.861  24.345  26.921  1.00  0.00    -0.268 OA
ATOM      6  H   UNL A   1      31.371  22.608  27.444  1.00  0.00     0.163 HD
BRANCH   4   7
ATOM      7  C   UNL A   1      31.618  25.528  25.669  1.00  0.00     0.178 C 
ATOM      8  C   UNL A   1      30.416  26.002  24.760  1.00  0.00     0.061 C 
ATOM      9  C   UNL A   1      30.485  24.951  23.647  1.00  0.00     0.011 C 
ATOM     10  C   UNL A   1      31.927  24.613  23.392  1.00  0.00     0.008 C 
ATOM     11  C   UNL A   1      32.666  25.083  24.620  1.00  0.00     0.079 C 
BRANCH   8  12
ATOM     12  C   UNL A   1      30.402  27.442  24.217  1.00  0.00     0.022 C 
BRANCH  12  13
ATOM     13  C   UNL A   1      29.534  27.717  22.957  1.00  0.00     0.075 C 
BRANCH  13  14
ATOM     14  S   UNL A   1      27.907  28.535  23.091  1.00  0.00    -0.123 SA
BRANCH  14  15
ATOM     15  C   UNL A   1      28.013  30.185  22.548  1.00  0.00     0.045 A 
ATOM     16  C   UNL A   1      27.645  32.989  20.396  1.00  0.00     0.173 C 
ATOM     17  N   UNL A   1      27.999  32.085  21.467  1.00  0.00    -0.275 N 
ATOM     18  C   UNL A   1      28.373  30.768  21.354  1.00  0.00     0.123 A 
ATOM     19  N   UNL A   1      27.799  32.456  22.744  1.00  0.00    -0.181 NA
ATOM     20  C   UNL A   1      27.815  31.292  23.401  1.00  0.00     0.150 A 
ENDBRANCH  14  15
ENDBRANCH  13  14
ENDBRANCH  12  13
ENDBRANCH   8  12
BRANCH   7  21
ATOM     21  N   UNL A   1      32.270  26.500  26.576  1.00  0.00    -0.331 N 
ATOM     22  H   UNL A   1      32.506  25.998  27.432  1.00  0.00     0.347 HD
ATOM     23  H   UNL A   1      31.587  27.252  26.663  1.00  0.00     0.347 HD
BRANCH  21  24
ATOM     24  C   UNL A   1      33.508  27.194  26.122  1.00  0.00     0.183 C 
ATOM     25  C   UNL A   1      33.609  28.577  25.529  1.00  0.00     0.071 C 
ATOM     26  C   UNL A   1      34.088  28.335  26.928  1.00  0.00     0.071 C 
ENDBRANCH  21  24
ENDBRANCH   7  21
ENDBRANCH   4   7
ENDBRANCH   2   3
ENDBRANCH   1   2
BRANCH   1  27
ATOM     27  C   UNL A   1      34.018  21.689  24.623  1.00  0.00     0.002 C 
BRANCH  27  28
ATOM     28  C   UNL A   1      35.537  21.848  24.499  1.00  0.00     0.002 C 
BRANCH  28  29
ATOM     29  C   UNL A   1      36.029  23.278  24.264  1.00  0.00     0.021 C 
BRANCH  29  30
ATOM     30  C   UNL A   1      37.038  23.791  25.287  1.00  0.00     0.116 C 
BRANCH  30  31
ATOM     31  N   UNL A   1      38.093  22.826  25.558  1.00  0.00    -0.352 N 
ATOM     32  C   UNL A   1      39.306  23.006  26.162  1.00  0.00     0.251 C 
ATOM     33  H   UNL A   1      37.905  21.906  25.261  1.00  0.00     0.163 HD
ATOM     34  O   UNL A   1      40.145  22.097  26.139  1.00  0.00    -0.269 OA
BRANCH  32  35
ATOM     35  C   UNL A   1      39.639  24.283  26.828  1.00  0.00     0.039 A 
ATOM     36  C   UNL A   1      39.234  24.476  28.152  1.00  0.00     0.014 A 
ATOM     37  C   UNL A   1      40.317  25.302  26.151  1.00  0.00     0.014 A 
ATOM     38  C   UNL A   1      39.548  25.666  28.810  1.00  0.00     0.010 A 
ATOM     39  C   UNL A   1      40.694  26.460  26.831  1.00  0.00     0.010 A 
ATOM     40  C   UNL A   1      40.305  26.657  28.165  1.00  0.00    -0.014 A 
BRANCH  40  41
ATOM     41  C   UNL A   1      40.690  27.903  28.880  1.00  0.00     0.031 A 
ATOM     42  C   UNL A   1      42.094  28.092  29.385  1.00  0.00     0.074 A 
ATOM     43  C   UNL A   1      39.760  28.851  29.104  1.00  0.00     0.049 A 
ATOM     44  N   UNL A   1      42.615  29.112  30.023  1.00  0.00    -0.248 NA
ATOM     45  C   UNL A   1      43.033  26.980  29.170  1.00  0.00     0.031 C 
ATOM     46  C   UNL A   1      38.351  28.761  28.716  1.00  0.00     0.029 A 
ATOM     47  N   UNL A   1      39.858  30.078  29.712  1.00  0.00    -0.354 N 
ATOM     48  C   UNL A   1      43.930  28.758  30.295  1.00  0.00     0.074 A 
ATOM     49  C   UNL A   1      44.117  27.412  29.800  1.00  0.00     0.031 C 
ATOM     50  C   UNL A   1      37.725  29.896  29.065  1.00  0.00     0.029 A 
ATOM     51  C   UNL A   1      38.678  30.781  29.729  1.00  0.00     0.049 A 
ATOM     52  H   UNL A   1      40.695  30.422  30.101  1.00  0.00     0.167 HD
ATOM     53  C   UNL A   1      44.900  29.499  30.883  1.00  0.00     0.037 A 
ATOM     54  C   UNL A   1      38.398  32.003  30.220  1.00  0.00     0.037 A 
ATOM     55  C   UNL A   1      44.720  30.851  31.345  1.00  0.00     0.049 A 
ATOM     56  C   UNL A   1      39.500  32.808  30.853  1.00  0.00     0.074 A 
ATOM     57  C   UNL A   1      45.661  31.713  31.881  1.00  0.00     0.029 A 
ATOM     58  N   UNL A   1      43.514  31.537  31.329  1.00  0.00    -0.354 N 
ATOM     59  N   UNL A   1      40.764  32.500  31.018  1.00  0.00    -0.248 NA
ATOM     60  C   UNL A   1      39.138  34.141  31.356  1.00  0.00     0.031 C 
ATOM     61  C   UNL A   1      45.015  32.901  32.237  1.00  0.00     0.029 A 
ATOM     62  C   UNL A   1      43.682  32.801  31.871  1.00  0.00     0.049 A 
ATOM     63  H   UNL A   1      42.665  31.178  30.983  1.00  0.00     0.167 HD
ATOM     64  C   UNL A   1      41.353  33.608  31.613  1.00  0.00     0.074 A 
ATOM     65  C   UNL A   1      40.311  34.604  31.760  1.00  0.00     0.031 C 
ATOM     66  C   UNL A   1      42.638  33.786  32.003  1.00  0.00     0.037 A 
BRANCH  53  67
ATOM     67  C   UNL A   1      46.251  28.868  31.059  1.00  0.00     0.064 A 
ATOM     68  C   UNL A   1      46.589  28.158  32.222  1.00  0.00     0.173 A 
ATOM     69  C   UNL A   1      47.204  28.928  30.031  1.00  0.00     0.173 A 
ATOM     70  F   UNL A   1      45.718  28.076  33.240  1.00  0.00    -0.203 F 
ATOM     71  C   UNL A   1      47.837  27.556  32.359  1.00  0.00     0.198 A 
ATOM     72  C   UNL A   1      48.440  28.300  30.159  1.00  0.00     0.198 A 
ATOM     73  F   UNL A   1      46.932  29.588  28.895  1.00  0.00    -0.203 F 
ATOM     74  F   UNL A   1      48.152  26.922  33.497  1.00  0.00    -0.200 F 
ATOM     75  C   UNL A   1      48.758  27.620  31.325  1.00  0.00     0.200 A 
ATOM     76  F   UNL A   1      49.323  28.349  29.152  1.00  0.00    -0.200 F 
ATOM     77  F   UNL A   1      49.954  27.030  31.453  1.00  0.00    -0.200 F 
ENDBRANCH  53  67
BRANCH  54  78
ATOM     78  C   UNL A   1      37.023  32.558  30.105  1.00  0.00     0.064 A 
ATOM     79  C   UNL A   1      36.632  33.280  28.968  1.00  0.00     0.173 A 
ATOM     80  C   UNL A   1      36.084  32.403  31.134  1.00  0.00     0.173 A 
ATOM     81  F   UNL A   1      37.501  33.472  27.966  1.00  0.00    -0.203 F 
ATOM     82  C   UNL A   1      35.364  33.851  28.879  1.00  0.00     0.198 A 
ATOM     83  C   UNL A   1      34.806  32.948  31.030  1.00  0.00     0.198 A 
ATOM     84  F   UNL A   1      36.406  31.718  32.241  1.00  0.00    -0.203 F 
ATOM     85  F   UNL A   1      35.037  34.583  27.806  1.00  0.00    -0.200 F 
ATOM     86  C   UNL A   1      34.450  33.681  29.907  1.00  0.00     0.200 A 
ATOM     87  F   UNL A   1      33.920  32.769  32.020  1.00  0.00    -0.200 F 
ATOM     88  F   UNL A   1      33.232  34.231  29.822  1.00  0.00    -0.200 F 
ENDBRANCH  54  78
BRANCH  66  89
ATOM     89  C   UNL A   1      42.998  35.120  32.592  1.00  0.00     0.064 A 
ATOM     90  C   UNL A   1      43.515  36.159  31.804  1.00  0.00     0.173 A 
ATOM     91  C   UNL A   1      42.808  35.367  33.959  1.00  0.00     0.173 A 
ATOM     92  F   UNL A   1      43.730  35.970  30.492  1.00  0.00    -0.203 F 
ATOM     93  C   UNL A   1      43.866  37.382  32.372  1.00  0.00     0.198 A 
ATOM     94  C   UNL A   1      43.126  36.601  34.518  1.00  0.00     0.198 A 
ATOM     95  F   UNL A   1      42.308  34.410  34.756  1.00  0.00    -0.203 F 
ATOM     96  F   UNL A   1      44.416  38.337  31.611  1.00  0.00    -0.200 F 
ATOM     97  C   UNL A   1      43.665  37.603  33.726  1.00  0.00     0.200 A 
ATOM     98  F   UNL A   1      42.918  36.819  35.823  1.00  0.00    -0.200 F 
ATOM     99  F   UNL A   1      44.002  38.780  34.269  1.00  0.00    -0.200 F 
ENDBRANCH  66  89
ENDBRANCH  40  41
ENDBRANCH  32  35
ENDBRANCH  30  31
ENDBRANCH  29  30
ENDBRANCH  28  29
ENDBRANCH  27  28
ENDBRANCH   1  27
TORSDOF 19
ENDMDL
MODEL 2
REMARK VINA RESULT:     -10.4      1.276      2.168
REMARK SMILES Cn1cc(SCC[C@H]2CCC[C@]2([NH2+]C2CC2)C(=O)NCCCCCCNC(=O)c2ccc(-c3c4nc(c(-c5c(F)c(F)c(F)c(F)c5F)c5ccc([nH]5)c(-c5c(F)c(F)c(F)c(F)c5F)c5nc(c(-c6c(F)c(F)c(F)c(F)c6F)c6ccc3[nH]6)C=C5)C=C4)cc2)cn1
REMARK SMILES IDX 21 1 20 2 19 3 17 4 18 5 12 7 8 8 9 9 10 10 11 11 7 12 6 13
REMARK SMILES IDX 5 14 4 15 1 16 2 17 3 18 93 19 92 20 13 21 14 24 15 25 16 26
REMARK SMILES IDX 22 27 23 28 24 29 25 30 26 31 27 32 28 34 29 35 30 36 91 37
REMARK SMILES IDX 31 38 90 39 32 40 33 41 34 42 84 43 35 44 89 45 83 46 85 47
REMARK SMILES IDX 36 48 88 49 82 50 81 51 37 53 69 54 49 55 68 56 50 57 53 58
REMARK SMILES IDX 67 59 86 60 51 61 52 62 66 64 87 65 54 66 38 67 39 68 47 69
REMARK SMILES IDX 40 70 41 71 45 72 48 73 42 74 43 75 46 76 44 77 70 78 71 79
REMARK SMILES IDX 79 80 72 81 73 82 77 83 80 84 74 85 75 86 78 87 76 88 55 89
REMARK SMILES IDX 56 90 64 91 57 92 58 93 62 94 65 95 59 96 60 97 63 98 61 99
REMARK H PARENT 19 6 13 22 13 23 26 33 85 52 53 63
REMARK Flexibility Score: inf
ROOT
ATOM      1  C   UNL A   1      33.456  21.453  26.305  1.00  0.00     0.021 C 
ENDROOT
BRANCH   1   2
ATOM      2  C   UNL A   1      33.099  22.858  26.793  1.00  0.00     0.116 C 
BRANCH   2   3
ATOM      3  N   UNL A   1      31.664  23.020  26.956  1.00  0.00    -0.351 N 
ATOM      4  C   UNL A   1      30.845  24.053  26.582  1.00  0.00     0.281 C 
ATOM      5  O   UNL A   1      29.653  23.973  26.900  1.00  0.00    -0.268 OA
ATOM      6  H   UNL A   1      31.209  22.270  27.406  1.00  0.00     0.163 HD
BRANCH   4   7
ATOM      7  C   UNL A   1      31.429  25.318  25.856  1.00  0.00     0.178 C 
ATOM      8  C   UNL A   1      30.342  25.697  24.776  1.00  0.00     0.061 C 
ATOM      9  C   UNL A   1      30.696  24.698  23.669  1.00  0.00     0.011 C 
ATOM     10  C   UNL A   1      32.188  24.519  23.643  1.00  0.00     0.008 C 
ATOM     11  C   UNL A   1      32.671  25.019  24.980  1.00  0.00     0.079 C 
BRANCH   8  12
ATOM     12  C   UNL A   1      30.259  27.146  24.263  1.00  0.00     0.022 C 
BRANCH  12  13
ATOM     13  C   UNL A   1      29.241  27.440  23.126  1.00  0.00     0.075 C 
BRANCH  13  14
ATOM     14  S   UNL A   1      27.748  28.445  23.432  1.00  0.00    -0.123 SA
BRANCH  14  15
ATOM     15  C   UNL A   1      27.953  30.047  22.781  1.00  0.00     0.045 A 
ATOM     16  C   UNL A   1      27.933  32.672  20.386  1.00  0.00     0.173 C 
ATOM     17  N   UNL A   1      28.119  31.855  21.564  1.00  0.00    -0.275 N 
ATOM     18  C   UNL A   1      28.486  30.531  21.608  1.00  0.00     0.123 A 
ATOM     19  N   UNL A   1      27.748  32.327  22.767  1.00  0.00    -0.181 NA
ATOM     20  C   UNL A   1      27.654  31.219  23.508  1.00  0.00     0.150 A 
ENDBRANCH  14  15
ENDBRANCH  13  14
ENDBRANCH  12  13
ENDBRANCH   8  12
BRANCH   7  21
ATOM     21  N   UNL A   1      31.824  26.320  26.873  1.00  0.00    -0.331 N 
ATOM     22  H   UNL A   1      32.573  25.904  27.428  1.00  0.00     0.347 HD
ATOM     23  H   UNL A   1      30.955  26.526  27.365  1.00  0.00     0.347 HD
BRANCH  21  24
ATOM     24  C   UNL A   1      32.304  27.657  26.423  1.00  0.00     0.183 C 
ATOM     25  C   UNL A   1      32.377  28.920  27.243  1.00  0.00     0.071 C 
ATOM     26  C   UNL A   1      33.638  28.192  26.893  1.00  0.00     0.071 C 
ENDBRANCH  21  24
ENDBRANCH   7  21
ENDBRANCH   4   7
ENDBRANCH   2   3
ENDBRANCH   1   2
BRANCH   1  27
ATOM     27  C   UNL A   1      33.941  21.379  24.852  1.00  0.00     0.002 C 
BRANCH  27  28
ATOM     28  C   UNL A   1      35.438  21.633  24.648  1.00  0.00     0.002 C 
BRANCH  28  29
ATOM     29  C   UNL A   1      35.818  23.077  24.313  1.00  0.00     0.021 C 
BRANCH  29  30
ATOM     30  C   UNL A   1      36.935  23.667  25.170  1.00  0.00     0.116 C 
BRANCH  30  31
ATOM     31  N   UNL A   1      37.830  22.646  25.693  1.00  0.00    -0.352 N 
ATOM     32  C   UNL A   1      39.014  22.784  26.361  1.00  0.00     0.251 C 
ATOM     33  H   UNL A   1      37.539  21.718  25.543  1.00  0.00     0.163 HD
ATOM     34  O   UNL A   1      39.723  21.791  26.568  1.00  0.00    -0.269 OA
BRANCH  32  35
ATOM     35  C   UNL A   1      39.473  24.110  26.825  1.00  0.00     0.039 A 
ATOM     36  C   UNL A   1      39.290  24.453  28.168  1.00  0.00     0.014 A 
ATOM     37  C   UNL A   1      40.052  25.030  25.944  1.00  0.00     0.014 A 
ATOM     38  C   UNL A   1      39.728  25.693  28.636  1.00  0.00     0.010 A 
ATOM     39  C   UNL A   1      40.554  26.237  26.427  1.00  0.00     0.010 A 
ATOM     40  C   UNL A   1      40.389  26.585  27.776  1.00  0.00    -0.014 A 
BRANCH  40  41
ATOM     41  C   UNL A   1      40.906  27.883  28.284  1.00  0.00     0.031 A 
ATOM     42  C   UNL A   1      42.386  28.143  28.350  1.00  0.00     0.074 A 
ATOM     43  C   UNL A   1      40.038  28.817  28.718  1.00  0.00     0.049 A 
ATOM     44  N   UNL A   1      43.021  29.216  28.755  1.00  0.00    -0.248 NA
ATOM     45  C   UNL A   1      43.273  27.048  27.930  1.00  0.00     0.031 C 
ATOM     46  C   UNL A   1      38.582  28.662  28.760  1.00  0.00     0.029 A 
ATOM     47  N   UNL A   1      40.251  30.082  29.207  1.00  0.00    -0.354 N 
ATOM     48  C   UNL A   1      44.374  28.918  28.653  1.00  0.00     0.074 A 
ATOM     49  C   UNL A   1      44.471  27.549  28.196  1.00  0.00     0.031 C 
ATOM     50  C   UNL A   1      38.032  29.799  29.217  1.00  0.00     0.029 A 
ATOM     51  C   UNL A   1      39.095  30.750  29.529  1.00  0.00     0.049 A 
ATOM     52  H   UNL A   1      41.148  30.473  29.318  1.00  0.00     0.167 HD
ATOM     53  C   UNL A   1      45.437  29.721  28.895  1.00  0.00     0.037 A 
ATOM     54  C   UNL A   1      38.913  31.993  30.015  1.00  0.00     0.037 A 
ATOM     55  C   UNL A   1      45.337  31.094  29.318  1.00  0.00     0.049 A 
ATOM     56  C   UNL A   1      40.113  32.867  30.259  1.00  0.00     0.074 A 
ATOM     57  C   UNL A   1      46.352  32.015  29.514  1.00  0.00     0.029 A 
ATOM     58  N   UNL A   1      44.147  31.743  29.617  1.00  0.00    -0.354 N 
ATOM     59  N   UNL A   1      41.383  32.606  30.067  1.00  0.00    -0.248 NA
ATOM     60  C   UNL A   1      39.850  34.218  30.775  1.00  0.00     0.031 C 
ATOM     61  C   UNL A   1      45.782  33.204  29.979  1.00  0.00     0.029 A 
ATOM     62  C   UNL A   1      44.406  33.043  30.021  1.00  0.00     0.049 A 
ATOM     63  H   UNL A   1      43.252  31.339  29.552  1.00  0.00     0.167 HD
ATOM     64  C   UNL A   1      42.067  33.766  30.407  1.00  0.00     0.074 A 
ATOM     65  C   UNL A   1      41.068  34.739  30.798  1.00  0.00     0.031 C 
ATOM     66  C   UNL A   1      43.401  34.004  30.399  1.00  0.00     0.037 A 
BRANCH  53  67
ATOM     67  C   UNL A   1      46.809  29.141  28.705  1.00  0.00     0.064 A 
ATOM     68  C   UNL A   1      47.471  29.199  27.469  1.00  0.00     0.173 A 
ATOM     69  C   UNL A   1      47.493  28.565  29.786  1.00  0.00     0.173 A 
ATOM     70  F   UNL A   1      46.860  29.732  26.400  1.00  0.00    -0.203 F 
ATOM     71  C   UNL A   1      48.755  28.680  27.316  1.00  0.00     0.198 A 
ATOM     72  C   UNL A   1      48.787  28.074  29.638  1.00  0.00     0.198 A 
ATOM     73  F   UNL A   1      46.910  28.489  30.993  1.00  0.00    -0.203 F 
ATOM     74  F   UNL A   1      49.349  28.707  26.116  1.00  0.00    -0.200 F 
ATOM     75  C   UNL A   1      49.415  28.126  28.402  1.00  0.00     0.200 A 
ATOM     76  F   UNL A   1      49.430  27.553  30.692  1.00  0.00    -0.200 F 
ATOM     77  F   UNL A   1      50.654  27.637  28.258  1.00  0.00    -0.200 F 
ENDBRANCH  53  67
BRANCH  54  78
ATOM     78  C   UNL A   1      37.539  32.501  30.275  1.00  0.00     0.064 A 
ATOM     79  C   UNL A   1      36.896  32.242  31.494  1.00  0.00     0.173 A 
ATOM     80  C   UNL A   1      36.834  33.230  29.307  1.00  0.00     0.173 A 
ATOM     81  F   UNL A   1      37.521  31.531  32.444  1.00  0.00    -0.203 F 
ATOM     82  C   UNL A   1      35.588  32.667  31.722  1.00  0.00     0.198 A 
ATOM     83  C   UNL A   1      35.539  33.681  29.549  1.00  0.00     0.198 A 
ATOM     84  F   UNL A   1      37.406  33.508  28.127  1.00  0.00    -0.203 F 
ATOM     85  F   UNL A   1      34.978  32.356  32.873  1.00  0.00    -0.200 F 
ATOM     86  C   UNL A   1      34.912  33.390  30.752  1.00  0.00     0.200 A 
ATOM     87  F   UNL A   1      34.893  34.392  28.614  1.00  0.00    -0.200 F 
ATOM     88  F   UNL A   1      33.655  33.797  30.970  1.00  0.00    -0.200 F 
ENDBRANCH  54  78
BRANCH  66  89
ATOM     89  C   UNL A   1      43.854  35.382  30.787  1.00  0.00     0.064 A 
ATOM     90  C   UNL A   1      44.015  36.402  29.837  1.00  0.00     0.173 A 
ATOM     91  C   UNL A   1      44.115  35.691  32.130  1.00  0.00     0.173 A 
ATOM     92  F   UNL A   1      43.793  36.155  28.537  1.00  0.00    -0.203 F 
ATOM     93  C   UNL A   1      44.459  37.667  30.213  1.00  0.00     0.198 A 
ATOM     94  C   UNL A   1      44.525  36.966  32.508  1.00  0.00     0.198 A 
ATOM     95  F   UNL A   1      43.968  34.755  33.081  1.00  0.00    -0.203 F 
ATOM     96  F   UNL A   1      44.666  38.606  29.281  1.00  0.00    -0.200 F 
ATOM     97  C   UNL A   1      44.707  37.949  31.549  1.00  0.00     0.200 A 
ATOM     98  F   UNL A   1      44.750  37.242  33.800  1.00  0.00    -0.200 F 
ATOM     99  F   UNL A   1      45.133  39.168  31.908  1.00  0.00    -0.200 F 
ENDBRANCH  66  89
ENDBRANCH  40  41
ENDBRANCH  32  35
ENDBRANCH  30  31
ENDBRANCH  29  30
ENDBRANCH  28  29
ENDBRANCH  27  28
ENDBRANCH   1  27
TORSDOF 19
ENDMDL
MODEL 3
REMARK VINA RESULT:     -10.1      3.047      4.422
REMARK SMILES Cn1cc(SCC[C@H]2CCC[C@]2([NH2+]C2CC2)C(=O)NCCCCCCNC(=O)c2ccc(-c3c4nc(c(-c5c(F)c(F)c(F)c(F)c5F)c5ccc([nH]5)c(-c5c(F)c(F)c(F)c(F)c5F)c5nc(c(-c6c(F)c(F)c(F)c(F)c6F)c6ccc3[nH]6)C=C5)C=C4)cc2)cn1
REMARK SMILES IDX 21 1 20 2 19 3 17 4 18 5 12 7 8 8 9 9 10 10 11 11 7 12 6 13
REMARK SMILES IDX 5 14 4 15 1 16 2 17 3 18 93 19 92 20 13 21 14 24 15 25 16 26
REMARK SMILES IDX 22 27 23 28 24 29 25 30 26 31 27 32 28 34 29 35 30 36 91 37
REMARK SMILES IDX 31 38 90 39 32 40 33 41 34 42 84 43 35 44 89 45 83 46 85 47
REMARK SMILES IDX 36 48 88 49 82 50 81 51 37 53 69 54 49 55 68 56 50 57 53 58
REMARK SMILES IDX 67 59 86 60 51 61 52 62 66 64 87 65 54 66 38 67 39 68 47 69
REMARK SMILES IDX 40 70 41 71 45 72 48 73 42 74 43 75 46 76 44 77 70 78 71 79
REMARK SMILES IDX 79 80 72 81 73 82 77 83 80 84 74 85 75 86 78 87 76 88 55 89
REMARK SMILES IDX 56 90 64 91 57 92 58 93 62 94 65 95 59 96 60 97 63 98 61 99
REMARK H PARENT 19 6 13 22 13 23 26 33 85 52 53 63
REMARK Flexibility Score: inf
ROOT
ATOM      1  C   UNL A   1      35.772  21.748  24.648  1.00  0.00     0.021 C 
ENDROOT
BRANCH   1   2
ATOM      2  C   UNL A   1      34.392  22.406  24.597  1.00  0.00     0.116 C 
BRANCH   2   3
ATOM      3  N   UNL A   1      34.469  23.832  24.872  1.00  0.00    -0.351 N 
ATOM      4  C   UNL A   1      33.511  24.805  24.751  1.00  0.00     0.281 C 
ATOM      5  O   UNL A   1      33.855  25.967  24.991  1.00  0.00    -0.268 OA
ATOM      6  H   UNL A   1      35.344  24.147  25.195  1.00  0.00     0.163 HD
BRANCH   4   7
ATOM      7  C   UNL A   1      32.066  24.452  24.246  1.00  0.00     0.178 C 
ATOM      8  C   UNL A   1      31.176  25.677  24.693  1.00  0.00     0.061 C 
ATOM      9  C   UNL A   1      30.927  25.315  26.160  1.00  0.00     0.011 C 
ATOM     10  C   UNL A   1      30.793  23.822  26.271  1.00  0.00     0.008 C 
ATOM     11  C   UNL A   1      31.408  23.275  25.007  1.00  0.00     0.079 C 
BRANCH   8  12
ATOM     12  C   UNL A   1      29.876  25.985  23.928  1.00  0.00     0.022 C 
BRANCH  12  13
ATOM     13  C   UNL A   1      29.660  27.450  23.457  1.00  0.00     0.075 C 
BRANCH  13  14
ATOM     14  S   UNL A   1      27.983  28.156  23.304  1.00  0.00    -0.123 SA
BRANCH  14  15
ATOM     15  C   UNL A   1      28.064  29.782  22.689  1.00  0.00     0.045 A 
ATOM     16  C   UNL A   1      27.946  32.436  20.329  1.00  0.00     0.173 C 
ATOM     17  N   UNL A   1      28.128  31.620  21.508  1.00  0.00    -0.275 N 
ATOM     18  C   UNL A   1      28.630  30.343  21.566  1.00  0.00     0.123 A 
ATOM     19  N   UNL A   1      27.617  32.028  22.684  1.00  0.00    -0.181 NA
ATOM     20  C   UNL A   1      27.586  30.902  23.403  1.00  0.00     0.150 A 
ENDBRANCH  14  15
ENDBRANCH  13  14
ENDBRANCH  12  13
ENDBRANCH   8  12
BRANCH   7  21
ATOM     21  N   UNL A   1      32.131  24.084  22.813  1.00  0.00    -0.331 N 
ATOM     22  H   UNL A   1      31.178  24.122  22.452  1.00  0.00     0.347 HD
ATOM     23  H   UNL A   1      32.581  23.169  22.815  1.00  0.00     0.347 HD
BRANCH  21  24
ATOM     24  C   UNL A   1      32.979  24.896  21.896  1.00  0.00     0.183 C 
ATOM     25  C   UNL A   1      32.657  25.300  20.479  1.00  0.00     0.071 C 
ATOM     26  C   UNL A   1      32.609  26.325  21.571  1.00  0.00     0.071 C 
ENDBRANCH  21  24
ENDBRANCH   7  21
ENDBRANCH   4   7
ENDBRANCH   2   3
ENDBRANCH   1   2
BRANCH   1  27
ATOM     27  C   UNL A   1      36.952  22.727  24.670  1.00  0.00     0.002 C 
BRANCH  27  28
ATOM     28  C   UNL A   1      38.225  22.204  25.342  1.00  0.00     0.002 C 
BRANCH  28  29
ATOM     29  C   UNL A   1      38.495  20.709  25.160  1.00  0.00     0.021 C 
BRANCH  29  30
ATOM     30  C   UNL A   1      39.051  19.998  26.392  1.00  0.00     0.116 C 
BRANCH  30  31
ATOM     31  N   UNL A   1      40.210  19.175  26.081  1.00  0.00    -0.352 N 
ATOM     32  C   UNL A   1      41.525  19.529  25.965  1.00  0.00     0.251 C 
ATOM     33  H   UNL A   1      40.017  18.221  25.931  1.00  0.00     0.163 HD
ATOM     34  O   UNL A   1      42.343  18.716  25.516  1.00  0.00    -0.269 OA
BRANCH  32  35
ATOM     35  C   UNL A   1      41.984  20.879  26.353  1.00  0.00     0.039 A 
ATOM     36  C   UNL A   1      42.121  21.853  25.360  1.00  0.00     0.014 A 
ATOM     37  C   UNL A   1      42.310  21.184  27.679  1.00  0.00     0.014 A 
ATOM     38  C   UNL A   1      42.538  23.141  25.701  1.00  0.00     0.010 A 
ATOM     39  C   UNL A   1      42.656  22.489  28.029  1.00  0.00     0.010 A 
ATOM     40  C   UNL A   1      42.782  23.478  27.042  1.00  0.00    -0.014 A 
BRANCH  40  41
ATOM     41  C   UNL A   1      43.173  24.863  27.416  1.00  0.00     0.031 A 
ATOM     42  C   UNL A   1      44.583  25.343  27.208  1.00  0.00     0.074 A 
ATOM     43  C   UNL A   1      42.259  25.679  27.978  1.00  0.00     0.049 A 
ATOM     44  N   UNL A   1      45.104  26.518  27.466  1.00  0.00    -0.248 NA
ATOM     45  C   UNL A   1      45.542  24.371  26.661  1.00  0.00     0.031 C 
ATOM     46  C   UNL A   1      40.875  25.312  28.286  1.00  0.00     0.029 A 
ATOM     47  N   UNL A   1      42.355  26.985  28.390  1.00  0.00    -0.354 N 
ATOM     48  C   UNL A   1      46.448  26.419  27.128  1.00  0.00     0.074 A 
ATOM     49  C   UNL A   1      46.675  25.058  26.694  1.00  0.00     0.031 C 
ATOM     50  C   UNL A   1      40.244  26.376  28.807  1.00  0.00     0.029 A 
ATOM     51  C   UNL A   1      41.184  27.490  28.899  1.00  0.00     0.049 A 
ATOM     52  H   UNL A   1      43.186  27.510  28.327  1.00  0.00     0.167 HD
ATOM     53  C   UNL A   1      47.399  27.383  27.155  1.00  0.00     0.037 A 
ATOM     54  C   UNL A   1      40.899  28.715  29.380  1.00  0.00     0.037 A 
ATOM     55  C   UNL A   1      47.162  28.745  27.556  1.00  0.00     0.049 A 
ATOM     56  C   UNL A   1      41.972  29.769  29.382  1.00  0.00     0.074 A 
ATOM     57  C   UNL A   1      48.040  29.815  27.543  1.00  0.00     0.029 A 
ATOM     58  N   UNL A   1      45.957  29.225  28.049  1.00  0.00    -0.354 N 
ATOM     59  N   UNL A   1      43.215  29.690  28.970  1.00  0.00    -0.248 NA
ATOM     60  C   UNL A   1      41.598  31.091  29.904  1.00  0.00     0.031 C 
ATOM     61  C   UNL A   1      47.383  30.929  28.075  1.00  0.00     0.029 A 
ATOM     62  C   UNL A   1      46.078  30.568  28.368  1.00  0.00     0.049 A 
ATOM     63  H   UNL A   1      45.138  28.690  28.156  1.00  0.00     0.167 HD
ATOM     64  C   UNL A   1      43.759  30.955  29.153  1.00  0.00     0.074 A 
ATOM     65  C   UNL A   1      42.705  31.787  29.694  1.00  0.00     0.031 C 
ATOM     66  C   UNL A   1      45.018  31.387  28.898  1.00  0.00     0.037 A 
BRANCH  53  67
ATOM     67  C   UNL A   1      48.790  27.004  26.734  1.00  0.00     0.064 A 
ATOM     68  C   UNL A   1      49.747  26.562  27.661  1.00  0.00     0.173 A 
ATOM     69  C   UNL A   1      49.156  27.033  25.380  1.00  0.00     0.173 A 
ATOM     70  F   UNL A   1      49.452  26.522  28.969  1.00  0.00    -0.203 F 
ATOM     71  C   UNL A   1      51.025  26.188  27.250  1.00  0.00     0.198 A 
ATOM     72  C   UNL A   1      50.424  26.631  24.969  1.00  0.00     0.198 A 
ATOM     73  F   UNL A   1      48.278  27.442  24.451  1.00  0.00    -0.203 F 
ATOM     74  F   UNL A   1      51.936  25.812  28.159  1.00  0.00    -0.200 F 
ATOM     75  C   UNL A   1      51.360  26.215  25.906  1.00  0.00     0.200 A 
ATOM     76  F   UNL A   1      50.742  26.643  23.668  1.00  0.00    -0.200 F 
ATOM     77  F   UNL A   1      52.585  25.845  25.510  1.00  0.00    -0.200 F 
ENDBRANCH  53  67
BRANCH  54  78
ATOM     78  C   UNL A   1      39.530  29.026  29.872  1.00  0.00     0.064 A 
ATOM     79  C   UNL A   1      38.574  29.600  29.021  1.00  0.00     0.173 A 
ATOM     80  C   UNL A   1      39.157  28.781  31.201  1.00  0.00     0.173 A 
ATOM     81  F   UNL A   1      38.889  29.871  27.747  1.00  0.00    -0.203 F 
ATOM     82  C   UNL A   1      37.308  29.945  29.490  1.00  0.00     0.198 A 
ATOM     83  C   UNL A   1      37.881  29.098  31.660  1.00  0.00     0.198 A 
ATOM     84  F   UNL A   1      40.032  28.229  32.054  1.00  0.00    -0.203 F 
ATOM     85  F   UNL A   1      36.434  30.545  28.671  1.00  0.00    -0.200 F 
ATOM     86  C   UNL A   1      36.961  29.690  30.808  1.00  0.00     0.200 A 
ATOM     87  F   UNL A   1      37.544  28.837  32.931  1.00  0.00    -0.200 F 
ATOM     88  F   UNL A   1      35.744  30.024  31.259  1.00  0.00    -0.200 F 
ENDBRANCH  54  78
BRANCH  66  89
ATOM     89  C   UNL A   1      45.311  32.836  29.165  1.00  0.00     0.064 A 
ATOM     90  C   UNL A   1      45.120  33.821  28.185  1.00  0.00     0.173 A 
ATOM     91  C   UNL A   1      45.777  33.244  30.424  1.00  0.00     0.173 A 
ATOM     92  F   UNL A   1      44.690  33.481  26.960  1.00  0.00    -0.203 F 
ATOM     93  C   UNL A   1      45.421  35.156  28.444  1.00  0.00     0.198 A 
ATOM     94  C   UNL A   1      46.044  34.584  30.691  1.00  0.00     0.198 A 
ATOM     95  F   UNL A   1      45.970  32.343  31.399  1.00  0.00    -0.203 F 
ATOM     96  F   UNL A   1      45.289  36.070  27.474  1.00  0.00    -0.200 F 
ATOM     97  C   UNL A   1      45.876  35.537  29.698  1.00  0.00     0.200 A 
ATOM     98  F   UNL A   1      46.470  34.953  31.906  1.00  0.00    -0.200 F 
ATOM     99  F   UNL A   1      46.164  36.822  29.944  1.00  0.00    -0.200 F 
ENDBRANCH  66  89
ENDBRANCH  40  41
ENDBRANCH  32  35
ENDBRANCH  30  31
ENDBRANCH  29  30
ENDBRANCH  28  29
ENDBRANCH  27  28
ENDBRANCH   1  27
TORSDOF 19
ENDMDL
