MODEL 1
REMARK VINA RESULT:     -13.4      0.000      0.000
REMARK SMILES O=C(NCCCCCCNC(=O)[C@@H]1[C@H](C(=O)Nc2ccc(Cn3cncn3)cc2)[C@@H]2C=C[C@H]1CC2)c1ccc(-c2c3nc(c(-c4c(F)c(F)c(F)c(F)c4F)c4ccc([nH]4)c(-c4c(F)c(F)c(F)c(F)c4F)c4nc(c(-c5c(F)c(F)c(F)c(F)c5F)c5ccc2[nH]5)C=C4)C=C3)cc1
REMARK SMILES IDX 7 1 6 2 5 3 4 4 3 5 1 6 2 7 36 9 37 10 98 11 38 12 97 13
REMARK SMILES IDX 39 14 40 15 41 16 91 17 42 18 96 19 90 20 92 21 43 22 95 23
REMARK SMILES IDX 89 24 88 25 44 27 76 28 56 29 75 30 57 31 60 32 74 33 93 34
REMARK SMILES IDX 58 35 59 36 73 38 94 39 61 40 45 41 46 42 54 43 47 44 48 45
REMARK SMILES IDX 52 46 55 47 49 48 50 49 53 50 51 51 77 52 78 53 86 54 79 55
REMARK SMILES IDX 80 56 84 57 87 58 81 59 82 60 85 61 83 62 62 63 63 64 71 65
REMARK SMILES IDX 64 66 65 67 69 68 72 69 66 70 67 71 70 72 68 73 8 74 9 75
REMARK SMILES IDX 10 76 11 77 12 79 13 80 14 81 33 82 30 83 32 84 34 85 31 86
REMARK SMILES IDX 35 87 15 88 16 89 17 90 18 92 19 93 29 94 20 95 28 96 21 97
REMARK SMILES IDX 22 98 23 99 24 100 27 101 25 102 26 103
REMARK H PARENT 3 8 92 26 60 37 10 78 17 91
REMARK Flexibility Score: inf
ROOT
ATOM      1  C   UNL A   1      33.933  28.425  25.661  1.00  0.00     0.002 C 
ENDROOT
BRANCH   1   2
ATOM      2  C   UNL A   1      33.117  29.720  25.754  1.00  0.00     0.002 C 
BRANCH   2   3
ATOM      3  C   UNL A   1      33.208  30.631  26.990  1.00  0.00     0.021 C 
BRANCH   3   4
ATOM      4  C   UNL A   1      34.564  30.860  27.646  1.00  0.00     0.116 C 
BRANCH   4   5
ATOM      5  N   UNL A   1      34.596  31.457  28.967  1.00  0.00    -0.352 N 
ATOM      6  O   UNL A   1      35.363  32.304  30.884  1.00  0.00    -0.269 OA
ATOM      7  C   UNL A   1      35.553  31.558  29.947  1.00  0.00     0.251 C 
ATOM      8  H   UNL A   1      33.744  31.882  29.217  1.00  0.00     0.163 HD
BRANCH   7   9
ATOM      9  C   UNL A   1      36.780  30.722  29.954  1.00  0.00     0.039 A 
ATOM     10  C   UNL A   1      36.829  29.376  30.314  1.00  0.00     0.014 A 
ATOM     11  C   UNL A   1      37.950  31.372  29.533  1.00  0.00     0.014 A 
ATOM     12  C   UNL A   1      38.056  28.725  30.406  1.00  0.00     0.010 A 
ATOM     13  C   UNL A   1      39.168  30.713  29.579  1.00  0.00     0.010 A 
ATOM     14  C   UNL A   1      39.228  29.410  30.081  1.00  0.00    -0.014 A 
BRANCH  14  15
ATOM     15  C   UNL A   1      40.518  28.723  30.199  1.00  0.00     0.031 A 
ATOM     16  C   UNL A   1      41.061  28.530  31.584  1.00  0.00     0.074 A 
ATOM     17  C   UNL A   1      41.051  28.095  29.128  1.00  0.00     0.049 A 
ATOM     18  N   UNL A   1      42.283  28.626  32.012  1.00  0.00    -0.248 NA
ATOM     19  C   UNL A   1      40.089  28.203  32.644  1.00  0.00     0.031 C 
ATOM     20  C   UNL A   1      40.460  27.961  27.791  1.00  0.00     0.029 A 
ATOM     21  N   UNL A   1      42.159  27.305  29.053  1.00  0.00    -0.354 N 
ATOM     22  C   UNL A   1      42.258  28.225  33.352  1.00  0.00     0.074 A 
ATOM     23  C   UNL A   1      40.875  28.065  33.711  1.00  0.00     0.031 C 
ATOM     24  C   UNL A   1      41.070  26.952  27.136  1.00  0.00     0.029 A 
ATOM     25  C   UNL A   1      42.160  26.456  27.957  1.00  0.00     0.049 A 
ATOM     26  H   UNL A   1      42.888  27.335  29.713  1.00  0.00     0.167 HD
ATOM     27  C   UNL A   1      43.378  27.876  34.044  1.00  0.00     0.037 A 
ATOM     28  C   UNL A   1      42.924  25.351  27.786  1.00  0.00     0.037 A 
ATOM     29  C   UNL A   1      44.565  28.459  33.490  1.00  0.00     0.049 A 
ATOM     30  C   UNL A   1      44.057  25.426  28.737  1.00  0.00     0.074 A 
ATOM     31  C   UNL A   1      45.016  29.751  33.301  1.00  0.00     0.029 A 
ATOM     32  N   UNL A   1      45.422  27.671  32.767  1.00  0.00    -0.354 N 
ATOM     33  N   UNL A   1      45.025  26.297  28.665  1.00  0.00    -0.248 NA
ATOM     34  C   UNL A   1      43.898  24.773  30.028  1.00  0.00     0.031 C 
ATOM     35  C   UNL A   1      45.773  29.707  32.094  1.00  0.00     0.029 A 
ATOM     36  C   UNL A   1      45.746  28.387  31.644  1.00  0.00     0.049 A 
ATOM     37  H   UNL A   1      45.742  26.771  33.007  1.00  0.00     0.167 HD
ATOM     38  C   UNL A   1      45.334  26.593  29.984  1.00  0.00     0.074 A 
ATOM     39  C   UNL A   1      44.679  25.557  30.774  1.00  0.00     0.031 C 
ATOM     40  C   UNL A   1      45.859  27.804  30.331  1.00  0.00     0.037 A 
BRANCH  27  41
ATOM     41  C   UNL A   1      43.424  26.759  35.060  1.00  0.00     0.064 A 
ATOM     42  C   UNL A   1      43.676  27.052  36.416  1.00  0.00     0.173 A 
ATOM     43  C   UNL A   1      43.530  25.398  34.701  1.00  0.00     0.173 A 
ATOM     44  F   UNL A   1      43.626  28.315  36.864  1.00  0.00    -0.203 F 
ATOM     45  C   UNL A   1      44.074  26.064  37.324  1.00  0.00     0.198 A 
ATOM     46  C   UNL A   1      43.877  24.408  35.620  1.00  0.00     0.198 A 
ATOM     47  F   UNL A   1      43.412  24.989  33.432  1.00  0.00    -0.203 F 
ATOM     48  F   UNL A   1      44.420  26.407  38.571  1.00  0.00    -0.200 F 
ATOM     49  C   UNL A   1      44.179  24.745  36.923  1.00  0.00     0.200 A 
ATOM     50  F   UNL A   1      43.991  23.137  35.209  1.00  0.00    -0.200 F 
ATOM     51  F   UNL A   1      44.620  23.808  37.774  1.00  0.00    -0.200 F 
ENDBRANCH  27  41
BRANCH  28  52
ATOM     52  C   UNL A   1      42.531  24.097  27.101  1.00  0.00     0.064 A 
ATOM     53  C   UNL A   1      43.405  23.433  26.229  1.00  0.00     0.173 A 
ATOM     54  C   UNL A   1      41.365  23.396  27.473  1.00  0.00     0.173 A 
ATOM     55  F   UNL A   1      44.565  24.006  25.875  1.00  0.00    -0.203 F 
ATOM     56  C   UNL A   1      43.127  22.146  25.755  1.00  0.00     0.198 A 
ATOM     57  C   UNL A   1      41.081  22.120  26.988  1.00  0.00     0.198 A 
ATOM     58  F   UNL A   1      40.521  23.898  28.385  1.00  0.00    -0.203 F 
ATOM     59  F   UNL A   1      44.010  21.522  24.962  1.00  0.00    -0.200 F 
ATOM     60  C   UNL A   1      41.968  21.491  26.136  1.00  0.00     0.200 A 
ATOM     61  F   UNL A   1      39.973  21.485  27.397  1.00  0.00    -0.200 F 
ATOM     62  F   UNL A   1      41.723  20.242  25.716  1.00  0.00    -0.200 F 
ENDBRANCH  28  52
BRANCH  40  63
ATOM     63  C   UNL A   1      46.305  28.717  29.227  1.00  0.00     0.064 A 
ATOM     64  C   UNL A   1      45.439  29.612  28.576  1.00  0.00     0.173 A 
ATOM     65  C   UNL A   1      47.670  28.811  28.933  1.00  0.00     0.173 A 
ATOM     66  F   UNL A   1      44.140  29.663  28.892  1.00  0.00    -0.203 F 
ATOM     67  C   UNL A   1      45.912  30.525  27.637  1.00  0.00     0.198 A 
ATOM     68  C   UNL A   1      48.146  29.751  28.022  1.00  0.00     0.198 A 
ATOM     69  F   UNL A   1      48.552  28.031  29.578  1.00  0.00    -0.203 F 
ATOM     70  F   UNL A   1      45.061  31.366  27.029  1.00  0.00    -0.200 F 
ATOM     71  C   UNL A   1      47.267  30.600  27.367  1.00  0.00     0.200 A 
ATOM     72  F   UNL A   1      49.465  29.859  27.805  1.00  0.00    -0.200 F 
ATOM     73  F   UNL A   1      47.731  31.512  26.502  1.00  0.00    -0.200 F 
ENDBRANCH  40  63
ENDBRANCH  14  15
ENDBRANCH   7   9
ENDBRANCH   4   5
ENDBRANCH   3   4
ENDBRANCH   2   3
ENDBRANCH   1   2
BRANCH   1  74
ATOM     74  C   UNL A   1      33.285  27.056  25.943  1.00  0.00     0.021 C 
BRANCH  74  75
ATOM     75  C   UNL A   1      31.931  26.984  26.688  1.00  0.00     0.116 C 
BRANCH  75  76
ATOM     76  N   UNL A   1      31.471  25.581  26.869  1.00  0.00    -0.356 N 
ATOM     77  C   UNL A   1      31.760  24.288  26.609  1.00  0.00     0.224 C 
ATOM     78  H   UNL A   1      30.626  25.605  27.375  1.00  0.00     0.163 HD
ATOM     79  O   UNL A   1      30.876  23.525  27.053  1.00  0.00    -0.275 OA
BRANCH  77  80
ATOM     80  C   UNL A   1      32.938  23.576  25.885  1.00  0.00     0.098 C 
ATOM     81  C   UNL A   1      33.089  23.220  24.401  1.00  0.00     0.098 C 
ATOM     82  C   UNL A   1      33.747  22.510  26.754  1.00  0.00     0.025 C 
ATOM     83  C   UNL A   1      34.240  22.169  24.220  1.00  0.00     0.025 C 
ATOM     84  C   UNL A   1      33.614  21.077  26.248  1.00  0.00    -0.027 C 
ATOM     85  C   UNL A   1      35.258  22.761  26.496  1.00  0.00     0.009 C 
ATOM     86  C   UNL A   1      33.867  20.900  24.941  1.00  0.00    -0.027 C 
ATOM     87  C   UNL A   1      35.525  22.653  24.963  1.00  0.00     0.009 C 
BRANCH  81  88
ATOM     88  C   UNL A   1      31.891  22.940  23.504  1.00  0.00     0.228 C 
ATOM     89  O   UNL A   1      31.778  21.801  23.023  1.00  0.00    -0.274 OA
ATOM     90  N   UNL A   1      30.843  23.783  23.280  1.00  0.00    -0.326 N 
ATOM     91  H   UNL A   1      30.005  23.304  23.085  1.00  0.00     0.169 HD
BRANCH  90  92
ATOM     92  C   UNL A   1      30.687  25.179  23.266  1.00  0.00     0.041 A 
ATOM     93  C   UNL A   1      31.681  25.966  22.692  1.00  0.00     0.026 A 
ATOM     94  C   UNL A   1      29.649  25.841  23.899  1.00  0.00     0.026 A 
ATOM     95  C   UNL A   1      31.601  27.371  22.737  1.00  0.00     0.008 A 
ATOM     96  C   UNL A   1      29.551  27.228  23.960  1.00  0.00     0.008 A 
ATOM     97  C   UNL A   1      30.538  28.014  23.389  1.00  0.00    -0.026 A 
BRANCH  97  98
ATOM     98  C   UNL A   1      30.461  29.506  23.575  1.00  0.00     0.181 C 
BRANCH  98  99
ATOM     99  N   UNL A   1      29.352  30.067  22.822  1.00  0.00    -0.249 N 
ATOM    100  C   UNL A   1      28.398  30.920  23.276  1.00  0.00     0.220 A 
ATOM    101  N   UNL A   1      29.145  29.758  21.524  1.00  0.00    -0.160 NA
ATOM    102  N   UNL A   1      27.527  31.153  22.321  1.00  0.00    -0.224 NA
ATOM    103  C   UNL A   1      28.031  30.449  21.265  1.00  0.00     0.246 A 
ENDBRANCH  98  99
ENDBRANCH  97  98
ENDBRANCH  90  92
ENDBRANCH  81  88
ENDBRANCH  77  80
ENDBRANCH  75  76
ENDBRANCH  74  75
ENDBRANCH   1  74
TORSDOF 17
ENDMDL
MODEL 2
REMARK VINA RESULT:     -13.2      1.129      1.894
REMARK SMILES O=C(NCCCCCCNC(=O)[C@@H]1[C@H](C(=O)Nc2ccc(Cn3cncn3)cc2)[C@@H]2C=C[C@H]1CC2)c1ccc(-c2c3nc(c(-c4c(F)c(F)c(F)c(F)c4F)c4ccc([nH]4)c(-c4c(F)c(F)c(F)c(F)c4F)c4nc(c(-c5c(F)c(F)c(F)c(F)c5F)c5ccc2[nH]5)C=C4)C=C3)cc1
REMARK SMILES IDX 7 1 6 2 5 3 4 4 3 5 1 6 2 7 36 9 37 10 98 11 38 12 97 13
REMARK SMILES IDX 39 14 40 15 41 16 91 17 42 18 96 19 90 20 92 21 43 22 95 23
REMARK SMILES IDX 89 24 88 25 44 27 76 28 56 29 75 30 57 31 60 32 74 33 93 34
REMARK SMILES IDX 58 35 59 36 73 38 94 39 61 40 45 41 46 42 54 43 47 44 48 45
REMARK SMILES IDX 52 46 55 47 49 48 50 49 53 50 51 51 77 52 78 53 86 54 79 55
REMARK SMILES IDX 80 56 84 57 87 58 81 59 82 60 85 61 83 62 62 63 63 64 71 65
REMARK SMILES IDX 64 66 65 67 69 68 72 69 66 70 67 71 70 72 68 73 8 74 9 75
REMARK SMILES IDX 10 76 11 77 12 79 13 80 14 81 33 82 30 83 32 84 34 85 31 86
REMARK SMILES IDX 35 87 15 88 16 89 17 90 18 92 19 93 29 94 20 95 28 96 21 97
REMARK SMILES IDX 22 98 23 99 24 100 27 101 25 102 26 103
REMARK H PARENT 3 8 92 26 60 37 10 78 17 91
REMARK Flexibility Score: inf
ROOT
ATOM      1  C   UNL A   1      33.539  28.609  26.078  1.00  0.00     0.002 C 
ENDROOT
BRANCH   1   2
ATOM      2  C   UNL A   1      32.723  29.777  26.644  1.00  0.00     0.002 C 
BRANCH   2   3
ATOM      3  C   UNL A   1      33.415  31.018  27.233  1.00  0.00     0.021 C 
BRANCH   3   4
ATOM      4  C   UNL A   1      34.795  30.871  27.863  1.00  0.00     0.116 C 
BRANCH   4   5
ATOM      5  N   UNL A   1      35.059  31.564  29.109  1.00  0.00    -0.352 N 
ATOM      6  O   UNL A   1      36.149  32.455  30.841  1.00  0.00    -0.269 OA
ATOM      7  C   UNL A   1      36.131  31.616  29.964  1.00  0.00     0.251 C 
ATOM      8  H   UNL A   1      34.303  32.119  29.407  1.00  0.00     0.163 HD
BRANCH   7   9
ATOM      9  C   UNL A   1      37.238  30.626  29.919  1.00  0.00     0.039 A 
ATOM     10  C   UNL A   1      37.099  29.259  30.160  1.00  0.00     0.014 A 
ATOM     11  C   UNL A   1      38.494  31.147  29.578  1.00  0.00     0.014 A 
ATOM     12  C   UNL A   1      38.227  28.445  30.216  1.00  0.00     0.010 A 
ATOM     13  C   UNL A   1      39.613  30.331  29.587  1.00  0.00     0.010 A 
ATOM     14  C   UNL A   1      39.488  28.993  29.973  1.00  0.00    -0.014 A 
BRANCH  14  15
ATOM     15  C   UNL A   1      40.672  28.133  30.052  1.00  0.00     0.031 A 
ATOM     16  C   UNL A   1      41.338  28.016  31.392  1.00  0.00     0.074 A 
ATOM     17  C   UNL A   1      40.983  27.314  29.025  1.00  0.00     0.049 A 
ATOM     18  N   UNL A   1      42.603  27.969  31.683  1.00  0.00    -0.248 NA
ATOM     19  C   UNL A   1      40.459  27.964  32.574  1.00  0.00     0.031 C 
ATOM     20  C   UNL A   1      40.229  27.122  27.779  1.00  0.00     0.029 A 
ATOM     21  N   UNL A   1      41.952  26.359  28.944  1.00  0.00    -0.354 N 
ATOM     22  C   UNL A   1      42.676  27.731  33.059  1.00  0.00     0.074 A 
ATOM     23  C   UNL A   1      41.334  27.828  33.568  1.00  0.00     0.031 C 
ATOM     24  C   UNL A   1      40.610  25.963  27.204  1.00  0.00     0.029 A 
ATOM     25  C   UNL A   1      41.707  25.401  27.972  1.00  0.00     0.049 A 
ATOM     26  H   UNL A   1      42.750  26.350  29.521  1.00  0.00     0.167 HD
ATOM     27  C   UNL A   1      43.808  27.293  33.678  1.00  0.00     0.037 A 
ATOM     28  C   UNL A   1      42.282  24.179  27.871  1.00  0.00     0.037 A 
ATOM     29  C   UNL A   1      44.993  27.620  32.941  1.00  0.00     0.049 A 
ATOM     30  C   UNL A   1      43.516  24.185  28.690  1.00  0.00     0.074 A 
ATOM     31  C   UNL A   1      45.598  28.796  32.543  1.00  0.00     0.029 A 
ATOM     32  N   UNL A   1      45.641  26.632  32.245  1.00  0.00    -0.354 N 
ATOM     33  N   UNL A   1      44.583  24.881  28.412  1.00  0.00    -0.248 NA
ATOM     34  C   UNL A   1      43.416  23.714  30.063  1.00  0.00     0.031 C 
ATOM     35  C   UNL A   1      46.196  28.500  31.285  1.00  0.00     0.029 A 
ATOM     36  C   UNL A   1      45.931  27.158  31.013  1.00  0.00     0.049 A 
ATOM     37  H   UNL A   1      45.856  25.726  32.567  1.00  0.00     0.167 HD
ATOM     38  C   UNL A   1      45.081  25.273  29.645  1.00  0.00     0.074 A 
ATOM     39  C   UNL A   1      44.381  24.446  30.623  1.00  0.00     0.031 C 
ATOM     40  C   UNL A   1      45.808  26.420  29.782  1.00  0.00     0.037 A 
BRANCH  27  41
ATOM     41  C   UNL A   1      43.812  26.304  34.820  1.00  0.00     0.064 A 
ATOM     42  C   UNL A   1      44.202  26.720  36.109  1.00  0.00     0.173 A 
ATOM     43  C   UNL A   1      43.738  24.908  34.627  1.00  0.00     0.173 A 
ATOM     44  F   UNL A   1      44.328  28.023  36.398  1.00  0.00    -0.203 F 
ATOM     45  C   UNL A   1      44.561  25.804  37.104  1.00  0.00     0.198 A 
ATOM     46  C   UNL A   1      44.047  23.997  35.637  1.00  0.00     0.198 A 
ATOM     47  F   UNL A   1      43.474  24.371  33.430  1.00  0.00    -0.203 F 
ATOM     48  F   UNL A   1      45.042  26.247  38.273  1.00  0.00    -0.200 F 
ATOM     49  C   UNL A   1      44.488  24.445  36.865  1.00  0.00     0.200 A 
ATOM     50  F   UNL A   1      43.986  22.683  35.382  1.00  0.00    -0.200 F 
ATOM     51  F   UNL A   1      44.890  23.567  37.795  1.00  0.00    -0.200 F 
ENDBRANCH  27  41
BRANCH  28  52
ATOM     52  C   UNL A   1      41.638  22.932  27.395  1.00  0.00     0.064 A 
ATOM     53  C   UNL A   1      40.245  22.823  27.282  1.00  0.00     0.173 A 
ATOM     54  C   UNL A   1      42.396  21.894  26.814  1.00  0.00     0.173 A 
ATOM     55  F   UNL A   1      39.455  23.798  27.753  1.00  0.00    -0.203 F 
ATOM     56  C   UNL A   1      39.646  21.738  26.631  1.00  0.00     0.198 A 
ATOM     57  C   UNL A   1      41.800  20.806  26.179  1.00  0.00     0.198 A 
ATOM     58  F   UNL A   1      43.735  21.960  26.772  1.00  0.00    -0.203 F 
ATOM     59  F   UNL A   1      38.314  21.692  26.498  1.00  0.00    -0.200 F 
ATOM     60  C   UNL A   1      40.424  20.733  26.079  1.00  0.00     0.200 A 
ATOM     61  F   UNL A   1      42.567  19.861  25.617  1.00  0.00    -0.200 F 
ATOM     62  F   UNL A   1      39.852  19.717  25.418  1.00  0.00    -0.200 F 
ENDBRANCH  28  52
BRANCH  40  63
ATOM     63  C   UNL A   1      46.248  27.122  28.531  1.00  0.00     0.064 A 
ATOM     64  C   UNL A   1      47.426  26.790  27.839  1.00  0.00     0.173 A 
ATOM     65  C   UNL A   1      45.380  28.037  27.924  1.00  0.00     0.173 A 
ATOM     66  F   UNL A   1      48.246  25.837  28.297  1.00  0.00    -0.203 F 
ATOM     67  C   UNL A   1      47.742  27.383  26.620  1.00  0.00     0.198 A 
ATOM     68  C   UNL A   1      45.680  28.601  26.686  1.00  0.00     0.198 A 
ATOM     69  F   UNL A   1      44.207  28.337  28.504  1.00  0.00    -0.203 F 
ATOM     70  F   UNL A   1      48.875  27.049  25.983  1.00  0.00    -0.200 F 
ATOM     71  C   UNL A   1      46.864  28.282  26.040  1.00  0.00     0.200 A 
ATOM     72  F   UNL A   1      44.802  29.427  26.100  1.00  0.00    -0.200 F 
ATOM     73  F   UNL A   1      47.142  28.816  24.842  1.00  0.00    -0.200 F 
ENDBRANCH  40  63
ENDBRANCH  14  15
ENDBRANCH   7   9
ENDBRANCH   4   5
ENDBRANCH   3   4
ENDBRANCH   2   3
ENDBRANCH   1   2
BRANCH   1  74
ATOM     74  C   UNL A   1      32.958  27.182  26.034  1.00  0.00     0.021 C 
BRANCH  74  75
ATOM     75  C   UNL A   1      31.726  26.826  26.902  1.00  0.00     0.116 C 
BRANCH  75  76
ATOM     76  N   UNL A   1      31.343  25.395  26.760  1.00  0.00    -0.356 N 
ATOM     77  C   UNL A   1      31.757  24.184  26.329  1.00  0.00     0.224 C 
ATOM     78  H   UNL A   1      30.433  25.291  27.120  1.00  0.00     0.163 HD
ATOM     79  O   UNL A   1      30.872  23.318  26.487  1.00  0.00    -0.275 OA
BRANCH  77  80
ATOM     80  C   UNL A   1      33.078  23.666  25.691  1.00  0.00     0.098 C 
ATOM     81  C   UNL A   1      33.437  23.500  24.210  1.00  0.00     0.098 C 
ATOM     82  C   UNL A   1      33.882  22.580  26.541  1.00  0.00     0.025 C 
ATOM     83  C   UNL A   1      34.701  22.580  24.069  1.00  0.00     0.025 C 
ATOM     84  C   UNL A   1      33.953  21.210  25.874  1.00  0.00    -0.027 C 
ATOM     85  C   UNL A   1      35.380  22.989  26.506  1.00  0.00     0.009 C 
ATOM     86  C   UNL A   1      34.375  21.209  24.599  1.00  0.00    -0.027 C 
ATOM     87  C   UNL A   1      35.835  23.084  25.018  1.00  0.00     0.009 C 
BRANCH  81  88
ATOM     88  C   UNL A   1      32.388  23.224  23.142  1.00  0.00     0.228 C 
ATOM     89  O   UNL A   1      32.452  22.147  22.528  1.00  0.00    -0.274 OA
ATOM     90  N   UNL A   1      31.289  23.989  22.882  1.00  0.00    -0.326 N 
ATOM     91  H   UNL A   1      30.535  23.463  22.530  1.00  0.00     0.169 HD
BRANCH  90  92
ATOM     92  C   UNL A   1      30.989  25.356  23.003  1.00  0.00     0.041 A 
ATOM     93  C   UNL A   1      31.899  26.294  22.525  1.00  0.00     0.026 A 
ATOM     94  C   UNL A   1      29.885  25.842  23.682  1.00  0.00     0.026 A 
ATOM     95  C   UNL A   1      31.674  27.672  22.707  1.00  0.00     0.008 A 
ATOM     96  C   UNL A   1      29.643  27.198  23.876  1.00  0.00     0.008 A 
ATOM     97  C   UNL A   1      30.547  28.134  23.401  1.00  0.00    -0.026 A 
BRANCH  97  98
ATOM     98  C   UNL A   1      30.314  29.585  23.732  1.00  0.00     0.181 C 
BRANCH  98  99
ATOM     99  N   UNL A   1      29.220  30.128  22.946  1.00  0.00    -0.249 N 
ATOM    100  C   UNL A   1      28.107  30.756  23.408  1.00  0.00     0.220 A 
ATOM    101  N   UNL A   1      29.197  30.037  21.599  1.00  0.00    -0.160 NA
ATOM    102  N   UNL A   1      27.317  31.047  22.401  1.00  0.00    -0.224 NA
ATOM    103  C   UNL A   1      28.027  30.616  21.317  1.00  0.00     0.246 A 
ENDBRANCH  98  99
ENDBRANCH  97  98
ENDBRANCH  90  92
ENDBRANCH  81  88
ENDBRANCH  77  80
ENDBRANCH  75  76
ENDBRANCH  74  75
ENDBRANCH   1  74
TORSDOF 17
ENDMDL
MODEL 3
REMARK VINA RESULT:     -12.8      3.117      8.161
REMARK SMILES O=C(NCCCCCCNC(=O)[C@@H]1[C@H](C(=O)Nc2ccc(Cn3cncn3)cc2)[C@@H]2C=C[C@H]1CC2)c1ccc(-c2c3nc(c(-c4c(F)c(F)c(F)c(F)c4F)c4ccc([nH]4)c(-c4c(F)c(F)c(F)c(F)c4F)c4nc(c(-c5c(F)c(F)c(F)c(F)c5F)c5ccc2[nH]5)C=C4)C=C3)cc1
REMARK SMILES IDX 7 1 6 2 5 3 4 4 3 5 1 6 2 7 36 9 37 10 98 11 38 12 97 13
REMARK SMILES IDX 39 14 40 15 41 16 91 17 42 18 96 19 90 20 92 21 43 22 95 23
REMARK SMILES IDX 89 24 88 25 44 27 76 28 56 29 75 30 57 31 60 32 74 33 93 34
REMARK SMILES IDX 58 35 59 36 73 38 94 39 61 40 45 41 46 42 54 43 47 44 48 45
REMARK SMILES IDX 52 46 55 47 49 48 50 49 53 50 51 51 77 52 78 53 86 54 79 55
REMARK SMILES IDX 80 56 84 57 87 58 81 59 82 60 85 61 83 62 62 63 63 64 71 65
REMARK SMILES IDX 64 66 65 67 69 68 72 69 66 70 67 71 70 72 68 73 8 74 9 75
REMARK SMILES IDX 10 76 11 77 12 79 13 80 14 81 33 82 30 83 32 84 34 85 31 86
REMARK SMILES IDX 35 87 15 88 16 89 17 90 18 92 19 93 29 94 20 95 28 96 21 97
REMARK SMILES IDX 22 98 23 99 24 100 27 101 25 102 26 103
REMARK H PARENT 3 8 92 26 60 37 10 78 17 91
REMARK Flexibility Score: inf
ROOT
ATOM      1  C   UNL A   1      37.181  22.521  24.228  1.00  0.00     0.002 C 
ENDROOT
BRANCH   1   2
ATOM      2  C   UNL A   1      37.413  21.084  24.710  1.00  0.00     0.002 C 
BRANCH   2   3
ATOM      3  C   UNL A   1      38.701  20.693  25.453  1.00  0.00     0.021 C 
BRANCH   3   4
ATOM      4  C   UNL A   1      39.004  19.219  25.690  1.00  0.00     0.116 C 
BRANCH   4   5
ATOM      5  N   UNL A   1      40.355  18.748  25.452  1.00  0.00    -0.352 N 
ATOM      6  O   UNL A   1      42.538  18.372  25.718  1.00  0.00    -0.269 OA
ATOM      7  C   UNL A   1      41.587  19.087  25.954  1.00  0.00     0.251 C 
ATOM      8  H   UNL A   1      40.397  18.027  24.783  1.00  0.00     0.163 HD
BRANCH   7   9
ATOM      9  C   UNL A   1      41.825  20.346  26.704  1.00  0.00     0.039 A 
ATOM     10  C   UNL A   1      41.427  20.580  28.020  1.00  0.00     0.014 A 
ATOM     11  C   UNL A   1      42.530  21.336  26.005  1.00  0.00     0.014 A 
ATOM     12  C   UNL A   1      41.589  21.844  28.581  1.00  0.00     0.010 A 
ATOM     13  C   UNL A   1      42.735  22.581  26.576  1.00  0.00     0.010 A 
ATOM     14  C   UNL A   1      42.204  22.855  27.840  1.00  0.00    -0.014 A 
BRANCH  14  15
ATOM     15  C   UNL A   1      42.355  24.188  28.431  1.00  0.00     0.031 A 
ATOM     16  C   UNL A   1      41.240  25.165  28.198  1.00  0.00     0.074 A 
ATOM     17  C   UNL A   1      43.335  24.423  29.331  1.00  0.00     0.049 A 
ATOM     18  N   UNL A   1      41.297  26.438  27.952  1.00  0.00    -0.248 NA
ATOM     19  C   UNL A   1      39.866  24.630  28.225  1.00  0.00     0.031 C 
ATOM     20  C   UNL A   1      44.303  23.456  29.864  1.00  0.00     0.029 A 
ATOM     21  N   UNL A   1      43.570  25.535  30.082  1.00  0.00    -0.354 N 
ATOM     22  C   UNL A   1      39.974  26.892  27.945  1.00  0.00     0.074 A 
ATOM     23  C   UNL A   1      39.136  25.726  28.027  1.00  0.00     0.031 C 
ATOM     24  C   UNL A   1      44.832  23.942  31.006  1.00  0.00     0.029 A 
ATOM     25  C   UNL A   1      44.332  25.289  31.214  1.00  0.00     0.049 A 
ATOM     26  H   UNL A   1      43.232  26.428  29.843  1.00  0.00     0.167 HD
ATOM     27  C   UNL A   1      39.639  28.208  28.049  1.00  0.00     0.037 A 
ATOM     28  C   UNL A   1      44.452  26.087  32.302  1.00  0.00     0.037 A 
ATOM     29  C   UNL A   1      40.699  29.075  27.625  1.00  0.00     0.049 A 
ATOM     30  C   UNL A   1      44.002  27.447  31.925  1.00  0.00     0.074 A 
ATOM     31  C   UNL A   1      41.369  29.282  26.434  1.00  0.00     0.029 A 
ATOM     32  N   UNL A   1      41.433  29.745  28.569  1.00  0.00    -0.354 N 
ATOM     33  N   UNL A   1      44.629  28.227  31.090  1.00  0.00    -0.248 NA
ATOM     34  C   UNL A   1      42.610  27.789  32.176  1.00  0.00     0.031 C 
ATOM     35  C   UNL A   1      42.702  29.613  26.811  1.00  0.00     0.029 A 
ATOM     36  C   UNL A   1      42.747  29.603  28.205  1.00  0.00     0.049 A 
ATOM     37  H   UNL A   1      41.086  30.232  29.352  1.00  0.00     0.167 HD
ATOM     38  C   UNL A   1      43.625  28.904  30.415  1.00  0.00     0.074 A 
ATOM     39  C   UNL A   1      42.413  28.666  31.190  1.00  0.00     0.031 C 
ATOM     40  C   UNL A   1      43.814  29.361  29.142  1.00  0.00     0.037 A 
BRANCH  27  41
ATOM     41  C   UNL A   1      38.442  28.713  28.820  1.00  0.00     0.064 A 
ATOM     42  C   UNL A   1      37.581  29.665  28.237  1.00  0.00     0.173 A 
ATOM     43  C   UNL A   1      38.286  28.521  30.209  1.00  0.00     0.173 A 
ATOM     44  F   UNL A   1      37.657  29.945  26.928  1.00  0.00    -0.203 F 
ATOM     45  C   UNL A   1      36.684  30.417  29.004  1.00  0.00     0.198 A 
ATOM     46  C   UNL A   1      37.355  29.236  30.962  1.00  0.00     0.198 A 
ATOM     47  F   UNL A   1      39.098  27.719  30.909  1.00  0.00    -0.203 F 
ATOM     48  F   UNL A   1      35.974  31.395  28.426  1.00  0.00    -0.200 F 
ATOM     49  C   UNL A   1      36.576  30.206  30.365  1.00  0.00     0.200 A 
ATOM     50  F   UNL A   1      37.276  29.029  32.284  1.00  0.00    -0.200 F 
ATOM     51  F   UNL A   1      35.764  30.967  31.111  1.00  0.00    -0.200 F 
ENDBRANCH  27  41
BRANCH  28  52
ATOM     52  C   UNL A   1      44.601  25.650  33.710  1.00  0.00     0.064 A 
ATOM     53  C   UNL A   1      43.486  25.419  34.527  1.00  0.00     0.173 A 
ATOM     54  C   UNL A   1      45.847  25.222  34.215  1.00  0.00     0.173 A 
ATOM     55  F   UNL A   1      42.258  25.739  34.095  1.00  0.00    -0.203 F 
ATOM     56  C   UNL A   1      43.610  24.800  35.777  1.00  0.00     0.198 A 
ATOM     57  C   UNL A   1      45.972  24.621  35.466  1.00  0.00     0.198 A 
ATOM     58  F   UNL A   1      46.956  25.299  33.466  1.00  0.00    -0.203 F 
ATOM     59  F   UNL A   1      42.516  24.550  36.510  1.00  0.00    -0.200 F 
ATOM     60  C   UNL A   1      44.852  24.401  36.244  1.00  0.00     0.200 A 
ATOM     61  F   UNL A   1      47.176  24.206  35.887  1.00  0.00    -0.200 F 
ATOM     62  F   UNL A   1      44.965  23.770  37.420  1.00  0.00    -0.200 F 
ENDBRANCH  28  52
BRANCH  40  63
ATOM     63  C   UNL A   1      45.204  29.315  28.581  1.00  0.00     0.064 A 
ATOM     64  C   UNL A   1      46.152  30.330  28.799  1.00  0.00     0.173 A 
ATOM     65  C   UNL A   1      45.646  28.146  27.951  1.00  0.00     0.173 A 
ATOM     66  F   UNL A   1      45.836  31.426  29.499  1.00  0.00    -0.203 F 
ATOM     67  C   UNL A   1      47.468  30.199  28.362  1.00  0.00     0.198 A 
ATOM     68  C   UNL A   1      46.971  28.002  27.548  1.00  0.00     0.198 A 
ATOM     69  F   UNL A   1      44.802  27.115  27.781  1.00  0.00    -0.203 F 
ATOM     70  F   UNL A   1      48.350  31.186  28.581  1.00  0.00    -0.200 F 
ATOM     71  C   UNL A   1      47.878  29.032  27.743  1.00  0.00     0.200 A 
ATOM     72  F   UNL A   1      47.379  26.848  27.001  1.00  0.00    -0.200 F 
ATOM     73  F   UNL A   1      49.156  28.883  27.367  1.00  0.00    -0.200 F 
ENDBRANCH  40  63
ENDBRANCH  14  15
ENDBRANCH   7   9
ENDBRANCH   4   5
ENDBRANCH   3   4
ENDBRANCH   2   3
ENDBRANCH   1   2
BRANCH   1  74
ATOM     74  C   UNL A   1      35.869  22.922  23.527  1.00  0.00     0.021 C 
BRANCH  74  75
ATOM     75  C   UNL A   1      35.028  24.098  24.081  1.00  0.00     0.116 C 
BRANCH  75  76
ATOM     76  N   UNL A   1      34.219  24.751  23.017  1.00  0.00    -0.356 N 
ATOM     77  C   UNL A   1      33.294  25.702  22.767  1.00  0.00     0.224 C 
ATOM     78  H   UNL A   1      34.448  24.322  22.160  1.00  0.00     0.163 HD
ATOM     79  O   UNL A   1      32.989  25.735  21.556  1.00  0.00    -0.275 OA
BRANCH  77  80
ATOM     80  C   UNL A   1      32.548  26.734  23.661  1.00  0.00     0.098 C 
ATOM     81  C   UNL A   1      31.196  26.603  24.370  1.00  0.00     0.098 C 
ATOM     82  C   UNL A   1      32.795  28.270  23.303  1.00  0.00     0.025 C 
ATOM     83  C   UNL A   1      30.683  28.021  24.806  1.00  0.00     0.025 C 
ATOM     84  C   UNL A   1      31.546  28.991  22.804  1.00  0.00    -0.027 C 
ATOM     85  C   UNL A   1      33.037  29.020  24.641  1.00  0.00     0.009 C 
ATOM     86  C   UNL A   1      30.456  28.863  23.579  1.00  0.00    -0.027 C 
ATOM     87  C   UNL A   1      31.811  28.782  25.574  1.00  0.00     0.009 C 
BRANCH  81  88
ATOM     88  C   UNL A   1      30.080  25.713  23.839  1.00  0.00     0.228 C 
ATOM     89  O   UNL A   1      28.998  26.247  23.549  1.00  0.00    -0.274 OA
ATOM     90  N   UNL A   1      30.193  24.393  23.517  1.00  0.00    -0.326 N 
ATOM     91  H   UNL A   1      29.572  24.122  22.803  1.00  0.00     0.169 HD
BRANCH  90  92
ATOM     92  C   UNL A   1      30.994  23.333  23.972  1.00  0.00     0.041 A 
ATOM     93  C   UNL A   1      31.249  23.212  25.335  1.00  0.00     0.026 A 
ATOM     94  C   UNL A   1      31.654  22.453  23.130  1.00  0.00     0.026 A 
ATOM     95  C   UNL A   1      32.117  22.216  25.819  1.00  0.00     0.008 A 
ATOM     96  C   UNL A   1      32.519  21.463  23.585  1.00  0.00     0.008 A 
ATOM     97  C   UNL A   1      32.774  21.340  24.941  1.00  0.00    -0.026 A 
BRANCH  97  98
ATOM     98  C   UNL A   1      33.804  20.337  25.387  1.00  0.00     0.181 C 
BRANCH  98  99
ATOM     99  N   UNL A   1      33.388  18.984  25.055  1.00  0.00    -0.249 N 
ATOM    100  C   UNL A   1      33.884  18.190  24.070  1.00  0.00     0.220 A 
ATOM    101  N   UNL A   1      32.398  18.358  25.727  1.00  0.00    -0.160 NA
ATOM    102  N   UNL A   1      33.213  17.062  24.037  1.00  0.00    -0.224 NA
ATOM    103  C   UNL A   1      32.336  17.194  25.076  1.00  0.00     0.246 A 
ENDBRANCH  98  99
ENDBRANCH  97  98
ENDBRANCH  90  92
ENDBRANCH  81  88
ENDBRANCH  77  80
ENDBRANCH  75  76
ENDBRANCH  74  75
ENDBRANCH   1  74
TORSDOF 17
ENDMDL
