MODEL 1
REMARK VINA RESULT:     -13.6      0.000      0.000
REMARK SMILES Cc1c(C(=O)Nc2ccc(C(=O)Nc3ccccc3C(=O)NCCCCCCNC(=O)c3ccc(-c4c5nc(c(-c6c(F)c(F)c(F)c(F)c6F)c6ccc([nH]6)c(-c6c(F)c(F)c(F)c(F)c6F)c6nc(c(-c7c(F)c(F)c(F)c(F)c7F)c7ccc4[nH]7)C=C6)C=C5)cc3)cc2)cccc1[N+](=O)[O-]
REMARK SMILES IDX 24 1 23 2 22 3 20 4 21 5 19 7 14 8 15 9 16 10 18 11 17 12
REMARK SMILES IDX 13 13 11 14 12 15 10 17 7 18 8 19 96 20 9 21 95 22 6 23 4 24
REMARK SMILES IDX 5 25 3 27 1 28 2 29 100 30 97 31 99 32 98 33 101 34 102 35
REMARK SMILES IDX 103 36 25 37 26 38 27 39 28 40 29 41 30 42 31 44 32 45 33 46
REMARK SMILES IDX 94 47 34 48 93 49 35 50 36 51 37 52 87 53 38 54 92 55 86 56
REMARK SMILES IDX 88 57 39 58 91 59 85 60 84 61 40 63 72 64 52 65 71 66 53 67
REMARK SMILES IDX 56 68 70 69 89 70 54 71 55 72 69 74 90 75 57 76 41 77 42 78
REMARK SMILES IDX 50 79 43 80 44 81 48 82 51 83 45 84 46 85 49 86 47 87 73 88
REMARK SMILES IDX 74 89 82 90 75 91 76 92 80 93 83 94 77 95 78 96 81 97 79 98
REMARK SMILES IDX 58 99 59 100 67 101 60 102 61 103 65 104 68 105 62 106
REMARK SMILES IDX 63 107 66 108 64 109
REMARK H PARENT 22 6 13 16 6 26 29 43 88 62 56 73
REMARK Flexibility Score: inf
ROOT
ATOM      1  C   UNL A   1      33.437  27.351  24.918  1.00  0.00     0.021 C 
ENDROOT
BRANCH   1   2
ATOM      2  C   UNL A   1      33.595  25.944  24.334  1.00  0.00     0.116 C 
BRANCH   2   3
ATOM      3  N   UNL A   1      32.366  25.199  24.146  1.00  0.00    -0.352 N 
ATOM      4  C   UNL A   1      31.873  24.087  24.795  1.00  0.00     0.253 C 
ATOM      5  O   UNL A   1      30.728  23.725  24.541  1.00  0.00    -0.269 OA
ATOM      6  H   UNL A   1      31.783  25.547  23.432  1.00  0.00     0.163 HD
BRANCH   4   7
ATOM      7  C   UNL A   1      32.697  23.304  25.759  1.00  0.00     0.063 A 
ATOM      8  C   UNL A   1      33.803  22.534  25.332  1.00  0.00     0.054 A 
ATOM      9  C   UNL A   1      34.502  21.756  26.270  1.00  0.00     0.027 A 
ATOM     10  C   UNL A   1      34.171  21.800  27.625  1.00  0.00     0.002 A 
ATOM     11  C   UNL A   1      32.323  23.264  27.114  1.00  0.00     0.016 A 
ATOM     12  C   UNL A   1      33.082  22.552  28.046  1.00  0.00     0.001 A 
BRANCH   8  13
ATOM     13  N   UNL A   1      34.357  22.519  24.035  1.00  0.00    -0.321 N 
ATOM     14  C   UNL A   1      35.608  22.862  23.567  1.00  0.00     0.255 C 
ATOM     15  O   UNL A   1      35.781  22.951  22.348  1.00  0.00    -0.269 OA
ATOM     16  H   UNL A   1      33.736  22.206  23.337  1.00  0.00     0.170 HD
BRANCH  14  17
ATOM     17  C   UNL A   1      36.805  22.928  24.458  1.00  0.00     0.040 A 
ATOM     18  C   UNL A   1      38.827  22.866  26.419  1.00  0.00     0.041 A 
ATOM     19  C   UNL A   1      38.157  24.044  26.131  1.00  0.00     0.027 A 
ATOM     20  C   UNL A   1      38.606  21.752  25.605  1.00  0.00     0.027 A 
ATOM     21  C   UNL A   1      37.091  24.042  25.243  1.00  0.00     0.016 A 
ATOM     22  C   UNL A   1      37.601  21.786  24.623  1.00  0.00     0.016 A 
BRANCH  18  23
ATOM     23  N   UNL A   1      39.631  22.726  27.562  1.00  0.00    -0.322 N 
ATOM     24  C   UNL A   1      41.008  22.642  27.698  1.00  0.00     0.256 C 
ATOM     25  O   UNL A   1      41.486  22.374  28.800  1.00  0.00    -0.269 OA
ATOM     26  H   UNL A   1      39.133  22.680  28.409  1.00  0.00     0.170 HD
BRANCH  24  27
ATOM     27  C   UNL A   1      41.952  22.847  26.555  1.00  0.00     0.049 A 
ATOM     28  C   UNL A   1      42.401  20.368  26.161  1.00  0.00     0.053 C 
ATOM     29  C   UNL A   1      42.722  21.826  25.947  1.00  0.00     0.039 A 
ATOM     30  C   UNL A   1      43.798  22.237  25.127  1.00  0.00     0.273 A 
ATOM     31  C   UNL A   1      42.085  24.180  26.121  1.00  0.00     0.014 A 
ATOM     32  C   UNL A   1      43.945  23.575  24.722  1.00  0.00     0.086 A 
ATOM     33  C   UNL A   1      43.049  24.535  25.178  1.00  0.00     0.008 A 
BRANCH  30  34
ATOM     34  N   UNL A   1      44.886  21.315  24.768  1.00  0.00     0.063 N 
ATOM     35  O   UNL A   1      44.703  20.561  23.803  1.00  0.00    -0.258 OA
ATOM     36  O   UNL A   1      45.950  21.407  25.397  1.00  0.00    -0.258 OA
ENDBRANCH  30  34
ENDBRANCH  24  27
ENDBRANCH  18  23
ENDBRANCH  14  17
ENDBRANCH   8  13
ENDBRANCH   4   7
ENDBRANCH   2   3
ENDBRANCH   1   2
BRANCH   1  37
ATOM     37  C   UNL A   1      33.501  27.527  26.438  1.00  0.00     0.002 C 
BRANCH  37  38
ATOM     38  C   UNL A   1      32.245  28.038  27.151  1.00  0.00     0.002 C 
BRANCH  38  39
ATOM     39  C   UNL A   1      31.791  29.456  26.816  1.00  0.00     0.021 C 
BRANCH  39  40
ATOM     40  C   UNL A   1      32.915  30.448  26.552  1.00  0.00     0.116 C 
BRANCH  40  41
ATOM     41  N   UNL A   1      32.938  31.582  27.459  1.00  0.00    -0.352 N 
ATOM     42  C   UNL A   1      33.924  32.002  28.335  1.00  0.00     0.251 C 
ATOM     43  H   UNL A   1      32.126  32.139  27.449  1.00  0.00     0.163 HD
ATOM     44  O   UNL A   1      33.678  32.894  29.131  1.00  0.00    -0.269 OA
BRANCH  42  45
ATOM     45  C   UNL A   1      35.315  31.488  28.209  1.00  0.00     0.039 A 
ATOM     46  C   UNL A   1      35.533  30.140  28.535  1.00  0.00     0.014 A 
ATOM     47  C   UNL A   1      36.403  32.321  27.975  1.00  0.00     0.014 A 
ATOM     48  C   UNL A   1      36.814  29.707  28.866  1.00  0.00     0.010 A 
ATOM     49  C   UNL A   1      37.655  31.929  28.396  1.00  0.00     0.010 A 
ATOM     50  C   UNL A   1      37.842  30.643  28.903  1.00  0.00    -0.014 A 
BRANCH  50  51
ATOM     51  C   UNL A   1      39.135  30.404  29.518  1.00  0.00     0.031 A 
ATOM     52  C   UNL A   1      39.868  29.159  29.238  1.00  0.00     0.074 A 
ATOM     53  C   UNL A   1      39.705  31.392  30.242  1.00  0.00     0.049 A 
ATOM     54  N   UNL A   1      40.783  28.676  30.003  1.00  0.00    -0.248 NA
ATOM     55  C   UNL A   1      39.604  28.334  28.066  1.00  0.00     0.031 C 
ATOM     56  C   UNL A   1      41.091  31.479  30.692  1.00  0.00     0.029 A 
ATOM     57  N   UNL A   1      39.059  32.460  30.890  1.00  0.00    -0.354 N 
ATOM     58  C   UNL A   1      41.412  27.662  29.321  1.00  0.00     0.074 A 
ATOM     59  C   UNL A   1      40.597  27.443  28.148  1.00  0.00     0.031 C 
ATOM     60  C   UNL A   1      41.148  32.303  31.750  1.00  0.00     0.029 A 
ATOM     61  C   UNL A   1      39.781  32.651  32.092  1.00  0.00     0.049 A 
ATOM     62  H   UNL A   1      38.275  32.964  30.576  1.00  0.00     0.167 HD
ATOM     63  C   UNL A   1      42.624  27.223  29.768  1.00  0.00     0.037 A 
ATOM     64  C   UNL A   1      39.202  32.437  33.307  1.00  0.00     0.037 A 
ATOM     65  C   UNL A   1      43.012  27.922  30.990  1.00  0.00     0.049 A 
ATOM     66  C   UNL A   1      39.906  31.399  34.146  1.00  0.00     0.074 A 
ATOM     67  C   UNL A   1      43.844  29.006  31.226  1.00  0.00     0.029 A 
ATOM     68  N   UNL A   1      42.271  27.737  32.151  1.00  0.00    -0.354 N 
ATOM     69  N   UNL A   1      40.694  30.481  33.660  1.00  0.00    -0.248 NA
ATOM     70  C   UNL A   1      39.773  31.309  35.595  1.00  0.00     0.031 C 
ATOM     71  C   UNL A   1      43.592  29.478  32.538  1.00  0.00     0.029 A 
ATOM     72  C   UNL A   1      42.618  28.675  33.103  1.00  0.00     0.049 A 
ATOM     73  H   UNL A   1      41.592  27.036  32.276  1.00  0.00     0.167 HD
ATOM     74  C   UNL A   1      41.176  29.696  34.680  1.00  0.00     0.074 A 
ATOM     75  C   UNL A   1      40.581  30.269  35.872  1.00  0.00     0.031 C 
ATOM     76  C   UNL A   1      42.021  28.648  34.431  1.00  0.00     0.037 A 
BRANCH  63  77
ATOM     77  C   UNL A   1      43.581  26.380  28.953  1.00  0.00     0.064 A 
ATOM     78  C   UNL A   1      43.781  25.014  29.255  1.00  0.00     0.173 A 
ATOM     79  C   UNL A   1      44.367  26.866  27.894  1.00  0.00     0.173 A 
ATOM     80  F   UNL A   1      43.028  24.375  30.159  1.00  0.00    -0.203 F 
ATOM     81  C   UNL A   1      44.770  24.243  28.637  1.00  0.00     0.198 A 
ATOM     82  C   UNL A   1      45.393  26.112  27.311  1.00  0.00     0.198 A 
ATOM     83  F   UNL A   1      44.131  28.065  27.346  1.00  0.00    -0.203 F 
ATOM     84  F   UNL A   1      44.919  22.955  28.978  1.00  0.00    -0.200 F 
ATOM     85  C   UNL A   1      45.604  24.804  27.694  1.00  0.00     0.200 A 
ATOM     86  F   UNL A   1      46.177  26.668  26.376  1.00  0.00    -0.200 F 
ATOM     87  F   UNL A   1      46.585  24.081  27.137  1.00  0.00    -0.200 F 
ENDBRANCH  63  77
BRANCH  64  88
ATOM     88  C   UNL A   1      37.739  32.709  33.305  1.00  0.00     0.064 A 
ATOM     89  C   UNL A   1      37.315  34.035  33.527  1.00  0.00     0.173 A 
ATOM     90  C   UNL A   1      36.833  31.833  32.698  1.00  0.00     0.173 A 
ATOM     91  F   UNL A   1      38.148  34.915  34.106  1.00  0.00    -0.203 F 
ATOM     92  C   UNL A   1      36.094  34.496  33.042  1.00  0.00     0.198 A 
ATOM     93  C   UNL A   1      35.599  32.296  32.230  1.00  0.00     0.198 A 
ATOM     94  F   UNL A   1      37.180  30.563  32.445  1.00  0.00    -0.203 F 
ATOM     95  F   UNL A   1      35.775  35.793  33.159  1.00  0.00    -0.200 F 
ATOM     96  C   UNL A   1      35.249  33.632  32.367  1.00  0.00     0.200 A 
ATOM     97  F   UNL A   1      34.788  31.466  31.559  1.00  0.00    -0.200 F 
ATOM     98  F   UNL A   1      34.119  34.095  31.814  1.00  0.00    -0.200 F 
ENDBRANCH  64  88
BRANCH  76  99
ATOM     99  C   UNL A   1      42.460  27.539  35.377  1.00  0.00     0.064 A 
ATOM    100  C   UNL A   1      41.847  26.281  35.486  1.00  0.00     0.173 A 
ATOM    101  C   UNL A   1      43.654  27.681  36.139  1.00  0.00     0.173 A 
ATOM    102  F   UNL A   1      40.779  25.952  34.752  1.00  0.00    -0.203 F 
ATOM    103  C   UNL A   1      42.352  25.272  36.316  1.00  0.00     0.198 A 
ATOM    104  C   UNL A   1      44.191  26.651  36.911  1.00  0.00     0.198 A 
ATOM    105  F   UNL A   1      44.367  28.816  36.140  1.00  0.00    -0.203 F 
ATOM    106  F   UNL A   1      41.700  24.105  36.408  1.00  0.00    -0.200 F 
ATOM    107  C   UNL A   1      43.532  25.449  37.013  1.00  0.00     0.200 A 
ATOM    108  F   UNL A   1      45.365  26.831  37.535  1.00  0.00    -0.200 F 
ATOM    109  F   UNL A   1      44.041  24.460  37.758  1.00  0.00    -0.200 F 
ENDBRANCH  76  99
ENDBRANCH  50  51
ENDBRANCH  42  45
ENDBRANCH  40  41
ENDBRANCH  39  40
ENDBRANCH  38  39
ENDBRANCH  37  38
ENDBRANCH   1  37
TORSDOF 18
ENDMDL
MODEL 2
REMARK VINA RESULT:     -12.7      1.447      2.158
REMARK SMILES Cc1c(C(=O)Nc2ccc(C(=O)Nc3ccccc3C(=O)NCCCCCCNC(=O)c3ccc(-c4c5nc(c(-c6c(F)c(F)c(F)c(F)c6F)c6ccc([nH]6)c(-c6c(F)c(F)c(F)c(F)c6F)c6nc(c(-c7c(F)c(F)c(F)c(F)c7F)c7ccc4[nH]7)C=C6)C=C5)cc3)cc2)cccc1[N+](=O)[O-]
REMARK SMILES IDX 24 1 23 2 22 3 20 4 21 5 19 7 14 8 15 9 16 10 18 11 17 12
REMARK SMILES IDX 13 13 11 14 12 15 10 17 7 18 8 19 96 20 9 21 95 22 6 23 4 24
REMARK SMILES IDX 5 25 3 27 1 28 2 29 100 30 97 31 99 32 98 33 101 34 102 35
REMARK SMILES IDX 103 36 25 37 26 38 27 39 28 40 29 41 30 42 31 44 32 45 33 46
REMARK SMILES IDX 94 47 34 48 93 49 35 50 36 51 37 52 87 53 38 54 92 55 86 56
REMARK SMILES IDX 88 57 39 58 91 59 85 60 84 61 40 63 72 64 52 65 71 66 53 67
REMARK SMILES IDX 56 68 70 69 89 70 54 71 55 72 69 74 90 75 57 76 41 77 42 78
REMARK SMILES IDX 50 79 43 80 44 81 48 82 51 83 45 84 46 85 49 86 47 87 73 88
REMARK SMILES IDX 74 89 82 90 75 91 76 92 80 93 83 94 77 95 78 96 81 97 79 98
REMARK SMILES IDX 58 99 59 100 67 101 60 102 61 103 65 104 68 105 62 106
REMARK SMILES IDX 63 107 66 108 64 109
REMARK H PARENT 22 6 13 16 6 26 29 43 88 62 56 73
REMARK Flexibility Score: inf
ROOT
ATOM      1  C   UNL A   1      32.166  27.669  25.868  1.00  0.00     0.021 C 
ENDROOT
BRANCH   1   2
ATOM      2  C   UNL A   1      32.503  26.186  26.045  1.00  0.00     0.116 C 
BRANCH   2   3
ATOM      3  N   UNL A   1      31.921  25.287  25.069  1.00  0.00    -0.352 N 
ATOM      4  C   UNL A   1      31.925  23.910  24.991  1.00  0.00     0.253 C 
ATOM      5  O   UNL A   1      31.231  23.373  24.131  1.00  0.00    -0.269 OA
ATOM      6  H   UNL A   1      31.438  25.735  24.337  1.00  0.00     0.163 HD
BRANCH   4   7
ATOM      7  C   UNL A   1      32.766  23.070  25.889  1.00  0.00     0.063 A 
ATOM      8  C   UNL A   1      33.863  22.326  25.393  1.00  0.00     0.054 A 
ATOM      9  C   UNL A   1      34.579  21.492  26.269  1.00  0.00     0.027 A 
ATOM     10  C   UNL A   1      34.275  21.453  27.630  1.00  0.00     0.002 A 
ATOM     11  C   UNL A   1      32.419  22.947  27.245  1.00  0.00     0.016 A 
ATOM     12  C   UNL A   1      33.195  22.179  28.117  1.00  0.00     0.001 A 
BRANCH   8  13
ATOM     13  N   UNL A   1      34.391  22.390  24.088  1.00  0.00    -0.321 N 
ATOM     14  C   UNL A   1      35.616  22.811  23.612  1.00  0.00     0.255 C 
ATOM     15  O   UNL A   1      35.760  22.958  22.395  1.00  0.00    -0.269 OA
ATOM     16  H   UNL A   1      33.772  22.077  23.388  1.00  0.00     0.170 HD
BRANCH  14  17
ATOM     17  C   UNL A   1      36.826  22.896  24.483  1.00  0.00     0.040 A 
ATOM     18  C   UNL A   1      38.883  22.859  26.408  1.00  0.00     0.041 A 
ATOM     19  C   UNL A   1      38.173  24.021  26.155  1.00  0.00     0.027 A 
ATOM     20  C   UNL A   1      38.682  21.755  25.576  1.00  0.00     0.027 A 
ATOM     21  C   UNL A   1      37.091  24.003  25.286  1.00  0.00     0.016 A 
ATOM     22  C   UNL A   1      37.659  21.777  24.613  1.00  0.00     0.016 A 
BRANCH  18  23
ATOM     23  N   UNL A   1      39.711  22.722  27.535  1.00  0.00    -0.322 N 
ATOM     24  C   UNL A   1      41.065  22.444  27.637  1.00  0.00     0.256 C 
ATOM     25  O   UNL A   1      41.550  22.226  28.746  1.00  0.00    -0.269 OA
ATOM     26  H   UNL A   1      39.252  22.843  28.396  1.00  0.00     0.170 HD
BRANCH  24  27
ATOM     27  C   UNL A   1      41.973  22.379  26.449  1.00  0.00     0.049 A 
ATOM     28  C   UNL A   1      41.953  19.837  26.263  1.00  0.00     0.053 C 
ATOM     29  C   UNL A   1      42.518  21.189  25.909  1.00  0.00     0.039 A 
ATOM     30  C   UNL A   1      43.610  21.328  25.020  1.00  0.00     0.273 A 
ATOM     31  C   UNL A   1      42.321  23.626  25.893  1.00  0.00     0.014 A 
ATOM     32  C   UNL A   1      43.973  22.579  24.493  1.00  0.00     0.086 A 
ATOM     33  C   UNL A   1      43.286  23.721  24.891  1.00  0.00     0.008 A 
BRANCH  30  34
ATOM     34  N   UNL A   1      44.496  20.198  24.709  1.00  0.00     0.063 N 
ATOM     35  O   UNL A   1      45.479  20.022  25.443  1.00  0.00    -0.258 OA
ATOM     36  O   UNL A   1      44.163  19.440  23.788  1.00  0.00    -0.258 OA
ENDBRANCH  30  34
ENDBRANCH  24  27
ENDBRANCH  18  23
ENDBRANCH  14  17
ENDBRANCH   8  13
ENDBRANCH   4   7
ENDBRANCH   2   3
ENDBRANCH   1   2
BRANCH   1  37
ATOM     37  C   UNL A   1      31.812  28.495  27.107  1.00  0.00     0.002 C 
BRANCH  37  38
ATOM     38  C   UNL A   1      31.660  30.010  26.935  1.00  0.00     0.002 C 
BRANCH  38  39
ATOM     39  C   UNL A   1      32.901  30.782  26.496  1.00  0.00     0.021 C 
BRANCH  39  40
ATOM     40  C   UNL A   1      34.149  30.524  27.327  1.00  0.00     0.116 C 
BRANCH  40  41
ATOM     41  N   UNL A   1      34.300  31.407  28.470  1.00  0.00    -0.352 N 
ATOM     42  C   UNL A   1      35.308  31.473  29.416  1.00  0.00     0.251 C 
ATOM     43  H   UNL A   1      33.573  32.059  28.591  1.00  0.00     0.163 HD
ATOM     44  O   UNL A   1      35.163  32.186  30.397  1.00  0.00    -0.269 OA
BRANCH  42  45
ATOM     45  C   UNL A   1      36.618  30.812  29.172  1.00  0.00     0.039 A 
ATOM     46  C   UNL A   1      36.761  29.487  29.611  1.00  0.00     0.014 A 
ATOM     47  C   UNL A   1      37.733  31.505  28.713  1.00  0.00     0.014 A 
ATOM     48  C   UNL A   1      38.032  28.960  29.822  1.00  0.00     0.010 A 
ATOM     49  C   UNL A   1      38.992  31.031  29.013  1.00  0.00     0.010 A 
ATOM     50  C   UNL A   1      39.134  29.787  29.627  1.00  0.00    -0.014 A 
BRANCH  50  51
ATOM     51  C   UNL A   1      40.472  29.478  30.097  1.00  0.00     0.031 A 
ATOM     52  C   UNL A   1      41.208  28.335  29.534  1.00  0.00     0.074 A 
ATOM     53  C   UNL A   1      41.073  30.330  30.956  1.00  0.00     0.049 A 
ATOM     54  N   UNL A   1      42.185  27.746  30.129  1.00  0.00    -0.248 NA
ATOM     55  C   UNL A   1      40.875  27.739  28.246  1.00  0.00     0.031 C 
ATOM     56  C   UNL A   1      42.486  30.376  31.320  1.00  0.00     0.029 A 
ATOM     57  N   UNL A   1      40.456  31.233  31.839  1.00  0.00    -0.354 N 
ATOM     58  C   UNL A   1      42.783  26.902  29.224  1.00  0.00     0.074 A 
ATOM     59  C   UNL A   1      41.889  26.882  28.089  1.00  0.00     0.031 C 
ATOM     60  C   UNL A   1      42.604  30.986  32.510  1.00  0.00     0.029 A 
ATOM     61  C   UNL A   1      41.259  31.217  33.003  1.00  0.00     0.049 A 
ATOM     62  H   UNL A   1      39.640  31.761  31.681  1.00  0.00     0.167 HD
ATOM     63  C   UNL A   1      44.032  26.426  29.495  1.00  0.00     0.037 A 
ATOM     64  C   UNL A   1      40.774  30.757  34.192  1.00  0.00     0.037 A 
ATOM     65  C   UNL A   1      44.495  26.894  30.800  1.00  0.00     0.049 A 
ATOM     66  C   UNL A   1      41.557  29.603  34.767  1.00  0.00     0.074 A 
ATOM     67  C   UNL A   1      45.319  27.940  31.183  1.00  0.00     0.029 A 
ATOM     68  N   UNL A   1      43.843  26.467  31.951  1.00  0.00    -0.354 N 
ATOM     69  N   UNL A   1      42.326  28.820  34.061  1.00  0.00    -0.248 NA
ATOM     70  C   UNL A   1      41.532  29.235  36.177  1.00  0.00     0.031 C 
ATOM     71  C   UNL A   1      45.154  28.146  32.574  1.00  0.00     0.029 A 
ATOM     72  C   UNL A   1      44.240  27.218  33.039  1.00  0.00     0.049 A 
ATOM     73  H   UNL A   1      43.189  25.733  31.985  1.00  0.00     0.167 HD
ATOM     74  C   UNL A   1      42.897  27.873  34.877  1.00  0.00     0.074 A 
ATOM     75  C   UNL A   1      42.378  28.189  36.194  1.00  0.00     0.031 C 
ATOM     76  C   UNL A   1      43.742  26.919  34.375  1.00  0.00     0.037 A 
BRANCH  63  77
ATOM     77  C   UNL A   1      44.944  25.786  28.471  1.00  0.00     0.064 A 
ATOM     78  C   UNL A   1      45.601  26.569  27.495  1.00  0.00     0.173 A 
ATOM     79  C   UNL A   1      45.178  24.403  28.367  1.00  0.00     0.173 A 
ATOM     80  F   UNL A   1      45.571  27.907  27.529  1.00  0.00    -0.203 F 
ATOM     81  C   UNL A   1      46.318  26.006  26.436  1.00  0.00     0.198 A 
ATOM     82  C   UNL A   1      45.851  23.836  27.278  1.00  0.00     0.198 A 
ATOM     83  F   UNL A   1      44.815  23.561  29.342  1.00  0.00    -0.203 F 
ATOM     84  F   UNL A   1      46.908  26.804  25.534  1.00  0.00    -0.200 F 
ATOM     85  C   UNL A   1      46.409  24.637  26.305  1.00  0.00     0.200 A 
ATOM     86  F   UNL A   1      45.951  22.501  27.182  1.00  0.00    -0.200 F 
ATOM     87  F   UNL A   1      47.054  24.094  25.263  1.00  0.00    -0.200 F 
ENDBRANCH  63  77
BRANCH  64  88
ATOM     88  C   UNL A   1      39.310  30.975  34.340  1.00  0.00     0.064 A 
ATOM     89  C   UNL A   1      38.879  32.203  34.883  1.00  0.00     0.173 A 
ATOM     90  C   UNL A   1      38.380  30.230  33.607  1.00  0.00     0.173 A 
ATOM     91  F   UNL A   1      39.732  32.957  35.593  1.00  0.00    -0.203 F 
ATOM     92  C   UNL A   1      37.619  32.722  34.590  1.00  0.00     0.198 A 
ATOM     93  C   UNL A   1      37.110  30.746  33.333  1.00  0.00     0.198 A 
ATOM     94  F   UNL A   1      38.732  29.060  33.053  1.00  0.00    -0.203 F 
ATOM     95  F   UNL A   1      37.286  33.949  35.017  1.00  0.00    -0.200 F 
ATOM     96  C   UNL A   1      36.747  32.005  33.789  1.00  0.00     0.200 A 
ATOM     97  F   UNL A   1      36.271  30.062  32.542  1.00  0.00    -0.200 F 
ATOM     98  F   UNL A   1      35.574  32.543  33.426  1.00  0.00    -0.200 F 
ENDBRANCH  64  88
BRANCH  76  99
ATOM     99  C   UNL A   1      44.270  25.666  35.060  1.00  0.00     0.064 A 
ATOM    100  C   UNL A   1      43.840  24.358  34.791  1.00  0.00     0.173 A 
ATOM    101  C   UNL A   1      45.375  25.752  35.952  1.00  0.00     0.173 A 
ATOM    102  F   UNL A   1      42.885  24.100  33.891  1.00  0.00    -0.203 F 
ATOM    103  C   UNL A   1      44.428  23.238  35.395  1.00  0.00     0.198 A 
ATOM    104  C   UNL A   1      46.001  24.633  36.499  1.00  0.00     0.198 A 
ATOM    105  F   UNL A   1      45.914  26.928  36.307  1.00  0.00    -0.203 F 
ATOM    106  F   UNL A   1      43.947  22.016  35.128  1.00  0.00    -0.200 F 
ATOM    107  C   UNL A   1      45.518  23.373  36.232  1.00  0.00     0.200 A 
ATOM    108  F   UNL A   1      47.090  24.787  37.267  1.00  0.00    -0.200 F 
ATOM    109  F   UNL A   1      46.113  22.295  36.759  1.00  0.00    -0.200 F 
ENDBRANCH  76  99
ENDBRANCH  50  51
ENDBRANCH  42  45
ENDBRANCH  40  41
ENDBRANCH  39  40
ENDBRANCH  38  39
ENDBRANCH  37  38
ENDBRANCH   1  37
TORSDOF 18
ENDMDL
MODEL 3
REMARK VINA RESULT:     -12.7      2.650      4.927
REMARK SMILES Cc1c(C(=O)Nc2ccc(C(=O)Nc3ccccc3C(=O)NCCCCCCNC(=O)c3ccc(-c4c5nc(c(-c6c(F)c(F)c(F)c(F)c6F)c6ccc([nH]6)c(-c6c(F)c(F)c(F)c(F)c6F)c6nc(c(-c7c(F)c(F)c(F)c(F)c7F)c7ccc4[nH]7)C=C6)C=C5)cc3)cc2)cccc1[N+](=O)[O-]
REMARK SMILES IDX 24 1 23 2 22 3 20 4 21 5 19 7 14 8 15 9 16 10 18 11 17 12
REMARK SMILES IDX 13 13 11 14 12 15 10 17 7 18 8 19 96 20 9 21 95 22 6 23 4 24
REMARK SMILES IDX 5 25 3 27 1 28 2 29 100 30 97 31 99 32 98 33 101 34 102 35
REMARK SMILES IDX 103 36 25 37 26 38 27 39 28 40 29 41 30 42 31 44 32 45 33 46
REMARK SMILES IDX 94 47 34 48 93 49 35 50 36 51 37 52 87 53 38 54 92 55 86 56
REMARK SMILES IDX 88 57 39 58 91 59 85 60 84 61 40 63 72 64 52 65 71 66 53 67
REMARK SMILES IDX 56 68 70 69 89 70 54 71 55 72 69 74 90 75 57 76 41 77 42 78
REMARK SMILES IDX 50 79 43 80 44 81 48 82 51 83 45 84 46 85 49 86 47 87 73 88
REMARK SMILES IDX 74 89 82 90 75 91 76 92 80 93 83 94 77 95 78 96 81 97 79 98
REMARK SMILES IDX 58 99 59 100 67 101 60 102 61 103 65 104 68 105 62 106
REMARK SMILES IDX 63 107 66 108 64 109
REMARK H PARENT 22 6 13 16 6 26 29 43 88 62 56 73
REMARK Flexibility Score: inf
ROOT
ATOM      1  C   UNL A   1      34.864  30.378  27.493  1.00  0.00     0.021 C 
ENDROOT
BRANCH   1   2
ATOM      2  C   UNL A   1      34.319  28.968  27.248  1.00  0.00     0.116 C 
BRANCH   2   3
ATOM      3  N   UNL A   1      33.100  28.632  27.956  1.00  0.00    -0.352 N 
ATOM      4  C   UNL A   1      31.909  28.100  27.506  1.00  0.00     0.253 C 
ATOM      5  O   UNL A   1      31.068  27.772  28.338  1.00  0.00    -0.269 OA
ATOM      6  H   UNL A   1      33.126  28.813  28.923  1.00  0.00     0.163 HD
BRANCH   4   7
ATOM      7  C   UNL A   1      31.610  27.946  26.055  1.00  0.00     0.063 A 
ATOM      8  C   UNL A   1      30.947  26.802  25.553  1.00  0.00     0.054 A 
ATOM      9  C   UNL A   1      30.755  26.672  24.167  1.00  0.00     0.027 A 
ATOM     10  C   UNL A   1      31.132  27.692  23.294  1.00  0.00     0.002 A 
ATOM     11  C   UNL A   1      32.064  28.921  25.149  1.00  0.00     0.016 A 
ATOM     12  C   UNL A   1      31.788  28.814  23.784  1.00  0.00     0.001 A 
BRANCH   8  13
ATOM     13  N   UNL A   1      30.364  25.773  26.321  1.00  0.00    -0.321 N 
ATOM     14  C   UNL A   1      30.772  24.483  26.590  1.00  0.00     0.255 C 
ATOM     15  O   UNL A   1      29.977  23.710  27.130  1.00  0.00    -0.269 OA
ATOM     16  H   UNL A   1      29.508  26.022  26.741  1.00  0.00     0.170 HD
BRANCH  14  17
ATOM     17  C   UNL A   1      32.194  24.048  26.445  1.00  0.00     0.040 A 
ATOM     18  C   UNL A   1      34.733  22.955  25.900  1.00  0.00     0.041 A 
ATOM     19  C   UNL A   1      34.067  22.646  27.076  1.00  0.00     0.027 A 
ATOM     20  C   UNL A   1      34.205  23.949  25.072  1.00  0.00     0.027 A 
ATOM     21  C   UNL A   1      32.774  23.101  27.286  1.00  0.00     0.016 A 
ATOM     22  C   UNL A   1      32.941  24.497  25.348  1.00  0.00     0.016 A 
BRANCH  18  23
ATOM     23  N   UNL A   1      35.853  22.228  25.464  1.00  0.00    -0.322 N 
ATOM     24  C   UNL A   1      35.966  20.930  24.993  1.00  0.00     0.256 C 
ATOM     25  O   UNL A   1      37.085  20.456  24.804  1.00  0.00    -0.269 OA
ATOM     26  H   UNL A   1      36.702  22.726  25.499  1.00  0.00     0.170 HD
BRANCH  24  27
ATOM     27  C   UNL A   1      34.780  20.060  24.715  1.00  0.00     0.049 A 
ATOM     28  C   UNL A   1      35.969  17.859  25.206  1.00  0.00     0.053 C 
ATOM     29  C   UNL A   1      34.809  18.646  24.651  1.00  0.00     0.039 A 
ATOM     30  C   UNL A   1      33.699  18.008  24.049  1.00  0.00     0.273 A 
ATOM     31  C   UNL A   1      33.579  20.750  24.458  1.00  0.00     0.014 A 
ATOM     32  C   UNL A   1      32.514  18.708  23.764  1.00  0.00     0.086 A 
ATOM     33  C   UNL A   1      32.441  20.073  24.024  1.00  0.00     0.008 A 
BRANCH  30  34
ATOM     34  N   UNL A   1      33.777  16.620  23.572  1.00  0.00     0.063 N 
ATOM     35  O   UNL A   1      33.320  15.735  24.308  1.00  0.00    -0.258 OA
ATOM     36  O   UNL A   1      34.216  16.426  22.430  1.00  0.00    -0.258 OA
ENDBRANCH  30  34
ENDBRANCH  24  27
ENDBRANCH  18  23
ENDBRANCH  14  17
ENDBRANCH   8  13
ENDBRANCH   4   7
ENDBRANCH   2   3
ENDBRANCH   1   2
BRANCH   1  37
ATOM     37  C   UNL A   1      33.900  31.463  27.981  1.00  0.00     0.002 C 
BRANCH  37  38
ATOM     38  C   UNL A   1      34.221  32.917  27.621  1.00  0.00     0.002 C 
BRANCH  38  39
ATOM     39  C   UNL A   1      33.404  33.998  28.322  1.00  0.00     0.021 C 
BRANCH  39  40
ATOM     40  C   UNL A   1      34.216  35.146  28.903  1.00  0.00     0.116 C 
BRANCH  40  41
ATOM     41  N   UNL A   1      34.374  35.098  30.346  1.00  0.00    -0.352 N 
ATOM     42  C   UNL A   1      35.051  34.185  31.137  1.00  0.00     0.251 C 
ATOM     43  H   UNL A   1      33.932  35.827  30.838  1.00  0.00     0.163 HD
ATOM     44  O   UNL A   1      34.925  34.235  32.351  1.00  0.00    -0.269 OA
BRANCH  42  45
ATOM     45  C   UNL A   1      36.043  33.254  30.536  1.00  0.00     0.039 A 
ATOM     46  C   UNL A   1      36.007  31.916  30.960  1.00  0.00     0.014 A 
ATOM     47  C   UNL A   1      37.096  33.692  29.741  1.00  0.00     0.014 A 
ATOM     48  C   UNL A   1      37.130  31.108  30.799  1.00  0.00     0.010 A 
ATOM     49  C   UNL A   1      38.245  32.935  29.667  1.00  0.00     0.010 A 
ATOM     50  C   UNL A   1      38.279  31.671  30.255  1.00  0.00    -0.014 A 
BRANCH  50  51
ATOM     51  C   UNL A   1      39.591  31.051  30.313  1.00  0.00     0.031 A 
ATOM     52  C   UNL A   1      39.858  29.814  29.564  1.00  0.00     0.074 A 
ATOM     53  C   UNL A   1      40.588  31.698  30.956  1.00  0.00     0.049 A 
ATOM     54  N   UNL A   1      40.806  28.991  29.849  1.00  0.00    -0.248 NA
ATOM     55  C   UNL A   1      39.046  29.386  28.432  1.00  0.00     0.031 C 
ATOM     56  C   UNL A   1      42.019  31.414  30.891  1.00  0.00     0.029 A 
ATOM     57  N   UNL A   1      40.468  32.655  31.979  1.00  0.00    -0.354 N 
ATOM     58  C   UNL A   1      40.914  28.096  28.812  1.00  0.00     0.074 A 
ATOM     59  C   UNL A   1      39.753  28.341  27.988  1.00  0.00     0.031 C 
ATOM     60  C   UNL A   1      42.605  31.908  31.992  1.00  0.00     0.029 A 
ATOM     61  C   UNL A   1      41.545  32.393  32.857  1.00  0.00     0.049 A 
ATOM     62  H   UNL A   1      39.782  33.356  32.064  1.00  0.00     0.167 HD
ATOM     63  C   UNL A   1      42.048  27.345  28.708  1.00  0.00     0.037 A 
ATOM     64  C   UNL A   1      41.330  31.975  34.137  1.00  0.00     0.037 A 
ATOM     65  C   UNL A   1      42.957  27.619  29.818  1.00  0.00     0.049 A 
ATOM     66  C   UNL A   1      41.964  30.645  34.461  1.00  0.00     0.074 A 
ATOM     67  C   UNL A   1      44.070  28.436  29.940  1.00  0.00     0.029 A 
ATOM     68  N   UNL A   1      42.583  27.272  31.111  1.00  0.00    -0.354 N 
ATOM     69  N   UNL A   1      42.302  29.760  33.564  1.00  0.00    -0.248 NA
ATOM     70  C   UNL A   1      42.260  30.204  35.819  1.00  0.00     0.031 C 
ATOM     71  C   UNL A   1      44.360  28.586  31.318  1.00  0.00     0.029 A 
ATOM     72  C   UNL A   1      43.433  27.850  32.033  1.00  0.00     0.049 A 
ATOM     73  H   UNL A   1      41.818  26.696  31.337  1.00  0.00     0.167 HD
ATOM     74  C   UNL A   1      42.853  28.663  34.181  1.00  0.00     0.074 A 
ATOM     75  C   UNL A   1      42.818  29.001  35.591  1.00  0.00     0.031 C 
ATOM     76  C   UNL A   1      43.283  27.583  33.457  1.00  0.00     0.037 A 
BRANCH  63  77
ATOM     77  C   UNL A   1      42.461  26.588  27.464  1.00  0.00     0.064 A 
ATOM     78  C   UNL A   1      41.907  25.322  27.168  1.00  0.00     0.173 A 
ATOM     79  C   UNL A   1      43.432  27.030  26.548  1.00  0.00     0.173 A 
ATOM     80  F   UNL A   1      40.892  24.815  27.879  1.00  0.00    -0.203 F 
ATOM     81  C   UNL A   1      42.376  24.520  26.124  1.00  0.00     0.198 A 
ATOM     82  C   UNL A   1      43.939  26.208  25.535  1.00  0.00     0.198 A 
ATOM     83  F   UNL A   1      43.879  28.292  26.563  1.00  0.00    -0.203 F 
ATOM     84  F   UNL A   1      41.815  23.322  25.903  1.00  0.00    -0.200 F 
ATOM     85  C   UNL A   1      43.421  24.946  25.333  1.00  0.00     0.200 A 
ATOM     86  F   UNL A   1      44.939  26.650  24.758  1.00  0.00    -0.200 F 
ATOM     87  F   UNL A   1      43.905  24.158  24.363  1.00  0.00    -0.200 F 
ENDBRANCH  63  77
BRANCH  64  88
ATOM     88  C   UNL A   1      40.057  32.495  34.706  1.00  0.00     0.064 A 
ATOM     89  C   UNL A   1      40.044  33.819  35.189  1.00  0.00     0.173 A 
ATOM     90  C   UNL A   1      38.825  31.904  34.406  1.00  0.00     0.173 A 
ATOM     91  F   UNL A   1      41.200  34.433  35.491  1.00  0.00    -0.203 F 
ATOM     92  C   UNL A   1      38.866  34.561  35.240  1.00  0.00     0.198 A 
ATOM     93  C   UNL A   1      37.643  32.646  34.478  1.00  0.00     0.198 A 
ATOM     94  F   UNL A   1      38.770  30.652  33.929  1.00  0.00    -0.203 F 
ATOM     95  F   UNL A   1      38.906  35.857  35.584  1.00  0.00    -0.200 F 
ATOM     96  C   UNL A   1      37.670  33.982  34.855  1.00  0.00     0.200 A 
ATOM     97  F   UNL A   1      36.485  32.093  34.087  1.00  0.00    -0.200 F 
ATOM     98  F   UNL A   1      36.551  34.720  34.809  1.00  0.00    -0.200 F 
ENDBRANCH  64  88
BRANCH  76  99
ATOM     99  C   UNL A   1      43.688  26.205  33.962  1.00  0.00     0.064 A 
ATOM    100  C   UNL A   1      44.983  25.669  33.890  1.00  0.00     0.173 A 
ATOM    101  C   UNL A   1      42.759  25.408  34.689  1.00  0.00     0.173 A 
ATOM    102  F   UNL A   1      45.997  26.344  33.337  1.00  0.00    -0.203 F 
ATOM    103  C   UNL A   1      45.311  24.427  34.452  1.00  0.00     0.198 A 
ATOM    104  C   UNL A   1      43.106  24.206  35.303  1.00  0.00     0.198 A 
ATOM    105  F   UNL A   1      41.482  25.780  34.858  1.00  0.00    -0.203 F 
ATOM    106  F   UNL A   1      46.556  23.950  34.316  1.00  0.00    -0.200 F 
ATOM    107  C   UNL A   1      44.379  23.705  35.173  1.00  0.00     0.200 A 
ATOM    108  F   UNL A   1      42.198  23.550  36.042  1.00  0.00    -0.200 F 
ATOM    109  F   UNL A   1      44.715  22.548  35.757  1.00  0.00    -0.200 F 
ENDBRANCH  76  99
ENDBRANCH  50  51
ENDBRANCH  42  45
ENDBRANCH  40  41
ENDBRANCH  39  40
ENDBRANCH  38  39
ENDBRANCH  37  38
ENDBRANCH   1  37
TORSDOF 18
ENDMDL
