MODEL 1
REMARK VINA RESULT:     -13.4      0.000      0.000
REMARK SMILES Cc1ccc(C)c(N2C(=O)S[C@H](CC(=O)Nc3ccc(C(=O)NCCCCCCNC(=O)c4ccc(-c5c6nc(c(-c7c(F)c(F)c(F)c(F)c7F)c7ccc([nH]7)c(-c7c(F)c(F)c(F)c(F)c7F)c7nc(c(-c8c(F)c(F)c(F)c(F)c8F)c8ccc5[nH]8)C=C7)C=C6)cc4)c(O)c3)C2=O)c1
REMARK SMILES IDX 25 1 24 2 23 3 21 4 22 5 20 7 17 8 18 9 98 10 19 11 96 12
REMARK SMILES IDX 16 13 14 14 15 15 13 17 12 18 8 19 9 20 99 21 10 22 11 23
REMARK SMILES IDX 100 24 7 25 1 26 2 27 3 28 101 29 4 30 5 31 6 32 97 33 26 35
REMARK SMILES IDX 27 36 28 37 29 38 30 39 31 40 32 42 33 43 34 44 95 45 35 46
REMARK SMILES IDX 94 47 36 48 37 49 38 50 88 51 39 52 93 53 87 54 89 55 40 56
REMARK SMILES IDX 92 57 86 58 85 59 41 61 73 62 53 63 72 64 54 65 57 66 71 67
REMARK SMILES IDX 90 68 55 69 56 70 70 72 91 73 58 74 42 75 43 76 51 77 44 78
REMARK SMILES IDX 45 79 49 80 52 81 46 82 47 83 50 84 48 85 74 86 75 87 83 88
REMARK SMILES IDX 76 89 77 90 81 91 84 92 78 93 79 94 82 95 80 96 59 97 60 98
REMARK SMILES IDX 68 99 61 100 62 101 66 102 69 103 63 104 64 105 67 106
REMARK SMILES IDX 65 107
REMARK H PARENT 23 6 16 16 97 34 30 41 89 60 57 71
REMARK Flexibility Score: inf
ROOT
ATOM      1  C   UNL A   1      39.967  22.106  26.943  1.00  0.00     0.021 C 
ENDROOT
BRANCH   1   2
ATOM      2  C   UNL A   1      38.906  21.390  26.124  1.00  0.00     0.116 C 
BRANCH   2   3
ATOM      3  N   UNL A   1      38.393  22.127  24.999  1.00  0.00    -0.352 N 
ATOM      4  C   UNL A   1      37.136  22.608  24.740  1.00  0.00     0.255 C 
ATOM      5  O   UNL A   1      37.016  23.339  23.757  1.00  0.00    -0.269 OA
ATOM      6  H   UNL A   1      39.056  22.317  24.296  1.00  0.00     0.163 HD
BRANCH   4   7
ATOM      7  C   UNL A   1      35.911  22.215  25.506  1.00  0.00     0.081 A 
ATOM      8  C   UNL A   1      33.369  21.979  26.713  1.00  0.00     0.044 A 
ATOM      9  C   UNL A   1      34.212  23.037  27.018  1.00  0.00     0.027 A 
ATOM     10  C   UNL A   1      33.898  20.908  26.010  1.00  0.00     0.073 A 
ATOM     11  C   UNL A   1      35.436  23.196  26.379  1.00  0.00     0.020 A 
ATOM     12  C   UNL A   1      35.188  21.015  25.460  1.00  0.00     0.130 A 
BRANCH   8  13
ATOM     13  N   UNL A   1      32.046  21.978  27.179  1.00  0.00    -0.326 N 
ATOM     14  C   UNL A   1      31.070  22.912  26.888  1.00  0.00     0.226 C 
ATOM     15  O   UNL A   1      30.100  23.050  27.631  1.00  0.00    -0.275 OA
ATOM     16  H   UNL A   1      31.786  21.238  27.774  1.00  0.00     0.169 HD
BRANCH  14  17
ATOM     17  C   UNL A   1      31.112  23.590  25.520  1.00  0.00     0.125 C 
BRANCH  17  18
ATOM     18  C   UNL A   1      32.079  24.762  25.375  1.00  0.00     0.156 C 
ATOM     19  N   UNL A   1      30.995  26.473  24.089  1.00  0.00    -0.240 N 
ATOM     20  C   UNL A   1      31.667  25.839  23.088  1.00  0.00     0.293 C 
ATOM     21  C   UNL A   1      31.270  26.055  25.383  1.00  0.00     0.248 C 
ATOM     22  O   UNL A   1      31.489  25.917  21.868  1.00  0.00    -0.261 OA
ATOM     23  S   UNL A   1      32.928  24.832  23.770  1.00  0.00    -0.050 SA
ATOM     24  O   UNL A   1      30.906  26.600  26.418  1.00  0.00    -0.273 OA
BRANCH  19  25
ATOM     25  C   UNL A   1      30.333  27.694  23.825  1.00  0.00     0.056 A 
ATOM     26  C   UNL A   1      26.860  28.937  22.811  1.00  0.00     0.044 C 
ATOM     27  C   UNL A   1      28.315  28.897  23.177  1.00  0.00    -0.049 A 
ATOM     28  C   UNL A   1      29.049  30.087  23.163  1.00  0.00     0.004 A 
ATOM     29  C   UNL A   1      28.962  27.699  23.524  1.00  0.00     0.030 A 
ATOM     30  C   UNL A   1      30.410  30.085  23.464  1.00  0.00     0.006 A 
ATOM     31  C   UNL A   1      31.072  28.893  23.785  1.00  0.00    -0.027 A 
ATOM     32  C   UNL A   1      32.547  28.974  24.071  1.00  0.00     0.046 C 
ENDBRANCH  19  25
ENDBRANCH  17  18
ENDBRANCH  14  17
ENDBRANCH   8  13
BRANCH  12  33
ATOM     33  O   UNL A   1      35.705  19.842  24.988  1.00  0.00    -0.507 OA
ATOM     34  H   UNL A   1      35.157  19.086  24.909  1.00  0.00     0.293 HD
ENDBRANCH  12  33
ENDBRANCH   4   7
ENDBRANCH   2   3
ENDBRANCH   1   2
BRANCH   1  35
ATOM     35  C   UNL A   1      41.075  21.269  27.592  1.00  0.00     0.002 C 
BRANCH  35  36
ATOM     36  C   UNL A   1      41.352  19.829  27.138  1.00  0.00     0.002 C 
BRANCH  36  37
ATOM     37  C   UNL A   1      42.220  19.508  25.915  1.00  0.00     0.021 C 
BRANCH  37  38
ATOM     38  C   UNL A   1      43.607  18.914  26.122  1.00  0.00     0.116 C 
BRANCH  38  39
ATOM     39  N   UNL A   1      44.665  19.524  25.306  1.00  0.00    -0.352 N 
ATOM     40  C   UNL A   1      44.912  20.823  24.886  1.00  0.00     0.251 C 
ATOM     41  H   UNL A   1      45.338  18.876  24.992  1.00  0.00     0.163 HD
ATOM     42  O   UNL A   1      45.710  21.021  23.973  1.00  0.00    -0.269 OA
BRANCH  40  43
ATOM     43  C   UNL A   1      44.254  21.984  25.522  1.00  0.00     0.039 A 
ATOM     44  C   UNL A   1      43.247  22.754  24.935  1.00  0.00     0.014 A 
ATOM     45  C   UNL A   1      44.767  22.424  26.715  1.00  0.00     0.014 A 
ATOM     46  C   UNL A   1      42.919  23.989  25.519  1.00  0.00     0.010 A 
ATOM     47  C   UNL A   1      44.113  23.336  27.465  1.00  0.00     0.010 A 
ATOM     48  C   UNL A   1      43.438  24.302  26.776  1.00  0.00    -0.014 A 
BRANCH  48  49
ATOM     49  C   UNL A   1      43.279  25.552  27.489  1.00  0.00     0.031 A 
ATOM     50  C   UNL A   1      44.233  26.599  27.096  1.00  0.00     0.074 A 
ATOM     51  C   UNL A   1      42.150  25.884  28.157  1.00  0.00     0.049 A 
ATOM     52  N   UNL A   1      45.244  27.027  27.769  1.00  0.00    -0.248 NA
ATOM     53  C   UNL A   1      44.144  27.132  25.728  1.00  0.00     0.031 C 
ATOM     54  C   UNL A   1      40.882  25.148  28.259  1.00  0.00     0.029 A 
ATOM     55  N   UNL A   1      41.877  27.043  28.820  1.00  0.00    -0.354 N 
ATOM     56  C   UNL A   1      45.807  28.023  26.983  1.00  0.00     0.074 A 
ATOM     57  C   UNL A   1      45.263  27.852  25.665  1.00  0.00     0.031 C 
ATOM     58  C   UNL A   1      39.933  25.953  28.793  1.00  0.00     0.029 A 
ATOM     59  C   UNL A   1      40.550  27.207  29.193  1.00  0.00     0.049 A 
ATOM     60  H   UNL A   1      42.569  27.713  29.020  1.00  0.00     0.167 HD
ATOM     61  C   UNL A   1      46.444  29.084  27.546  1.00  0.00     0.037 A 
ATOM     62  C   UNL A   1      40.008  28.319  29.751  1.00  0.00     0.037 A 
ATOM     63  C   UNL A   1      46.706  28.842  28.947  1.00  0.00     0.049 A 
ATOM     64  C   UNL A   1      41.129  29.133  30.292  1.00  0.00     0.074 A 
ATOM     65  C   UNL A   1      47.372  27.860  29.658  1.00  0.00     0.029 A 
ATOM     66  N   UNL A   1      45.912  29.485  29.867  1.00  0.00    -0.354 N 
ATOM     67  N   UNL A   1      41.862  28.789  31.313  1.00  0.00    -0.248 NA
ATOM     68  C   UNL A   1      41.703  30.160  29.435  1.00  0.00     0.031 C 
ATOM     69  C   UNL A   1      46.595  27.660  30.838  1.00  0.00     0.029 A 
ATOM     70  C   UNL A   1      45.531  28.562  30.807  1.00  0.00     0.049 A 
ATOM     71  H   UNL A   1      45.663  30.438  29.855  1.00  0.00     0.167 HD
ATOM     72  C   UNL A   1      43.140  29.224  30.995  1.00  0.00     0.074 A 
ATOM     73  C   UNL A   1      42.957  30.162  29.893  1.00  0.00     0.031 C 
ATOM     74  C   UNL A   1      44.242  28.565  31.460  1.00  0.00     0.037 A 
BRANCH  61  75
ATOM     75  C   UNL A   1      46.487  30.473  26.950  1.00  0.00     0.064 A 
ATOM     76  C   UNL A   1      47.722  31.150  26.924  1.00  0.00     0.173 A 
ATOM     77  C   UNL A   1      45.356  31.272  26.665  1.00  0.00     0.173 A 
ATOM     78  F   UNL A   1      48.864  30.497  27.185  1.00  0.00    -0.203 F 
ATOM     79  C   UNL A   1      47.805  32.530  26.727  1.00  0.00     0.198 A 
ATOM     80  C   UNL A   1      45.451  32.638  26.406  1.00  0.00     0.198 A 
ATOM     81  F   UNL A   1      44.104  30.808  26.734  1.00  0.00    -0.203 F 
ATOM     82  F   UNL A   1      48.988  33.147  26.855  1.00  0.00    -0.200 F 
ATOM     83  C   UNL A   1      46.668  33.274  26.476  1.00  0.00     0.200 A 
ATOM     84  F   UNL A   1      44.332  33.341  26.174  1.00  0.00    -0.200 F 
ATOM     85  F   UNL A   1      46.737  34.605  26.353  1.00  0.00    -0.200 F 
ENDBRANCH  61  75
BRANCH  62  86
ATOM     86  C   UNL A   1      38.627  28.850  29.659  1.00  0.00     0.064 A 
ATOM     87  C   UNL A   1      37.856  29.067  30.815  1.00  0.00     0.173 A 
ATOM     88  C   UNL A   1      38.134  29.414  28.467  1.00  0.00     0.173 A 
ATOM     89  F   UNL A   1      38.269  28.595  32.000  1.00  0.00    -0.203 F 
ATOM     90  C   UNL A   1      36.687  29.834  30.786  1.00  0.00     0.198 A 
ATOM     91  C   UNL A   1      36.960  30.169  28.437  1.00  0.00     0.198 A 
ATOM     92  F   UNL A   1      38.831  29.324  27.325  1.00  0.00    -0.203 F 
ATOM     93  F   UNL A   1      36.019  30.077  31.923  1.00  0.00    -0.200 F 
ATOM     94  C   UNL A   1      36.247  30.395  29.600  1.00  0.00     0.200 A 
ATOM     95  F   UNL A   1      36.560  30.730  27.286  1.00  0.00    -0.200 F 
ATOM     96  F   UNL A   1      35.164  31.184  29.581  1.00  0.00    -0.200 F 
ENDBRANCH  62  86
BRANCH  74  97
ATOM     97  C   UNL A   1      44.041  27.580  32.578  1.00  0.00     0.064 A 
ATOM     98  C   UNL A   1      43.943  26.190  32.396  1.00  0.00     0.173 A 
ATOM     99  C   UNL A   1      44.070  28.056  33.896  1.00  0.00     0.173 A 
ATOM    100  F   UNL A   1      44.011  25.646  31.175  1.00  0.00    -0.203 F 
ATOM    101  C   UNL A   1      43.825  25.325  33.483  1.00  0.00     0.198 A 
ATOM    102  C   UNL A   1      43.992  27.187  34.980  1.00  0.00     0.198 A 
ATOM    103  F   UNL A   1      44.218  29.369  34.132  1.00  0.00    -0.203 F 
ATOM    104  F   UNL A   1      43.711  24.004  33.280  1.00  0.00    -0.200 F 
ATOM    105  C   UNL A   1      43.856  25.824  34.774  1.00  0.00     0.200 A 
ATOM    106  F   UNL A   1      44.071  27.670  36.227  1.00  0.00    -0.200 F 
ATOM    107  F   UNL A   1      43.779  24.989  35.820  1.00  0.00    -0.200 F 
ENDBRANCH  74  97
ENDBRANCH  48  49
ENDBRANCH  40  43
ENDBRANCH  38  39
ENDBRANCH  37  38
ENDBRANCH  36  37
ENDBRANCH  35  36
ENDBRANCH   1  35
TORSDOF 18
ENDMDL
MODEL 2
REMARK VINA RESULT:     -13.1      1.240      2.034
REMARK SMILES Cc1ccc(C)c(N2C(=O)S[C@H](CC(=O)Nc3ccc(C(=O)NCCCCCCNC(=O)c4ccc(-c5c6nc(c(-c7c(F)c(F)c(F)c(F)c7F)c7ccc([nH]7)c(-c7c(F)c(F)c(F)c(F)c7F)c7nc(c(-c8c(F)c(F)c(F)c(F)c8F)c8ccc5[nH]8)C=C7)C=C6)cc4)c(O)c3)C2=O)c1
REMARK SMILES IDX 25 1 24 2 23 3 21 4 22 5 20 7 17 8 18 9 98 10 19 11 96 12
REMARK SMILES IDX 16 13 14 14 15 15 13 17 12 18 8 19 9 20 99 21 10 22 11 23
REMARK SMILES IDX 100 24 7 25 1 26 2 27 3 28 101 29 4 30 5 31 6 32 97 33 26 35
REMARK SMILES IDX 27 36 28 37 29 38 30 39 31 40 32 42 33 43 34 44 95 45 35 46
REMARK SMILES IDX 94 47 36 48 37 49 38 50 88 51 39 52 93 53 87 54 89 55 40 56
REMARK SMILES IDX 92 57 86 58 85 59 41 61 73 62 53 63 72 64 54 65 57 66 71 67
REMARK SMILES IDX 90 68 55 69 56 70 70 72 91 73 58 74 42 75 43 76 51 77 44 78
REMARK SMILES IDX 45 79 49 80 52 81 46 82 47 83 50 84 48 85 74 86 75 87 83 88
REMARK SMILES IDX 76 89 77 90 81 91 84 92 78 93 79 94 82 95 80 96 59 97 60 98
REMARK SMILES IDX 68 99 61 100 62 101 66 102 69 103 63 104 64 105 67 106
REMARK SMILES IDX 65 107
REMARK H PARENT 23 6 16 16 97 34 30 41 89 60 57 71
REMARK Flexibility Score: inf
ROOT
ATOM      1  C   UNL A   1      39.747  22.314  25.902  1.00  0.00     0.021 C 
ENDROOT
BRANCH   1   2
ATOM      2  C   UNL A   1      38.326  22.136  25.395  1.00  0.00     0.116 C 
BRANCH   2   3
ATOM      3  N   UNL A   1      37.902  20.773  25.210  1.00  0.00    -0.352 N 
ATOM      4  C   UNL A   1      36.647  20.234  25.081  1.00  0.00     0.255 C 
ATOM      5  O   UNL A   1      36.588  19.041  24.782  1.00  0.00    -0.269 OA
ATOM      6  H   UNL A   1      38.634  20.117  25.171  1.00  0.00     0.163 HD
BRANCH   4   7
ATOM      7  C   UNL A   1      35.380  20.971  25.383  1.00  0.00     0.081 A 
ATOM      8  C   UNL A   1      32.761  21.808  26.027  1.00  0.00     0.044 A 
ATOM      9  C   UNL A   1      33.017  21.069  24.881  1.00  0.00     0.027 A 
ATOM     10  C   UNL A   1      33.841  22.347  26.708  1.00  0.00     0.073 A 
ATOM     11  C   UNL A   1      34.292  20.598  24.593  1.00  0.00     0.020 A 
ATOM     12  C   UNL A   1      35.145  21.966  26.343  1.00  0.00     0.130 A 
BRANCH   8  13
ATOM     13  N   UNL A   1      31.438  22.053  26.423  1.00  0.00    -0.326 N 
ATOM     14  C   UNL A   1      30.827  23.287  26.535  1.00  0.00     0.226 C 
ATOM     15  O   UNL A   1      29.834  23.427  27.248  1.00  0.00    -0.275 OA
ATOM     16  H   UNL A   1      30.888  21.266  26.643  1.00  0.00     0.169 HD
BRANCH  14  17
ATOM     17  C   UNL A   1      31.272  24.396  25.583  1.00  0.00     0.125 C 
BRANCH  17  18
ATOM     18  C   UNL A   1      32.190  25.465  26.171  1.00  0.00     0.156 C 
ATOM     19  N   UNL A   1      31.723  27.542  25.067  1.00  0.00    -0.240 N 
ATOM     20  C   UNL A   1      32.765  27.117  24.301  1.00  0.00     0.293 C 
ATOM     21  C   UNL A   1      31.432  26.787  26.194  1.00  0.00     0.248 C 
ATOM     22  O   UNL A   1      33.119  27.517  23.187  1.00  0.00    -0.261 OA
ATOM     23  S   UNL A   1      33.636  25.851  25.142  1.00  0.00    -0.050 SA
ATOM     24  O   UNL A   1      30.655  27.088  27.092  1.00  0.00    -0.273 OA
BRANCH  19  25
ATOM     25  C   UNL A   1      31.214  28.851  24.895  1.00  0.00     0.056 A 
ATOM     26  C   UNL A   1      31.434  32.281  26.573  1.00  0.00     0.044 C 
ATOM     27  C   UNL A   1      31.056  31.163  25.646  1.00  0.00    -0.049 A 
ATOM     28  C   UNL A   1      30.107  31.405  24.648  1.00  0.00     0.004 A 
ATOM     29  C   UNL A   1      31.620  29.881  25.757  1.00  0.00     0.030 A 
ATOM     30  C   UNL A   1      29.705  30.384  23.788  1.00  0.00     0.006 A 
ATOM     31  C   UNL A   1      30.240  29.095  23.906  1.00  0.00    -0.027 A 
ATOM     32  C   UNL A   1      29.732  28.043  22.957  1.00  0.00     0.046 C 
ENDBRANCH  19  25
ENDBRANCH  17  18
ENDBRANCH  14  17
ENDBRANCH   8  13
BRANCH  12  33
ATOM     33  O   UNL A   1      36.136  22.714  26.911  1.00  0.00    -0.507 OA
ATOM     34  H   UNL A   1      36.223  23.621  26.693  1.00  0.00     0.293 HD
ENDBRANCH  12  33
ENDBRANCH   4   7
ENDBRANCH   2   3
ENDBRANCH   1   2
BRANCH   1  35
ATOM     35  C   UNL A   1      40.145  21.622  27.212  1.00  0.00     0.002 C 
BRANCH  35  36
ATOM     36  C   UNL A   1      41.381  20.716  27.288  1.00  0.00     0.002 C 
BRANCH  36  37
ATOM     37  C   UNL A   1      41.665  19.629  26.244  1.00  0.00     0.021 C 
BRANCH  37  38
ATOM     38  C   UNL A   1      43.050  18.997  26.186  1.00  0.00     0.116 C 
BRANCH  38  39
ATOM     39  N   UNL A   1      43.738  19.140  24.897  1.00  0.00    -0.352 N 
ATOM     40  C   UNL A   1      44.255  20.229  24.211  1.00  0.00     0.251 C 
ATOM     41  H   UNL A   1      43.855  18.286  24.420  1.00  0.00     0.163 HD
ATOM     42  O   UNL A   1      44.527  20.119  23.018  1.00  0.00    -0.269 OA
BRANCH  40  43
ATOM     43  C   UNL A   1      44.509  21.522  24.882  1.00  0.00     0.039 A 
ATOM     44  C   UNL A   1      45.626  21.809  25.670  1.00  0.00     0.014 A 
ATOM     45  C   UNL A   1      43.509  22.459  24.844  1.00  0.00     0.014 A 
ATOM     46  C   UNL A   1      45.601  22.959  26.477  1.00  0.00     0.010 A 
ATOM     47  C   UNL A   1      43.724  23.731  25.245  1.00  0.00     0.010 A 
ATOM     48  C   UNL A   1      44.575  23.887  26.300  1.00  0.00    -0.014 A 
BRANCH  48  49
ATOM     49  C   UNL A   1      44.341  25.077  27.092  1.00  0.00     0.031 A 
ATOM     50  C   UNL A   1      45.266  26.184  26.811  1.00  0.00     0.074 A 
ATOM     51  C   UNL A   1      43.175  25.319  27.736  1.00  0.00     0.049 A 
ATOM     52  N   UNL A   1      46.234  26.600  27.551  1.00  0.00    -0.248 NA
ATOM     53  C   UNL A   1      45.207  26.809  25.481  1.00  0.00     0.031 C 
ATOM     54  C   UNL A   1      41.935  24.531  27.736  1.00  0.00     0.029 A 
ATOM     55  N   UNL A   1      42.832  26.416  28.467  1.00  0.00    -0.354 N 
ATOM     56  C   UNL A   1      46.786  27.670  26.859  1.00  0.00     0.074 A 
ATOM     57  C   UNL A   1      46.297  27.572  25.512  1.00  0.00     0.031 C 
ATOM     58  C   UNL A   1      40.936  25.259  28.287  1.00  0.00     0.029 A 
ATOM     59  C   UNL A   1      41.487  26.505  28.797  1.00  0.00     0.049 A 
ATOM     60  H   UNL A   1      43.489  27.096  28.740  1.00  0.00     0.167 HD
ATOM     61  C   UNL A   1      47.359  28.712  27.520  1.00  0.00     0.037 A 
ATOM     62  C   UNL A   1      40.881  27.553  29.410  1.00  0.00     0.037 A 
ATOM     63  C   UNL A   1      47.578  28.381  28.909  1.00  0.00     0.049 A 
ATOM     64  C   UNL A   1      41.948  28.367  30.050  1.00  0.00     0.074 A 
ATOM     65  C   UNL A   1      48.256  27.376  29.576  1.00  0.00     0.029 A 
ATOM     66  N   UNL A   1      46.726  28.927  29.840  1.00  0.00    -0.354 N 
ATOM     67  N   UNL A   1      42.656  27.979  31.073  1.00  0.00    -0.248 NA
ATOM     68  C   UNL A   1      42.512  29.474  29.290  1.00  0.00     0.031 C 
ATOM     69  C   UNL A   1      47.444  27.064  30.708  1.00  0.00     0.029 A 
ATOM     70  C   UNL A   1      46.347  27.925  30.697  1.00  0.00     0.049 A 
ATOM     71  H   UNL A   1      46.440  29.868  29.884  1.00  0.00     0.167 HD
ATOM     72  C   UNL A   1      43.927  28.484  30.837  1.00  0.00     0.074 A 
ATOM     73  C   UNL A   1      43.747  29.490  29.796  1.00  0.00     0.031 C 
ATOM     74  C   UNL A   1      45.036  27.834  31.297  1.00  0.00     0.037 A 
BRANCH  61  75
ATOM     75  C   UNL A   1      47.368  30.140  27.024  1.00  0.00     0.064 A 
ATOM     76  C   UNL A   1      48.575  30.862  27.093  1.00  0.00     0.173 A 
ATOM     77  C   UNL A   1      46.217  30.914  26.750  1.00  0.00     0.173 A 
ATOM     78  F   UNL A   1      49.732  30.236  27.354  1.00  0.00    -0.203 F 
ATOM     79  C   UNL A   1      48.610  32.255  26.997  1.00  0.00     0.198 A 
ATOM     80  C   UNL A   1      46.267  32.297  26.590  1.00  0.00     0.198 A 
ATOM     81  F   UNL A   1      44.983  30.400  26.737  1.00  0.00    -0.203 F 
ATOM     82  F   UNL A   1      49.762  32.905  27.214  1.00  0.00    -0.200 F 
ATOM     83  C   UNL A   1      47.455  32.972  26.753  1.00  0.00     0.200 A 
ATOM     84  F   UNL A   1      45.130  32.973  26.364  1.00  0.00    -0.200 F 
ATOM     85  F   UNL A   1      47.475  34.310  26.726  1.00  0.00    -0.200 F 
ENDBRANCH  61  75
BRANCH  62  86
ATOM     86  C   UNL A   1      39.484  28.037  29.300  1.00  0.00     0.064 A 
ATOM     87  C   UNL A   1      38.665  28.147  30.438  1.00  0.00     0.173 A 
ATOM     88  C   UNL A   1      39.012  28.662  28.130  1.00  0.00     0.173 A 
ATOM     89  F   UNL A   1      39.054  27.612  31.604  1.00  0.00    -0.203 F 
ATOM     90  C   UNL A   1      37.468  28.871  30.415  1.00  0.00     0.198 A 
ATOM     91  C   UNL A   1      37.812  29.373  28.105  1.00  0.00     0.198 A 
ATOM     92  F   UNL A   1      39.752  28.674  27.011  1.00  0.00    -0.203 F 
ATOM     93  F   UNL A   1      36.752  29.012  31.539  1.00  0.00    -0.200 F 
ATOM     94  C   UNL A   1      37.049  29.494  29.252  1.00  0.00     0.200 A 
ATOM     95  F   UNL A   1      37.430  29.995  26.979  1.00  0.00    -0.200 F 
ATOM     96  F   UNL A   1      35.937  30.242  29.244  1.00  0.00    -0.200 F 
ENDBRANCH  62  86
BRANCH  74  97
ATOM     97  C   UNL A   1      44.834  26.766  32.335  1.00  0.00     0.064 A 
ATOM     98  C   UNL A   1      44.712  27.018  33.713  1.00  0.00     0.173 A 
ATOM     99  C   UNL A   1      44.637  25.448  31.903  1.00  0.00     0.173 A 
ATOM    100  F   UNL A   1      44.784  28.264  34.196  1.00  0.00    -0.203 F 
ATOM    101  C   UNL A   1      44.458  25.988  34.617  1.00  0.00     0.198 A 
ATOM    102  C   UNL A   1      44.344  24.427  32.804  1.00  0.00     0.198 A 
ATOM    103  F   UNL A   1      44.686  25.156  30.593  1.00  0.00    -0.203 F 
ATOM    104  F   UNL A   1      44.367  26.253  35.929  1.00  0.00    -0.200 F 
ATOM    105  C   UNL A   1      44.268  24.695  34.160  1.00  0.00     0.200 A 
ATOM    106  F   UNL A   1      44.113  23.187  32.352  1.00  0.00    -0.200 F 
ATOM    107  F   UNL A   1      43.987  23.710  35.026  1.00  0.00    -0.200 F 
ENDBRANCH  74  97
ENDBRANCH  48  49
ENDBRANCH  40  43
ENDBRANCH  38  39
ENDBRANCH  37  38
ENDBRANCH  36  37
ENDBRANCH  35  36
ENDBRANCH   1  35
TORSDOF 18
ENDMDL
MODEL 3
REMARK VINA RESULT:     -12.9      1.339      2.025
REMARK SMILES Cc1ccc(C)c(N2C(=O)S[C@H](CC(=O)Nc3ccc(C(=O)NCCCCCCNC(=O)c4ccc(-c5c6nc(c(-c7c(F)c(F)c(F)c(F)c7F)c7ccc([nH]7)c(-c7c(F)c(F)c(F)c(F)c7F)c7nc(c(-c8c(F)c(F)c(F)c(F)c8F)c8ccc5[nH]8)C=C7)C=C6)cc4)c(O)c3)C2=O)c1
REMARK SMILES IDX 25 1 24 2 23 3 21 4 22 5 20 7 17 8 18 9 98 10 19 11 96 12
REMARK SMILES IDX 16 13 14 14 15 15 13 17 12 18 8 19 9 20 99 21 10 22 11 23
REMARK SMILES IDX 100 24 7 25 1 26 2 27 3 28 101 29 4 30 5 31 6 32 97 33 26 35
REMARK SMILES IDX 27 36 28 37 29 38 30 39 31 40 32 42 33 43 34 44 95 45 35 46
REMARK SMILES IDX 94 47 36 48 37 49 38 50 88 51 39 52 93 53 87 54 89 55 40 56
REMARK SMILES IDX 92 57 86 58 85 59 41 61 73 62 53 63 72 64 54 65 57 66 71 67
REMARK SMILES IDX 90 68 55 69 56 70 70 72 91 73 58 74 42 75 43 76 51 77 44 78
REMARK SMILES IDX 45 79 49 80 52 81 46 82 47 83 50 84 48 85 74 86 75 87 83 88
REMARK SMILES IDX 76 89 77 90 81 91 84 92 78 93 79 94 82 95 80 96 59 97 60 98
REMARK SMILES IDX 68 99 61 100 62 101 66 102 69 103 63 104 64 105 67 106
REMARK SMILES IDX 65 107
REMARK H PARENT 23 6 16 16 97 34 30 41 89 60 57 71
REMARK Flexibility Score: inf
ROOT
ATOM      1  C   UNL A   1      41.079  21.027  27.490  1.00  0.00     0.021 C 
ENDROOT
BRANCH   1   2
ATOM      2  C   UNL A   1      40.303  21.439  26.251  1.00  0.00     0.116 C 
BRANCH   2   3
ATOM      3  N   UNL A   1      39.843  22.803  26.235  1.00  0.00    -0.352 N 
ATOM      4  C   UNL A   1      38.591  23.325  26.034  1.00  0.00     0.255 C 
ATOM      5  O   UNL A   1      38.460  24.534  26.225  1.00  0.00    -0.269 OA
ATOM      6  H   UNL A   1      40.545  23.474  26.395  1.00  0.00     0.163 HD
BRANCH   4   7
ATOM      7  C   UNL A   1      37.430  22.544  25.503  1.00  0.00     0.081 A 
ATOM      8  C   UNL A   1      35.334  20.723  24.987  1.00  0.00     0.044 A 
ATOM      9  C   UNL A   1      36.658  20.311  24.986  1.00  0.00     0.027 A 
ATOM     10  C   UNL A   1      35.077  22.085  24.985  1.00  0.00     0.073 A 
ATOM     11  C   UNL A   1      37.690  21.186  25.305  1.00  0.00     0.020 A 
ATOM     12  C   UNL A   1      36.137  22.986  25.188  1.00  0.00     0.130 A 
BRANCH   8  13
ATOM     13  N   UNL A   1      34.303  19.775  24.912  1.00  0.00    -0.326 N 
ATOM     14  C   UNL A   1      32.947  20.034  24.849  1.00  0.00     0.226 C 
ATOM     15  O   UNL A   1      32.134  19.174  25.182  1.00  0.00    -0.275 OA
ATOM     16  H   UNL A   1      34.573  18.828  24.903  1.00  0.00     0.169 HD
BRANCH  14  17
ATOM     17  C   UNL A   1      32.494  21.313  24.147  1.00  0.00     0.125 C 
BRANCH  17  18
ATOM     18  C   UNL A   1      31.405  22.121  24.847  1.00  0.00     0.156 C 
ATOM     19  N   UNL A   1      31.949  24.448  24.640  1.00  0.00    -0.240 N 
ATOM     20  C   UNL A   1      32.502  24.201  25.860  1.00  0.00     0.293 C 
ATOM     21  C   UNL A   1      31.204  23.421  24.078  1.00  0.00     0.248 C 
ATOM     22  O   UNL A   1      33.321  24.880  26.489  1.00  0.00    -0.261 OA
ATOM     23  S   UNL A   1      31.861  22.703  26.506  1.00  0.00    -0.050 SA
ATOM     24  O   UNL A   1      30.494  23.497  23.082  1.00  0.00    -0.273 OA
BRANCH  19  25
ATOM     25  C   UNL A   1      31.867  25.777  24.164  1.00  0.00     0.056 A 
ATOM     26  C   UNL A   1      34.001  28.286  22.220  1.00  0.00     0.044 C 
ATOM     27  C   UNL A   1      32.881  27.661  22.999  1.00  0.00    -0.049 A 
ATOM     28  C   UNL A   1      31.775  28.446  23.340  1.00  0.00     0.004 A 
ATOM     29  C   UNL A   1      32.916  26.316  23.404  1.00  0.00     0.030 A 
ATOM     30  C   UNL A   1      30.730  27.911  24.092  1.00  0.00     0.006 A 
ATOM     31  C   UNL A   1      30.766  26.579  24.525  1.00  0.00    -0.027 A 
ATOM     32  C   UNL A   1      29.611  26.088  25.355  1.00  0.00     0.046 C 
ENDBRANCH  19  25
ENDBRANCH  17  18
ENDBRANCH  14  17
ENDBRANCH   8  13
BRANCH  12  33
ATOM     33  O   UNL A   1      35.828  24.294  24.945  1.00  0.00    -0.507 OA
ATOM     34  H   UNL A   1      35.069  24.678  25.338  1.00  0.00     0.293 HD
ENDBRANCH  12  33
ENDBRANCH   4   7
ENDBRANCH   2   3
ENDBRANCH   1   2
BRANCH   1  35
ATOM     35  C   UNL A   1      42.125  19.913  27.359  1.00  0.00     0.002 C 
BRANCH  35  36
ATOM     36  C   UNL A   1      42.172  19.010  26.119  1.00  0.00     0.002 C 
BRANCH  36  37
ATOM     37  C   UNL A   1      43.440  18.849  25.271  1.00  0.00     0.021 C 
BRANCH  37  38
ATOM     38  C   UNL A   1      44.802  18.910  25.951  1.00  0.00     0.116 C 
BRANCH  38  39
ATOM     39  N   UNL A   1      45.827  19.655  25.207  1.00  0.00    -0.352 N 
ATOM     40  C   UNL A   1      45.980  20.995  24.882  1.00  0.00     0.251 C 
ATOM     41  H   UNL A   1      46.555  19.084  24.870  1.00  0.00     0.163 HD
ATOM     42  O   UNL A   1      46.780  21.317  24.007  1.00  0.00    -0.269 OA
BRANCH  40  43
ATOM     43  C   UNL A   1      45.218  22.056  25.574  1.00  0.00     0.039 A 
ATOM     44  C   UNL A   1      43.989  22.565  25.151  1.00  0.00     0.014 A 
ATOM     45  C   UNL A   1      45.829  22.683  26.629  1.00  0.00     0.014 A 
ATOM     46  C   UNL A   1      43.520  23.757  25.728  1.00  0.00     0.010 A 
ATOM     47  C   UNL A   1      45.141  23.511  27.446  1.00  0.00     0.010 A 
ATOM     48  C   UNL A   1      44.174  24.268  26.850  1.00  0.00    -0.014 A 
BRANCH  48  49
ATOM     49  C   UNL A   1      43.888  25.519  27.522  1.00  0.00     0.031 A 
ATOM     50  C   UNL A   1      44.774  26.628  27.140  1.00  0.00     0.074 A 
ATOM     51  C   UNL A   1      42.708  25.777  28.133  1.00  0.00     0.049 A 
ATOM     52  N   UNL A   1      45.719  27.149  27.842  1.00  0.00    -0.248 NA
ATOM     53  C   UNL A   1      44.703  27.118  25.755  1.00  0.00     0.031 C 
ATOM     54  C   UNL A   1      41.499  24.946  28.203  1.00  0.00     0.029 A 
ATOM     55  N   UNL A   1      42.318  26.926  28.753  1.00  0.00    -0.354 N 
ATOM     56  C   UNL A   1      46.237  28.168  27.053  1.00  0.00     0.074 A 
ATOM     57  C   UNL A   1      45.764  27.922  25.718  1.00  0.00     0.031 C 
ATOM     58  C   UNL A   1      40.468  25.686  28.675  1.00  0.00     0.029 A 
ATOM     59  C   UNL A   1      40.967  26.994  29.066  1.00  0.00     0.049 A 
ATOM     60  H   UNL A   1      42.947  27.653  28.963  1.00  0.00     0.167 HD
ATOM     61  C   UNL A   1      46.764  29.289  27.612  1.00  0.00     0.037 A 
ATOM     62  C   UNL A   1      40.318  28.073  29.571  1.00  0.00     0.037 A 
ATOM     63  C   UNL A   1      46.983  29.102  29.029  1.00  0.00     0.049 A 
ATOM     64  C   UNL A   1      41.347  28.985  30.135  1.00  0.00     0.074 A 
ATOM     65  C   UNL A   1      47.692  28.193  29.793  1.00  0.00     0.029 A 
ATOM     66  N   UNL A   1      46.103  29.702  29.898  1.00  0.00    -0.354 N 
ATOM     67  N   UNL A   1      42.061  28.724  31.195  1.00  0.00    -0.248 NA
ATOM     68  C   UNL A   1      41.877  30.034  29.275  1.00  0.00     0.031 C 
ATOM     69  C   UNL A   1      46.883  27.961  30.946  1.00  0.00     0.029 A 
ATOM     70  C   UNL A   1      45.754  28.775  30.845  1.00  0.00     0.049 A 
ATOM     71  H   UNL A   1      45.782  30.632  29.849  1.00  0.00     0.167 HD
ATOM     72  C   UNL A   1      43.314  29.252  30.918  1.00  0.00     0.074 A 
ATOM     73  C   UNL A   1      43.106  30.145  29.783  1.00  0.00     0.031 C 
ATOM     74  C   UNL A   1      44.442  28.692  31.445  1.00  0.00     0.037 A 
BRANCH  61  75
ATOM     75  C   UNL A   1      46.725  30.662  26.981  1.00  0.00     0.064 A 
ATOM     76  C   UNL A   1      47.912  31.420  26.957  1.00  0.00     0.173 A 
ATOM     77  C   UNL A   1      45.548  31.375  26.656  1.00  0.00     0.173 A 
ATOM     78  F   UNL A   1      49.090  30.852  27.254  1.00  0.00    -0.203 F 
ATOM     79  C   UNL A   1      47.906  32.797  26.726  1.00  0.00     0.198 A 
ATOM     80  C   UNL A   1      45.556  32.737  26.362  1.00  0.00     0.198 A 
ATOM     81  F   UNL A   1      44.329  30.830  26.717  1.00  0.00    -0.203 F 
ATOM     82  F   UNL A   1      49.042  33.495  26.857  1.00  0.00    -0.200 F 
ATOM     83  C   UNL A   1      46.727  33.456  26.436  1.00  0.00     0.200 A 
ATOM     84  F   UNL A   1      44.397  33.358  26.094  1.00  0.00    -0.200 F 
ATOM     85  F   UNL A   1      46.709  34.785  26.280  1.00  0.00    -0.200 F 
ENDBRANCH  61  75
BRANCH  62  86
ATOM     86  C   UNL A   1      38.905  28.491  29.408  1.00  0.00     0.064 A 
ATOM     87  C   UNL A   1      38.074  28.687  30.526  1.00  0.00     0.173 A 
ATOM     88  C   UNL A   1      38.419  28.974  28.178  1.00  0.00     0.173 A 
ATOM     89  F   UNL A   1      38.474  28.290  31.741  1.00  0.00    -0.203 F 
ATOM     90  C   UNL A   1      36.851  29.359  30.424  1.00  0.00     0.198 A 
ATOM     91  C   UNL A   1      37.193  29.634  28.076  1.00  0.00     0.198 A 
ATOM     92  F   UNL A   1      39.165  28.899  27.066  1.00  0.00    -0.203 F 
ATOM     93  F   UNL A   1      36.123  29.589  31.526  1.00  0.00    -0.200 F 
ATOM     94  C   UNL A   1      36.418  29.843  29.202  1.00  0.00     0.200 A 
ATOM     95  F   UNL A   1      36.797  30.122  26.891  1.00  0.00    -0.200 F 
ATOM     96  F   UNL A   1      35.280  30.545  29.114  1.00  0.00    -0.200 F 
ENDBRANCH  62  86
BRANCH  74  97
ATOM     97  C   UNL A   1      44.270  27.722  32.580  1.00  0.00     0.064 A 
ATOM     98  C   UNL A   1      44.127  26.334  32.416  1.00  0.00     0.173 A 
ATOM     99  C   UNL A   1      44.376  28.207  33.891  1.00  0.00     0.173 A 
ATOM    100  F   UNL A   1      44.122  25.778  31.198  1.00  0.00    -0.203 F 
ATOM    101  C   UNL A   1      44.039  25.480  33.515  1.00  0.00     0.198 A 
ATOM    102  C   UNL A   1      44.328  27.349  34.986  1.00  0.00     0.198 A 
ATOM    103  F   UNL A   1      44.570  29.518  34.107  1.00  0.00    -0.203 F 
ATOM    104  F   UNL A   1      43.881  24.161  33.330  1.00  0.00    -0.200 F 
ATOM    105  C   UNL A   1      44.146  25.989  34.798  1.00  0.00     0.200 A 
ATOM    106  F   UNL A   1      44.480  27.840  36.223  1.00  0.00    -0.200 F 
ATOM    107  F   UNL A   1      44.099  25.164  35.855  1.00  0.00    -0.200 F 
ENDBRANCH  74  97
ENDBRANCH  48  49
ENDBRANCH  40  43
ENDBRANCH  38  39
ENDBRANCH  37  38
ENDBRANCH  36  37
ENDBRANCH  35  36
ENDBRANCH   1  35
TORSDOF 18
ENDMDL
