MODEL 1
REMARK VINA RESULT:     -13.3      0.000      0.000
REMARK SMILES CC(C)C(=O)Nc1ccc2c([C@@H](C(=O)NCCCCCCNC(=O)c3ccc(-c4c5nc(c(-c6c(F)c(F)c(F)c(F)c6F)c6ccc([nH]6)c(-c6c(F)c(F)c(F)c(F)c6F)c6nc(c(-c7c(F)c(F)c(F)c(F)c7F)c7ccc4[nH]7)C=C6)C=C5)cc3)[NH+]3CC[NH+](Cc4ccccc4)CC3)c[nH]c2c1
REMARK SMILES IDX 18 1 17 2 16 3 15 4 13 5 14 6 12 8 11 9 7 10 8 11 104 12
REMARK SMILES IDX 9 13 103 14 10 15 102 16 101 17 6 19 4 20 5 21 2 23 1 24
REMARK SMILES IDX 3 25 88 26 89 27 100 28 90 30 99 31 91 32 92 34 93 35 94 36
REMARK SMILES IDX 98 37 95 38 97 39 96 40 19 41 20 42 21 43 22 44 23 45 24 47
REMARK SMILES IDX 25 48 26 49 87 50 27 51 86 52 28 53 29 54 30 55 80 56 31 57
REMARK SMILES IDX 85 58 79 59 81 60 32 61 84 62 78 63 77 64 33 66 65 67 45 68
REMARK SMILES IDX 64 69 46 70 49 71 63 72 82 73 47 74 48 75 62 77 83 78 50 79
REMARK SMILES IDX 34 80 35 81 43 82 36 83 37 84 41 85 44 86 38 87 39 88 42 89
REMARK SMILES IDX 40 90 66 91 67 92 75 93 68 94 69 95 73 96 76 97 70 98 71 99
REMARK SMILES IDX 74 100 72 101 51 102 52 103 60 104 53 105 54 106 58 107
REMARK SMILES IDX 61 108 55 109 56 110 59 111 57 112
REMARK H PARENT 15 7 102 18 6 22 88 29 91 33 22 46 81 65 49 76
REMARK Flexibility Score: inf
ROOT
ATOM      1  C   UNL A   1      36.853  21.717  24.915  1.00  0.00     0.002 C 
ENDROOT
BRANCH   1   2
ATOM      2  C   UNL A   1      36.596  22.438  23.591  1.00  0.00     0.021 C 
BRANCH   2   3
ATOM      3  C   UNL A   1      35.349  23.319  23.618  1.00  0.00     0.116 C 
BRANCH   3   4
ATOM      4  N   UNL A   1      34.892  23.512  24.972  1.00  0.00    -0.351 N 
ATOM      5  C   UNL A   1      33.619  23.763  25.414  1.00  0.00     0.283 C 
ATOM      6  O   UNL A   1      33.514  24.029  26.615  1.00  0.00    -0.268 OA
ATOM      7  H   UNL A   1      35.584  23.457  25.670  1.00  0.00     0.163 HD
BRANCH   5   8
ATOM      8  C   UNL A   1      32.410  23.588  24.439  1.00  0.00     0.308 C 
BRANCH   8   9
ATOM      9  C   UNL A   1      32.373  22.275  23.689  1.00  0.00     0.044 A 
ATOM     10  C   UNL A   1      32.459  18.269  24.941  1.00  0.00     0.043 A 
ATOM     11  C   UNL A   1      32.945  19.195  25.849  1.00  0.00     0.027 A 
ATOM     12  C   UNL A   1      32.192  18.648  23.621  1.00  0.00     0.052 A 
ATOM     13  C   UNL A   1      32.927  20.556  25.569  1.00  0.00     0.013 A 
ATOM     14  C   UNL A   1      32.256  20.019  23.323  1.00  0.00     0.048 A 
ATOM     15  C   UNL A   1      32.545  20.984  24.287  1.00  0.00     0.009 A 
ATOM     16  N   UNL A   1      32.038  20.692  22.146  1.00  0.00    -0.361 N 
ATOM     17  C   UNL A   1      32.193  22.039  22.339  1.00  0.00     0.094 A 
ATOM     18  H   UNL A   1      31.803  20.268  21.288  1.00  0.00     0.166 HD
BRANCH  10  19
ATOM     19  N   UNL A   1      32.260  16.939  25.320  1.00  0.00    -0.326 N 
ATOM     20  C   UNL A   1      32.943  15.809  24.960  1.00  0.00     0.226 C 
ATOM     21  O   UNL A   1      32.408  14.721  25.209  1.00  0.00    -0.274 OA
ATOM     22  H   UNL A   1      31.511  16.792  25.943  1.00  0.00     0.169 HD
BRANCH  20  23
ATOM     23  C   UNL A   1      34.379  15.830  24.395  1.00  0.00     0.072 C 
ATOM     24  C   UNL A   1      34.588  16.587  23.088  1.00  0.00     0.018 C 
ATOM     25  C   UNL A   1      35.443  16.166  25.439  1.00  0.00     0.018 C 
ENDBRANCH  20  23
ENDBRANCH  10  19
ENDBRANCH   8   9
BRANCH   8  26
ATOM     26  N   UNL A   1      32.279  24.739  23.527  1.00  0.00    -0.312 N 
ATOM     27  C   UNL A   1      30.948  25.013  22.987  1.00  0.00     0.325 C 
ATOM     28  C   UNL A   1      33.006  25.953  23.900  1.00  0.00     0.325 C 
ATOM     29  H   UNL A   1      32.795  24.365  22.730  1.00  0.00     0.349 HD
ATOM     30  C   UNL A   1      30.140  26.170  23.634  1.00  0.00     0.324 C 
ATOM     31  C   UNL A   1      32.181  27.056  24.605  1.00  0.00     0.324 C 
ATOM     32  N   UNL A   1      30.873  27.375  24.026  1.00  0.00    -0.322 N 
ATOM     33  H   UNL A   1      30.347  27.797  24.791  1.00  0.00     0.348 HD
BRANCH  32  34
ATOM     34  C   UNL A   1      30.844  28.462  23.045  1.00  0.00     0.299 C 
BRANCH  34  35
ATOM     35  C   UNL A   1      29.726  29.467  23.179  1.00  0.00     0.006 A 
ATOM     36  C   UNL A   1      29.895  30.617  23.959  1.00  0.00     0.009 A 
ATOM     37  C   UNL A   1      28.523  29.299  22.476  1.00  0.00     0.009 A 
ATOM     38  C   UNL A   1      28.922  31.617  23.964  1.00  0.00     0.001 A 
ATOM     39  C   UNL A   1      27.566  30.312  22.455  1.00  0.00     0.001 A 
ATOM     40  C   UNL A   1      27.772  31.475  23.190  1.00  0.00     0.000 A 
ENDBRANCH  34  35
ENDBRANCH  32  34
ENDBRANCH   8  26
ENDBRANCH   5   8
ENDBRANCH   3   4
ENDBRANCH   2   3
ENDBRANCH   1   2
BRANCH   1  41
ATOM     41  C   UNL A   1      38.115  22.183  25.644  1.00  0.00     0.002 C 
BRANCH  41  42
ATOM     42  C   UNL A   1      38.939  21.048  26.258  1.00  0.00     0.021 C 
BRANCH  42  43
ATOM     43  C   UNL A   1      39.577  20.126  25.227  1.00  0.00     0.116 C 
BRANCH  43  44
ATOM     44  N   UNL A   1      40.463  19.162  25.859  1.00  0.00    -0.352 N 
ATOM     45  C   UNL A   1      41.711  19.358  26.382  1.00  0.00     0.251 C 
ATOM     46  H   UNL A   1      40.118  18.241  25.919  1.00  0.00     0.163 HD
ATOM     47  O   UNL A   1      42.443  18.400  26.633  1.00  0.00    -0.269 OA
BRANCH  45  48
ATOM     48  C   UNL A   1      42.180  20.732  26.638  1.00  0.00     0.039 A 
ATOM     49  C   UNL A   1      42.457  21.568  25.556  1.00  0.00     0.014 A 
ATOM     50  C   UNL A   1      42.345  21.189  27.951  1.00  0.00     0.014 A 
ATOM     51  C   UNL A   1      42.857  22.883  25.792  1.00  0.00     0.010 A 
ATOM     52  C   UNL A   1      42.667  22.521  28.182  1.00  0.00     0.010 A 
ATOM     53  C   UNL A   1      42.936  23.377  27.105  1.00  0.00    -0.014 A 
BRANCH  53  54
ATOM     54  C   UNL A   1      43.296  24.791  27.365  1.00  0.00     0.031 A 
ATOM     55  C   UNL A   1      44.689  25.282  27.082  1.00  0.00     0.074 A 
ATOM     56  C   UNL A   1      42.381  25.618  27.906  1.00  0.00     0.049 A 
ATOM     57  N   UNL A   1      45.204  26.468  27.278  1.00  0.00    -0.248 NA
ATOM     58  C   UNL A   1      45.637  24.301  26.530  1.00  0.00     0.031 C 
ATOM     59  C   UNL A   1      41.015  25.240  28.273  1.00  0.00     0.029 A 
ATOM     60  N   UNL A   1      42.464  26.944  28.249  1.00  0.00    -0.354 N 
ATOM     61  C   UNL A   1      46.531  26.375  26.882  1.00  0.00     0.074 A 
ATOM     62  C   UNL A   1      46.761  25.001  26.491  1.00  0.00     0.031 C 
ATOM     63  C   UNL A   1      40.379  26.316  28.763  1.00  0.00     0.029 A 
ATOM     64  C   UNL A   1      41.302  27.446  28.783  1.00  0.00     0.049 A 
ATOM     65  H   UNL A   1      43.276  27.483  28.123  1.00  0.00     0.167 HD
ATOM     66  C   UNL A   1      47.467  27.353  26.827  1.00  0.00     0.037 A 
ATOM     67  C   UNL A   1      41.018  28.678  29.243  1.00  0.00     0.037 A 
ATOM     68  C   UNL A   1      47.224  28.722  27.201  1.00  0.00     0.049 A 
ATOM     69  C   UNL A   1      42.079  29.743  29.180  1.00  0.00     0.074 A 
ATOM     70  C   UNL A   1      48.086  29.802  27.126  1.00  0.00     0.029 A 
ATOM     71  N   UNL A   1      46.033  29.198  27.731  1.00  0.00    -0.354 N 
ATOM     72  N   UNL A   1      43.308  29.663  28.730  1.00  0.00    -0.248 NA
ATOM     73  C   UNL A   1      41.711  31.074  29.683  1.00  0.00     0.031 C 
ATOM     74  C   UNL A   1      47.435  30.918  27.660  1.00  0.00     0.029 A 
ATOM     75  C   UNL A   1      46.146  30.550  28.012  1.00  0.00     0.049 A 
ATOM     76  H   UNL A   1      45.226  28.654  27.883  1.00  0.00     0.167 HD
ATOM     77  C   UNL A   1      43.850  30.934  28.868  1.00  0.00     0.074 A 
ATOM     78  C   UNL A   1      42.807  31.771  29.426  1.00  0.00     0.031 C 
ATOM     79  C   UNL A   1      45.097  31.369  28.564  1.00  0.00     0.037 A 
BRANCH  66  80
ATOM     80  C   UNL A   1      48.838  26.979  26.343  1.00  0.00     0.064 A 
ATOM     81  C   UNL A   1      49.810  26.458  27.212  1.00  0.00     0.173 A 
ATOM     82  C   UNL A   1      49.173  27.102  24.986  1.00  0.00     0.173 A 
ATOM     83  F   UNL A   1      49.547  26.331  28.522  1.00  0.00    -0.203 F 
ATOM     84  C   UNL A   1      51.074  26.104  26.747  1.00  0.00     0.198 A 
ATOM     85  C   UNL A   1      50.426  26.715  24.518  1.00  0.00     0.198 A 
ATOM     86  F   UNL A   1      48.281  27.588  24.111  1.00  0.00    -0.203 F 
ATOM     87  F   UNL A   1      52.001  25.658  27.604  1.00  0.00    -0.200 F 
ATOM     88  C   UNL A   1      51.378  26.224  25.399  1.00  0.00     0.200 A 
ATOM     89  F   UNL A   1      50.714  26.819  23.214  1.00  0.00    -0.200 F 
ATOM     90  F   UNL A   1      52.591  25.873  24.951  1.00  0.00    -0.200 F 
ENDBRANCH  66  80
BRANCH  67  91
ATOM     91  C   UNL A   1      39.666  28.978  29.783  1.00  0.00     0.064 A 
ATOM     92  C   UNL A   1      38.658  29.497  28.958  1.00  0.00     0.173 A 
ATOM     93  C   UNL A   1      39.355  28.761  31.134  1.00  0.00     0.173 A 
ATOM     94  F   UNL A   1      38.913  29.739  27.664  1.00  0.00    -0.203 F 
ATOM     95  C   UNL A   1      37.400  29.812  29.468  1.00  0.00     0.198 A 
ATOM     96  C   UNL A   1      38.087  29.045  31.635  1.00  0.00     0.198 A 
ATOM     97  F   UNL A   1      40.280  28.258  31.965  1.00  0.00    -0.203 F 
ATOM     98  F   UNL A   1      36.473  30.354  28.668  1.00  0.00    -0.200 F 
ATOM     99  C   UNL A   1      37.114  29.581  30.805  1.00  0.00     0.200 A 
ATOM    100  F   UNL A   1      37.808  28.803  32.923  1.00  0.00    -0.200 F 
ATOM    101  F   UNL A   1      35.903  29.879  31.294  1.00  0.00    -0.200 F 
ENDBRANCH  67  91
BRANCH  79 102
ATOM    102  C   UNL A   1      45.393  32.823  28.795  1.00  0.00     0.064 A 
ATOM    103  C   UNL A   1      45.999  33.274  29.978  1.00  0.00     0.173 A 
ATOM    104  C   UNL A   1      45.092  33.775  27.809  1.00  0.00     0.173 A 
ATOM    105  F   UNL A   1      46.294  32.407  30.959  1.00  0.00    -0.203 F 
ATOM    106  C   UNL A   1      46.263  34.626  30.176  1.00  0.00     0.198 A 
ATOM    107  C   UNL A   1      45.389  35.122  27.996  1.00  0.00     0.198 A 
ATOM    108  F   UNL A   1      44.518  33.396  26.656  1.00  0.00    -0.203 F 
ATOM    109  F   UNL A   1      46.791  35.041  31.337  1.00  0.00    -0.200 F 
ATOM    110  C   UNL A   1      45.965  35.547  29.183  1.00  0.00     0.200 A 
ATOM    111  F   UNL A   1      45.116  36.007  27.029  1.00  0.00    -0.200 F 
ATOM    112  F   UNL A   1      46.227  36.848  29.374  1.00  0.00    -0.200 F 
ENDBRANCH  79 102
ENDBRANCH  53  54
ENDBRANCH  45  48
ENDBRANCH  43  44
ENDBRANCH  42  43
ENDBRANCH  41  42
ENDBRANCH   1  41
TORSDOF 19
ENDMDL
MODEL 2
REMARK VINA RESULT:     -13.2      1.282      6.815
REMARK SMILES CC(C)C(=O)Nc1ccc2c([C@@H](C(=O)NCCCCCCNC(=O)c3ccc(-c4c5nc(c(-c6c(F)c(F)c(F)c(F)c6F)c6ccc([nH]6)c(-c6c(F)c(F)c(F)c(F)c6F)c6nc(c(-c7c(F)c(F)c(F)c(F)c7F)c7ccc4[nH]7)C=C6)C=C5)cc3)[NH+]3CC[NH+](Cc4ccccc4)CC3)c[nH]c2c1
REMARK SMILES IDX 18 1 17 2 16 3 15 4 13 5 14 6 12 8 11 9 7 10 8 11 104 12
REMARK SMILES IDX 9 13 103 14 10 15 102 16 101 17 6 19 4 20 5 21 2 23 1 24
REMARK SMILES IDX 3 25 88 26 89 27 100 28 90 30 99 31 91 32 92 34 93 35 94 36
REMARK SMILES IDX 98 37 95 38 97 39 96 40 19 41 20 42 21 43 22 44 23 45 24 47
REMARK SMILES IDX 25 48 26 49 87 50 27 51 86 52 28 53 29 54 30 55 80 56 31 57
REMARK SMILES IDX 85 58 79 59 81 60 32 61 84 62 78 63 77 64 33 66 65 67 45 68
REMARK SMILES IDX 64 69 46 70 49 71 63 72 82 73 47 74 48 75 62 77 83 78 50 79
REMARK SMILES IDX 34 80 35 81 43 82 36 83 37 84 41 85 44 86 38 87 39 88 42 89
REMARK SMILES IDX 40 90 66 91 67 92 75 93 68 94 69 95 73 96 76 97 70 98 71 99
REMARK SMILES IDX 74 100 72 101 51 102 52 103 60 104 53 105 54 106 58 107
REMARK SMILES IDX 61 108 55 109 56 110 59 111 57 112
REMARK H PARENT 15 7 102 18 6 22 88 29 91 33 22 46 81 65 49 76
REMARK Flexibility Score: inf
ROOT
ATOM      1  C   UNL A   1      37.247  23.041  25.480  1.00  0.00     0.002 C 
ENDROOT
BRANCH   1   2
ATOM      2  C   UNL A   1      36.700  22.920  24.057  1.00  0.00     0.021 C 
BRANCH   2   3
ATOM      3  C   UNL A   1      35.469  23.790  23.810  1.00  0.00     0.116 C 
BRANCH   3   4
ATOM      4  N   UNL A   1      34.976  24.338  25.050  1.00  0.00    -0.351 N 
ATOM      5  C   UNL A   1      33.710  24.768  25.348  1.00  0.00     0.283 C 
ATOM      6  O   UNL A   1      33.580  25.327  26.441  1.00  0.00    -0.268 OA
ATOM      7  H   UNL A   1      35.636  24.413  25.777  1.00  0.00     0.163 HD
BRANCH   5   8
ATOM      8  C   UNL A   1      32.529  24.433  24.381  1.00  0.00     0.308 C 
BRANCH   8   9
ATOM      9  C   UNL A   1      32.556  23.042  23.789  1.00  0.00     0.044 A 
ATOM     10  C   UNL A   1      32.758  19.214  25.502  1.00  0.00     0.043 A 
ATOM     11  C   UNL A   1      33.190  20.258  26.304  1.00  0.00     0.027 A 
ATOM     12  C   UNL A   1      32.508  19.428  24.141  1.00  0.00     0.052 A 
ATOM     13  C   UNL A   1      33.129  21.576  25.867  1.00  0.00     0.013 A 
ATOM     14  C   UNL A   1      32.528  20.756  23.687  1.00  0.00     0.048 A 
ATOM     15  C   UNL A   1      32.761  21.836  24.536  1.00  0.00     0.009 A 
ATOM     16  N   UNL A   1      32.313  21.279  22.435  1.00  0.00    -0.361 N 
ATOM     17  C   UNL A   1      32.415  22.644  22.472  1.00  0.00     0.094 A 
ATOM     18  H   UNL A   1      32.113  20.750  21.629  1.00  0.00     0.166 HD
BRANCH  10  19
ATOM     19  N   UNL A   1      32.599  17.931  26.030  1.00  0.00    -0.326 N 
ATOM     20  C   UNL A   1      33.172  16.746  25.653  1.00  0.00     0.226 C 
ATOM     21  O   UNL A   1      32.664  15.708  26.094  1.00  0.00    -0.274 OA
ATOM     22  H   UNL A   1      31.978  17.869  26.791  1.00  0.00     0.169 HD
BRANCH  20  23
ATOM     23  C   UNL A   1      34.474  16.658  24.831  1.00  0.00     0.072 C 
ATOM     24  C   UNL A   1      35.554  15.720  25.358  1.00  0.00     0.018 C 
ATOM     25  C   UNL A   1      34.240  16.490  23.330  1.00  0.00     0.018 C 
ENDBRANCH  20  23
ENDBRANCH  10  19
ENDBRANCH   8   9
BRANCH   8  26
ATOM     26  N   UNL A   1      32.374  25.465  23.339  1.00  0.00    -0.312 N 
ATOM     27  C   UNL A   1      31.034  25.659  22.787  1.00  0.00     0.325 C 
ATOM     28  C   UNL A   1      33.092  26.722  23.553  1.00  0.00     0.325 C 
ATOM     29  H   UNL A   1      32.885  25.003  22.585  1.00  0.00     0.349 HD
ATOM     30  C   UNL A   1      30.221  26.878  23.300  1.00  0.00     0.324 C 
ATOM     31  C   UNL A   1      32.264  27.894  24.131  1.00  0.00     0.324 C 
ATOM     32  N   UNL A   1      30.945  28.128  23.535  1.00  0.00    -0.322 N 
ATOM     33  H   UNL A   1      30.423  28.635  24.251  1.00  0.00     0.348 HD
BRANCH  32  34
ATOM     34  C   UNL A   1      30.893  29.089  22.430  1.00  0.00     0.299 C 
BRANCH  34  35
ATOM     35  C   UNL A   1      29.797  30.125  22.484  1.00  0.00     0.006 A 
ATOM     36  C   UNL A   1      29.111  30.495  21.320  1.00  0.00     0.009 A 
ATOM     37  C   UNL A   1      29.404  30.690  23.707  1.00  0.00     0.009 A 
ATOM     38  C   UNL A   1      28.002  31.338  21.392  1.00  0.00     0.001 A 
ATOM     39  C   UNL A   1      28.277  31.507  23.782  1.00  0.00     0.001 A 
ATOM     40  C   UNL A   1      27.570  31.821  22.626  1.00  0.00     0.000 A 
ENDBRANCH  34  35
ENDBRANCH  32  34
ENDBRANCH   8  26
ENDBRANCH   5   8
ENDBRANCH   3   4
ENDBRANCH   2   3
ENDBRANCH   1   2
BRANCH   1  41
ATOM     41  C   UNL A   1      38.664  22.490  25.653  1.00  0.00     0.002 C 
BRANCH  41  42
ATOM     42  C   UNL A   1      38.805  21.006  25.307  1.00  0.00     0.021 C 
BRANCH  42  43
ATOM     43  C   UNL A   1      39.251  20.142  26.480  1.00  0.00     0.116 C 
BRANCH  43  44
ATOM     44  N   UNL A   1      40.367  19.286  26.110  1.00  0.00    -0.352 N 
ATOM     45  C   UNL A   1      41.679  19.621  25.924  1.00  0.00     0.251 C 
ATOM     46  H   UNL A   1      40.148  18.335  25.975  1.00  0.00     0.163 HD
ATOM     47  O   UNL A   1      42.447  18.848  25.350  1.00  0.00    -0.269 OA
BRANCH  45  48
ATOM     48  C   UNL A   1      42.170  20.923  26.411  1.00  0.00     0.039 A 
ATOM     49  C   UNL A   1      42.483  21.920  25.486  1.00  0.00     0.014 A 
ATOM     50  C   UNL A   1      42.320  21.153  27.783  1.00  0.00     0.014 A 
ATOM     51  C   UNL A   1      42.904  23.169  25.942  1.00  0.00     0.010 A 
ATOM     52  C   UNL A   1      42.663  22.421  28.237  1.00  0.00     0.010 A 
ATOM     53  C   UNL A   1      42.968  23.437  27.320  1.00  0.00    -0.014 A 
BRANCH  53  54
ATOM     54  C   UNL A   1      43.351  24.781  27.816  1.00  0.00     0.031 A 
ATOM     55  C   UNL A   1      42.294  25.803  28.126  1.00  0.00     0.074 A 
ATOM     56  C   UNL A   1      44.656  25.094  27.936  1.00  0.00     0.049 A 
ATOM     57  N   UNL A   1      42.432  27.040  28.531  1.00  0.00    -0.248 NA
ATOM     58  C   UNL A   1      40.895  25.391  27.928  1.00  0.00     0.031 C 
ATOM     59  C   UNL A   1      45.770  24.201  27.614  1.00  0.00     0.029 A 
ATOM     60  N   UNL A   1      45.265  26.250  28.353  1.00  0.00    -0.354 N 
ATOM     61  C   UNL A   1      41.146  27.552  28.629  1.00  0.00     0.074 A 
ATOM     62  C   UNL A   1      40.242  26.515  28.184  1.00  0.00     0.031 C 
ATOM     63  C   UNL A   1      46.927  24.832  27.872  1.00  0.00     0.029 A 
ATOM     64  C   UNL A   1      46.637  26.184  28.338  1.00  0.00     0.049 A 
ATOM     65  H   UNL A   1      44.767  27.049  28.637  1.00  0.00     0.167 HD
ATOM     66  C   UNL A   1      40.754  28.770  29.074  1.00  0.00     0.037 A 
ATOM     67  C   UNL A   1      47.555  27.114  28.658  1.00  0.00     0.037 A 
ATOM     68  C   UNL A   1      41.660  29.791  29.533  1.00  0.00     0.049 A 
ATOM     69  C   UNL A   1      47.092  28.462  29.138  1.00  0.00     0.074 A 
ATOM     70  C   UNL A   1      41.361  31.035  30.060  1.00  0.00     0.029 A 
ATOM     71  N   UNL A   1      43.044  29.687  29.511  1.00  0.00    -0.354 N 
ATOM     72  N   UNL A   1      45.870  28.909  29.302  1.00  0.00    -0.248 NA
ATOM     73  C   UNL A   1      48.137  29.435  29.487  1.00  0.00     0.031 C 
ATOM     74  C   UNL A   1      42.564  31.705  30.305  1.00  0.00     0.029 A 
ATOM     75  C   UNL A   1      43.613  30.856  29.989  1.00  0.00     0.049 A 
ATOM     76  H   UNL A   1      43.546  28.899  29.201  1.00  0.00     0.167 HD
ATOM     77  C   UNL A   1      45.999  30.200  29.798  1.00  0.00     0.074 A 
ATOM     78  C   UNL A   1      47.418  30.456  29.927  1.00  0.00     0.031 C 
ATOM     79  C   UNL A   1      45.029  31.094  30.115  1.00  0.00     0.037 A 
BRANCH  66  80
ATOM     80  C   UNL A   1      39.281  29.066  29.088  1.00  0.00     0.064 A 
ATOM     81  C   UNL A   1      38.532  29.020  30.275  1.00  0.00     0.173 A 
ATOM     82  C   UNL A   1      38.618  29.440  27.910  1.00  0.00     0.173 A 
ATOM     83  F   UNL A   1      39.113  28.656  31.428  1.00  0.00    -0.203 F 
ATOM     84  C   UNL A   1      37.170  29.309  30.275  1.00  0.00     0.198 A 
ATOM     85  C   UNL A   1      37.264  29.762  27.920  1.00  0.00     0.198 A 
ATOM     86  F   UNL A   1      39.287  29.506  26.749  1.00  0.00    -0.203 F 
ATOM     87  F   UNL A   1      36.465  29.209  31.410  1.00  0.00    -0.200 F 
ATOM     88  C   UNL A   1      36.539  29.688  29.100  1.00  0.00     0.200 A 
ATOM     89  F   UNL A   1      36.658  30.142  26.786  1.00  0.00    -0.200 F 
ATOM     90  F   UNL A   1      35.230  29.976  29.103  1.00  0.00    -0.200 F 
ENDBRANCH  66  80
BRANCH  67  91
ATOM     91  C   UNL A   1      49.004  26.796  28.554  1.00  0.00     0.064 A 
ATOM     92  C   UNL A   1      49.718  26.314  29.660  1.00  0.00     0.173 A 
ATOM     93  C   UNL A   1      49.706  26.975  27.352  1.00  0.00     0.173 A 
ATOM     94  F   UNL A   1      49.094  26.143  30.835  1.00  0.00    -0.203 F 
ATOM     95  C   UNL A   1      51.082  26.047  29.577  1.00  0.00     0.198 A 
ATOM     96  C   UNL A   1      51.064  26.677  27.261  1.00  0.00     0.198 A 
ATOM     97  F   UNL A   1      49.070  27.426  26.262  1.00  0.00    -0.203 F 
ATOM     98  F   UNL A   1      51.749  25.636  30.662  1.00  0.00    -0.200 F 
ATOM     99  C   UNL A   1      51.754  26.223  28.376  1.00  0.00     0.200 A 
ATOM    100  F   UNL A   1      51.705  26.832  26.095  1.00  0.00    -0.200 F 
ATOM    101  F   UNL A   1      53.065  25.963  28.295  1.00  0.00    -0.200 F 
ENDBRANCH  67  91
BRANCH  79 102
ATOM    102  C   UNL A   1      45.471  32.419  30.664  1.00  0.00     0.064 A 
ATOM    103  C   UNL A   1      45.630  32.631  32.043  1.00  0.00     0.173 A 
ATOM    104  C   UNL A   1      45.766  33.484  29.799  1.00  0.00     0.173 A 
ATOM    105  F   UNL A   1      45.348  31.651  32.914  1.00  0.00    -0.203 F 
ATOM    106  C   UNL A   1      46.037  33.869  32.534  1.00  0.00     0.198 A 
ATOM    107  C   UNL A   1      46.206  34.709  30.291  1.00  0.00     0.198 A 
ATOM    108  F   UNL A   1      45.637  33.333  28.472  1.00  0.00    -0.203 F 
ATOM    109  F   UNL A   1      46.128  34.065  33.857  1.00  0.00    -0.200 F 
ATOM    110  C   UNL A   1      46.331  34.903  31.658  1.00  0.00     0.200 A 
ATOM    111  F   UNL A   1      46.506  35.702  29.444  1.00  0.00    -0.200 F 
ATOM    112  F   UNL A   1      46.730  36.092  32.134  1.00  0.00    -0.200 F 
ENDBRANCH  79 102
ENDBRANCH  53  54
ENDBRANCH  45  48
ENDBRANCH  43  44
ENDBRANCH  42  43
ENDBRANCH  41  42
ENDBRANCH   1  41
TORSDOF 19
ENDMDL
MODEL 3
REMARK VINA RESULT:     -13.2      0.455      6.857
REMARK SMILES CC(C)C(=O)Nc1ccc2c([C@@H](C(=O)NCCCCCCNC(=O)c3ccc(-c4c5nc(c(-c6c(F)c(F)c(F)c(F)c6F)c6ccc([nH]6)c(-c6c(F)c(F)c(F)c(F)c6F)c6nc(c(-c7c(F)c(F)c(F)c(F)c7F)c7ccc4[nH]7)C=C6)C=C5)cc3)[NH+]3CC[NH+](Cc4ccccc4)CC3)c[nH]c2c1
REMARK SMILES IDX 18 1 17 2 16 3 15 4 13 5 14 6 12 8 11 9 7 10 8 11 104 12
REMARK SMILES IDX 9 13 103 14 10 15 102 16 101 17 6 19 4 20 5 21 2 23 1 24
REMARK SMILES IDX 3 25 88 26 89 27 100 28 90 30 99 31 91 32 92 34 93 35 94 36
REMARK SMILES IDX 98 37 95 38 97 39 96 40 19 41 20 42 21 43 22 44 23 45 24 47
REMARK SMILES IDX 25 48 26 49 87 50 27 51 86 52 28 53 29 54 30 55 80 56 31 57
REMARK SMILES IDX 85 58 79 59 81 60 32 61 84 62 78 63 77 64 33 66 65 67 45 68
REMARK SMILES IDX 64 69 46 70 49 71 63 72 82 73 47 74 48 75 62 77 83 78 50 79
REMARK SMILES IDX 34 80 35 81 43 82 36 83 37 84 41 85 44 86 38 87 39 88 42 89
REMARK SMILES IDX 40 90 66 91 67 92 75 93 68 94 69 95 73 96 76 97 70 98 71 99
REMARK SMILES IDX 74 100 72 101 51 102 52 103 60 104 53 105 54 106 58 107
REMARK SMILES IDX 61 108 55 109 56 110 59 111 57 112
REMARK H PARENT 15 7 102 18 6 22 88 29 91 33 22 46 81 65 49 76
REMARK Flexibility Score: inf
ROOT
ATOM      1  C   UNL A   1      36.912  21.651  25.165  1.00  0.00     0.002 C 
ENDROOT
BRANCH   1   2
ATOM      2  C   UNL A   1      36.518  22.233  23.807  1.00  0.00     0.021 C 
BRANCH   2   3
ATOM      3  C   UNL A   1      35.539  23.400  23.914  1.00  0.00     0.116 C 
BRANCH   3   4
ATOM      4  N   UNL A   1      35.040  23.524  25.262  1.00  0.00    -0.351 N 
ATOM      5  C   UNL A   1      33.755  23.756  25.677  1.00  0.00     0.283 C 
ATOM      6  O   UNL A   1      33.614  23.959  26.887  1.00  0.00    -0.268 OA
ATOM      7  H   UNL A   1      35.710  23.429  25.977  1.00  0.00     0.163 HD
BRANCH   5   8
ATOM      8  C   UNL A   1      32.576  23.636  24.658  1.00  0.00     0.308 C 
BRANCH   8   9
ATOM      9  C   UNL A   1      32.532  22.345  23.874  1.00  0.00     0.044 A 
ATOM     10  C   UNL A   1      32.514  18.306  25.022  1.00  0.00     0.043 A 
ATOM     11  C   UNL A   1      32.997  19.200  25.965  1.00  0.00     0.027 A 
ATOM     12  C   UNL A   1      32.285  18.725  23.707  1.00  0.00     0.052 A 
ATOM     13  C   UNL A   1      33.010  20.568  25.721  1.00  0.00     0.013 A 
ATOM     14  C   UNL A   1      32.381  20.101  23.447  1.00  0.00     0.048 A 
ATOM     15  C   UNL A   1      32.666  21.035  24.441  1.00  0.00     0.009 A 
ATOM     16  N   UNL A   1      32.202  20.808  22.283  1.00  0.00    -0.361 N 
ATOM     17  C   UNL A   1      32.378  22.146  22.514  1.00  0.00     0.094 A 
ATOM     18  H   UNL A   1      31.980  20.411  21.409  1.00  0.00     0.166 HD
BRANCH  10  19
ATOM     19  N   UNL A   1      32.282  16.971  25.362  1.00  0.00    -0.326 N 
ATOM     20  C   UNL A   1      32.933  15.835  24.964  1.00  0.00     0.226 C 
ATOM     21  O   UNL A   1      32.370  14.755  25.182  1.00  0.00    -0.274 OA
ATOM     22  H   UNL A   1      31.533  16.825  25.985  1.00  0.00     0.169 HD
BRANCH  20  23
ATOM     23  C   UNL A   1      34.365  15.836  24.390  1.00  0.00     0.072 C 
ATOM     24  C   UNL A   1      34.575  16.580  23.077  1.00  0.00     0.018 C 
ATOM     25  C   UNL A   1      35.439  16.167  25.426  1.00  0.00     0.018 C 
ENDBRANCH  20  23
ENDBRANCH  10  19
ENDBRANCH   8   9
BRANCH   8  26
ATOM     26  N   UNL A   1      32.506  24.814  23.773  1.00  0.00    -0.312 N 
ATOM     27  C   UNL A   1      31.244  25.043  23.070  1.00  0.00     0.325 C 
ATOM     28  C   UNL A   1      33.112  26.046  24.276  1.00  0.00     0.325 C 
ATOM     29  H   UNL A   1      33.140  24.495  23.040  1.00  0.00     0.349 HD
ATOM     30  C   UNL A   1      30.299  26.135  23.639  1.00  0.00     0.324 C 
ATOM     31  C   UNL A   1      32.146  27.081  24.899  1.00  0.00     0.324 C 
ATOM     32  N   UNL A   1      30.910  27.358  24.162  1.00  0.00    -0.322 N 
ATOM     33  H   UNL A   1      30.267  27.726  24.863  1.00  0.00     0.348 HD
BRANCH  32  34
ATOM     34  C   UNL A   1      30.953  28.478  23.219  1.00  0.00     0.299 C 
BRANCH  34  35
ATOM     35  C   UNL A   1      29.798  29.450  23.267  1.00  0.00     0.006 A 
ATOM     36  C   UNL A   1      29.902  30.640  23.998  1.00  0.00     0.009 A 
ATOM     37  C   UNL A   1      28.627  29.209  22.532  1.00  0.00     0.009 A 
ATOM     38  C   UNL A   1      28.897  31.605  23.922  1.00  0.00     0.001 A 
ATOM     39  C   UNL A   1      27.639  30.186  22.431  1.00  0.00     0.001 A 
ATOM     40  C   UNL A   1      27.781  31.388  23.117  1.00  0.00     0.000 A 
ENDBRANCH  34  35
ENDBRANCH  32  34
ENDBRANCH   8  26
ENDBRANCH   5   8
ENDBRANCH   3   4
ENDBRANCH   2   3
ENDBRANCH   1   2
BRANCH   1  41
ATOM     41  C   UNL A   1      38.183  22.261  25.760  1.00  0.00     0.002 C 
BRANCH  41  42
ATOM     42  C   UNL A   1      39.181  21.231  26.295  1.00  0.00     0.021 C 
BRANCH  42  43
ATOM     43  C   UNL A   1      39.582  20.175  25.273  1.00  0.00     0.116 C 
BRANCH  43  44
ATOM     44  N   UNL A   1      40.434  19.160  25.870  1.00  0.00    -0.352 N 
ATOM     45  C   UNL A   1      41.703  19.290  26.365  1.00  0.00     0.251 C 
ATOM     46  H   UNL A   1      40.047  18.257  25.926  1.00  0.00     0.163 HD
ATOM     47  O   UNL A   1      42.393  18.293  26.585  1.00  0.00    -0.269 OA
BRANCH  45  48
ATOM     48  C   UNL A   1      42.242  20.635  26.629  1.00  0.00     0.039 A 
ATOM     49  C   UNL A   1      42.673  21.417  25.557  1.00  0.00     0.014 A 
ATOM     50  C   UNL A   1      42.322  21.120  27.940  1.00  0.00     0.014 A 
ATOM     51  C   UNL A   1      43.143  22.708  25.796  1.00  0.00     0.010 A 
ATOM     52  C   UNL A   1      42.715  22.433  28.167  1.00  0.00     0.010 A 
ATOM     53  C   UNL A   1      43.139  23.236  27.098  1.00  0.00    -0.014 A 
BRANCH  53  54
ATOM     54  C   UNL A   1      43.574  24.629  27.356  1.00  0.00     0.031 A 
ATOM     55  C   UNL A   1      42.590  25.650  27.854  1.00  0.00     0.074 A 
ATOM     56  C   UNL A   1      44.845  24.984  27.088  1.00  0.00     0.049 A 
ATOM     57  N   UNL A   1      42.770  26.922  28.101  1.00  0.00    -0.248 NA
ATOM     58  C   UNL A   1      41.212  25.186  28.081  1.00  0.00     0.031 C 
ATOM     59  C   UNL A   1      45.875  24.094  26.551  1.00  0.00     0.029 A 
ATOM     60  N   UNL A   1      45.486  26.190  27.225  1.00  0.00    -0.354 N 
ATOM     61  C   UNL A   1      41.534  27.409  28.502  1.00  0.00     0.074 A 
ATOM     62  C   UNL A   1      40.596  26.312  28.410  1.00  0.00     0.031 C 
ATOM     63  C   UNL A   1      47.025  24.775  26.430  1.00  0.00     0.029 A 
ATOM     64  C   UNL A   1      46.805  26.158  26.841  1.00  0.00     0.049 A 
ATOM     65  H   UNL A   1      45.044  27.000  27.565  1.00  0.00     0.167 HD
ATOM     66  C   UNL A   1      41.216  28.653  28.933  1.00  0.00     0.037 A 
ATOM     67  C   UNL A   1      47.728  27.136  26.819  1.00  0.00     0.037 A 
ATOM     68  C   UNL A   1      42.160  29.735  29.039  1.00  0.00     0.049 A 
ATOM     69  C   UNL A   1      47.344  28.512  27.291  1.00  0.00     0.074 A 
ATOM     70  C   UNL A   1      41.953  31.016  29.520  1.00  0.00     0.029 A 
ATOM     71  N   UNL A   1      43.490  29.665  28.650  1.00  0.00    -0.354 N 
ATOM     72  N   UNL A   1      46.191  28.941  27.745  1.00  0.00    -0.248 NA
ATOM     73  C   UNL A   1      48.395  29.539  27.259  1.00  0.00     0.031 C 
ATOM     74  C   UNL A   1      43.142  31.736  29.371  1.00  0.00     0.029 A 
ATOM     75  C   UNL A   1      44.109  30.888  28.854  1.00  0.00     0.049 A 
ATOM     76  H   UNL A   1      43.929  28.863  28.283  1.00  0.00     0.167 HD
ATOM     77  C   UNL A   1      46.384  30.276  28.075  1.00  0.00     0.074 A 
ATOM     78  C   UNL A   1      47.771  30.579  27.790  1.00  0.00     0.031 C 
ATOM     79  C   UNL A   1      45.493  31.171  28.568  1.00  0.00     0.037 A 
BRANCH  66  80
ATOM     80  C   UNL A   1      39.789  28.913  29.323  1.00  0.00     0.064 A 
ATOM     81  C   UNL A   1      38.841  29.365  28.392  1.00  0.00     0.173 A 
ATOM     82  C   UNL A   1      39.353  28.666  30.634  1.00  0.00     0.173 A 
ATOM     83  F   UNL A   1      39.207  29.629  27.128  1.00  0.00    -0.203 F 
ATOM     84  C   UNL A   1      37.518  29.589  28.765  1.00  0.00     0.198 A 
ATOM     85  C   UNL A   1      38.021  28.858  30.995  1.00  0.00     0.198 A 
ATOM     86  F   UNL A   1      40.215  28.227  31.562  1.00  0.00    -0.203 F 
ATOM     87  F   UNL A   1      36.644  30.070  27.872  1.00  0.00    -0.200 F 
ATOM     88  C   UNL A   1      37.108  29.327  30.063  1.00  0.00     0.200 A 
ATOM     89  F   UNL A   1      37.624  28.592  32.246  1.00  0.00    -0.200 F 
ATOM     90  F   UNL A   1      35.832  29.533  30.419  1.00  0.00    -0.200 F 
ENDBRANCH  66  80
BRANCH  67  91
ATOM     91  C   UNL A   1      49.109  26.846  26.351  1.00  0.00     0.064 A 
ATOM     92  C   UNL A   1      49.456  26.982  24.999  1.00  0.00     0.173 A 
ATOM     93  C   UNL A   1      50.106  26.419  27.241  1.00  0.00     0.173 A 
ATOM     94  F   UNL A   1      48.533  27.370  24.107  1.00  0.00    -0.203 F 
ATOM     95  C   UNL A   1      50.740  26.678  24.551  1.00  0.00     0.198 A 
ATOM     96  C   UNL A   1      51.398  26.146  26.796  1.00  0.00     0.198 A 
ATOM     97  F   UNL A   1      49.829  26.280  28.545  1.00  0.00    -0.203 F 
ATOM     98  F   UNL A   1      51.030  26.768  23.247  1.00  0.00    -0.200 F 
ATOM     99  C   UNL A   1      51.711  26.266  25.450  1.00  0.00     0.200 A 
ATOM    100  F   UNL A   1      52.338  25.765  27.671  1.00  0.00    -0.200 F 
ATOM    101  F   UNL A   1      52.947  25.977  25.020  1.00  0.00    -0.200 F 
ENDBRANCH  67  91
BRANCH  79 102
ATOM    102  C   UNL A   1      45.999  32.554  28.862  1.00  0.00     0.064 A 
ATOM    103  C   UNL A   1      45.935  33.582  27.910  1.00  0.00     0.173 A 
ATOM    104  C   UNL A   1      46.530  32.861  30.124  1.00  0.00     0.173 A 
ATOM    105  F   UNL A   1      45.449  33.338  26.683  1.00  0.00    -0.203 F 
ATOM    106  C   UNL A   1      46.412  34.857  28.200  1.00  0.00     0.198 A 
ATOM    107  C   UNL A   1      46.975  34.146  30.422  1.00  0.00     0.198 A 
ATOM    108  F   UNL A   1      46.609  31.916  31.074  1.00  0.00    -0.203 F 
ATOM    109  F   UNL A   1      46.392  35.809  27.255  1.00  0.00    -0.200 F 
ATOM    110  C   UNL A   1      46.925  35.140  29.457  1.00  0.00     0.200 A 
ATOM    111  F   UNL A   1      47.454  34.422  31.642  1.00  0.00    -0.200 F 
ATOM    112  F   UNL A   1      47.378  36.371  29.736  1.00  0.00    -0.200 F 
ENDBRANCH  79 102
ENDBRANCH  53  54
ENDBRANCH  45  48
ENDBRANCH  43  44
ENDBRANCH  42  43
ENDBRANCH  41  42
ENDBRANCH   1  41
TORSDOF 19
ENDMDL
