MODEL 1
REMARK VINA RESULT:     -11.8      0.000      0.000
REMARK SMILES O=C(CSc1ccnc(C(=O)NCCCCCCNC(=O)c2ccc(-c3c4nc(c(-c5c(F)c(F)c(F)c(F)c5F)c5ccc([nH]5)c(-c5c(F)c(F)c(F)c(F)c5F)c5nc(c(-c6c(F)c(F)c(F)c(F)c6F)c6ccc3[nH]6)C=C5)C=C4)cc2)c1)NNc1ccccn1
REMARK SMILES IDX 14 1 13 2 12 3 10 4 11 5 9 7 5 8 6 9 85 10 7 11 8 12 4 13
REMARK SMILES IDX 3 14 2 15 1 16 86 17 87 19 88 21 89 22 93 23 90 24 92 25
REMARK SMILES IDX 91 26 15 27 16 28 17 29 18 30 19 31 20 32 21 34 22 35 23 36
REMARK SMILES IDX 84 37 24 38 83 39 25 40 26 41 27 42 77 43 28 44 82 45 76 46
REMARK SMILES IDX 78 47 29 48 81 49 75 50 74 51 30 53 62 54 42 55 61 56 43 57
REMARK SMILES IDX 46 58 60 59 79 60 44 61 45 62 59 64 80 65 47 66 31 67 32 68
REMARK SMILES IDX 40 69 33 70 34 71 38 72 41 73 35 74 36 75 39 76 37 77 63 78
REMARK SMILES IDX 64 79 72 80 65 81 66 82 70 83 73 84 67 85 68 86 71 87 69 88
REMARK SMILES IDX 48 89 49 90 57 91 50 92 51 93 55 94 58 95 52 96 53 97 56 98
REMARK SMILES IDX 54 99
REMARK H PARENT 12 6 86 18 87 20 19 33 78 52 46 63
REMARK Flexibility Score: inf
ROOT
ATOM      1  C   UNL A   1      32.535  28.550  25.752  1.00  0.00     0.021 C 
ENDROOT
BRANCH   1   2
ATOM      2  C   UNL A   1      32.148  27.781  27.010  1.00  0.00     0.116 C 
BRANCH   2   3
ATOM      3  N   UNL A   1      30.899  27.055  26.889  1.00  0.00    -0.351 N 
ATOM      4  C   UNL A   1      30.627  25.739  26.575  1.00  0.00     0.269 C 
ATOM      5  O   UNL A   1      29.442  25.411  26.516  1.00  0.00    -0.268 OA
ATOM      6  H   UNL A   1      30.098  27.602  27.063  1.00  0.00     0.163 HD
BRANCH   4   7
ATOM      7  C   UNL A   1      31.703  24.728  26.292  1.00  0.00     0.129 A 
ATOM      8  C   UNL A   1      33.411  23.753  24.930  1.00  0.00     0.012 A 
ATOM      9  C   UNL A   1      33.562  22.752  25.884  1.00  0.00     0.035 A 
ATOM     10  C   UNL A   1      32.528  24.802  25.181  1.00  0.00     0.049 A 
ATOM     11  C   UNL A   1      32.757  22.793  27.007  1.00  0.00     0.113 A 
ATOM     12  N   UNL A   1      31.817  23.737  27.214  1.00  0.00    -0.251 NA
BRANCH   8  13
ATOM     13  S   UNL A   1      34.284  23.751  23.372  1.00  0.00    -0.116 SA
BRANCH  13  14
ATOM     14  C   UNL A   1      32.910  24.169  22.217  1.00  0.00     0.176 C 
BRANCH  14  15
ATOM     15  C   UNL A   1      32.890  25.652  21.902  1.00  0.00     0.248 C 
ATOM     16  O   UNL A   1      33.856  26.236  21.418  1.00  0.00    -0.272 OA
ATOM     17  N   UNL A   1      31.681  26.253  22.190  1.00  0.00    -0.268 N 
ATOM     18  H   UNL A   1      30.898  25.705  22.425  1.00  0.00     0.191 HD
BRANCH  17  19
ATOM     19  N   UNL A   1      31.579  27.634  22.148  1.00  0.00    -0.282 N 
ATOM     20  H   UNL A   1      32.360  28.198  21.941  1.00  0.00     0.190 HD
BRANCH  19  21
ATOM     21  C   UNL A   1      30.328  28.196  22.409  1.00  0.00     0.144 A 
ATOM     22  C   UNL A   1      29.394  27.567  23.234  1.00  0.00     0.048 A 
ATOM     23  N   UNL A   1      30.059  29.370  21.804  1.00  0.00    -0.238 NA
ATOM     24  C   UNL A   1      28.135  28.136  23.405  1.00  0.00     0.005 A 
ATOM     25  C   UNL A   1      28.832  29.905  21.985  1.00  0.00     0.113 A 
ATOM     26  C   UNL A   1      27.842  29.327  22.759  1.00  0.00     0.020 A 
ENDBRANCH  19  21
ENDBRANCH  17  19
ENDBRANCH  14  15
ENDBRANCH  13  14
ENDBRANCH   8  13
ENDBRANCH   4   7
ENDBRANCH   2   3
ENDBRANCH   1   2
BRANCH   1  27
ATOM     27  C   UNL A   1      31.796  29.865  25.499  1.00  0.00     0.002 C 
BRANCH  27  28
ATOM     28  C   UNL A   1      31.425  30.695  26.731  1.00  0.00     0.002 C 
BRANCH  28  29
ATOM     29  C   UNL A   1      31.460  32.216  26.570  1.00  0.00     0.021 C 
BRANCH  29  30
ATOM     30  C   UNL A   1      32.743  32.908  27.017  1.00  0.00     0.116 C 
BRANCH  30  31
ATOM     31  N   UNL A   1      32.502  34.197  27.638  1.00  0.00    -0.352 N 
ATOM     32  C   UNL A   1      33.089  34.767  28.738  1.00  0.00     0.251 C 
ATOM     33  H   UNL A   1      31.810  34.746  27.203  1.00  0.00     0.163 HD
ATOM     34  O   UNL A   1      32.642  35.818  29.188  1.00  0.00    -0.269 OA
BRANCH  32  35
ATOM     35  C   UNL A   1      34.250  34.128  29.405  1.00  0.00     0.039 A 
ATOM     36  C   UNL A   1      35.535  34.527  29.023  1.00  0.00     0.014 A 
ATOM     37  C   UNL A   1      34.093  33.101  30.341  1.00  0.00     0.014 A 
ATOM     38  C   UNL A   1      36.656  33.914  29.589  1.00  0.00     0.010 A 
ATOM     39  C   UNL A   1      35.212  32.539  30.958  1.00  0.00     0.010 A 
ATOM     40  C   UNL A   1      36.504  32.919  30.567  1.00  0.00    -0.014 A 
BRANCH  40  41
ATOM     41  C   UNL A   1      37.690  32.231  31.139  1.00  0.00     0.031 A 
ATOM     42  C   UNL A   1      38.180  32.592  32.515  1.00  0.00     0.074 A 
ATOM     43  C   UNL A   1      38.342  31.302  30.414  1.00  0.00     0.049 A 
ATOM     44  N   UNL A   1      39.197  32.111  33.187  1.00  0.00    -0.248 NA
ATOM     45  C   UNL A   1      37.444  33.653  33.221  1.00  0.00     0.031 C 
ATOM     46  C   UNL A   1      37.999  30.901  29.050  1.00  0.00     0.029 A 
ATOM     47  N   UNL A   1      39.432  30.528  30.725  1.00  0.00    -0.354 N 
ATOM     48  C   UNL A   1      39.231  32.822  34.380  1.00  0.00     0.074 A 
ATOM     49  C   UNL A   1      38.170  33.803  34.319  1.00  0.00     0.031 C 
ATOM     50  C   UNL A   1      38.845  29.937  28.650  1.00  0.00     0.029 A 
ATOM     51  C   UNL A   1      39.800  29.667  29.722  1.00  0.00     0.049 A 
ATOM     52  H   UNL A   1      39.905  30.584  31.588  1.00  0.00     0.167 HD
ATOM     53  C   UNL A   1      40.056  32.655  35.443  1.00  0.00     0.037 A 
ATOM     54  C   UNL A   1      40.790  28.756  29.676  1.00  0.00     0.037 A 
ATOM     55  C   UNL A   1      41.088  31.655  35.517  1.00  0.00     0.049 A 
ATOM     56  C   UNL A   1      41.665  28.560  30.884  1.00  0.00     0.074 A 
ATOM     57  C   UNL A   1      41.942  31.370  36.567  1.00  0.00     0.029 A 
ATOM     58  N   UNL A   1      41.403  30.772  34.495  1.00  0.00    -0.354 N 
ATOM     59  N   UNL A   1      41.646  29.192  32.032  1.00  0.00    -0.248 NA
ATOM     60  C   UNL A   1      42.688  27.509  30.796  1.00  0.00     0.031 C 
ATOM     61  C   UNL A   1      42.796  30.334  36.169  1.00  0.00     0.029 A 
ATOM     62  C   UNL A   1      42.443  29.945  34.887  1.00  0.00     0.049 A 
ATOM     63  H   UNL A   1      40.953  30.736  33.620  1.00  0.00     0.167 HD
ATOM     64  C   UNL A   1      42.627  28.596  32.813  1.00  0.00     0.074 A 
ATOM     65  C   UNL A   1      43.214  27.542  32.011  1.00  0.00     0.031 C 
ATOM     66  C   UNL A   1      43.007  28.893  34.081  1.00  0.00     0.037 A 
BRANCH  53  67
ATOM     67  C   UNL A   1      39.867  33.575  36.615  1.00  0.00     0.064 A 
ATOM     68  C   UNL A   1      39.002  33.254  37.672  1.00  0.00     0.173 A 
ATOM     69  C   UNL A   1      40.571  34.786  36.691  1.00  0.00     0.173 A 
ATOM     70  F   UNL A   1      38.295  32.114  37.642  1.00  0.00    -0.203 F 
ATOM     71  C   UNL A   1      38.823  34.125  38.744  1.00  0.00     0.198 A 
ATOM     72  C   UNL A   1      40.413  35.641  37.779  1.00  0.00     0.198 A 
ATOM     73  F   UNL A   1      41.415  35.141  35.710  1.00  0.00    -0.203 F 
ATOM     74  F   UNL A   1      37.949  33.821  39.713  1.00  0.00    -0.200 F 
ATOM     75  C   UNL A   1      39.533  35.314  38.799  1.00  0.00     0.200 A 
ATOM     76  F   UNL A   1      41.109  36.785  37.837  1.00  0.00    -0.200 F 
ATOM     77  F   UNL A   1      39.361  36.151  39.831  1.00  0.00    -0.200 F 
ENDBRANCH  53  67
BRANCH  54  78
ATOM     78  C   UNL A   1      40.971  27.921  28.461  1.00  0.00     0.064 A 
ATOM     79  C   UNL A   1      41.817  28.335  27.423  1.00  0.00     0.173 A 
ATOM     80  C   UNL A   1      40.307  26.695  28.312  1.00  0.00     0.173 A 
ATOM     81  F   UNL A   1      42.460  29.509  27.512  1.00  0.00    -0.203 F 
ATOM     82  C   UNL A   1      41.977  27.564  26.273  1.00  0.00     0.198 A 
ATOM     83  C   UNL A   1      40.486  25.913  27.173  1.00  0.00     0.198 A 
ATOM     84  F   UNL A   1      39.491  26.252  29.281  1.00  0.00    -0.203 F 
ATOM     85  F   UNL A   1      42.758  28.004  25.278  1.00  0.00    -0.200 F 
ATOM     86  C   UNL A   1      41.315  26.352  26.151  1.00  0.00     0.200 A 
ATOM     87  F   UNL A   1      39.856  24.736  27.066  1.00  0.00    -0.200 F 
ATOM     88  F   UNL A   1      41.471  25.610  25.047  1.00  0.00    -0.200 F 
ENDBRANCH  54  78
BRANCH  66  89
ATOM     89  C   UNL A   1      44.078  28.038  34.693  1.00  0.00     0.064 A 
ATOM     90  C   UNL A   1      43.774  26.852  35.378  1.00  0.00     0.173 A 
ATOM     91  C   UNL A   1      45.428  28.402  34.573  1.00  0.00     0.173 A 
ATOM     92  F   UNL A   1      42.497  26.469  35.531  1.00  0.00    -0.203 F 
ATOM     93  C   UNL A   1      44.781  26.078  35.947  1.00  0.00     0.198 A 
ATOM     94  C   UNL A   1      46.434  27.609  35.119  1.00  0.00     0.198 A 
ATOM     95  F   UNL A   1      45.771  29.522  33.922  1.00  0.00    -0.203 F 
ATOM     96  F   UNL A   1      44.464  24.977  36.644  1.00  0.00    -0.200 F 
ATOM     97  C   UNL A   1      46.109  26.455  35.813  1.00  0.00     0.200 A 
ATOM     98  F   UNL A   1      47.718  27.968  34.979  1.00  0.00    -0.200 F 
ATOM     99  F   UNL A   1      47.077  25.707  36.363  1.00  0.00    -0.200 F 
ENDBRANCH  66  89
ENDBRANCH  40  41
ENDBRANCH  32  35
ENDBRANCH  30  31
ENDBRANCH  29  30
ENDBRANCH  28  29
ENDBRANCH  27  28
ENDBRANCH   1  27
TORSDOF 18
ENDMDL
MODEL 2
REMARK VINA RESULT:     -11.7      1.912      3.056
REMARK SMILES O=C(CSc1ccnc(C(=O)NCCCCCCNC(=O)c2ccc(-c3c4nc(c(-c5c(F)c(F)c(F)c(F)c5F)c5ccc([nH]5)c(-c5c(F)c(F)c(F)c(F)c5F)c5nc(c(-c6c(F)c(F)c(F)c(F)c6F)c6ccc3[nH]6)C=C5)C=C4)cc2)c1)NNc1ccccn1
REMARK SMILES IDX 14 1 13 2 12 3 10 4 11 5 9 7 5 8 6 9 85 10 7 11 8 12 4 13
REMARK SMILES IDX 3 14 2 15 1 16 86 17 87 19 88 21 89 22 93 23 90 24 92 25
REMARK SMILES IDX 91 26 15 27 16 28 17 29 18 30 19 31 20 32 21 34 22 35 23 36
REMARK SMILES IDX 84 37 24 38 83 39 25 40 26 41 27 42 77 43 28 44 82 45 76 46
REMARK SMILES IDX 78 47 29 48 81 49 75 50 74 51 30 53 62 54 42 55 61 56 43 57
REMARK SMILES IDX 46 58 60 59 79 60 44 61 45 62 59 64 80 65 47 66 31 67 32 68
REMARK SMILES IDX 40 69 33 70 34 71 38 72 41 73 35 74 36 75 39 76 37 77 63 78
REMARK SMILES IDX 64 79 72 80 65 81 66 82 70 83 73 84 67 85 68 86 71 87 69 88
REMARK SMILES IDX 48 89 49 90 57 91 50 92 51 93 55 94 58 95 52 96 53 97 56 98
REMARK SMILES IDX 54 99
REMARK H PARENT 12 6 86 18 87 20 19 33 78 52 46 63
REMARK Flexibility Score: inf
ROOT
ATOM      1  C   UNL A   1      35.567  31.645  28.362  1.00  0.00     0.021 C 
ENDROOT
BRANCH   1   2
ATOM      2  C   UNL A   1      34.905  30.520  27.576  1.00  0.00     0.116 C 
BRANCH   2   3
ATOM      3  N   UNL A   1      33.459  30.617  27.522  1.00  0.00    -0.351 N 
ATOM      4  C   UNL A   1      32.519  29.938  26.772  1.00  0.00     0.269 C 
ATOM      5  O   UNL A   1      31.342  30.267  26.921  1.00  0.00    -0.268 OA
ATOM      6  H   UNL A   1      33.079  31.290  28.131  1.00  0.00     0.163 HD
BRANCH   4   7
ATOM      7  C   UNL A   1      32.881  28.857  25.793  1.00  0.00     0.129 A 
ATOM      8  C   UNL A   1      33.224  26.575  25.164  1.00  0.00     0.012 A 
ATOM      9  C   UNL A   1      33.668  27.013  23.920  1.00  0.00     0.035 A 
ATOM     10  C   UNL A   1      32.745  27.508  26.080  1.00  0.00     0.049 A 
ATOM     11  C   UNL A   1      33.699  28.374  23.680  1.00  0.00     0.113 A 
ATOM     12  N   UNL A   1      33.345  29.299  24.595  1.00  0.00    -0.251 NA
BRANCH   8  13
ATOM     13  S   UNL A   1      33.261  24.859  25.659  1.00  0.00    -0.116 SA
BRANCH  13  14
ATOM     14  C   UNL A   1      31.495  24.604  26.118  1.00  0.00     0.176 C 
BRANCH  14  15
ATOM     15  C   UNL A   1      30.590  24.729  24.907  1.00  0.00     0.248 C 
ATOM     16  O   UNL A   1      30.758  24.066  23.887  1.00  0.00    -0.272 OA
ATOM     17  N   UNL A   1      29.563  25.635  25.087  1.00  0.00    -0.268 N 
ATOM     18  H   UNL A   1      29.387  26.016  25.978  1.00  0.00     0.191 HD
BRANCH  17  19
ATOM     19  N   UNL A   1      28.783  26.004  24.004  1.00  0.00    -0.282 N 
ATOM     20  H   UNL A   1      28.224  25.347  23.528  1.00  0.00     0.190 HD
BRANCH  19  21
ATOM     21  C   UNL A   1      28.818  27.344  23.612  1.00  0.00     0.144 A 
ATOM     22  C   UNL A   1      30.003  28.082  23.612  1.00  0.00     0.048 A 
ATOM     23  N   UNL A   1      27.642  27.896  23.252  1.00  0.00    -0.238 NA
ATOM     24  C   UNL A   1      29.971  29.433  23.279  1.00  0.00     0.005 A 
ATOM     25  C   UNL A   1      27.634  29.208  22.931  1.00  0.00     0.113 A 
ATOM     26  C   UNL A   1      28.759  30.014  22.940  1.00  0.00     0.020 A 
ENDBRANCH  19  21
ENDBRANCH  17  19
ENDBRANCH  14  15
ENDBRANCH  13  14
ENDBRANCH   8  13
ENDBRANCH   4   7
ENDBRANCH   2   3
ENDBRANCH   1   2
BRANCH   1  27
ATOM     27  C   UNL A   1      34.643  32.533  29.196  1.00  0.00     0.002 C 
BRANCH  27  28
ATOM     28  C   UNL A   1      34.689  34.037  28.908  1.00  0.00     0.002 C 
BRANCH  28  29
ATOM     29  C   UNL A   1      33.359  34.790  28.978  1.00  0.00     0.021 C 
BRANCH  29  30
ATOM     30  C   UNL A   1      33.391  36.146  29.674  1.00  0.00     0.116 C 
BRANCH  30  31
ATOM     31  N   UNL A   1      32.485  36.222  30.804  1.00  0.00    -0.352 N 
ATOM     32  C   UNL A   1      32.583  35.655  32.049  1.00  0.00     0.251 C 
ATOM     33  H   UNL A   1      31.676  36.763  30.655  1.00  0.00     0.163 HD
ATOM     34  O   UNL A   1      31.635  35.727  32.825  1.00  0.00    -0.269 OA
BRANCH  32  35
ATOM     35  C   UNL A   1      33.813  34.941  32.472  1.00  0.00     0.039 A 
ATOM     36  C   UNL A   1      35.028  35.634  32.431  1.00  0.00     0.014 A 
ATOM     37  C   UNL A   1      33.799  33.592  32.836  1.00  0.00     0.014 A 
ATOM     38  C   UNL A   1      36.217  34.984  32.771  1.00  0.00     0.010 A 
ATOM     39  C   UNL A   1      34.976  32.963  33.244  1.00  0.00     0.010 A 
ATOM     40  C   UNL A   1      36.200  33.644  33.188  1.00  0.00    -0.014 A 
BRANCH  40  41
ATOM     41  C   UNL A   1      37.466  32.934  33.506  1.00  0.00     0.031 A 
ATOM     42  C   UNL A   1      38.188  33.222  34.795  1.00  0.00     0.074 A 
ATOM     43  C   UNL A   1      37.980  32.052  32.629  1.00  0.00     0.049 A 
ATOM     44  N   UNL A   1      39.305  32.713  35.253  1.00  0.00    -0.248 NA
ATOM     45  C   UNL A   1      37.588  34.236  35.676  1.00  0.00     0.031 C 
ATOM     46  C   UNL A   1      37.405  31.724  31.325  1.00  0.00     0.029 A 
ATOM     47  N   UNL A   1      39.106  31.270  32.703  1.00  0.00    -0.354 N 
ATOM     48  C   UNL A   1      39.547  33.356  36.460  1.00  0.00     0.074 A 
ATOM     49  C   UNL A   1      38.494  34.331  36.638  1.00  0.00     0.031 C 
ATOM     50  C   UNL A   1      38.166  30.790  30.732  1.00  0.00     0.029 A 
ATOM     51  C   UNL A   1      39.292  30.468  31.605  1.00  0.00     0.049 A 
ATOM     52  H   UNL A   1      39.721  31.282  33.473  1.00  0.00     0.167 HD
ATOM     53  C   UNL A   1      40.542  33.136  37.353  1.00  0.00     0.037 A 
ATOM     54  C   UNL A   1      40.258  29.568  31.337  1.00  0.00     0.037 A 
ATOM     55  C   UNL A   1      41.570  32.142  37.191  1.00  0.00     0.049 A 
ATOM     56  C   UNL A   1      41.329  29.312  32.363  1.00  0.00     0.074 A 
ATOM     57  C   UNL A   1      42.592  31.805  38.060  1.00  0.00     0.029 A 
ATOM     58  N   UNL A   1      41.700  31.319  36.082  1.00  0.00    -0.354 N 
ATOM     59  N   UNL A   1      41.510  29.879  33.531  1.00  0.00    -0.248 NA
ATOM     60  C   UNL A   1      42.318  28.275  32.041  1.00  0.00     0.031 C 
ATOM     61  C   UNL A   1      43.362  30.800  37.463  1.00  0.00     0.029 A 
ATOM     62  C   UNL A   1      42.791  30.479  36.242  1.00  0.00     0.049 A 
ATOM     63  H   UNL A   1      41.106  31.329  35.298  1.00  0.00     0.167 HD
ATOM     64  C   UNL A   1      42.609  29.248  34.096  1.00  0.00     0.074 A 
ATOM     65  C   UNL A   1      43.047  28.245  33.146  1.00  0.00     0.031 C 
ATOM     66  C   UNL A   1      43.204  29.478  35.293  1.00  0.00     0.037 A 
BRANCH  53  67
ATOM     67  C   UNL A   1      40.561  33.990  38.589  1.00  0.00     0.064 A 
ATOM     68  C   UNL A   1      39.830  33.641  39.735  1.00  0.00     0.173 A 
ATOM     69  C   UNL A   1      41.333  35.160  38.635  1.00  0.00     0.173 A 
ATOM     70  F   UNL A   1      39.066  32.539  39.739  1.00  0.00    -0.203 F 
ATOM     71  C   UNL A   1      39.843  34.451  40.868  1.00  0.00     0.198 A 
ATOM     72  C   UNL A   1      41.368  35.951  39.781  1.00  0.00     0.198 A 
ATOM     73  F   UNL A   1      42.056  35.537  37.570  1.00  0.00    -0.203 F 
ATOM     74  F   UNL A   1      39.092  34.127  41.930  1.00  0.00    -0.200 F 
ATOM     75  C   UNL A   1      40.616  35.601  40.893  1.00  0.00     0.200 A 
ATOM     76  F   UNL A   1      42.126  37.057  39.808  1.00  0.00    -0.200 F 
ATOM     77  F   UNL A   1      40.629  36.379  41.984  1.00  0.00    -0.200 F 
ENDBRANCH  53  67
BRANCH  54  78
ATOM     78  C   UNL A   1      40.224  28.803  30.064  1.00  0.00     0.064 A 
ATOM     79  C   UNL A   1      39.561  27.571  29.984  1.00  0.00     0.173 A 
ATOM     80  C   UNL A   1      40.849  29.286  28.906  1.00  0.00     0.173 A 
ATOM     81  F   UNL A   1      38.964  27.060  31.070  1.00  0.00    -0.203 F 
ATOM     82  C   UNL A   1      39.541  26.841  28.797  1.00  0.00     0.198 A 
ATOM     83  C   UNL A   1      40.807  28.567  27.713  1.00  0.00     0.198 A 
ATOM     84  F   UNL A   1      41.491  30.464  28.931  1.00  0.00    -0.203 F 
ATOM     85  F   UNL A   1      38.937  25.646  28.759  1.00  0.00    -0.200 F 
ATOM     86  C   UNL A   1      40.160  27.341  27.662  1.00  0.00     0.200 A 
ATOM     87  F   UNL A   1      41.394  29.061  26.615  1.00  0.00    -0.200 F 
ATOM     88  F   UNL A   1      40.138  26.640  26.520  1.00  0.00    -0.200 F 
ENDBRANCH  54  78
BRANCH  66  89
ATOM     89  C   UNL A   1      44.363  28.598  35.662  1.00  0.00     0.064 A 
ATOM     90  C   UNL A   1      44.185  27.405  36.377  1.00  0.00     0.173 A 
ATOM     91  C   UNL A   1      45.666  28.946  35.275  1.00  0.00     0.173 A 
ATOM     92  F   UNL A   1      42.960  27.036  36.782  1.00  0.00    -0.203 F 
ATOM     93  C   UNL A   1      45.274  26.607  36.718  1.00  0.00     0.198 A 
ATOM     94  C   UNL A   1      46.749  28.131  35.593  1.00  0.00     0.198 A 
ATOM     95  F   UNL A   1      45.889  30.073  34.584  1.00  0.00    -0.203 F 
ATOM     96  F   UNL A   1      45.087  25.499  37.449  1.00  0.00    -0.200 F 
ATOM     97  C   UNL A   1      46.553  26.968  36.322  1.00  0.00     0.200 A 
ATOM     98  F   UNL A   1      47.983  28.474  35.199  1.00  0.00    -0.200 F 
ATOM     99  F   UNL A   1      47.600  26.199  36.653  1.00  0.00    -0.200 F 
ENDBRANCH  66  89
ENDBRANCH  40  41
ENDBRANCH  32  35
ENDBRANCH  30  31
ENDBRANCH  29  30
ENDBRANCH  28  29
ENDBRANCH  27  28
ENDBRANCH   1  27
TORSDOF 18
ENDMDL
MODEL 3
REMARK VINA RESULT:     -11.7      2.139      4.502
REMARK SMILES O=C(CSc1ccnc(C(=O)NCCCCCCNC(=O)c2ccc(-c3c4nc(c(-c5c(F)c(F)c(F)c(F)c5F)c5ccc([nH]5)c(-c5c(F)c(F)c(F)c(F)c5F)c5nc(c(-c6c(F)c(F)c(F)c(F)c6F)c6ccc3[nH]6)C=C5)C=C4)cc2)c1)NNc1ccccn1
REMARK SMILES IDX 14 1 13 2 12 3 10 4 11 5 9 7 5 8 6 9 85 10 7 11 8 12 4 13
REMARK SMILES IDX 3 14 2 15 1 16 86 17 87 19 88 21 89 22 93 23 90 24 92 25
REMARK SMILES IDX 91 26 15 27 16 28 17 29 18 30 19 31 20 32 21 34 22 35 23 36
REMARK SMILES IDX 84 37 24 38 83 39 25 40 26 41 27 42 77 43 28 44 82 45 76 46
REMARK SMILES IDX 78 47 29 48 81 49 75 50 74 51 30 53 62 54 42 55 61 56 43 57
REMARK SMILES IDX 46 58 60 59 79 60 44 61 45 62 59 64 80 65 47 66 31 67 32 68
REMARK SMILES IDX 40 69 33 70 34 71 38 72 41 73 35 74 36 75 39 76 37 77 63 78
REMARK SMILES IDX 64 79 72 80 65 81 66 82 70 83 73 84 67 85 68 86 71 87 69 88
REMARK SMILES IDX 48 89 49 90 57 91 50 92 51 93 55 94 58 95 52 96 53 97 56 98
REMARK SMILES IDX 54 99
REMARK H PARENT 12 6 86 18 87 20 19 33 78 52 46 63
REMARK Flexibility Score: inf
ROOT
ATOM      1  C   UNL A   1      31.654  28.553  27.355  1.00  0.00     0.021 C 
ENDROOT
BRANCH   1   2
ATOM      2  C   UNL A   1      32.357  27.318  26.804  1.00  0.00     0.116 C 
BRANCH   2   3
ATOM      3  N   UNL A   1      31.499  26.462  26.009  1.00  0.00    -0.351 N 
ATOM      4  C   UNL A   1      31.593  25.128  25.665  1.00  0.00     0.269 C 
ATOM      5  O   UNL A   1      30.711  24.675  24.935  1.00  0.00    -0.268 OA
ATOM      6  H   UNL A   1      30.703  26.916  25.647  1.00  0.00     0.163 HD
BRANCH   4   7
ATOM      7  C   UNL A   1      32.718  24.244  26.125  1.00  0.00     0.129 A 
ATOM      8  C   UNL A   1      34.997  23.516  26.126  1.00  0.00     0.012 A 
ATOM      9  C   UNL A   1      34.638  22.485  26.988  1.00  0.00     0.035 A 
ATOM     10  C   UNL A   1      34.038  24.458  25.759  1.00  0.00     0.049 A 
ATOM     11  C   UNL A   1      33.314  22.387  27.373  1.00  0.00     0.113 A 
ATOM     12  N   UNL A   1      32.349  23.221  26.939  1.00  0.00    -0.251 NA
BRANCH   8  13
ATOM     13  S   UNL A   1      36.637  23.682  25.439  1.00  0.00    -0.116 SA
BRANCH  13  14
ATOM     14  C   UNL A   1      36.739  22.140  24.436  1.00  0.00     0.176 C 
BRANCH  14  15
ATOM     15  C   UNL A   1      37.774  21.186  25.000  1.00  0.00     0.248 C 
ATOM     16  O   UNL A   1      37.618  19.968  25.001  1.00  0.00    -0.272 OA
ATOM     17  N   UNL A   1      38.900  21.827  25.480  1.00  0.00    -0.268 N 
ATOM     18  H   UNL A   1      39.035  22.787  25.308  1.00  0.00     0.191 HD
BRANCH  17  19
ATOM     19  N   UNL A   1      39.835  21.108  26.206  1.00  0.00    -0.282 N 
ATOM     20  H   UNL A   1      39.708  20.151  26.399  1.00  0.00     0.190 HD
BRANCH  19  21
ATOM     21  C   UNL A   1      40.967  21.793  26.654  1.00  0.00     0.144 A 
ATOM     22  C   UNL A   1      41.152  22.113  27.999  1.00  0.00     0.048 A 
ATOM     23  N   UNL A   1      41.865  22.149  25.713  1.00  0.00    -0.238 NA
ATOM     24  C   UNL A   1      42.263  22.858  28.383  1.00  0.00     0.005 A 
ATOM     25  C   UNL A   1      42.937  22.870  26.107  1.00  0.00     0.113 A 
ATOM     26  C   UNL A   1      43.174  23.255  27.415  1.00  0.00     0.020 A 
ENDBRANCH  19  21
ENDBRANCH  17  19
ENDBRANCH  14  15
ENDBRANCH  13  14
ENDBRANCH   8  13
ENDBRANCH   4   7
ENDBRANCH   2   3
ENDBRANCH   1   2
BRANCH   1  27
ATOM     27  C   UNL A   1      32.259  29.907  26.984  1.00  0.00     0.002 C 
BRANCH  27  28
ATOM     28  C   UNL A   1      31.404  30.828  26.109  1.00  0.00     0.002 C 
BRANCH  28  29
ATOM     29  C   UNL A   1      31.366  32.307  26.502  1.00  0.00     0.021 C 
BRANCH  29  30
ATOM     30  C   UNL A   1      32.653  32.879  27.085  1.00  0.00     0.116 C 
BRANCH  30  31
ATOM     31  N   UNL A   1      32.477  34.203  27.651  1.00  0.00    -0.352 N 
ATOM     32  C   UNL A   1      33.111  34.799  28.711  1.00  0.00     0.251 C 
ATOM     33  H   UNL A   1      31.797  34.759  27.205  1.00  0.00     0.163 HD
ATOM     34  O   UNL A   1      32.715  35.886  29.120  1.00  0.00    -0.269 OA
BRANCH  32  35
ATOM     35  C   UNL A   1      34.260  34.145  29.383  1.00  0.00     0.039 A 
ATOM     36  C   UNL A   1      35.551  34.463  28.948  1.00  0.00     0.014 A 
ATOM     37  C   UNL A   1      34.084  33.178  30.377  1.00  0.00     0.014 A 
ATOM     38  C   UNL A   1      36.659  33.831  29.518  1.00  0.00     0.010 A 
ATOM     39  C   UNL A   1      35.193  32.599  30.996  1.00  0.00     0.010 A 
ATOM     40  C   UNL A   1      36.489  32.899  30.553  1.00  0.00    -0.014 A 
BRANCH  40  41
ATOM     41  C   UNL A   1      37.660  32.189  31.132  1.00  0.00     0.031 A 
ATOM     42  C   UNL A   1      38.133  32.525  32.521  1.00  0.00     0.074 A 
ATOM     43  C   UNL A   1      38.312  31.264  30.403  1.00  0.00     0.049 A 
ATOM     44  N   UNL A   1      39.135  32.024  33.200  1.00  0.00    -0.248 NA
ATOM     45  C   UNL A   1      37.399  33.584  33.231  1.00  0.00     0.031 C 
ATOM     46  C   UNL A   1      37.984  30.885  29.029  1.00  0.00     0.029 A 
ATOM     47  N   UNL A   1      39.388  30.473  30.719  1.00  0.00    -0.354 N 
ATOM     48  C   UNL A   1      39.159  32.717  34.403  1.00  0.00     0.074 A 
ATOM     49  C   UNL A   1      38.110  33.710  34.341  1.00  0.00     0.031 C 
ATOM     50  C   UNL A   1      38.825  29.918  28.628  1.00  0.00     0.029 A 
ATOM     51  C   UNL A   1      39.761  29.622  29.709  1.00  0.00     0.049 A 
ATOM     52  H   UNL A   1      39.849  30.512  31.589  1.00  0.00     0.167 HD
ATOM     53  C   UNL A   1      39.966  32.525  35.476  1.00  0.00     0.037 A 
ATOM     54  C   UNL A   1      40.742  28.700  29.665  1.00  0.00     0.037 A 
ATOM     55  C   UNL A   1      40.986  31.513  35.550  1.00  0.00     0.049 A 
ATOM     56  C   UNL A   1      41.597  28.478  30.882  1.00  0.00     0.074 A 
ATOM     57  C   UNL A   1      41.822  31.203  36.609  1.00  0.00     0.029 A 
ATOM     58  N   UNL A   1      41.306  30.641  34.520  1.00  0.00    -0.354 N 
ATOM     59  N   UNL A   1      41.568  29.093  32.039  1.00  0.00    -0.248 NA
ATOM     60  C   UNL A   1      42.610  27.416  30.794  1.00  0.00     0.031 C 
ATOM     61  C   UNL A   1      42.670  30.164  36.208  1.00  0.00     0.029 A 
ATOM     62  C   UNL A   1      42.331  29.796  34.915  1.00  0.00     0.049 A 
ATOM     63  H   UNL A   1      40.868  30.623  33.639  1.00  0.00     0.167 HD
ATOM     64  C   UNL A   1      42.530  28.475  32.826  1.00  0.00     0.074 A 
ATOM     65  C   UNL A   1      43.118  27.426  32.017  1.00  0.00     0.031 C 
ATOM     66  C   UNL A   1      42.895  28.750  34.103  1.00  0.00     0.037 A 
BRANCH  53  67
ATOM     67  C   UNL A   1      39.770  33.431  36.657  1.00  0.00     0.064 A 
ATOM     68  C   UNL A   1      40.471  34.641  36.782  1.00  0.00     0.173 A 
ATOM     69  C   UNL A   1      38.858  33.096  37.669  1.00  0.00     0.173 A 
ATOM     70  F   UNL A   1      41.364  35.002  35.849  1.00  0.00    -0.203 F 
ATOM     71  C   UNL A   1      40.292  35.463  37.892  1.00  0.00     0.198 A 
ATOM     72  C   UNL A   1      38.659  33.936  38.762  1.00  0.00     0.198 A 
ATOM     73  F   UNL A   1      38.158  31.954  37.598  1.00  0.00    -0.203 F 
ATOM     74  F   UNL A   1      41.014  36.585  38.015  1.00  0.00    -0.200 F 
ATOM     75  C   UNL A   1      39.383  35.113  38.877  1.00  0.00     0.200 A 
ATOM     76  F   UNL A   1      37.771  33.602  39.709  1.00  0.00    -0.200 F 
ATOM     77  F   UNL A   1      39.211  35.906  39.944  1.00  0.00    -0.200 F 
ENDBRANCH  53  67
BRANCH  54  78
ATOM     78  C   UNL A   1      40.932  27.881  28.440  1.00  0.00     0.064 A 
ATOM     79  C   UNL A   1      41.837  28.273  27.445  1.00  0.00     0.173 A 
ATOM     80  C   UNL A   1      40.216  26.692  28.241  1.00  0.00     0.173 A 
ATOM     81  F   UNL A   1      42.531  29.412  27.584  1.00  0.00    -0.203 F 
ATOM     82  C   UNL A   1      42.006  27.517  26.287  1.00  0.00     0.198 A 
ATOM     83  C   UNL A   1      40.403  25.923  27.093  1.00  0.00     0.198 A 
ATOM     84  F   UNL A   1      39.341  26.271  29.167  1.00  0.00    -0.203 F 
ATOM     85  F   UNL A   1      42.846  27.937  25.332  1.00  0.00    -0.200 F 
ATOM     86  C   UNL A   1      41.293  26.341  26.113  1.00  0.00     0.200 A 
ATOM     87  F   UNL A   1      39.723  24.780  26.937  1.00  0.00    -0.200 F 
ATOM     88  F   UNL A   1      41.457  25.613  25.001  1.00  0.00    -0.200 F 
ENDBRANCH  54  78
BRANCH  66  89
ATOM     89  C   UNL A   1      43.947  27.875  34.718  1.00  0.00     0.064 A 
ATOM     90  C   UNL A   1      43.624  26.665  35.350  1.00  0.00     0.173 A 
ATOM     91  C   UNL A   1      45.300  28.243  34.654  1.00  0.00     0.173 A 
ATOM     92  F   UNL A   1      42.343  26.276  35.449  1.00  0.00    -0.203 F 
ATOM     93  C   UNL A   1      44.613  25.872  35.924  1.00  0.00     0.198 A 
ATOM     94  C   UNL A   1      46.290  27.432  35.204  1.00  0.00     0.198 A 
ATOM     95  F   UNL A   1      45.662  29.386  34.054  1.00  0.00    -0.203 F 
ATOM     96  F   UNL A   1      44.276  24.747  36.571  1.00  0.00    -0.200 F 
ATOM     97  C   UNL A   1      45.945  26.253  35.846  1.00  0.00     0.200 A 
ATOM     98  F   UNL A   1      47.576  27.796  35.117  1.00  0.00    -0.200 F 
ATOM     99  F   UNL A   1      46.896  25.488  36.399  1.00  0.00    -0.200 F 
ENDBRANCH  66  89
ENDBRANCH  40  41
ENDBRANCH  32  35
ENDBRANCH  30  31
ENDBRANCH  29  30
ENDBRANCH  28  29
ENDBRANCH  27  28
ENDBRANCH   1  27
TORSDOF 18
ENDMDL
