MODEL 1
REMARK VINA RESULT:      -9.9      0.000      0.000
REMARK SMILES O=C(COc1cccc(/C=C2/SC(=S)N(NC(=O)c3ccccc3F)C2=O)c1)NCCCCCCNC(=O)c1ccc(-c2c3nc(c(-c4c(F)c(F)c(F)c(F)c4F)c4ccc([nH]4)c(-c4c(F)c(F)c(F)c(F)c4F)c4nc(c(-c5c(F)c(F)c(F)c(F)c5F)c5ccc2[nH]5)C=C4)C=C3)cc1
REMARK SMILES IDX 31 1 30 2 29 3 1 4 2 5 3 7 4 8 5 9 6 10 28 11 7 12 9 13 8 14
REMARK SMILES IDX 10 15 11 16 12 17 26 18 13 19 15 20 27 21 14 22 16 23 17 24
REMARK SMILES IDX 18 26 19 27 20 28 24 29 21 30 23 31 25 32 22 33 32 34 33 35
REMARK SMILES IDX 34 36 35 37 36 38 37 39 38 41 39 42 40 43 101 44 41 45
REMARK SMILES IDX 100 46 42 47 43 48 44 49 94 50 45 51 99 52 93 53 95 54 46 55
REMARK SMILES IDX 98 56 92 57 91 58 47 60 79 61 59 62 78 63 60 64 63 65 77 66
REMARK SMILES IDX 96 67 61 68 62 69 76 71 97 72 64 73 48 74 49 75 57 76 50 77
REMARK SMILES IDX 51 78 55 79 58 80 52 81 53 82 56 83 54 84 80 85 81 86 89 87
REMARK SMILES IDX 82 88 83 89 87 90 90 91 84 92 85 93 88 94 86 95 65 96 66 97
REMARK SMILES IDX 74 98 67 99 68 100 72 101 75 102 69 103 70 104 73 105 71 106
REMARK H PARENT 29 6 16 25 36 40 95 59 63 70
REMARK Flexibility Score: inf
ROOT
ATOM      1  C   UNL A   1      33.473  36.720  29.243  1.00  0.00     0.021 C 
ENDROOT
BRANCH   1   2
ATOM      2  C   UNL A   1      33.282  37.132  30.700  1.00  0.00     0.116 C 
BRANCH   2   3
ATOM      3  N   UNL A   1      34.013  36.316  31.653  1.00  0.00    -0.353 N 
ATOM      4  O   UNL A   1      32.156  35.261  32.481  1.00  0.00    -0.271 OA
ATOM      5  C   UNL A   1      33.381  35.373  32.435  1.00  0.00     0.257 C 
ATOM      6  H   UNL A   1      34.985  36.440  31.743  1.00  0.00     0.163 HD
BRANCH   5   7
ATOM      7  C   UNL A   1      34.295  34.463  33.279  1.00  0.00     0.329 C 
BRANCH   7   8
ATOM      8  O   UNL A   1      34.842  33.264  32.757  1.00  0.00    -0.484 OA
BRANCH   8   9
ATOM      9  C   UNL A   1      36.128  33.320  32.288  1.00  0.00     0.120 A 
ATOM     10  C   UNL A   1      36.454  32.430  31.263  1.00  0.00     0.046 A 
ATOM     11  C   UNL A   1      37.140  34.050  32.904  1.00  0.00     0.054 A 
ATOM     12  C   UNL A   1      37.786  32.250  30.877  1.00  0.00     0.004 A 
ATOM     13  C   UNL A   1      38.482  33.776  32.619  1.00  0.00    -0.021 A 
ATOM     14  C   UNL A   1      38.802  32.904  31.573  1.00  0.00     0.008 A 
BRANCH  13  15
ATOM     15  C   UNL A   1      39.550  34.277  33.492  1.00  0.00     0.029 C 
ATOM     16  C   UNL A   1      40.051  33.589  34.534  1.00  0.00     0.082 C 
ATOM     17  S   UNL A   1      41.468  34.087  35.391  1.00  0.00    -0.052 SA
ATOM     18  C   UNL A   1      39.596  32.272  35.077  1.00  0.00     0.285 C 
ATOM     19  C   UNL A   1      41.643  32.530  36.195  1.00  0.00     0.168 C 
ATOM     20  N   UNL A   1      40.613  31.692  35.806  1.00  0.00    -0.198 N 
ATOM     21  O   UNL A   1      38.453  31.831  34.980  1.00  0.00    -0.266 OA
ATOM     22  S   UNL A   1      42.846  32.198  37.303  1.00  0.00    -0.050 S 
BRANCH  20  23
ATOM     23  N   UNL A   1      40.488  30.414  36.389  1.00  0.00    -0.254 N 
ATOM     24  C   UNL A   1      41.110  29.233  36.037  1.00  0.00     0.273 C 
ATOM     25  H   UNL A   1      39.869  30.356  37.152  1.00  0.00     0.192 HD
ATOM     26  O   UNL A   1      40.859  28.215  36.684  1.00  0.00    -0.267 OA
BRANCH  24  27
ATOM     27  C   UNL A   1      41.998  29.097  34.871  1.00  0.00     0.077 A 
ATOM     28  C   UNL A   1      43.385  29.162  35.087  1.00  0.00     0.017 A 
ATOM     29  C   UNL A   1      41.512  28.906  33.583  1.00  0.00     0.136 A 
ATOM     30  C   UNL A   1      44.269  28.963  34.027  1.00  0.00     0.001 A 
ATOM     31  C   UNL A   1      42.393  28.725  32.519  1.00  0.00     0.040 A 
ATOM     32  F   UNL A   1      40.193  28.857  33.347  1.00  0.00    -0.206 F 
ATOM     33  C   UNL A   1      43.772  28.742  32.744  1.00  0.00     0.003 A 
ENDBRANCH  24  27
ENDBRANCH  20  23
ENDBRANCH  13  15
ENDBRANCH   8   9
ENDBRANCH   7   8
ENDBRANCH   5   7
ENDBRANCH   2   3
ENDBRANCH   1   2
BRANCH   1  34
ATOM     34  C   UNL A   1      32.863  35.371  28.847  1.00  0.00     0.002 C 
BRANCH  34  35
ATOM     35  C   UNL A   1      33.780  34.152  28.979  1.00  0.00     0.002 C 
BRANCH  35  36
ATOM     36  C   UNL A   1      34.878  34.002  27.926  1.00  0.00     0.021 C 
BRANCH  36  37
ATOM     37  C   UNL A   1      35.669  32.701  27.973  1.00  0.00     0.116 C 
BRANCH  37  38
ATOM     38  N   UNL A   1      34.828  31.517  27.906  1.00  0.00    -0.352 N 
ATOM     39  C   UNL A   1      35.172  30.187  27.929  1.00  0.00     0.251 C 
ATOM     40  H   UNL A   1      33.863  31.696  27.833  1.00  0.00     0.163 HD
ATOM     41  O   UNL A   1      34.309  29.328  27.764  1.00  0.00    -0.269 OA
BRANCH  39  42
ATOM     42  C   UNL A   1      36.581  29.769  28.121  1.00  0.00     0.039 A 
ATOM     43  C   UNL A   1      37.477  29.917  27.056  1.00  0.00     0.014 A 
ATOM     44  C   UNL A   1      37.022  29.212  29.324  1.00  0.00     0.014 A 
ATOM     45  C   UNL A   1      38.821  29.567  27.216  1.00  0.00     0.010 A 
ATOM     46  C   UNL A   1      38.376  28.931  29.506  1.00  0.00     0.010 A 
ATOM     47  C   UNL A   1      39.289  29.101  28.454  1.00  0.00    -0.014 A 
BRANCH  47  48
ATOM     48  C   UNL A   1      40.719  28.758  28.667  1.00  0.00     0.031 A 
ATOM     49  C   UNL A   1      41.659  29.786  29.234  1.00  0.00     0.074 A 
ATOM     50  C   UNL A   1      41.188  27.554  28.289  1.00  0.00     0.049 A 
ATOM     51  N   UNL A   1      42.959  29.733  29.379  1.00  0.00    -0.248 NA
ATOM     52  C   UNL A   1      41.060  31.058  29.671  1.00  0.00     0.031 C 
ATOM     53  C   UNL A   1      40.390  26.482  27.692  1.00  0.00     0.029 A 
ATOM     54  N   UNL A   1      42.458  27.034  28.334  1.00  0.00    -0.354 N 
ATOM     55  C   UNL A   1      43.332  30.964  29.901  1.00  0.00     0.074 A 
ATOM     56  C   UNL A   1      42.129  31.762  30.007  1.00  0.00     0.031 C 
ATOM     57  C   UNL A   1      41.186  25.431  27.435  1.00  0.00     0.029 A 
ATOM     58  C   UNL A   1      42.555  25.765  27.817  1.00  0.00     0.049 A 
ATOM     59  H   UNL A   1      43.228  27.525  28.703  1.00  0.00     0.167 HD
ATOM     60  C   UNL A   1      44.563  31.385  30.278  1.00  0.00     0.037 A 
ATOM     61  C   UNL A   1      43.627  24.967  27.660  1.00  0.00     0.037 A 
ATOM     62  C   UNL A   1      45.754  30.582  30.207  1.00  0.00     0.049 A 
ATOM     63  C   UNL A   1      44.980  25.452  28.109  1.00  0.00     0.074 A 
ATOM     64  C   UNL A   1      47.042  30.909  30.593  1.00  0.00     0.029 A 
ATOM     65  N   UNL A   1      45.797  29.280  29.730  1.00  0.00    -0.354 N 
ATOM     66  N   UNL A   1      45.313  26.607  28.631  1.00  0.00    -0.248 NA
ATOM     67  C   UNL A   1      46.105  24.518  27.953  1.00  0.00     0.031 C 
ATOM     68  C   UNL A   1      47.871  29.813  30.329  1.00  0.00     0.029 A 
ATOM     69  C   UNL A   1      47.091  28.791  29.812  1.00  0.00     0.049 A 
ATOM     70  H   UNL A   1      45.025  28.778  29.383  1.00  0.00     0.167 HD
ATOM     71  C   UNL A   1      46.674  26.527  28.894  1.00  0.00     0.074 A 
ATOM     72  C   UNL A   1      47.104  25.207  28.485  1.00  0.00     0.031 C 
ATOM     73  C   UNL A   1      47.495  27.466  29.423  1.00  0.00     0.037 A 
BRANCH  60  74
ATOM     74  C   UNL A   1      44.683  32.779  30.821  1.00  0.00     0.064 A 
ATOM     75  C   UNL A   1      44.584  33.037  32.196  1.00  0.00     0.173 A 
ATOM     76  C   UNL A   1      44.948  33.859  29.966  1.00  0.00     0.173 A 
ATOM     77  F   UNL A   1      44.320  32.040  33.053  1.00  0.00    -0.203 F 
ATOM     78  C   UNL A   1      44.725  34.330  32.693  1.00  0.00     0.198 A 
ATOM     79  C   UNL A   1      45.114  35.146  30.469  1.00  0.00     0.198 A 
ATOM     80  F   UNL A   1      45.057  33.664  28.643  1.00  0.00    -0.203 F 
ATOM     81  F   UNL A   1      44.588  34.559  34.006  1.00  0.00    -0.200 F 
ATOM     82  C   UNL A   1      44.997  35.382  31.831  1.00  0.00     0.200 A 
ATOM     83  F   UNL A   1      45.389  36.160  29.636  1.00  0.00    -0.200 F 
ATOM     84  F   UNL A   1      45.143  36.623  32.313  1.00  0.00    -0.200 F 
ENDBRANCH  60  74
BRANCH  61  85
ATOM     85  C   UNL A   1      43.470  23.614  27.066  1.00  0.00     0.064 A 
ATOM     86  C   UNL A   1      43.915  23.345  25.763  1.00  0.00     0.173 A 
ATOM     87  C   UNL A   1      42.853  22.573  27.774  1.00  0.00     0.173 A 
ATOM     88  F   UNL A   1      44.489  24.316  25.039  1.00  0.00    -0.203 F 
ATOM     89  C   UNL A   1      43.724  22.094  25.182  1.00  0.00     0.198 A 
ATOM     90  C   UNL A   1      42.688  21.314  27.201  1.00  0.00     0.198 A 
ATOM     91  F   UNL A   1      42.413  22.780  29.023  1.00  0.00    -0.203 F 
ATOM     92  F   UNL A   1      44.111  21.880  23.917  1.00  0.00    -0.200 F 
ATOM     93  C   UNL A   1      43.114  21.077  25.902  1.00  0.00     0.200 A 
ATOM     94  F   UNL A   1      42.106  20.332  27.902  1.00  0.00    -0.200 F 
ATOM     95  F   UNL A   1      42.926  19.875  25.341  1.00  0.00    -0.200 F 
ENDBRANCH  61  85
BRANCH  73  96
ATOM     96  C   UNL A   1      48.928  27.084  29.638  1.00  0.00     0.064 A 
ATOM     97  C   UNL A   1      49.911  27.343  28.671  1.00  0.00     0.173 A 
ATOM     98  C   UNL A   1      49.330  26.491  30.843  1.00  0.00     0.173 A 
ATOM     99  F   UNL A   1      49.573  27.897  27.497  1.00  0.00    -0.203 F 
ATOM    100  C   UNL A   1      51.242  27.002  28.896  1.00  0.00     0.198 A 
ATOM    101  C   UNL A   1      50.665  26.173  31.075  1.00  0.00     0.198 A 
ATOM    102  F   UNL A   1      48.428  26.227  31.801  1.00  0.00    -0.203 F 
ATOM    103  F   UNL A   1      52.158  27.221  27.943  1.00  0.00    -0.200 F 
ATOM    104  C   UNL A   1      51.617  26.423  30.100  1.00  0.00     0.200 A 
ATOM    105  F   UNL A   1      51.029  25.623  32.242  1.00  0.00    -0.200 F 
ATOM    106  F   UNL A   1      52.901  26.100  30.316  1.00  0.00    -0.200 F 
ENDBRANCH  73  96
ENDBRANCH  47  48
ENDBRANCH  39  42
ENDBRANCH  37  38
ENDBRANCH  36  37
ENDBRANCH  35  36
ENDBRANCH  34  35
ENDBRANCH   1  34
TORSDOF 18
ENDMDL
MODEL 2
REMARK VINA RESULT:      -9.8      4.579      9.899
REMARK SMILES O=C(COc1cccc(/C=C2/SC(=S)N(NC(=O)c3ccccc3F)C2=O)c1)NCCCCCCNC(=O)c1ccc(-c2c3nc(c(-c4c(F)c(F)c(F)c(F)c4F)c4ccc([nH]4)c(-c4c(F)c(F)c(F)c(F)c4F)c4nc(c(-c5c(F)c(F)c(F)c(F)c5F)c5ccc2[nH]5)C=C4)C=C3)cc1
REMARK SMILES IDX 31 1 30 2 29 3 1 4 2 5 3 7 4 8 5 9 6 10 28 11 7 12 9 13 8 14
REMARK SMILES IDX 10 15 11 16 12 17 26 18 13 19 15 20 27 21 14 22 16 23 17 24
REMARK SMILES IDX 18 26 19 27 20 28 24 29 21 30 23 31 25 32 22 33 32 34 33 35
REMARK SMILES IDX 34 36 35 37 36 38 37 39 38 41 39 42 40 43 101 44 41 45
REMARK SMILES IDX 100 46 42 47 43 48 44 49 94 50 45 51 99 52 93 53 95 54 46 55
REMARK SMILES IDX 98 56 92 57 91 58 47 60 79 61 59 62 78 63 60 64 63 65 77 66
REMARK SMILES IDX 96 67 61 68 62 69 76 71 97 72 64 73 48 74 49 75 57 76 50 77
REMARK SMILES IDX 51 78 55 79 58 80 52 81 53 82 56 83 54 84 80 85 81 86 89 87
REMARK SMILES IDX 82 88 83 89 87 90 90 91 84 92 85 93 88 94 86 95 65 96 66 97
REMARK SMILES IDX 74 98 67 99 68 100 72 101 75 102 69 103 70 104 73 105 71 106
REMARK H PARENT 29 6 16 25 36 40 95 59 63 70
REMARK Flexibility Score: inf
ROOT
ATOM      1  C   UNL A   1      47.953  36.236  26.241  1.00  0.00     0.021 C 
ENDROOT
BRANCH   1   2
ATOM      2  C   UNL A   1      47.808  35.003  25.353  1.00  0.00     0.116 C 
BRANCH   2   3
ATOM      3  N   UNL A   1      47.293  33.830  26.037  1.00  0.00    -0.353 N 
ATOM      4  O   UNL A   1      45.165  34.035  25.215  1.00  0.00    -0.271 OA
ATOM      5  C   UNL A   1      46.000  33.392  25.850  1.00  0.00     0.257 C 
ATOM      6  H   UNL A   1      47.883  33.336  26.650  1.00  0.00     0.163 HD
BRANCH   5   7
ATOM      7  C   UNL A   1      45.635  32.044  26.503  1.00  0.00     0.329 C 
BRANCH   7   8
ATOM      8  O   UNL A   1      44.357  31.809  27.068  1.00  0.00    -0.484 OA
BRANCH   8   9
ATOM      9  C   UNL A   1      44.195  30.653  27.785  1.00  0.00     0.120 A 
ATOM     10  C   UNL A   1      45.324  29.841  27.915  1.00  0.00     0.046 A 
ATOM     11  C   UNL A   1      42.957  30.170  28.197  1.00  0.00     0.054 A 
ATOM     12  C   UNL A   1      45.209  28.545  28.426  1.00  0.00     0.004 A 
ATOM     13  C   UNL A   1      42.813  28.832  28.578  1.00  0.00    -0.021 A 
ATOM     14  C   UNL A   1      43.949  28.032  28.733  1.00  0.00     0.008 A 
BRANCH  13  15
ATOM     15  C   UNL A   1      41.481  28.222  28.678  1.00  0.00     0.029 C 
ATOM     16  C   UNL A   1      41.055  27.220  27.889  1.00  0.00     0.082 C 
ATOM     17  S   UNL A   1      39.587  26.353  28.184  1.00  0.00    -0.052 SA
ATOM     18  C   UNL A   1      41.759  26.595  26.727  1.00  0.00     0.285 C 
ATOM     19  C   UNL A   1      40.014  25.064  27.064  1.00  0.00     0.168 C 
ATOM     20  N   UNL A   1      41.240  25.340  26.487  1.00  0.00    -0.198 N 
ATOM     21  O   UNL A   1      42.592  27.163  26.024  1.00  0.00    -0.266 OA
ATOM     22  S   UNL A   1      39.016  23.767  26.734  1.00  0.00    -0.050 S 
BRANCH  20  23
ATOM     23  N   UNL A   1      41.753  24.492  25.484  1.00  0.00    -0.254 N 
ATOM     24  C   UNL A   1      42.946  23.797  25.459  1.00  0.00     0.273 C 
ATOM     25  H   UNL A   1      41.182  24.381  24.691  1.00  0.00     0.192 HD
ATOM     26  O   UNL A   1      43.207  23.103  24.475  1.00  0.00    -0.267 OA
BRANCH  24  27
ATOM     27  C   UNL A   1      43.973  23.904  26.508  1.00  0.00     0.077 A 
ATOM     28  C   UNL A   1      45.159  24.592  26.202  1.00  0.00     0.017 A 
ATOM     29  C   UNL A   1      43.802  23.358  27.775  1.00  0.00     0.136 A 
ATOM     30  C   UNL A   1      46.129  24.786  27.185  1.00  0.00     0.001 A 
ATOM     31  C   UNL A   1      44.778  23.535  28.754  1.00  0.00     0.040 A 
ATOM     32  F   UNL A   1      42.687  22.683  28.087  1.00  0.00    -0.206 F 
ATOM     33  C   UNL A   1      45.936  24.259  28.461  1.00  0.00     0.003 A 
ENDBRANCH  24  27
ENDBRANCH  20  23
ENDBRANCH  13  15
ENDBRANCH   8   9
ENDBRANCH   7   8
ENDBRANCH   5   7
ENDBRANCH   2   3
ENDBRANCH   1   2
BRANCH   1  34
ATOM     34  C   UNL A   1      46.784  37.227  26.199  1.00  0.00     0.002 C 
BRANCH  34  35
ATOM     35  C   UNL A   1      47.158  38.705  26.053  1.00  0.00     0.002 C 
BRANCH  35  36
ATOM     36  C   UNL A   1      46.025  39.667  25.695  1.00  0.00     0.021 C 
BRANCH  36  37
ATOM     37  C   UNL A   1      45.443  40.467  26.853  1.00  0.00     0.116 C 
BRANCH  37  38
ATOM     38  N   UNL A   1      44.020  40.729  26.710  1.00  0.00    -0.352 N 
ATOM     39  C   UNL A   1      42.941  39.917  26.968  1.00  0.00     0.251 C 
ATOM     40  H   UNL A   1      43.793  41.627  26.377  1.00  0.00     0.163 HD
ATOM     41  O   UNL A   1      41.807  40.297  26.689  1.00  0.00    -0.269 OA
BRANCH  39  42
ATOM     42  C   UNL A   1      43.129  38.568  27.554  1.00  0.00     0.039 A 
ATOM     43  C   UNL A   1      43.338  38.459  28.934  1.00  0.00     0.014 A 
ATOM     44  C   UNL A   1      43.128  37.418  26.761  1.00  0.00     0.014 A 
ATOM     45  C   UNL A   1      43.482  37.199  29.523  1.00  0.00     0.010 A 
ATOM     46  C   UNL A   1      43.199  36.160  27.358  1.00  0.00     0.010 A 
ATOM     47  C   UNL A   1      43.382  36.037  28.744  1.00  0.00    -0.014 A 
BRANCH  47  48
ATOM     48  C   UNL A   1      43.490  34.683  29.347  1.00  0.00     0.031 A 
ATOM     49  C   UNL A   1      42.251  33.967  29.810  1.00  0.00     0.074 A 
ATOM     50  C   UNL A   1      44.701  34.127  29.544  1.00  0.00     0.049 A 
ATOM     51  N   UNL A   1      42.140  32.843  30.473  1.00  0.00    -0.248 NA
ATOM     52  C   UNL A   1      40.965  34.617  29.512  1.00  0.00     0.031 C 
ATOM     53  C   UNL A   1      45.983  34.733  29.175  1.00  0.00     0.029 A 
ATOM     54  N   UNL A   1      45.054  32.932  30.120  1.00  0.00    -0.354 N 
ATOM     55  C   UNL A   1      40.780  32.665  30.688  1.00  0.00     0.074 A 
ATOM     56  C   UNL A   1      40.107  33.816  30.125  1.00  0.00     0.031 C 
ATOM     57  C   UNL A   1      46.979  33.902  29.526  1.00  0.00     0.029 A 
ATOM     58  C   UNL A   1      46.411  32.723  30.174  1.00  0.00     0.049 A 
ATOM     59  H   UNL A   1      44.396  32.284  30.463  1.00  0.00     0.167 HD
ATOM     60  C   UNL A   1      40.147  31.625  31.281  1.00  0.00     0.037 A 
ATOM     61  C   UNL A   1      47.116  31.703  30.695  1.00  0.00     0.037 A 
ATOM     62  C   UNL A   1      40.810  30.463  31.810  1.00  0.00     0.049 A 
ATOM     63  C   UNL A   1      46.385  30.549  31.329  1.00  0.00     0.074 A 
ATOM     64  C   UNL A   1      40.254  29.344  32.403  1.00  0.00     0.029 A 
ATOM     65  N   UNL A   1      42.183  30.266  31.792  1.00  0.00    -0.354 N 
ATOM     66  N   UNL A   1      45.097  30.377  31.497  1.00  0.00    -0.248 NA
ATOM     67  C   UNL A   1      47.208  29.442  31.840  1.00  0.00     0.031 C 
ATOM     68  C   UNL A   1      41.291  28.478  32.766  1.00  0.00     0.029 A 
ATOM     69  C   UNL A   1      42.491  29.043  32.365  1.00  0.00     0.049 A 
ATOM     70  H   UNL A   1      42.842  30.901  31.428  1.00  0.00     0.167 HD
ATOM     71  C   UNL A   1      44.953  29.136  32.102  1.00  0.00     0.074 A 
ATOM     72  C   UNL A   1      46.284  28.591  32.262  1.00  0.00     0.031 C 
ATOM     73  C   UNL A   1      43.819  28.506  32.493  1.00  0.00     0.037 A 
BRANCH  60  74
ATOM     74  C   UNL A   1      38.650  31.688  31.378  1.00  0.00     0.064 A 
ATOM     75  C   UNL A   1      38.014  32.188  32.523  1.00  0.00     0.173 A 
ATOM     76  C   UNL A   1      37.847  31.290  30.299  1.00  0.00     0.173 A 
ATOM     77  F   UNL A   1      38.738  32.570  33.585  1.00  0.00    -0.203 F 
ATOM     78  C   UNL A   1      36.626  32.267  32.593  1.00  0.00     0.198 A 
ATOM     79  C   UNL A   1      36.461  31.396  30.363  1.00  0.00     0.198 A 
ATOM     80  F   UNL A   1      38.407  30.809  29.179  1.00  0.00    -0.203 F 
ATOM     81  F   UNL A   1      36.037  32.712  33.712  1.00  0.00    -0.200 F 
ATOM     82  C   UNL A   1      35.851  31.879  31.510  1.00  0.00     0.200 A 
ATOM     83  F   UNL A   1      35.713  31.031  29.311  1.00  0.00    -0.200 F 
ATOM     84  F   UNL A   1      34.515  31.967  31.576  1.00  0.00    -0.200 F 
ENDBRANCH  60  74
BRANCH  61  85
ATOM     85  C   UNL A   1      48.601  31.709  30.627  1.00  0.00     0.064 A 
ATOM     86  C   UNL A   1      49.364  32.301  31.643  1.00  0.00     0.173 A 
ATOM     87  C   UNL A   1      49.283  31.148  29.539  1.00  0.00     0.173 A 
ATOM     88  F   UNL A   1      48.754  32.872  32.692  1.00  0.00    -0.203 F 
ATOM     89  C   UNL A   1      50.753  32.356  31.560  1.00  0.00     0.198 A 
ATOM     90  C   UNL A   1      50.675  31.179  29.470  1.00  0.00     0.198 A 
ATOM     91  F   UNL A   1      48.598  30.568  28.543  1.00  0.00    -0.203 F 
ATOM     92  F   UNL A   1      51.455  32.975  32.519  1.00  0.00    -0.200 F 
ATOM     93  C   UNL A   1      51.409  31.791  30.476  1.00  0.00     0.200 A 
ATOM     94  F   UNL A   1      51.305  30.625  28.425  1.00  0.00    -0.200 F 
ATOM     95  F   UNL A   1      52.745  31.848  30.393  1.00  0.00    -0.200 F 
ENDBRANCH  61  85
BRANCH  73  96
ATOM     96  C   UNL A   1      43.963  27.137  33.085  1.00  0.00     0.064 A 
ATOM     97  C   UNL A   1      44.092  25.997  32.279  1.00  0.00     0.173 A 
ATOM     98  C   UNL A   1      44.016  26.970  34.477  1.00  0.00     0.173 A 
ATOM     99  F   UNL A   1      44.033  26.105  30.944  1.00  0.00    -0.203 F 
ATOM    100  C   UNL A   1      44.247  24.735  32.847  1.00  0.00     0.198 A 
ATOM    101  C   UNL A   1      44.196  25.710  35.041  1.00  0.00     0.198 A 
ATOM    102  F   UNL A   1      43.903  28.031  35.290  1.00  0.00    -0.203 F 
ATOM    103  F   UNL A   1      44.327  23.654  32.059  1.00  0.00    -0.200 F 
ATOM    104  C   UNL A   1      44.305  24.594  34.226  1.00  0.00     0.200 A 
ATOM    105  F   UNL A   1      44.263  25.576  36.373  1.00  0.00    -0.200 F 
ATOM    106  F   UNL A   1      44.461  23.379  34.769  1.00  0.00    -0.200 F 
ENDBRANCH  73  96
ENDBRANCH  47  48
ENDBRANCH  39  42
ENDBRANCH  37  38
ENDBRANCH  36  37
ENDBRANCH  35  36
ENDBRANCH  34  35
ENDBRANCH   1  34
TORSDOF 18
ENDMDL
MODEL 3
REMARK VINA RESULT:      -9.6      4.093     10.409
REMARK SMILES O=C(COc1cccc(/C=C2/SC(=S)N(NC(=O)c3ccccc3F)C2=O)c1)NCCCCCCNC(=O)c1ccc(-c2c3nc(c(-c4c(F)c(F)c(F)c(F)c4F)c4ccc([nH]4)c(-c4c(F)c(F)c(F)c(F)c4F)c4nc(c(-c5c(F)c(F)c(F)c(F)c5F)c5ccc2[nH]5)C=C4)C=C3)cc1
REMARK SMILES IDX 31 1 30 2 29 3 1 4 2 5 3 7 4 8 5 9 6 10 28 11 7 12 9 13 8 14
REMARK SMILES IDX 10 15 11 16 12 17 26 18 13 19 15 20 27 21 14 22 16 23 17 24
REMARK SMILES IDX 18 26 19 27 20 28 24 29 21 30 23 31 25 32 22 33 32 34 33 35
REMARK SMILES IDX 34 36 35 37 36 38 37 39 38 41 39 42 40 43 101 44 41 45
REMARK SMILES IDX 100 46 42 47 43 48 44 49 94 50 45 51 99 52 93 53 95 54 46 55
REMARK SMILES IDX 98 56 92 57 91 58 47 60 79 61 59 62 78 63 60 64 63 65 77 66
REMARK SMILES IDX 96 67 61 68 62 69 76 71 97 72 64 73 48 74 49 75 57 76 50 77
REMARK SMILES IDX 51 78 55 79 58 80 52 81 53 82 56 83 54 84 80 85 81 86 89 87
REMARK SMILES IDX 82 88 83 89 87 90 90 91 84 92 85 93 88 94 86 95 65 96 66 97
REMARK SMILES IDX 74 98 67 99 68 100 72 101 75 102 69 103 70 104 73 105 71 106
REMARK H PARENT 29 6 16 25 36 40 95 59 63 70
REMARK Flexibility Score: inf
ROOT
ATOM      1  C   UNL A   1      41.798  25.999  28.805  1.00  0.00     0.021 C 
ENDROOT
BRANCH   1   2
ATOM      2  C   UNL A   1      40.562  25.890  27.915  1.00  0.00     0.116 C 
BRANCH   2   3
ATOM      3  N   UNL A   1      40.063  27.162  27.425  1.00  0.00    -0.353 N 
ATOM      4  O   UNL A   1      38.916  27.680  29.339  1.00  0.00    -0.271 OA
ATOM      5  C   UNL A   1      39.321  28.005  28.224  1.00  0.00     0.257 C 
ATOM      6  H   UNL A   1      40.259  27.429  26.499  1.00  0.00     0.163 HD
BRANCH   5   7
ATOM      7  C   UNL A   1      38.999  29.394  27.636  1.00  0.00     0.329 C 
BRANCH   7   8
ATOM      8  O   UNL A   1      38.408  30.417  28.418  1.00  0.00    -0.484 OA
BRANCH   8   9
ATOM      9  C   UNL A   1      37.044  30.533  28.365  1.00  0.00     0.120 A 
ATOM     10  C   UNL A   1      36.364  29.540  27.656  1.00  0.00     0.046 A 
ATOM     11  C   UNL A   1      36.350  31.661  28.791  1.00  0.00     0.054 A 
ATOM     12  C   UNL A   1      35.008  29.689  27.351  1.00  0.00     0.004 A 
ATOM     13  C   UNL A   1      35.034  31.880  28.373  1.00  0.00    -0.021 A 
ATOM     14  C   UNL A   1      34.350  30.871  27.687  1.00  0.00     0.008 A 
BRANCH  13  15
ATOM     15  C   UNL A   1      34.412  33.202  28.517  1.00  0.00     0.029 C 
ATOM     16  C   UNL A   1      34.183  33.798  29.701  1.00  0.00     0.082 C 
ATOM     17  S   UNL A   1      33.682  35.447  29.839  1.00  0.00    -0.052 SA
ATOM     18  C   UNL A   1      34.403  33.244  31.072  1.00  0.00     0.285 C 
ATOM     19  C   UNL A   1      34.039  35.509  31.562  1.00  0.00     0.168 C 
ATOM     20  N   UNL A   1      34.504  34.276  31.981  1.00  0.00    -0.198 N 
ATOM     21  O   UNL A   1      34.383  32.048  31.357  1.00  0.00    -0.266 OA
ATOM     22  S   UNL A   1      33.768  36.857  32.508  1.00  0.00    -0.050 S 
BRANCH  20  23
ATOM     23  N   UNL A   1      34.773  34.052  33.347  1.00  0.00    -0.254 N 
ATOM     24  C   UNL A   1      35.962  33.698  33.953  1.00  0.00     0.273 C 
ATOM     25  H   UNL A   1      34.006  34.163  33.953  1.00  0.00     0.192 HD
ATOM     26  O   UNL A   1      35.983  33.550  35.176  1.00  0.00    -0.267 OA
BRANCH  24  27
ATOM     27  C   UNL A   1      37.197  33.399  33.210  1.00  0.00     0.077 A 
ATOM     28  C   UNL A   1      38.008  34.476  32.817  1.00  0.00     0.017 A 
ATOM     29  C   UNL A   1      37.579  32.100  32.894  1.00  0.00     0.136 A 
ATOM     30  C   UNL A   1      39.225  34.241  32.178  1.00  0.00     0.001 A 
ATOM     31  C   UNL A   1      38.786  31.863  32.239  1.00  0.00     0.040 A 
ATOM     32  F   UNL A   1      36.815  31.055  33.242  1.00  0.00    -0.206 F 
ATOM     33  C   UNL A   1      39.614  32.933  31.891  1.00  0.00     0.003 A 
ENDBRANCH  24  27
ENDBRANCH  20  23
ENDBRANCH  13  15
ENDBRANCH   8   9
ENDBRANCH   7   8
ENDBRANCH   5   7
ENDBRANCH   2   3
ENDBRANCH   1   2
BRANCH   1  34
ATOM     34  C   UNL A   1      42.982  25.109  28.413  1.00  0.00     0.002 C 
BRANCH  34  35
ATOM     35  C   UNL A   1      42.634  23.805  27.690  1.00  0.00     0.002 C 
BRANCH  35  36
ATOM     36  C   UNL A   1      43.310  23.568  26.339  1.00  0.00     0.021 C 
BRANCH  36  37
ATOM     37  C   UNL A   1      43.249  24.729  25.355  1.00  0.00     0.116 C 
BRANCH  37  38
ATOM     38  N   UNL A   1      44.535  25.035  24.749  1.00  0.00    -0.352 N 
ATOM     39  C   UNL A   1      45.409  26.065  25.001  1.00  0.00     0.251 C 
ATOM     40  H   UNL A   1      44.826  24.406  24.050  1.00  0.00     0.163 HD
ATOM     41  O   UNL A   1      46.413  26.202  24.306  1.00  0.00    -0.269 OA
BRANCH  39  42
ATOM     42  C   UNL A   1      45.142  27.039  26.087  1.00  0.00     0.039 A 
ATOM     43  C   UNL A   1      43.920  27.722  26.091  1.00  0.00     0.014 A 
ATOM     44  C   UNL A   1      46.086  27.304  27.082  1.00  0.00     0.014 A 
ATOM     45  C   UNL A   1      43.622  28.620  27.121  1.00  0.00     0.010 A 
ATOM     46  C   UNL A   1      45.760  28.143  28.146  1.00  0.00     0.010 A 
ATOM     47  C   UNL A   1      44.528  28.814  28.175  1.00  0.00    -0.014 A 
BRANCH  47  48
ATOM     48  C   UNL A   1      44.223  29.730  29.304  1.00  0.00     0.031 A 
ATOM     49  C   UNL A   1      43.909  29.167  30.663  1.00  0.00     0.074 A 
ATOM     50  C   UNL A   1      44.160  31.060  29.097  1.00  0.00     0.049 A 
ATOM     51  N   UNL A   1      43.496  29.782  31.743  1.00  0.00    -0.248 NA
ATOM     52  C   UNL A   1      44.052  27.711  30.822  1.00  0.00     0.031 C 
ATOM     53  C   UNL A   1      44.405  31.731  27.819  1.00  0.00     0.029 A 
ATOM     54  N   UNL A   1      43.850  32.086  29.955  1.00  0.00    -0.354 N 
ATOM     55  C   UNL A   1      43.310  28.790  32.696  1.00  0.00     0.074 A 
ATOM     56  C   UNL A   1      43.613  27.527  32.057  1.00  0.00     0.031 C 
ATOM     57  C   UNL A   1      44.245  33.055  27.980  1.00  0.00     0.029 A 
ATOM     58  C   UNL A   1      43.854  33.324  29.360  1.00  0.00     0.049 A 
ATOM     59  H   UNL A   1      43.645  31.947  30.909  1.00  0.00     0.167 HD
ATOM     60  C   UNL A   1      42.942  28.921  33.992  1.00  0.00     0.037 A 
ATOM     61  C   UNL A   1      43.565  34.536  29.869  1.00  0.00     0.037 A 
ATOM     62  C   UNL A   1      42.676  30.178  34.639  1.00  0.00     0.049 A 
ATOM     63  C   UNL A   1      43.181  34.655  31.320  1.00  0.00     0.074 A 
ATOM     64  C   UNL A   1      42.325  30.416  35.956  1.00  0.00     0.029 A 
ATOM     65  N   UNL A   1      42.747  31.414  34.014  1.00  0.00    -0.354 N 
ATOM     66  N   UNL A   1      43.040  33.712  32.218  1.00  0.00    -0.248 NA
ATOM     67  C   UNL A   1      42.921  36.010  31.828  1.00  0.00     0.031 C 
ATOM     68  C   UNL A   1      42.162  31.795  36.125  1.00  0.00     0.029 A 
ATOM     69  C   UNL A   1      42.447  32.418  34.921  1.00  0.00     0.049 A 
ATOM     70  H   UNL A   1      42.976  31.558  33.068  1.00  0.00     0.167 HD
ATOM     71  C   UNL A   1      42.708  34.359  33.401  1.00  0.00     0.074 A 
ATOM     72  C   UNL A   1      42.679  35.776  33.110  1.00  0.00     0.031 C 
ATOM     73  C   UNL A   1      42.447  33.824  34.618  1.00  0.00     0.037 A 
BRANCH  60  74
ATOM     74  C   UNL A   1      42.820  27.668  34.809  1.00  0.00     0.064 A 
ATOM     75  C   UNL A   1      41.655  26.887  34.778  1.00  0.00     0.173 A 
ATOM     76  C   UNL A   1      43.894  27.217  35.592  1.00  0.00     0.173 A 
ATOM     77  F   UNL A   1      40.598  27.282  34.054  1.00  0.00    -0.203 F 
ATOM     78  C   UNL A   1      41.562  25.712  35.518  1.00  0.00     0.198 A 
ATOM     79  C   UNL A   1      43.806  26.028  36.309  1.00  0.00     0.198 A 
ATOM     80  F   UNL A   1      45.032  27.925  35.652  1.00  0.00    -0.203 F 
ATOM     81  F   UNL A   1      40.425  25.002  35.503  1.00  0.00    -0.200 F 
ATOM     82  C   UNL A   1      42.640  25.279  36.276  1.00  0.00     0.200 A 
ATOM     83  F   UNL A   1      44.852  25.604  37.033  1.00  0.00    -0.200 F 
ATOM     84  F   UNL A   1      42.551  24.141  36.979  1.00  0.00    -0.200 F 
ENDBRANCH  60  74
BRANCH  61  85
ATOM     85  C   UNL A   1      43.645  35.745  29.008  1.00  0.00     0.064 A 
ATOM     86  C   UNL A   1      42.522  36.200  28.303  1.00  0.00     0.173 A 
ATOM     87  C   UNL A   1      44.845  36.453  28.855  1.00  0.00     0.173 A 
ATOM     88  F   UNL A   1      41.359  35.540  28.400  1.00  0.00    -0.203 F 
ATOM     89  C   UNL A   1      42.603  37.302  27.454  1.00  0.00     0.198 A 
ATOM     90  C   UNL A   1      44.917  37.572  28.027  1.00  0.00     0.198 A 
ATOM     91  F   UNL A   1      45.946  36.060  29.510  1.00  0.00    -0.203 F 
ATOM     92  F   UNL A   1      41.528  37.682  26.750  1.00  0.00    -0.200 F 
ATOM     93  C   UNL A   1      43.799  37.990  27.319  1.00  0.00     0.200 A 
ATOM     94  F   UNL A   1      46.073  38.239  27.905  1.00  0.00    -0.200 F 
ATOM     95  F   UNL A   1      43.879  39.046  26.500  1.00  0.00    -0.200 F 
ENDBRANCH  61  85
BRANCH  73  96
ATOM     96  C   UNL A   1      42.157  34.777  35.739  1.00  0.00     0.064 A 
ATOM     97  C   UNL A   1      40.843  35.092  36.114  1.00  0.00     0.173 A 
ATOM     98  C   UNL A   1      43.207  35.348  36.473  1.00  0.00     0.173 A 
ATOM     99  F   UNL A   1      39.806  34.582  35.434  1.00  0.00    -0.203 F 
ATOM    100  C   UNL A   1      40.591  35.962  37.172  1.00  0.00     0.198 A 
ATOM    101  C   UNL A   1      42.952  36.198  37.545  1.00  0.00     0.198 A 
ATOM    102  F   UNL A   1      44.481  35.074  36.155  1.00  0.00    -0.203 F 
ATOM    103  F   UNL A   1      39.329  36.281  37.488  1.00  0.00    -0.200 F 
ATOM    104  C   UNL A   1      41.646  36.509  37.889  1.00  0.00     0.200 A 
ATOM    105  F   UNL A   1      43.970  36.718  38.244  1.00  0.00    -0.200 F 
ATOM    106  F   UNL A   1      41.400  37.342  38.911  1.00  0.00    -0.200 F 
ENDBRANCH  73  96
ENDBRANCH  47  48
ENDBRANCH  39  42
ENDBRANCH  37  38
ENDBRANCH  36  37
ENDBRANCH  35  36
ENDBRANCH  34  35
ENDBRANCH   1  34
TORSDOF 18
ENDMDL
