MODEL 1
REMARK VINA RESULT:     -13.8      0.000      0.000
REMARK SMILES Cc1cc(S(F)(F)(F)(F)F)cc2c1O[C@H](C(F)(F)F)C(C(=O)NCCCCCCNC(=O)c1ccc(-c3c4nc(c(-c5c(F)c(F)c(F)c(F)c5F)c5ccc([nH]5)c(-c5c(F)c(F)c(F)c(F)c5F)c5nc(c(-c6c(F)c(F)c(F)c(F)c6F)c6ccc3[nH]6)C=C5)C=C4)cc1)=C2
REMARK SMILES IDX 27 1 26 2 25 3 24 4 23 5 21 6 22 7 20 9 1 10 2 11 3 12 13 13
REMARK SMILES IDX 4 14 12 15 14 16 11 17 96 18 15 19 5 20 6 21 7 22 8 23 9 24
REMARK SMILES IDX 10 25 16 26 17 27 18 28 19 29 28 30 29 31 30 32 31 33 32 35
REMARK SMILES IDX 33 36 34 37 95 38 35 39 94 40 36 41 37 42 38 43 88 44 39 45
REMARK SMILES IDX 93 46 87 47 89 48 40 49 92 50 86 51 85 52 41 54 73 55 53 56
REMARK SMILES IDX 72 57 54 58 57 59 71 60 90 61 55 62 56 63 70 65 91 66 58 67
REMARK SMILES IDX 42 68 43 69 51 70 44 71 45 72 49 73 52 74 46 75 47 76 50 77
REMARK SMILES IDX 48 78 74 79 75 80 83 81 76 82 77 83 81 84 84 85 78 86 79 87
REMARK SMILES IDX 82 88 80 89 59 90 60 91 68 92 61 93 62 94 66 95 69 96 63 97
REMARK SMILES IDX 64 98 67 99 65 100
REMARK H PARENT 23 8 30 34 89 53 57 64
REMARK Flexibility Score: inf
ROOT
ATOM      1  C   UNL A   1      31.855  30.314  26.143  1.00  0.00     0.002 C 
ENDROOT
BRANCH   1   2
ATOM      2  C   UNL A   1      33.238  30.037  26.712  1.00  0.00     0.002 C 
BRANCH   2   3
ATOM      3  C   UNL A   1      33.715  28.673  26.241  1.00  0.00     0.021 C 
BRANCH   3   4
ATOM      4  C   UNL A   1      33.538  28.567  24.735  1.00  0.00     0.116 C 
BRANCH   4   5
ATOM      5  N   UNL A   1      33.844  27.197  24.301  1.00  0.00    -0.352 N 
ATOM      6  C   UNL A   1      32.773  26.334  23.781  1.00  0.00     0.251 C 
ATOM      7  O   UNL A   1      33.038  25.149  23.405  1.00  0.00    -0.270 OA
ATOM      8  H   UNL A   1      34.766  26.857  24.358  1.00  0.00     0.163 HD
BRANCH   6   9
ATOM      9  C   UNL A   1      31.350  26.858  23.692  1.00  0.00     0.067 C 
ATOM     10  C   UNL A   1      26.250  27.415  23.950  1.00  0.00     0.048 C 
ATOM     11  C   UNL A   1      27.415  28.263  23.465  1.00  0.00    -0.007 A 
ATOM     12  C   UNL A   1      27.190  29.509  22.924  1.00  0.00     0.031 A 
ATOM     13  C   UNL A   1      28.719  27.779  23.550  1.00  0.00     0.130 A 
ATOM     14  C   UNL A   1      28.247  30.282  22.459  1.00  0.00     0.108 A 
ATOM     15  C   UNL A   1      29.791  28.569  23.080  1.00  0.00     0.019 A 
ATOM     16  O   UNL A   1      29.023  26.458  24.115  1.00  0.00    -0.475 OA
ATOM     17  C   UNL A   1      29.533  29.829  22.537  1.00  0.00     0.036 A 
ATOM     18  C   UNL A   1      31.150  28.035  23.181  1.00  0.00     0.025 C 
ATOM     19  C   UNL A   1      30.311  26.054  24.164  1.00  0.00     0.314 C 
BRANCH  14  20
ATOM     20  S   UNL A   1      27.914  31.909  21.741  1.00  0.00     0.310 S 
ATOM     21  F   UNL A   1      29.466  31.964  21.416  1.00  0.00    -0.094 F 
ATOM     22  F   UNL A   1      28.242  32.640  23.097  1.00  0.00    -0.094 F 
ATOM     23  F   UNL A   1      27.777  33.274  21.007  1.00  0.00    -0.094 F 
ATOM     24  F   UNL A   1      27.727  31.160  20.362  1.00  0.00    -0.094 F 
ATOM     25  F   UNL A   1      28.163  30.518  22.447  1.00  0.00    -0.094 F 
ENDBRANCH  14  20
BRANCH  19  26
ATOM     26  C   UNL A   1      30.582  26.020  25.659  1.00  0.00     0.429 C 
ATOM     27  F   UNL A   1      31.621  25.227  25.902  1.00  0.00    -0.167 F 
ATOM     28  F   UNL A   1      30.852  27.249  26.089  1.00  0.00    -0.167 F 
ATOM     29  F   UNL A   1      29.510  25.553  26.293  1.00  0.00    -0.167 F 
ENDBRANCH  19  26
ENDBRANCH   6   9
ENDBRANCH   4   5
ENDBRANCH   3   4
ENDBRANCH   2   3
ENDBRANCH   1   2
BRANCH   1  30
ATOM     30  C   UNL A   1      31.424  31.721  26.522  1.00  0.00     0.021 C 
BRANCH  30  31
ATOM     31  C   UNL A   1      32.615  32.485  27.077  1.00  0.00     0.116 C 
BRANCH  31  32
ATOM     32  N   UNL A   1      32.210  33.863  27.391  1.00  0.00    -0.352 N 
ATOM     33  C   UNL A   1      32.964  34.643  28.383  1.00  0.00     0.251 C 
ATOM     34  H   UNL A   1      31.434  34.264  26.936  1.00  0.00     0.163 HD
ATOM     35  O   UNL A   1      32.614  35.834  28.653  1.00  0.00    -0.269 OA
BRANCH  33  36
ATOM     36  C   UNL A   1      34.162  34.023  29.085  1.00  0.00     0.039 A 
ATOM     37  C   UNL A   1      35.399  34.035  28.449  1.00  0.00     0.014 A 
ATOM     38  C   UNL A   1      34.058  33.399  30.238  1.00  0.00     0.014 A 
ATOM     39  C   UNL A   1      36.533  33.846  29.271  1.00  0.00     0.010 A 
ATOM     40  C   UNL A   1      35.164  32.758  30.807  1.00  0.00     0.010 A 
ATOM     41  C   UNL A   1      36.378  32.970  30.344  1.00  0.00    -0.014 A 
BRANCH  41  42
ATOM     42  C   UNL A   1      37.580  32.277  30.963  1.00  0.00     0.031 A 
ATOM     43  C   UNL A   1      38.193  31.265  30.222  1.00  0.00     0.074 A 
ATOM     44  C   UNL A   1      37.968  32.642  32.241  1.00  0.00     0.049 A 
ATOM     45  N   UNL A   1      39.239  30.517  30.575  1.00  0.00    -0.248 NA
ATOM     46  C   UNL A   1      37.760  30.852  28.878  1.00  0.00     0.031 C 
ATOM     47  C   UNL A   1      37.361  33.668  32.992  1.00  0.00     0.029 A 
ATOM     48  N   UNL A   1      38.979  32.103  33.005  1.00  0.00    -0.354 N 
ATOM     49  C   UNL A   1      39.549  29.666  29.594  1.00  0.00     0.074 A 
ATOM     50  C   UNL A   1      38.599  29.865  28.491  1.00  0.00     0.031 C 
ATOM     51  C   UNL A   1      37.990  33.738  34.195  1.00  0.00     0.029 A 
ATOM     52  C   UNL A   1      39.000  32.758  34.216  1.00  0.00     0.049 A 
ATOM     53  H   UNL A   1      39.583  31.374  32.732  1.00  0.00     0.167 HD
ATOM     54  C   UNL A   1      40.589  28.736  29.575  1.00  0.00     0.037 A 
ATOM     55  C   UNL A   1      39.843  32.527  35.291  1.00  0.00     0.037 A 
ATOM     56  C   UNL A   1      41.460  28.535  30.634  1.00  0.00     0.049 A 
ATOM     57  C   UNL A   1      40.846  31.555  35.295  1.00  0.00     0.074 A 
ATOM     58  C   UNL A   1      42.518  27.604  30.629  1.00  0.00     0.029 A 
ATOM     59  N   UNL A   1      41.465  29.173  31.854  1.00  0.00    -0.354 N 
ATOM     60  N   UNL A   1      41.182  30.732  34.300  1.00  0.00    -0.248 NA
ATOM     61  C   UNL A   1      41.724  31.280  36.440  1.00  0.00     0.031 C 
ATOM     62  C   UNL A   1      43.146  27.674  31.832  1.00  0.00     0.029 A 
ATOM     63  C   UNL A   1      42.491  28.648  32.610  1.00  0.00     0.049 A 
ATOM     64  H   UNL A   1      40.843  29.880  32.139  1.00  0.00     0.167 HD
ATOM     65  C   UNL A   1      42.202  29.956  34.669  1.00  0.00     0.074 A 
ATOM     66  C   UNL A   1      42.561  30.292  36.054  1.00  0.00     0.031 C 
ATOM     67  C   UNL A   1      42.852  28.984  33.906  1.00  0.00     0.037 A 
BRANCH  54  68
ATOM     68  C   UNL A   1      40.776  27.895  28.323  1.00  0.00     0.064 A 
ATOM     69  C   UNL A   1      40.190  26.651  28.211  1.00  0.00     0.173 A 
ATOM     70  C   UNL A   1      41.542  28.379  27.272  1.00  0.00     0.173 A 
ATOM     71  F   UNL A   1      39.455  26.178  29.213  1.00  0.00    -0.203 F 
ATOM     72  C   UNL A   1      40.351  25.922  27.116  1.00  0.00     0.198 A 
ATOM     73  C   UNL A   1      41.684  27.592  26.138  1.00  0.00     0.198 A 
ATOM     74  F   UNL A   1      42.126  29.571  27.349  1.00  0.00    -0.203 F 
ATOM     75  F   UNL A   1      39.776  24.725  27.044  1.00  0.00    -0.200 F 
ATOM     76  C   UNL A   1      41.069  26.357  26.094  1.00  0.00     0.200 A 
ATOM     77  F   UNL A   1      42.405  28.023  25.105  1.00  0.00    -0.200 F 
ATOM     78  F   UNL A   1      41.199  25.595  25.012  1.00  0.00    -0.200 F 
ENDBRANCH  54  68
BRANCH  55  79
ATOM     79  C   UNL A   1      39.666  33.379  36.537  1.00  0.00     0.064 A 
ATOM     80  C   UNL A   1      40.397  34.538  36.712  1.00  0.00     0.173 A 
ATOM     81  C   UNL A   1      38.766  32.993  37.519  1.00  0.00     0.173 A 
ATOM     82  F   UNL A   1      41.262  34.917  35.775  1.00  0.00    -0.203 F 
ATOM     83  C   UNL A   1      40.246  35.275  37.801  1.00  0.00     0.198 A 
ATOM     84  C   UNL A   1      38.629  33.792  38.644  1.00  0.00     0.198 A 
ATOM     85  F   UNL A   1      38.050  31.880  37.384  1.00  0.00    -0.203 F 
ATOM     86  F   UNL A   1      40.970  36.382  37.941  1.00  0.00    -0.200 F 
ATOM     87  C   UNL A   1      39.393  34.938  38.754  1.00  0.00     0.200 A 
ATOM     88  F   UNL A   1      37.772  33.460  39.606  1.00  0.00    -0.200 F 
ATOM     89  F   UNL A   1      39.268  35.711  39.828  1.00  0.00    -0.200 F 
ENDBRANCH  55  79
BRANCH  67  90
ATOM     90  C   UNL A   1      44.025  28.250  34.534  1.00  0.00     0.064 A 
ATOM     91  C   UNL A   1      43.801  27.107  35.275  1.00  0.00     0.173 A 
ATOM     92  C   UNL A   1      45.315  28.749  34.432  1.00  0.00     0.173 A 
ATOM     93  F   UNL A   1      42.567  26.622  35.377  1.00  0.00    -0.203 F 
ATOM     94  C   UNL A   1      44.801  26.489  35.884  1.00  0.00     0.198 A 
ATOM     95  C   UNL A   1      46.340  28.072  35.078  1.00  0.00     0.198 A 
ATOM     96  F   UNL A   1      45.566  29.851  33.731  1.00  0.00    -0.203 F 
ATOM     97  F   UNL A   1      44.548  25.394  36.595  1.00  0.00    -0.200 F 
ATOM     98  C   UNL A   1      46.043  26.934  35.803  1.00  0.00     0.200 A 
ATOM     99  F   UNL A   1      47.593  28.514  35.002  1.00  0.00    -0.200 F 
ATOM    100  F   UNL A   1      47.017  26.278  36.426  1.00  0.00    -0.200 F 
ENDBRANCH  67  90
ENDBRANCH  41  42
ENDBRANCH  33  36
ENDBRANCH  31  32
ENDBRANCH  30  31
ENDBRANCH   1  30
TORSDOF 15
ENDMDL
MODEL 2
REMARK VINA RESULT:     -13.7      2.300      4.253
REMARK SMILES Cc1cc(S(F)(F)(F)(F)F)cc2c1O[C@H](C(F)(F)F)C(C(=O)NCCCCCCNC(=O)c1ccc(-c3c4nc(c(-c5c(F)c(F)c(F)c(F)c5F)c5ccc([nH]5)c(-c5c(F)c(F)c(F)c(F)c5F)c5nc(c(-c6c(F)c(F)c(F)c(F)c6F)c6ccc3[nH]6)C=C5)C=C4)cc1)=C2
REMARK SMILES IDX 27 1 26 2 25 3 24 4 23 5 21 6 22 7 20 9 1 10 2 11 3 12 13 13
REMARK SMILES IDX 4 14 12 15 14 16 11 17 96 18 15 19 5 20 6 21 7 22 8 23 9 24
REMARK SMILES IDX 10 25 16 26 17 27 18 28 19 29 28 30 29 31 30 32 31 33 32 35
REMARK SMILES IDX 33 36 34 37 95 38 35 39 94 40 36 41 37 42 38 43 88 44 39 45
REMARK SMILES IDX 93 46 87 47 89 48 40 49 92 50 86 51 85 52 41 54 73 55 53 56
REMARK SMILES IDX 72 57 54 58 57 59 71 60 90 61 55 62 56 63 70 65 91 66 58 67
REMARK SMILES IDX 42 68 43 69 51 70 44 71 45 72 49 73 52 74 46 75 47 76 50 77
REMARK SMILES IDX 48 78 74 79 75 80 83 81 76 82 77 83 81 84 84 85 78 86 79 87
REMARK SMILES IDX 82 88 80 89 59 90 60 91 68 92 61 93 62 94 66 95 69 96 63 97
REMARK SMILES IDX 64 98 67 99 65 100
REMARK H PARENT 23 8 30 34 89 53 57 64
REMARK Flexibility Score: inf
ROOT
ATOM      1  C   UNL A   1      31.712  30.812  26.414  1.00  0.00     0.002 C 
ENDROOT
BRANCH   1   2
ATOM      2  C   UNL A   1      33.136  30.546  26.875  1.00  0.00     0.002 C 
BRANCH   2   3
ATOM      3  C   UNL A   1      33.258  29.103  27.335  1.00  0.00     0.021 C 
BRANCH   3   4
ATOM      4  C   UNL A   1      34.345  28.405  26.532  1.00  0.00     0.116 C 
BRANCH   4   5
ATOM      5  N   UNL A   1      34.224  28.778  25.117  1.00  0.00    -0.352 N 
ATOM      6  C   UNL A   1      33.547  27.875  24.174  1.00  0.00     0.251 C 
ATOM      7  O   UNL A   1      33.441  28.198  22.949  1.00  0.00    -0.270 OA
ATOM      8  H   UNL A   1      34.594  29.633  24.799  1.00  0.00     0.163 HD
BRANCH   6   9
ATOM      9  C   UNL A   1      32.973  26.555  24.663  1.00  0.00     0.067 C 
ATOM     10  C   UNL A   1      30.091  22.920  26.868  1.00  0.00     0.048 C 
ATOM     11  C   UNL A   1      31.360  22.946  26.032  1.00  0.00    -0.007 A 
ATOM     12  C   UNL A   1      32.013  21.773  25.724  1.00  0.00     0.031 A 
ATOM     13  C   UNL A   1      31.882  24.158  25.584  1.00  0.00     0.130 A 
ATOM     14  C   UNL A   1      33.186  21.788  24.979  1.00  0.00     0.108 A 
ATOM     15  C   UNL A   1      33.072  24.169  24.822  1.00  0.00     0.019 A 
ATOM     16  O   UNL A   1      31.233  25.441  25.881  1.00  0.00    -0.475 OA
ATOM     17  C   UNL A   1      33.711  22.964  24.525  1.00  0.00     0.036 A 
ATOM     18  C   UNL A   1      33.597  25.456  24.366  1.00  0.00     0.025 C 
ATOM     19  C   UNL A   1      31.797  26.576  25.414  1.00  0.00     0.314 C 
BRANCH  14  20
ATOM     20  S   UNL A   1      34.026  20.230  24.604  1.00  0.00     0.310 S 
ATOM     21  F   UNL A   1      33.142  19.599  25.761  1.00  0.00    -0.094 F 
ATOM     22  F   UNL A   1      35.134  20.498  25.691  1.00  0.00    -0.094 F 
ATOM     23  F   UNL A   1      34.589  18.804  24.342  1.00  0.00    -0.094 F 
ATOM     24  F   UNL A   1      32.826  19.927  23.622  1.00  0.00    -0.094 F 
ATOM     25  F   UNL A   1      33.377  21.631  24.942  1.00  0.00    -0.094 F 
ENDBRANCH  14  20
BRANCH  19  26
ATOM     26  C   UNL A   1      30.773  27.051  24.397  1.00  0.00     0.429 C 
ATOM     27  F   UNL A   1      30.764  28.381  24.365  1.00  0.00    -0.167 F 
ATOM     28  F   UNL A   1      31.090  26.581  23.194  1.00  0.00    -0.167 F 
ATOM     29  F   UNL A   1      29.567  26.608  24.742  1.00  0.00    -0.167 F 
ENDBRANCH  19  26
ENDBRANCH   6   9
ENDBRANCH   4   5
ENDBRANCH   3   4
ENDBRANCH   2   3
ENDBRANCH   1   2
BRANCH   1  30
ATOM     30  C   UNL A   1      31.385  32.284  26.602  1.00  0.00     0.021 C 
BRANCH  30  31
ATOM     31  C   UNL A   1      32.534  32.971  27.323  1.00  0.00     0.116 C 
BRANCH  31  32
ATOM     32  N   UNL A   1      32.154  34.355  27.641  1.00  0.00    -0.352 N 
ATOM     33  C   UNL A   1      32.920  35.116  28.638  1.00  0.00     0.251 C 
ATOM     34  H   UNL A   1      31.387  34.772  27.186  1.00  0.00     0.163 HD
ATOM     35  O   UNL A   1      32.592  36.312  28.913  1.00  0.00    -0.269 OA
BRANCH  33  36
ATOM     36  C   UNL A   1      34.105  34.471  29.340  1.00  0.00     0.039 A 
ATOM     37  C   UNL A   1      35.329  34.412  28.684  1.00  0.00     0.014 A 
ATOM     38  C   UNL A   1      33.996  33.890  30.515  1.00  0.00     0.014 A 
ATOM     39  C   UNL A   1      36.469  34.203  29.494  1.00  0.00     0.010 A 
ATOM     40  C   UNL A   1      35.085  33.223  31.088  1.00  0.00     0.010 A 
ATOM     41  C   UNL A   1      36.298  33.370  30.597  1.00  0.00    -0.014 A 
BRANCH  41  42
ATOM     42  C   UNL A   1      37.481  32.648  31.220  1.00  0.00     0.031 A 
ATOM     43  C   UNL A   1      38.032  31.581  30.508  1.00  0.00     0.074 A 
ATOM     44  C   UNL A   1      37.914  33.046  32.473  1.00  0.00     0.049 A 
ATOM     45  N   UNL A   1      39.052  30.801  30.869  1.00  0.00    -0.248 NA
ATOM     46  C   UNL A   1      37.552  31.134  29.191  1.00  0.00     0.031 C 
ATOM     47  C   UNL A   1      37.370  34.128  33.194  1.00  0.00     0.029 A 
ATOM     48  N   UNL A   1      38.918  32.493  33.237  1.00  0.00    -0.354 N 
ATOM     49  C   UNL A   1      39.303  29.899  29.918  1.00  0.00     0.074 A 
ATOM     50  C   UNL A   1      38.337  30.096  28.828  1.00  0.00     0.031 C 
ATOM     51  C   UNL A   1      38.028  34.217  34.380  1.00  0.00     0.029 A 
ATOM     52  C   UNL A   1      38.995  33.195  34.420  1.00  0.00     0.049 A 
ATOM     53  H   UNL A   1      39.482  31.728  32.982  1.00  0.00     0.167 HD
ATOM     54  C   UNL A   1      40.299  28.922  29.915  1.00  0.00     0.037 A 
ATOM     55  C   UNL A   1      39.850  32.969  35.486  1.00  0.00     0.037 A 
ATOM     56  C   UNL A   1      41.184  28.725  30.964  1.00  0.00     0.049 A 
ATOM     57  C   UNL A   1      40.810  31.954  35.509  1.00  0.00     0.074 A 
ATOM     58  C   UNL A   1      42.199  27.748  30.975  1.00  0.00     0.029 A 
ATOM     59  N   UNL A   1      41.245  29.410  32.157  1.00  0.00    -0.354 N 
ATOM     60  N   UNL A   1      41.086  31.077  34.542  1.00  0.00    -0.248 NA
ATOM     61  C   UNL A   1      41.700  31.685  36.646  1.00  0.00     0.031 C 
ATOM     62  C   UNL A   1      42.857  27.838  32.161  1.00  0.00     0.029 A 
ATOM     63  C   UNL A   1      42.263  28.870  32.912  1.00  0.00     0.049 A 
ATOM     64  H   UNL A   1      40.661  30.156  32.425  1.00  0.00     0.167 HD
ATOM     65  C   UNL A   1      42.079  30.271  34.921  1.00  0.00     0.074 A 
ATOM     66  C   UNL A   1      42.483  30.646  36.283  1.00  0.00     0.031 C 
ATOM     67  C   UNL A   1      42.668  29.241  34.185  1.00  0.00     0.037 A 
BRANCH  54  68
ATOM     68  C   UNL A   1      40.421  28.025  28.695  1.00  0.00     0.064 A 
ATOM     69  C   UNL A   1      41.178  28.408  27.607  1.00  0.00     0.173 A 
ATOM     70  C   UNL A   1      39.770  26.800  28.670  1.00  0.00     0.173 A 
ATOM     71  F   UNL A   1      41.805  29.580  27.623  1.00  0.00    -0.203 F 
ATOM     72  C   UNL A   1      41.288  27.621  26.547  1.00  0.00     0.198 A 
ATOM     73  C   UNL A   1      39.912  25.998  27.546  1.00  0.00     0.198 A 
ATOM     74  F   UNL A   1      39.028  26.402  29.699  1.00  0.00    -0.203 F 
ATOM     75  F   UNL A   1      42.021  28.024  25.513  1.00  0.00    -0.200 F 
ATOM     76  C   UNL A   1      40.686  26.444  26.493  1.00  0.00     0.200 A 
ATOM     77  F   UNL A   1      39.309  24.813  27.484  1.00  0.00    -0.200 F 
ATOM     78  F   UNL A   1      40.828  25.683  25.411  1.00  0.00    -0.200 F 
ENDBRANCH  54  68
BRANCH  55  79
ATOM     79  C   UNL A   1      39.739  33.877  36.699  1.00  0.00     0.064 A 
ATOM     80  C   UNL A   1      40.438  35.066  36.760  1.00  0.00     0.173 A 
ATOM     81  C   UNL A   1      38.933  33.512  37.768  1.00  0.00     0.173 A 
ATOM     82  F   UNL A   1      41.214  35.426  35.741  1.00  0.00    -0.203 F 
ATOM     83  C   UNL A   1      40.345  35.853  37.820  1.00  0.00     0.198 A 
ATOM     84  C   UNL A   1      38.854  34.362  38.860  1.00  0.00     0.198 A 
ATOM     85  F   UNL A   1      38.250  32.371  37.744  1.00  0.00    -0.203 F 
ATOM     86  F   UNL A   1      41.036  36.989  37.849  1.00  0.00    -0.200 F 
ATOM     87  C   UNL A   1      39.581  35.537  38.853  1.00  0.00     0.200 A 
ATOM     88  F   UNL A   1      38.087  34.052  39.902  1.00  0.00    -0.200 F 
ATOM     89  F   UNL A   1      39.512  36.359  39.895  1.00  0.00    -0.200 F 
ENDBRANCH  55  79
BRANCH  67  90
ATOM     90  C   UNL A   1      43.821  28.481  34.818  1.00  0.00     0.064 A 
ATOM     91  C   UNL A   1      43.569  27.339  35.551  1.00  0.00     0.173 A 
ATOM     92  C   UNL A   1      45.122  28.955  34.729  1.00  0.00     0.173 A 
ATOM     93  F   UNL A   1      42.325  26.877  35.641  1.00  0.00    -0.203 F 
ATOM     94  C   UNL A   1      44.551  26.698  36.164  1.00  0.00     0.198 A 
ATOM     95  C   UNL A   1      46.128  28.254  35.380  1.00  0.00     0.198 A 
ATOM     96  F   UNL A   1      45.399  30.055  34.036  1.00  0.00    -0.203 F 
ATOM     97  F   UNL A   1      44.272  25.604  36.868  1.00  0.00    -0.200 F 
ATOM     98  C   UNL A   1      45.802  27.119  36.096  1.00  0.00     0.200 A 
ATOM     99  F   UNL A   1      47.390  28.672  35.316  1.00  0.00    -0.200 F 
ATOM    100  F   UNL A   1      46.759  26.440  36.723  1.00  0.00    -0.200 F 
ENDBRANCH  67  90
ENDBRANCH  41  42
ENDBRANCH  33  36
ENDBRANCH  31  32
ENDBRANCH  30  31
ENDBRANCH   1  30
TORSDOF 15
ENDMDL
MODEL 3
REMARK VINA RESULT:     -13.6      3.878      8.383
REMARK SMILES Cc1cc(S(F)(F)(F)(F)F)cc2c1O[C@H](C(F)(F)F)C(C(=O)NCCCCCCNC(=O)c1ccc(-c3c4nc(c(-c5c(F)c(F)c(F)c(F)c5F)c5ccc([nH]5)c(-c5c(F)c(F)c(F)c(F)c5F)c5nc(c(-c6c(F)c(F)c(F)c(F)c6F)c6ccc3[nH]6)C=C5)C=C4)cc1)=C2
REMARK SMILES IDX 27 1 26 2 25 3 24 4 23 5 21 6 22 7 20 9 1 10 2 11 3 12 13 13
REMARK SMILES IDX 4 14 12 15 14 16 11 17 96 18 15 19 5 20 6 21 7 22 8 23 9 24
REMARK SMILES IDX 10 25 16 26 17 27 18 28 19 29 28 30 29 31 30 32 31 33 32 35
REMARK SMILES IDX 33 36 34 37 95 38 35 39 94 40 36 41 37 42 38 43 88 44 39 45
REMARK SMILES IDX 93 46 87 47 89 48 40 49 92 50 86 51 85 52 41 54 73 55 53 56
REMARK SMILES IDX 72 57 54 58 57 59 71 60 90 61 55 62 56 63 70 65 91 66 58 67
REMARK SMILES IDX 42 68 43 69 51 70 44 71 45 72 49 73 52 74 46 75 47 76 50 77
REMARK SMILES IDX 48 78 74 79 75 80 83 81 76 82 77 83 81 84 84 85 78 86 79 87
REMARK SMILES IDX 82 88 80 89 59 90 60 91 68 92 61 93 62 94 66 95 69 96 63 97
REMARK SMILES IDX 64 98 67 99 65 100
REMARK H PARENT 23 8 30 34 89 53 57 64
REMARK Flexibility Score: inf
ROOT
ATOM      1  C   UNL A   1      34.997  22.707  23.940  1.00  0.00     0.002 C 
ENDROOT
BRANCH   1   2
ATOM      2  C   UNL A   1      34.029  23.074  22.827  1.00  0.00     0.002 C 
BRANCH   2   3
ATOM      3  C   UNL A   1      32.718  22.332  23.031  1.00  0.00     0.021 C 
BRANCH   3   4
ATOM      4  C   UNL A   1      31.698  23.269  23.656  1.00  0.00     0.116 C 
BRANCH   4   5
ATOM      5  N   UNL A   1      31.370  22.803  25.011  1.00  0.00    -0.352 N 
ATOM      6  C   UNL A   1      31.103  23.778  26.079  1.00  0.00     0.251 C 
ATOM      7  O   UNL A   1      30.819  23.375  27.251  1.00  0.00    -0.270 OA
ATOM      8  H   UNL A   1      31.328  21.838  25.203  1.00  0.00     0.163 HD
BRANCH   6   9
ATOM      9  C   UNL A   1      31.167  25.267  25.783  1.00  0.00     0.067 C 
ATOM     10  C   UNL A   1      32.347  30.266  25.751  1.00  0.00     0.048 C 
ATOM     11  C   UNL A   1      31.374  29.372  24.999  1.00  0.00    -0.007 A 
ATOM     12  C   UNL A   1      30.527  29.906  24.053  1.00  0.00     0.031 A 
ATOM     13  C   UNL A   1      31.320  28.006  25.273  1.00  0.00     0.130 A 
ATOM     14  C   UNL A   1      29.620  29.100  23.377  1.00  0.00     0.108 A 
ATOM     15  C   UNL A   1      30.400  27.189  24.580  1.00  0.00     0.019 A 
ATOM     16  O   UNL A   1      32.195  27.378  26.271  1.00  0.00    -0.475 OA
ATOM     17  C   UNL A   1      29.554  27.759  23.625  1.00  0.00     0.036 A 
ATOM     18  C   UNL A   1      30.364  25.760  24.888  1.00  0.00     0.025 C 
ATOM     19  C   UNL A   1      32.086  26.049  26.484  1.00  0.00     0.314 C 
BRANCH  14  20
ATOM     20  S   UNL A   1      28.513  29.837  22.150  1.00  0.00     0.310 S 
ATOM     21  F   UNL A   1      28.856  31.227  22.833  1.00  0.00    -0.094 F 
ATOM     22  F   UNL A   1      27.277  29.742  23.122  1.00  0.00    -0.094 F 
ATOM     23  F   UNL A   1      27.669  30.628  21.110  1.00  0.00    -0.094 F 
ATOM     24  F   UNL A   1      29.796  30.044  21.253  1.00  0.00    -0.094 F 
ATOM     25  F   UNL A   1      29.409  29.135  23.246  1.00  0.00    -0.094 F 
ENDBRANCH  14  20
BRANCH  19  26
ATOM     26  C   UNL A   1      33.416  25.528  25.965  1.00  0.00     0.429 C 
ATOM     27  F   UNL A   1      34.384  26.376  26.300  1.00  0.00    -0.167 F 
ATOM     28  F   UNL A   1      33.665  24.336  26.501  1.00  0.00    -0.167 F 
ATOM     29  F   UNL A   1      33.362  25.417  24.641  1.00  0.00    -0.167 F 
ENDBRANCH  19  26
ENDBRANCH   6   9
ENDBRANCH   4   5
ENDBRANCH   3   4
ENDBRANCH   2   3
ENDBRANCH   1   2
BRANCH   1  30
ATOM     30  C   UNL A   1      36.205  23.628  23.885  1.00  0.00     0.021 C 
BRANCH  30  31
ATOM     31  C   UNL A   1      36.852  23.698  25.259  1.00  0.00     0.116 C 
BRANCH  31  32
ATOM     32  N   UNL A   1      37.729  22.534  25.448  1.00  0.00    -0.352 N 
ATOM     33  C   UNL A   1      38.971  22.667  26.222  1.00  0.00     0.251 C 
ATOM     34  H   UNL A   1      37.484  21.664  25.056  1.00  0.00     0.163 HD
ATOM     35  O   UNL A   1      39.728  21.660  26.385  1.00  0.00    -0.269 OA
BRANCH  33  36
ATOM     36  C   UNL A   1      39.348  24.010  26.827  1.00  0.00     0.039 A 
ATOM     37  C   UNL A   1      40.266  24.817  26.163  1.00  0.00     0.014 A 
ATOM     38  C   UNL A   1      38.903  24.404  28.000  1.00  0.00     0.014 A 
ATOM     39  C   UNL A   1      40.272  26.186  26.514  1.00  0.00     0.010 A 
ATOM     40  C   UNL A   1      39.347  25.604  28.569  1.00  0.00     0.010 A 
ATOM     41  C   UNL A   1      40.015  26.481  27.851  1.00  0.00    -0.014 A 
BRANCH  41  42
ATOM     42  C   UNL A   1      40.495  27.785  28.466  1.00  0.00     0.031 A 
ATOM     43  C   UNL A   1      39.544  28.786  28.678  1.00  0.00     0.074 A 
ATOM     44  C   UNL A   1      41.846  27.934  28.731  1.00  0.00     0.049 A 
ATOM     45  N   UNL A   1      39.744  30.004  29.183  1.00  0.00    -0.248 NA
ATOM     46  C   UNL A   1      38.115  28.643  28.365  1.00  0.00     0.031 C 
ATOM     47  C   UNL A   1      42.810  26.927  28.529  1.00  0.00     0.029 A 
ATOM     48  N   UNL A   1      42.494  29.045  29.224  1.00  0.00    -0.354 N 
ATOM     49  C   UNL A   1      38.589  30.670  29.250  1.00  0.00     0.074 A 
ATOM     50  C   UNL A   1      37.525  29.806  28.719  1.00  0.00     0.031 C 
ATOM     51  C   UNL A   1      44.023  27.427  28.883  1.00  0.00     0.029 A 
ATOM     52  C   UNL A   1      43.838  28.755  29.314  1.00  0.00     0.049 A 
ATOM     53  H   UNL A   1      42.070  29.899  29.469  1.00  0.00     0.167 HD
ATOM     54  C   UNL A   1      38.380  31.962  29.735  1.00  0.00     0.037 A 
ATOM     55  C   UNL A   1      44.859  29.588  29.741  1.00  0.00     0.037 A 
ATOM     56  C   UNL A   1      39.396  32.780  30.204  1.00  0.00     0.049 A 
ATOM     57  C   UNL A   1      44.659  30.902  30.172  1.00  0.00     0.074 A 
ATOM     58  C   UNL A   1      39.203  34.083  30.702  1.00  0.00     0.029 A 
ATOM     59  N   UNL A   1      40.743  32.498  30.270  1.00  0.00    -0.354 N 
ATOM     60  N   UNL A   1      43.500  31.553  30.275  1.00  0.00    -0.248 NA
ATOM     61  C   UNL A   1      45.737  31.804  30.596  1.00  0.00     0.031 C 
ATOM     62  C   UNL A   1      40.416  34.583  31.056  1.00  0.00     0.029 A 
ATOM     63  C   UNL A   1      41.389  33.603  30.783  1.00  0.00     0.049 A 
ATOM     64  H   UNL A   1      41.171  31.655  29.997  1.00  0.00     0.167 HD
ATOM     65  C   UNL A   1      43.705  32.786  30.742  1.00  0.00     0.074 A 
ATOM     66  C   UNL A   1      45.149  32.968  30.948  1.00  0.00     0.031 C 
ATOM     67  C   UNL A   1      42.747  33.766  31.008  1.00  0.00     0.037 A 
BRANCH  54  68
ATOM     68  C   UNL A   1      36.960  32.503  29.750  1.00  0.00     0.064 A 
ATOM     69  C   UNL A   1      36.465  33.222  28.681  1.00  0.00     0.173 A 
ATOM     70  C   UNL A   1      36.143  32.270  30.847  1.00  0.00     0.173 A 
ATOM     71  F   UNL A   1      37.241  33.450  27.626  1.00  0.00    -0.203 F 
ATOM     72  C   UNL A   1      35.225  33.687  28.695  1.00  0.00     0.198 A 
ATOM     73  C   UNL A   1      34.847  32.767  30.825  1.00  0.00     0.198 A 
ATOM     74  F   UNL A   1      36.590  31.586  31.896  1.00  0.00    -0.203 F 
ATOM     75  F   UNL A   1      34.782  34.381  27.650  1.00  0.00    -0.200 F 
ATOM     76  C   UNL A   1      34.417  33.478  29.721  1.00  0.00     0.200 A 
ATOM     77  F   UNL A   1      34.029  32.561  31.853  1.00  0.00    -0.200 F 
ATOM     78  F   UNL A   1      33.178  33.958  29.690  1.00  0.00    -0.200 F 
ENDBRANCH  54  68
BRANCH  55  79
ATOM     79  C   UNL A   1      46.277  29.041  29.742  1.00  0.00     0.064 A 
ATOM     80  C   UNL A   1      47.065  29.117  28.611  1.00  0.00     0.173 A 
ATOM     81  C   UNL A   1      46.792  28.451  30.887  1.00  0.00     0.173 A 
ATOM     82  F   UNL A   1      46.581  29.681  27.508  1.00  0.00    -0.203 F 
ATOM     83  C   UNL A   1      48.298  28.634  28.612  1.00  0.00     0.198 A 
ATOM     84  C   UNL A   1      48.089  27.961  30.855  1.00  0.00     0.198 A 
ATOM     85  F   UNL A   1      46.057  28.357  31.992  1.00  0.00    -0.203 F 
ATOM     86  F   UNL A   1      49.029  28.718  27.504  1.00  0.00    -0.200 F 
ATOM     87  C   UNL A   1      48.821  28.070  29.688  1.00  0.00     0.200 A 
ATOM     88  F   UNL A   1      48.622  27.393  31.933  1.00  0.00    -0.200 F 
ATOM     89  F   UNL A   1      50.066  27.604  29.647  1.00  0.00    -0.200 F 
ENDBRANCH  55  79
BRANCH  67  90
ATOM     90  C   UNL A   1      43.222  35.093  31.578  1.00  0.00     0.064 A 
ATOM     91  C   UNL A   1      43.186  35.305  32.940  1.00  0.00     0.173 A 
ATOM     92  C   UNL A   1      43.628  36.123  30.741  1.00  0.00     0.173 A 
ATOM     93  F   UNL A   1      42.798  34.323  33.749  1.00  0.00    -0.203 F 
ATOM     94  C   UNL A   1      43.534  36.476  33.452  1.00  0.00     0.198 A 
ATOM     95  C   UNL A   1      43.992  37.334  31.313  1.00  0.00     0.198 A 
ATOM     96  F   UNL A   1      43.668  35.954  29.423  1.00  0.00    -0.203 F 
ATOM     97  F   UNL A   1      43.482  36.648  34.770  1.00  0.00    -0.200 F 
ATOM     98  C   UNL A   1      43.931  37.476  32.685  1.00  0.00     0.200 A 
ATOM     99  F   UNL A   1      44.392  38.347  30.547  1.00  0.00    -0.200 F 
ATOM    100  F   UNL A   1      44.277  38.633  33.242  1.00  0.00    -0.200 F 
ENDBRANCH  67  90
ENDBRANCH  41  42
ENDBRANCH  33  36
ENDBRANCH  31  32
ENDBRANCH  30  31
ENDBRANCH   1  30
TORSDOF 15
ENDMDL
