MODEL 1
REMARK VINA RESULT:     -12.8      0.000      0.000
REMARK SMILES COCCNC(=O)c1cccc(NC(=O)[C@@H]2CCCC[C@H]2C(=O)NCCCCCCNC(=O)c2ccc(-c3c4nc(c(-c5c(F)c(F)c(F)c(F)c5F)c5ccc([nH]5)c(-c5c(F)c(F)c(F)c(F)c5F)c5nc(c(-c6c(F)c(F)c(F)c(F)c6F)c6ccc3[nH]6)C=C5)C=C4)cc2)c1
REMARK SMILES IDX 25 1 24 2 22 3 23 4 21 6 16 7 17 8 18 9 20 10 19 11 14 12
REMARK SMILES IDX 13 13 15 15 12 16 8 17 9 18 97 19 10 20 11 21 6 22 5 23 7 25
REMARK SMILES IDX 4 26 3 27 2 28 1 29 26 30 27 31 28 32 29 33 30 34 31 35
REMARK SMILES IDX 32 36 33 38 34 39 35 40 96 41 36 42 95 43 37 44 38 45 39 46
REMARK SMILES IDX 89 47 40 48 94 49 88 50 90 51 41 52 93 53 87 54 86 55 42 57
REMARK SMILES IDX 74 58 54 59 73 60 55 61 58 62 72 63 91 64 56 65 57 66 71 68
REMARK SMILES IDX 92 69 59 70 43 71 44 72 52 73 45 74 46 75 50 76 53 77 47 78
REMARK SMILES IDX 48 79 51 80 49 81 75 82 76 83 84 84 77 85 78 86 82 87 85 88
REMARK SMILES IDX 79 89 80 90 83 91 81 92 60 93 61 94 69 95 62 96 63 97 67 98
REMARK SMILES IDX 70 99 64 100 65 101 68 102 66 103
REMARK H PARENT 24 5 13 14 5 24 31 37 90 56 58 67
REMARK Flexibility Score: inf
ROOT
ATOM      1  C   UNL A   1      32.928  27.479  26.138  1.00  0.00     0.116 C 
ENDROOT
BRANCH   1   2
ATOM      2  N   UNL A   1      33.688  28.195  25.132  1.00  0.00    -0.356 N 
ATOM      3  C   UNL A   1      33.504  28.297  23.787  1.00  0.00     0.223 C 
ATOM      4  O   UNL A   1      34.318  28.964  23.143  1.00  0.00    -0.275 OA
ATOM      5  H   UNL A   1      34.465  28.689  25.479  1.00  0.00     0.163 HD
BRANCH   3   6
ATOM      6  C   UNL A   1      32.312  27.640  23.086  1.00  0.00     0.091 C 
ATOM      7  C   UNL A   1      32.262  26.128  23.381  1.00  0.00     0.091 C 
ATOM      8  C   UNL A   1      30.893  25.441  23.388  1.00  0.00     0.014 C 
ATOM      9  C   UNL A   1      29.759  26.327  23.888  1.00  0.00     0.001 C 
ATOM     10  C   UNL A   1      31.035  28.450  23.370  1.00  0.00     0.014 C 
ATOM     11  C   UNL A   1      29.726  27.689  23.214  1.00  0.00     0.001 C 
BRANCH   7  12
ATOM     12  C   UNL A   1      33.312  25.377  22.567  1.00  0.00     0.228 C 
ATOM     13  N   UNL A   1      34.067  24.330  22.982  1.00  0.00    -0.326 N 
ATOM     14  H   UNL A   1      34.636  23.987  22.255  1.00  0.00     0.169 HD
ATOM     15  O   UNL A   1      33.527  25.759  21.406  1.00  0.00    -0.274 OA
BRANCH  13  16
ATOM     16  C   UNL A   1      34.258  23.600  24.166  1.00  0.00     0.041 A 
ATOM     17  C   UNL A   1      35.206  21.586  25.151  1.00  0.00     0.041 A 
ATOM     18  C   UNL A   1      34.919  22.050  26.434  1.00  0.00     0.014 A 
ATOM     19  C   UNL A   1      34.832  22.334  24.026  1.00  0.00     0.040 A 
ATOM     20  C   UNL A   1      34.282  23.273  26.582  1.00  0.00     0.003 A 
ATOM     21  C   UNL A   1      33.957  24.031  25.453  1.00  0.00     0.026 A 
BRANCH  17  22
ATOM     22  C   UNL A   1      35.827  20.256  25.001  1.00  0.00     0.251 C 
ATOM     23  N   UNL A   1      35.057  19.124  24.986  1.00  0.00    -0.350 N 
ATOM     24  H   UNL A   1      35.543  18.291  25.184  1.00  0.00     0.163 HD
ATOM     25  O   UNL A   1      37.047  20.168  24.898  1.00  0.00    -0.269 OA
BRANCH  23  26
ATOM     26  C   UNL A   1      33.632  18.953  24.722  1.00  0.00     0.144 C 
BRANCH  26  27
ATOM     27  C   UNL A   1      33.244  17.496  24.438  1.00  0.00     0.181 C 
BRANCH  27  28
ATOM     28  O   UNL A   1      33.316  16.663  25.597  1.00  0.00    -0.383 OA
ATOM     29  C   UNL A   1      32.858  15.335  25.382  1.00  0.00     0.194 C 
ENDBRANCH  27  28
ENDBRANCH  26  27
ENDBRANCH  23  26
ENDBRANCH  17  22
ENDBRANCH  13  16
ENDBRANCH   7  12
ENDBRANCH   3   6
ENDBRANCH   1   2
BRANCH   1  30
ATOM     30  C   UNL A   1      32.212  28.437  27.085  1.00  0.00     0.021 C 
BRANCH  30  31
ATOM     31  C   UNL A   1      32.626  29.902  26.920  1.00  0.00     0.002 C 
BRANCH  31  32
ATOM     32  C   UNL A   1      31.643  30.768  26.127  1.00  0.00     0.002 C 
BRANCH  32  33
ATOM     33  C   UNL A   1      31.403  32.168  26.696  1.00  0.00     0.021 C 
BRANCH  33  34
ATOM     34  C   UNL A   1      32.631  32.822  27.318  1.00  0.00     0.116 C 
BRANCH  34  35
ATOM     35  N   UNL A   1      32.402  34.220  27.639  1.00  0.00    -0.352 N 
ATOM     36  C   UNL A   1      32.994  34.998  28.602  1.00  0.00     0.251 C 
ATOM     37  H   UNL A   1      31.725  34.675  27.087  1.00  0.00     0.163 HD
ATOM     38  O   UNL A   1      32.552  36.109  28.864  1.00  0.00    -0.269 OA
BRANCH  36  39
ATOM     39  C   UNL A   1      34.162  34.477  29.341  1.00  0.00     0.039 A 
ATOM     40  C   UNL A   1      33.958  33.883  30.588  1.00  0.00     0.014 A 
ATOM     41  C   UNL A   1      35.451  34.574  28.807  1.00  0.00     0.014 A 
ATOM     42  C   UNL A   1      35.040  33.330  31.275  1.00  0.00     0.010 A 
ATOM     43  C   UNL A   1      36.518  33.969  29.463  1.00  0.00     0.010 A 
ATOM     44  C   UNL A   1      36.322  33.341  30.703  1.00  0.00    -0.014 A 
BRANCH  44  45
ATOM     45  C   UNL A   1      37.467  32.683  31.380  1.00  0.00     0.031 A 
ATOM     46  C   UNL A   1      38.160  31.517  30.736  1.00  0.00     0.074 A 
ATOM     47  C   UNL A   1      37.832  33.095  32.610  1.00  0.00     0.049 A 
ATOM     48  N   UNL A   1      39.129  30.772  31.201  1.00  0.00    -0.248 NA
ATOM     49  C   UNL A   1      37.682  31.118  29.402  1.00  0.00     0.031 C 
ATOM     50  C   UNL A   1      37.198  34.181  33.359  1.00  0.00     0.029 A 
ATOM     51  N   UNL A   1      38.815  32.639  33.450  1.00  0.00    -0.354 N 
ATOM     52  C   UNL A   1      39.366  29.809  30.228  1.00  0.00     0.074 A 
ATOM     53  C   UNL A   1      38.410  30.037  29.166  1.00  0.00     0.031 C 
ATOM     54  C   UNL A   1      37.815  34.314  34.545  1.00  0.00     0.029 A 
ATOM     55  C   UNL A   1      38.863  33.304  34.652  1.00  0.00     0.049 A 
ATOM     56  H   UNL A   1      39.428  31.905  33.217  1.00  0.00     0.167 HD
ATOM     57  C   UNL A   1      40.308  28.837  30.218  1.00  0.00     0.037 A 
ATOM     58  C   UNL A   1      39.658  33.113  35.722  1.00  0.00     0.037 A 
ATOM     59  C   UNL A   1      41.278  28.637  31.262  1.00  0.00     0.049 A 
ATOM     60  C   UNL A   1      40.703  32.034  35.677  1.00  0.00     0.074 A 
ATOM     61  C   UNL A   1      42.328  27.737  31.303  1.00  0.00     0.029 A 
ATOM     62  N   UNL A   1      41.314  29.347  32.452  1.00  0.00    -0.354 N 
ATOM     63  N   UNL A   1      40.973  31.184  34.717  1.00  0.00    -0.248 NA
ATOM     64  C   UNL A   1      41.562  31.892  36.861  1.00  0.00     0.031 C 
ATOM     65  C   UNL A   1      42.971  27.870  32.538  1.00  0.00     0.029 A 
ATOM     66  C   UNL A   1      42.351  28.886  33.248  1.00  0.00     0.049 A 
ATOM     67  H   UNL A   1      40.694  30.072  32.697  1.00  0.00     0.167 HD
ATOM     68  C   UNL A   1      42.039  30.420  35.170  1.00  0.00     0.074 A 
ATOM     69  C   UNL A   1      42.381  30.922  36.485  1.00  0.00     0.031 C 
ATOM     70  C   UNL A   1      42.676  29.395  34.555  1.00  0.00     0.037 A 
BRANCH  57  71
ATOM     71  C   UNL A   1      40.342  27.912  29.037  1.00  0.00     0.064 A 
ATOM     72  C   UNL A   1      39.600  26.721  29.014  1.00  0.00     0.173 A 
ATOM     73  C   UNL A   1      41.082  28.248  27.893  1.00  0.00     0.173 A 
ATOM     74  F   UNL A   1      38.885  26.351  30.086  1.00  0.00    -0.203 F 
ATOM     75  C   UNL A   1      39.616  25.890  27.898  1.00  0.00     0.198 A 
ATOM     76  C   UNL A   1      41.073  27.427  26.768  1.00  0.00     0.198 A 
ATOM     77  F   UNL A   1      41.804  29.377  27.861  1.00  0.00    -0.203 F 
ATOM     78  F   UNL A   1      38.931  24.737  27.913  1.00  0.00    -0.200 F 
ATOM     79  C   UNL A   1      40.345  26.246  26.773  1.00  0.00     0.200 A 
ATOM     80  F   UNL A   1      41.769  27.779  25.678  1.00  0.00    -0.200 F 
ATOM     81  F   UNL A   1      40.350  25.451  25.695  1.00  0.00    -0.200 F 
ENDBRANCH  57  71
BRANCH  58  82
ATOM     82  C   UNL A   1      39.500  33.974  36.923  1.00  0.00     0.064 A 
ATOM     83  C   UNL A   1      40.103  35.237  36.989  1.00  0.00     0.173 A 
ATOM     84  C   UNL A   1      38.749  33.550  38.028  1.00  0.00     0.173 A 
ATOM     85  F   UNL A   1      40.849  35.676  35.964  1.00  0.00    -0.203 F 
ATOM     86  C   UNL A   1      39.977  36.036  38.123  1.00  0.00     0.198 A 
ATOM     87  C   UNL A   1      38.600  34.362  39.151  1.00  0.00     0.198 A 
ATOM     88  F   UNL A   1      38.147  32.351  38.013  1.00  0.00    -0.203 F 
ATOM     89  F   UNL A   1      40.600  37.222  38.177  1.00  0.00    -0.200 F 
ATOM     90  C   UNL A   1      39.222  35.601  39.201  1.00  0.00     0.200 A 
ATOM     91  F   UNL A   1      37.858  33.943  40.184  1.00  0.00    -0.200 F 
ATOM     92  F   UNL A   1      39.097  36.371  40.290  1.00  0.00    -0.200 F 
ENDBRANCH  58  82
BRANCH  70  93
ATOM     93  C   UNL A   1      43.818  28.757  35.289  1.00  0.00     0.064 A 
ATOM     94  C   UNL A   1      45.134  29.220  35.139  1.00  0.00     0.173 A 
ATOM     95  C   UNL A   1      43.589  27.699  36.180  1.00  0.00     0.173 A 
ATOM     96  F   UNL A   1      45.405  30.218  34.286  1.00  0.00    -0.203 F 
ATOM     97  C   UNL A   1      46.182  28.630  35.840  1.00  0.00     0.198 A 
ATOM     98  C   UNL A   1      44.637  27.130  36.901  1.00  0.00     0.198 A 
ATOM     99  F   UNL A   1      42.348  27.225  36.363  1.00  0.00    -0.203 F 
ATOM    100  F   UNL A   1      47.437  29.058  35.648  1.00  0.00    -0.200 F 
ATOM    101  C   UNL A   1      45.932  27.592  36.725  1.00  0.00     0.200 A 
ATOM    102  F   UNL A   1      44.392  26.136  37.764  1.00  0.00    -0.200 F 
ATOM    103  F   UNL A   1      46.942  27.030  37.403  1.00  0.00    -0.200 F 
ENDBRANCH  70  93
ENDBRANCH  44  45
ENDBRANCH  36  39
ENDBRANCH  34  35
ENDBRANCH  33  34
ENDBRANCH  32  33
ENDBRANCH  31  32
ENDBRANCH  30  31
ENDBRANCH   1  30
TORSDOF 19
ENDMDL
MODEL 2
REMARK VINA RESULT:     -12.7      1.082      2.327
REMARK SMILES COCCNC(=O)c1cccc(NC(=O)[C@@H]2CCCC[C@H]2C(=O)NCCCCCCNC(=O)c2ccc(-c3c4nc(c(-c5c(F)c(F)c(F)c(F)c5F)c5ccc([nH]5)c(-c5c(F)c(F)c(F)c(F)c5F)c5nc(c(-c6c(F)c(F)c(F)c(F)c6F)c6ccc3[nH]6)C=C5)C=C4)cc2)c1
REMARK SMILES IDX 25 1 24 2 22 3 23 4 21 6 16 7 17 8 18 9 20 10 19 11 14 12
REMARK SMILES IDX 13 13 15 15 12 16 8 17 9 18 97 19 10 20 11 21 6 22 5 23 7 25
REMARK SMILES IDX 4 26 3 27 2 28 1 29 26 30 27 31 28 32 29 33 30 34 31 35
REMARK SMILES IDX 32 36 33 38 34 39 35 40 96 41 36 42 95 43 37 44 38 45 39 46
REMARK SMILES IDX 89 47 40 48 94 49 88 50 90 51 41 52 93 53 87 54 86 55 42 57
REMARK SMILES IDX 74 58 54 59 73 60 55 61 58 62 72 63 91 64 56 65 57 66 71 68
REMARK SMILES IDX 92 69 59 70 43 71 44 72 52 73 45 74 46 75 50 76 53 77 47 78
REMARK SMILES IDX 48 79 51 80 49 81 75 82 76 83 84 84 77 85 78 86 82 87 85 88
REMARK SMILES IDX 79 89 80 90 83 91 81 92 60 93 61 94 69 95 62 96 63 97 67 98
REMARK SMILES IDX 70 99 64 100 65 101 68 102 66 103
REMARK H PARENT 24 5 13 14 5 24 31 37 90 56 58 67
REMARK Flexibility Score: inf
ROOT
ATOM      1  C   UNL A   1      32.927  27.471  26.300  1.00  0.00     0.116 C 
ENDROOT
BRANCH   1   2
ATOM      2  N   UNL A   1      33.707  28.120  25.265  1.00  0.00    -0.356 N 
ATOM      3  C   UNL A   1      33.536  28.155  23.915  1.00  0.00     0.223 C 
ATOM      4  O   UNL A   1      34.365  28.773  23.244  1.00  0.00    -0.275 OA
ATOM      5  H   UNL A   1      34.489  28.620  25.592  1.00  0.00     0.163 HD
BRANCH   3   6
ATOM      6  C   UNL A   1      32.339  27.480  23.238  1.00  0.00     0.091 C 
ATOM      7  C   UNL A   1      32.329  25.963  23.517  1.00  0.00     0.091 C 
ATOM      8  C   UNL A   1      30.976  25.247  23.553  1.00  0.00     0.014 C 
ATOM      9  C   UNL A   1      29.837  26.103  24.094  1.00  0.00     0.001 C 
ATOM     10  C   UNL A   1      31.053  28.259  23.566  1.00  0.00     0.014 C 
ATOM     11  C   UNL A   1      29.757  27.472  23.437  1.00  0.00     0.001 C 
BRANCH   7  12
ATOM     12  C   UNL A   1      33.372  25.245  22.666  1.00  0.00     0.228 C 
ATOM     13  N   UNL A   1      34.148  24.199  23.043  1.00  0.00    -0.326 N 
ATOM     14  H   UNL A   1      34.707  23.880  22.298  1.00  0.00     0.169 HD
ATOM     15  O   UNL A   1      33.559  25.654  21.510  1.00  0.00    -0.274 OA
BRANCH  13  16
ATOM     16  C   UNL A   1      34.372  23.446  24.208  1.00  0.00     0.041 A 
ATOM     17  C   UNL A   1      35.733  21.716  25.247  1.00  0.00     0.041 A 
ATOM     18  C   UNL A   1      35.126  21.947  26.481  1.00  0.00     0.014 A 
ATOM     19  C   UNL A   1      35.323  22.426  24.111  1.00  0.00     0.040 A 
ATOM     20  C   UNL A   1      34.129  22.907  26.573  1.00  0.00     0.003 A 
ATOM     21  C   UNL A   1      33.762  23.641  25.440  1.00  0.00     0.026 A 
BRANCH  17  22
ATOM     22  C   UNL A   1      36.749  20.650  25.146  1.00  0.00     0.251 C 
ATOM     23  N   UNL A   1      38.070  20.922  25.377  1.00  0.00    -0.350 N 
ATOM     24  H   UNL A   1      38.699  20.262  25.006  1.00  0.00     0.163 HD
ATOM     25  O   UNL A   1      36.401  19.513  24.844  1.00  0.00    -0.269 OA
BRANCH  23  26
ATOM     26  C   UNL A   1      38.698  22.034  26.084  1.00  0.00     0.144 C 
BRANCH  26  27
ATOM     27  C   UNL A   1      40.203  21.833  26.304  1.00  0.00     0.181 C 
BRANCH  27  28
ATOM     28  O   UNL A   1      40.504  21.168  27.533  1.00  0.00    -0.383 OA
ATOM     29  C   UNL A   1      41.399  20.074  27.394  1.00  0.00     0.194 C 
ENDBRANCH  27  28
ENDBRANCH  26  27
ENDBRANCH  23  26
ENDBRANCH  17  22
ENDBRANCH  13  16
ENDBRANCH   7  12
ENDBRANCH   3   6
ENDBRANCH   1   2
BRANCH   1  30
ATOM     30  C   UNL A   1      32.170  28.486  27.151  1.00  0.00     0.021 C 
BRANCH  30  31
ATOM     31  C   UNL A   1      32.591  29.938  26.909  1.00  0.00     0.002 C 
BRANCH  31  32
ATOM     32  C   UNL A   1      31.586  30.778  26.114  1.00  0.00     0.002 C 
BRANCH  32  33
ATOM     33  C   UNL A   1      31.365  32.198  26.640  1.00  0.00     0.021 C 
BRANCH  33  34
ATOM     34  C   UNL A   1      32.587  32.834  27.292  1.00  0.00     0.116 C 
BRANCH  34  35
ATOM     35  N   UNL A   1      32.364  34.230  27.626  1.00  0.00    -0.352 N 
ATOM     36  C   UNL A   1      32.964  34.997  28.593  1.00  0.00     0.251 C 
ATOM     37  H   UNL A   1      31.686  34.692  27.082  1.00  0.00     0.163 HD
ATOM     38  O   UNL A   1      32.527  36.108  28.866  1.00  0.00    -0.269 OA
BRANCH  36  39
ATOM     39  C   UNL A   1      34.134  34.467  29.322  1.00  0.00     0.039 A 
ATOM     40  C   UNL A   1      33.943  33.919  30.593  1.00  0.00     0.014 A 
ATOM     41  C   UNL A   1      35.412  34.508  28.755  1.00  0.00     0.014 A 
ATOM     42  C   UNL A   1      35.024  33.358  31.272  1.00  0.00     0.010 A 
ATOM     43  C   UNL A   1      36.477  33.894  29.406  1.00  0.00     0.010 A 
ATOM     44  C   UNL A   1      36.292  33.312  30.670  1.00  0.00    -0.014 A 
BRANCH  44  45
ATOM     45  C   UNL A   1      37.433  32.643  31.342  1.00  0.00     0.031 A 
ATOM     46  C   UNL A   1      38.120  31.478  30.689  1.00  0.00     0.074 A 
ATOM     47  C   UNL A   1      37.801  33.043  32.575  1.00  0.00     0.049 A 
ATOM     48  N   UNL A   1      39.086  30.725  31.148  1.00  0.00    -0.248 NA
ATOM     49  C   UNL A   1      37.641  31.093  29.352  1.00  0.00     0.031 C 
ATOM     50  C   UNL A   1      37.172  34.126  33.333  1.00  0.00     0.029 A 
ATOM     51  N   UNL A   1      38.781  32.575  33.413  1.00  0.00    -0.354 N 
ATOM     52  C   UNL A   1      39.318  29.768  30.168  1.00  0.00     0.074 A 
ATOM     53  C   UNL A   1      38.364  30.010  29.107  1.00  0.00     0.031 C 
ATOM     54  C   UNL A   1      37.789  34.247  34.520  1.00  0.00     0.029 A 
ATOM     55  C   UNL A   1      38.832  33.230  34.619  1.00  0.00     0.049 A 
ATOM     56  H   UNL A   1      39.390  31.840  33.173  1.00  0.00     0.167 HD
ATOM     57  C   UNL A   1      40.255  28.792  30.150  1.00  0.00     0.037 A 
ATOM     58  C   UNL A   1      39.626  33.027  35.688  1.00  0.00     0.037 A 
ATOM     59  C   UNL A   1      41.223  28.578  31.192  1.00  0.00     0.049 A 
ATOM     60  C   UNL A   1      40.666  31.943  35.634  1.00  0.00     0.074 A 
ATOM     61  C   UNL A   1      42.269  27.672  31.226  1.00  0.00     0.029 A 
ATOM     62  N   UNL A   1      41.263  29.279  32.388  1.00  0.00    -0.354 N 
ATOM     63  N   UNL A   1      40.931  31.099  34.667  1.00  0.00    -0.248 NA
ATOM     64  C   UNL A   1      41.523  31.787  36.818  1.00  0.00     0.031 C 
ATOM     65  C   UNL A   1      42.913  27.792  32.462  1.00  0.00     0.029 A 
ATOM     66  C   UNL A   1      42.297  28.805  33.180  1.00  0.00     0.049 A 
ATOM     67  H   UNL A   1      40.647  30.005  32.638  1.00  0.00     0.167 HD
ATOM     68  C   UNL A   1      41.993  30.326  35.115  1.00  0.00     0.074 A 
ATOM     69  C   UNL A   1      42.338  30.815  36.434  1.00  0.00     0.031 C 
ATOM     70  C   UNL A   1      42.625  29.303  34.491  1.00  0.00     0.037 A 
BRANCH  57  71
ATOM     71  C   UNL A   1      40.284  27.876  28.961  1.00  0.00     0.064 A 
ATOM     72  C   UNL A   1      41.029  28.185  27.813  1.00  0.00     0.173 A 
ATOM     73  C   UNL A   1      39.604  26.649  28.993  1.00  0.00     0.173 A 
ATOM     74  F   UNL A   1      41.689  29.350  27.729  1.00  0.00    -0.203 F 
ATOM     75  C   UNL A   1      41.072  27.310  26.731  1.00  0.00     0.198 A 
ATOM     76  C   UNL A   1      39.672  25.764  27.920  1.00  0.00     0.198 A 
ATOM     77  F   UNL A   1      38.883  26.303  30.069  1.00  0.00    -0.203 F 
ATOM     78  F   UNL A   1      41.758  27.644  25.628  1.00  0.00    -0.200 F 
ATOM     79  C   UNL A   1      40.401  26.097  26.788  1.00  0.00     0.200 A 
ATOM     80  F   UNL A   1      39.033  24.588  27.982  1.00  0.00    -0.200 F 
ATOM     81  F   UNL A   1      40.453  25.251  25.751  1.00  0.00    -0.200 F 
ENDBRANCH  57  71
BRANCH  58  82
ATOM     82  C   UNL A   1      39.473  33.879  36.895  1.00  0.00     0.064 A 
ATOM     83  C   UNL A   1      38.717  33.445  37.993  1.00  0.00     0.173 A 
ATOM     84  C   UNL A   1      40.074  35.143  36.975  1.00  0.00     0.173 A 
ATOM     85  F   UNL A   1      38.105  32.252  37.953  1.00  0.00    -0.203 F 
ATOM     86  C   UNL A   1      38.552  34.251  39.117  1.00  0.00     0.198 A 
ATOM     87  C   UNL A   1      39.931  35.937  38.111  1.00  0.00     0.198 A 
ATOM     88  F   UNL A   1      40.813  35.603  35.954  1.00  0.00    -0.203 F 
ATOM     89  F   UNL A   1      37.787  33.831  40.134  1.00  0.00    -0.200 F 
ATOM     90  C   UNL A   1      39.163  35.494  39.178  1.00  0.00     0.200 A 
ATOM     91  F   UNL A   1      40.536  37.131  38.171  1.00  0.00    -0.200 F 
ATOM     92  F   UNL A   1      39.007  36.268  40.260  1.00  0.00    -0.200 F 
ENDBRANCH  58  82
BRANCH  70  93
ATOM     93  C   UNL A   1      43.764  28.653  35.220  1.00  0.00     0.064 A 
ATOM     94  C   UNL A   1      45.084  29.099  35.061  1.00  0.00     0.173 A 
ATOM     95  C   UNL A   1      43.528  27.600  36.116  1.00  0.00     0.173 A 
ATOM     96  F   UNL A   1      45.362  30.091  34.203  1.00  0.00    -0.203 F 
ATOM     97  C   UNL A   1      46.129  28.498  35.757  1.00  0.00     0.198 A 
ATOM     98  C   UNL A   1      44.572  27.021  36.832  1.00  0.00     0.198 A 
ATOM     99  F   UNL A   1      42.282  27.142  36.308  1.00  0.00    -0.203 F 
ATOM    100  F   UNL A   1      47.389  28.911  35.556  1.00  0.00    -0.200 F 
ATOM    101  C   UNL A   1      45.872  27.466  36.647  1.00  0.00     0.200 A 
ATOM    102  F   UNL A   1      44.320  26.032  37.700  1.00  0.00    -0.200 F 
ATOM    103  F   UNL A   1      46.879  26.894  37.320  1.00  0.00    -0.200 F 
ENDBRANCH  70  93
ENDBRANCH  44  45
ENDBRANCH  36  39
ENDBRANCH  34  35
ENDBRANCH  33  34
ENDBRANCH  32  33
ENDBRANCH  31  32
ENDBRANCH  30  31
ENDBRANCH   1  30
TORSDOF 19
ENDMDL
MODEL 3
REMARK VINA RESULT:     -12.5      0.772      2.059
REMARK SMILES COCCNC(=O)c1cccc(NC(=O)[C@@H]2CCCC[C@H]2C(=O)NCCCCCCNC(=O)c2ccc(-c3c4nc(c(-c5c(F)c(F)c(F)c(F)c5F)c5ccc([nH]5)c(-c5c(F)c(F)c(F)c(F)c5F)c5nc(c(-c6c(F)c(F)c(F)c(F)c6F)c6ccc3[nH]6)C=C5)C=C4)cc2)c1
REMARK SMILES IDX 25 1 24 2 22 3 23 4 21 6 16 7 17 8 18 9 20 10 19 11 14 12
REMARK SMILES IDX 13 13 15 15 12 16 8 17 9 18 97 19 10 20 11 21 6 22 5 23 7 25
REMARK SMILES IDX 4 26 3 27 2 28 1 29 26 30 27 31 28 32 29 33 30 34 31 35
REMARK SMILES IDX 32 36 33 38 34 39 35 40 96 41 36 42 95 43 37 44 38 45 39 46
REMARK SMILES IDX 89 47 40 48 94 49 88 50 90 51 41 52 93 53 87 54 86 55 42 57
REMARK SMILES IDX 74 58 54 59 73 60 55 61 58 62 72 63 91 64 56 65 57 66 71 68
REMARK SMILES IDX 92 69 59 70 43 71 44 72 52 73 45 74 46 75 50 76 53 77 47 78
REMARK SMILES IDX 48 79 51 80 49 81 75 82 76 83 84 84 77 85 78 86 82 87 85 88
REMARK SMILES IDX 79 89 80 90 83 91 81 92 60 93 61 94 69 95 62 96 63 97 67 98
REMARK SMILES IDX 70 99 64 100 65 101 68 102 66 103
REMARK H PARENT 24 5 13 14 5 24 31 37 90 56 58 67
REMARK Flexibility Score: inf
ROOT
ATOM      1  C   UNL A   1      32.981  27.500  26.415  1.00  0.00     0.116 C 
ENDROOT
BRANCH   1   2
ATOM      2  N   UNL A   1      33.702  28.093  25.306  1.00  0.00    -0.356 N 
ATOM      3  C   UNL A   1      33.485  28.017  23.964  1.00  0.00     0.223 C 
ATOM      4  O   UNL A   1      34.269  28.609  23.219  1.00  0.00    -0.275 OA
ATOM      5  H   UNL A   1      34.476  28.641  25.566  1.00  0.00     0.163 HD
BRANCH   3   6
ATOM      6  C   UNL A   1      32.291  27.253  23.384  1.00  0.00     0.091 C 
ATOM      7  C   UNL A   1      32.456  25.734  23.586  1.00  0.00     0.091 C 
ATOM      8  C   UNL A   1      31.189  24.885  23.729  1.00  0.00     0.014 C 
ATOM      9  C   UNL A   1      30.040  25.601  24.428  1.00  0.00     0.001 C 
ATOM     10  C   UNL A   1      30.980  27.887  23.884  1.00  0.00     0.014 C 
ATOM     11  C   UNL A   1      29.759  26.979  23.853  1.00  0.00     0.001 C 
BRANCH   7  12
ATOM     12  C   UNL A   1      33.463  25.157  22.596  1.00  0.00     0.228 C 
ATOM     13  N   UNL A   1      34.472  24.294  22.871  1.00  0.00    -0.326 N 
ATOM     14  H   UNL A   1      34.952  24.030  22.053  1.00  0.00     0.169 HD
ATOM     15  O   UNL A   1      33.380  25.515  21.410  1.00  0.00    -0.274 OA
BRANCH  13  16
ATOM     16  C   UNL A   1      35.018  23.673  24.006  1.00  0.00     0.041 A 
ATOM     17  C   UNL A   1      34.615  22.109  25.826  1.00  0.00     0.041 A 
ATOM     18  C   UNL A   1      35.954  22.172  26.210  1.00  0.00     0.014 A 
ATOM     19  C   UNL A   1      34.143  22.892  24.765  1.00  0.00     0.040 A 
ATOM     20  C   UNL A   1      36.817  23.002  25.509  1.00  0.00     0.003 A 
ATOM     21  C   UNL A   1      36.342  23.743  24.422  1.00  0.00     0.026 A 
BRANCH  17  22
ATOM     22  C   UNL A   1      33.692  21.271  26.617  1.00  0.00     0.251 C 
ATOM     23  N   UNL A   1      33.131  20.147  26.073  1.00  0.00    -0.350 N 
ATOM     24  H   UNL A   1      32.323  19.824  26.533  1.00  0.00     0.163 HD
ATOM     25  O   UNL A   1      33.421  21.595  27.769  1.00  0.00    -0.269 OA
BRANCH  23  26
ATOM     26  C   UNL A   1      33.538  19.350  24.920  1.00  0.00     0.144 C 
BRANCH  26  27
ATOM     27  C   UNL A   1      32.578  18.190  24.623  1.00  0.00     0.181 C 
BRANCH  27  28
ATOM     28  O   UNL A   1      33.244  17.030  24.119  1.00  0.00    -0.383 OA
ATOM     29  C   UNL A   1      34.593  16.908  24.546  1.00  0.00     0.194 C 
ENDBRANCH  27  28
ENDBRANCH  26  27
ENDBRANCH  23  26
ENDBRANCH  17  22
ENDBRANCH  13  16
ENDBRANCH   7  12
ENDBRANCH   3   6
ENDBRANCH   1   2
BRANCH   1  30
ATOM     30  C   UNL A   1      32.354  28.565  27.308  1.00  0.00     0.021 C 
BRANCH  30  31
ATOM     31  C   UNL A   1      32.705  30.000  26.907  1.00  0.00     0.002 C 
BRANCH  31  32
ATOM     32  C   UNL A   1      31.596  30.755  26.168  1.00  0.00     0.002 C 
BRANCH  32  33
ATOM     33  C   UNL A   1      31.406  32.213  26.594  1.00  0.00     0.021 C 
BRANCH  33  34
ATOM     34  C   UNL A   1      32.590  32.818  27.340  1.00  0.00     0.116 C 
BRANCH  34  35
ATOM     35  N   UNL A   1      32.374  34.218  27.662  1.00  0.00    -0.352 N 
ATOM     36  C   UNL A   1      32.989  34.995  28.612  1.00  0.00     0.251 C 
ATOM     37  H   UNL A   1      31.690  34.676  27.122  1.00  0.00     0.163 HD
ATOM     38  O   UNL A   1      32.558  36.109  28.880  1.00  0.00    -0.269 OA
BRANCH  36  39
ATOM     39  C   UNL A   1      34.167  34.469  29.331  1.00  0.00     0.039 A 
ATOM     40  C   UNL A   1      33.979  33.854  30.571  1.00  0.00     0.014 A 
ATOM     41  C   UNL A   1      35.450  34.581  28.785  1.00  0.00     0.014 A 
ATOM     42  C   UNL A   1      35.071  33.297  31.238  1.00  0.00     0.010 A 
ATOM     43  C   UNL A   1      36.527  33.971  29.420  1.00  0.00     0.010 A 
ATOM     44  C   UNL A   1      36.347  33.323  30.653  1.00  0.00    -0.014 A 
BRANCH  44  45
ATOM     45  C   UNL A   1      37.502  32.661  31.307  1.00  0.00     0.031 A 
ATOM     46  C   UNL A   1      38.178  31.493  30.650  1.00  0.00     0.074 A 
ATOM     47  C   UNL A   1      37.892  33.071  32.530  1.00  0.00     0.049 A 
ATOM     48  N   UNL A   1      39.154  30.744  31.096  1.00  0.00    -0.248 NA
ATOM     49  C   UNL A   1      37.674  31.096  29.325  1.00  0.00     0.031 C 
ATOM     50  C   UNL A   1      37.277  34.158  33.292  1.00  0.00     0.029 A 
ATOM     51  N   UNL A   1      38.890  32.611  33.352  1.00  0.00    -0.354 N 
ATOM     52  C   UNL A   1      39.369  29.781  30.119  1.00  0.00     0.074 A 
ATOM     53  C   UNL A   1      38.394  30.013  29.075  1.00  0.00     0.031 C 
ATOM     54  C   UNL A   1      37.916  34.289  34.466  1.00  0.00     0.029 A 
ATOM     55  C   UNL A   1      38.963  33.275  34.553  1.00  0.00     0.049 A 
ATOM     56  H   UNL A   1      39.495  31.875  33.106  1.00  0.00     0.167 HD
ATOM     57  C   UNL A   1      40.308  28.806  30.090  1.00  0.00     0.037 A 
ATOM     58  C   UNL A   1      39.777  33.081  35.607  1.00  0.00     0.037 A 
ATOM     59  C   UNL A   1      41.296  28.602  31.115  1.00  0.00     0.049 A 
ATOM     60  C   UNL A   1      40.818  31.999  35.542  1.00  0.00     0.074 A 
ATOM     61  C   UNL A   1      42.343  27.698  31.135  1.00  0.00     0.029 A 
ATOM     62  N   UNL A   1      41.357  29.311  32.305  1.00  0.00    -0.354 N 
ATOM     63  N   UNL A   1      41.066  31.148  34.576  1.00  0.00    -0.248 NA
ATOM     64  C   UNL A   1      41.698  31.853  36.710  1.00  0.00     0.031 C 
ATOM     65  C   UNL A   1      43.011  27.828  32.358  1.00  0.00     0.029 A 
ATOM     66  C   UNL A   1      42.407  28.846  33.080  1.00  0.00     0.049 A 
ATOM     67  H   UNL A   1      40.745  30.038  32.561  1.00  0.00     0.167 HD
ATOM     68  C   UNL A   1      42.138  30.380  35.009  1.00  0.00     0.074 A 
ATOM     69  C   UNL A   1      42.507  30.880  36.317  1.00  0.00     0.031 C 
ATOM     70  C   UNL A   1      42.759  29.353  34.381  1.00  0.00     0.037 A 
BRANCH  57  71
ATOM     71  C   UNL A   1      40.316  27.881  28.907  1.00  0.00     0.064 A 
ATOM     72  C   UNL A   1      41.055  28.172  27.751  1.00  0.00     0.173 A 
ATOM     73  C   UNL A   1      39.620  26.664  28.954  1.00  0.00     0.173 A 
ATOM     74  F   UNL A   1      41.729  29.328  27.654  1.00  0.00    -0.203 F 
ATOM     75  C   UNL A   1      41.079  27.289  26.676  1.00  0.00     0.198 A 
ATOM     76  C   UNL A   1      39.668  25.770  27.887  1.00  0.00     0.198 A 
ATOM     77  F   UNL A   1      38.903  26.335  30.038  1.00  0.00    -0.203 F 
ATOM     78  F   UNL A   1      41.760  27.606  25.565  1.00  0.00    -0.200 F 
ATOM     79  C   UNL A   1      40.393  26.086  26.747  1.00  0.00     0.200 A 
ATOM     80  F   UNL A   1      39.014  24.603  27.962  1.00  0.00    -0.200 F 
ATOM     81  F   UNL A   1      40.426  25.231  25.715  1.00  0.00    -0.200 F 
ENDBRANCH  57  71
BRANCH  58  82
ATOM     82  C   UNL A   1      39.645  33.942  36.811  1.00  0.00     0.064 A 
ATOM     83  C   UNL A   1      38.856  33.545  37.899  1.00  0.00     0.173 A 
ATOM     84  C   UNL A   1      40.301  35.178  36.896  1.00  0.00     0.173 A 
ATOM     85  F   UNL A   1      38.194  32.379  37.853  1.00  0.00    -0.203 F 
ATOM     86  C   UNL A   1      38.712  34.359  39.019  1.00  0.00     0.198 A 
ATOM     87  C   UNL A   1      40.178  35.981  38.030  1.00  0.00     0.198 A 
ATOM     88  F   UNL A   1      41.073  35.603  35.885  1.00  0.00    -0.203 F 
ATOM     89  F   UNL A   1      37.916  33.975  40.027  1.00  0.00    -0.200 F 
ATOM     90  C   UNL A   1      39.377  35.574  39.086  1.00  0.00     0.200 A 
ATOM     91  F   UNL A   1      40.833  37.147  38.095  1.00  0.00    -0.200 F 
ATOM     92  F   UNL A   1      39.241  36.357  40.165  1.00  0.00    -0.200 F 
ENDBRANCH  58  82
BRANCH  70  93
ATOM     93  C   UNL A   1      43.913  28.711  35.093  1.00  0.00     0.064 A 
ATOM     94  C   UNL A   1      43.728  27.616  35.949  1.00  0.00     0.173 A 
ATOM     95  C   UNL A   1      45.222  29.172  34.886  1.00  0.00     0.173 A 
ATOM     96  F   UNL A   1      42.494  27.150  36.191  1.00  0.00    -0.203 F 
ATOM     97  C   UNL A   1      44.810  27.019  36.590  1.00  0.00     0.198 A 
ATOM     98  C   UNL A   1      46.305  28.554  35.507  1.00  0.00     0.198 A 
ATOM     99  F   UNL A   1      45.452  30.213  34.072  1.00  0.00    -0.203 F 
ATOM    100  F   UNL A   1      44.605  26.002  37.438  1.00  0.00    -0.200 F 
ATOM    101  C   UNL A   1      46.097  27.483  36.363  1.00  0.00     0.200 A 
ATOM    102  F   UNL A   1      47.548  28.996  35.277  1.00  0.00    -0.200 F 
ATOM    103  F   UNL A   1      47.137  26.903  36.975  1.00  0.00    -0.200 F 
ENDBRANCH  70  93
ENDBRANCH  44  45
ENDBRANCH  36  39
ENDBRANCH  34  35
ENDBRANCH  33  34
ENDBRANCH  32  33
ENDBRANCH  31  32
ENDBRANCH  30  31
ENDBRANCH   1  30
TORSDOF 19
ENDMDL
