MODEL 1
REMARK VINA RESULT:     -14.4      0.000      0.000
REMARK SMILES Cc1ccccc1-c1c(Cl)ccc2c1C=C(C(=O)NCCCCCCNC(=O)c1ccc(-c3c4nc(c(-c5c(F)c(F)c(F)c(F)c5F)c5ccc([nH]5)c(-c5c(F)c(F)c(F)c(F)c5F)c5nc(c(-c6c(F)c(F)c(F)c(F)c6F)c6ccc3[nH]6)C=C5)C=C4)cc1)[C@@H](C(F)(F)F)O2
REMARK SMILES IDX 23 1 22 2 21 3 20 4 19 5 17 6 18 7 16 9 8 10 9 11 14 12
REMARK SMILES IDX 10 13 11 14 13 15 15 16 12 17 97 18 92 19 7 20 1 21 2 22
REMARK SMILES IDX 3 23 4 24 6 25 5 26 93 27 94 28 95 29 96 30 24 31 25 32
REMARK SMILES IDX 26 33 27 34 28 36 29 37 30 38 91 39 31 40 90 41 32 42 33 43
REMARK SMILES IDX 34 44 84 45 35 46 89 47 83 48 85 49 36 50 88 51 82 52 81 53
REMARK SMILES IDX 37 55 69 56 49 57 68 58 50 59 53 60 67 61 86 62 51 63 52 64
REMARK SMILES IDX 66 66 87 67 54 68 38 69 39 70 47 71 40 72 41 73 45 74 48 75
REMARK SMILES IDX 42 76 43 77 46 78 44 79 70 80 71 81 79 82 72 83 73 84 77 85
REMARK SMILES IDX 80 86 74 87 75 88 78 89 76 90 55 91 56 92 64 93 57 94 58 95
REMARK SMILES IDX 62 96 65 97 59 98 60 99 63 100 61 101
REMARK H PARENT 19 8 26 35 85 54 53 65
REMARK Flexibility Score: inf
ROOT
ATOM      1  C   UNL A   1      34.353  32.492  28.733  1.00  0.00     0.002 C 
ENDROOT
BRANCH   1   2
ATOM      2  C   UNL A   1      34.068  31.397  27.692  1.00  0.00     0.002 C 
BRANCH   2   3
ATOM      3  C   UNL A   1      35.167  30.357  27.425  1.00  0.00     0.021 C 
BRANCH   3   4
ATOM      4  C   UNL A   1      34.706  28.920  27.180  1.00  0.00     0.116 C 
BRANCH   4   5
ATOM      5  N   UNL A   1      33.411  28.641  27.750  1.00  0.00    -0.352 N 
ATOM      6  C   UNL A   1      32.355  27.944  27.259  1.00  0.00     0.251 C 
ATOM      7  O   UNL A   1      31.363  27.843  27.979  1.00  0.00    -0.270 OA
ATOM      8  H   UNL A   1      33.268  29.022  28.646  1.00  0.00     0.163 HD
BRANCH   6   9
ATOM      9  C   UNL A   1      32.367  27.359  25.867  1.00  0.00     0.067 C 
ATOM     10  C   UNL A   1      33.135  23.702  25.779  1.00  0.00     0.012 A 
ATOM     11  C   UNL A   1      32.415  22.550  26.191  1.00  0.00     0.049 A 
ATOM     12  C   UNL A   1      32.441  24.941  25.798  1.00  0.00     0.027 A 
ATOM     13  Cl  UNL A   1      33.179  21.000  26.354  1.00  0.00    -0.084 Cl
ATOM     14  C   UNL A   1      31.052  22.605  26.496  1.00  0.00     0.025 A 
ATOM     15  C   UNL A   1      31.046  24.954  26.003  1.00  0.00     0.128 A 
ATOM     16  C   UNL A   1      33.128  26.254  25.716  1.00  0.00     0.026 C 
ATOM     17  C   UNL A   1      30.359  23.800  26.360  1.00  0.00     0.049 A 
ATOM     18  O   UNL A   1      30.266  26.077  25.874  1.00  0.00    -0.475 OA
ATOM     19  C   UNL A   1      30.931  27.255  25.360  1.00  0.00     0.314 C 
BRANCH  10  20
ATOM     20  C   UNL A   1      34.497  23.558  25.196  1.00  0.00    -0.013 A 
ATOM     21  C   UNL A   1      33.737  23.159  22.777  1.00  0.00     0.045 C 
ATOM     22  C   UNL A   1      34.785  23.321  23.838  1.00  0.00    -0.043 A 
ATOM     23  C   UNL A   1      36.128  23.197  23.422  1.00  0.00     0.004 A 
ATOM     24  C   UNL A   1      37.183  23.340  24.321  1.00  0.00     0.000 A 
ATOM     25  C   UNL A   1      35.590  23.687  26.086  1.00  0.00     0.009 A 
ATOM     26  C   UNL A   1      36.914  23.595  25.657  1.00  0.00     0.001 A 
ENDBRANCH  10  20
BRANCH  19  27
ATOM     27  C   UNL A   1      30.847  27.344  23.828  1.00  0.00     0.429 C 
ATOM     28  F   UNL A   1      29.778  28.075  23.433  1.00  0.00    -0.167 F 
ATOM     29  F   UNL A   1      31.946  27.954  23.318  1.00  0.00    -0.167 F 
ATOM     30  F   UNL A   1      30.754  26.135  23.229  1.00  0.00    -0.167 F 
ENDBRANCH  19  27
ENDBRANCH   6   9
ENDBRANCH   4   5
ENDBRANCH   3   4
ENDBRANCH   2   3
ENDBRANCH   1   2
BRANCH   1  31
ATOM     31  C   UNL A   1      33.799  33.891  28.451  1.00  0.00     0.021 C 
BRANCH  31  32
ATOM     32  C   UNL A   1      34.154  34.943  29.498  1.00  0.00     0.116 C 
BRANCH  32  33
ATOM     33  N   UNL A   1      33.113  35.191  30.491  1.00  0.00    -0.352 N 
ATOM     34  C   UNL A   1      33.133  34.910  31.850  1.00  0.00     0.251 C 
ATOM     35  H   UNL A   1      32.289  35.612  30.152  1.00  0.00     0.163 HD
ATOM     36  O   UNL A   1      32.195  35.213  32.570  1.00  0.00    -0.269 OA
BRANCH  34  37
ATOM     37  C   UNL A   1      34.371  34.341  32.433  1.00  0.00     0.039 A 
ATOM     38  C   UNL A   1      35.471  35.187  32.609  1.00  0.00     0.014 A 
ATOM     39  C   UNL A   1      34.512  32.964  32.568  1.00  0.00     0.014 A 
ATOM     40  C   UNL A   1      36.750  34.634  32.660  1.00  0.00     0.010 A 
ATOM     41  C   UNL A   1      35.782  32.418  32.519  1.00  0.00     0.010 A 
ATOM     42  C   UNL A   1      36.902  33.257  32.487  1.00  0.00    -0.014 A 
BRANCH  42  43
ATOM     43  C   UNL A   1      38.170  32.639  32.109  1.00  0.00     0.031 A 
ATOM     44  C   UNL A   1      38.225  31.340  31.407  1.00  0.00     0.074 A 
ATOM     45  C   UNL A   1      39.338  33.279  32.350  1.00  0.00     0.049 A 
ATOM     46  N   UNL A   1      39.230  30.531  31.495  1.00  0.00    -0.248 NA
ATOM     47  C   UNL A   1      37.147  30.838  30.563  1.00  0.00     0.031 C 
ATOM     48  C   UNL A   1      40.656  32.934  31.820  1.00  0.00     0.029 A 
ATOM     49  N   UNL A   1      39.601  34.273  33.306  1.00  0.00    -0.354 N 
ATOM     50  C   UNL A   1      39.063  29.562  30.543  1.00  0.00     0.074 A 
ATOM     51  C   UNL A   1      37.723  29.753  30.030  1.00  0.00     0.031 C 
ATOM     52  C   UNL A   1      41.595  33.433  32.634  1.00  0.00     0.029 A 
ATOM     53  C   UNL A   1      40.917  34.020  33.772  1.00  0.00     0.049 A 
ATOM     54  H   UNL A   1      38.997  34.995  33.594  1.00  0.00     0.167 HD
ATOM     55  C   UNL A   1      40.105  28.763  30.185  1.00  0.00     0.037 A 
ATOM     56  C   UNL A   1      41.169  33.744  35.084  1.00  0.00     0.037 A 
ATOM     57  C   UNL A   1      41.334  29.059  30.910  1.00  0.00     0.049 A 
ATOM     58  C   UNL A   1      41.803  32.394  35.340  1.00  0.00     0.074 A 
ATOM     59  C   UNL A   1      42.490  29.760  30.611  1.00  0.00     0.029 A 
ATOM     60  N   UNL A   1      41.374  28.830  32.273  1.00  0.00    -0.354 N 
ATOM     61  N   UNL A   1      42.092  31.528  34.411  1.00  0.00    -0.248 NA
ATOM     62  C   UNL A   1      42.049  31.868  36.685  1.00  0.00     0.031 C 
ATOM     63  C   UNL A   1      43.240  29.924  31.809  1.00  0.00     0.029 A 
ATOM     64  C   UNL A   1      42.533  29.329  32.836  1.00  0.00     0.049 A 
ATOM     65  H   UNL A   1      40.665  28.372  32.780  1.00  0.00     0.167 HD
ATOM     66  C   UNL A   1      42.466  30.347  34.995  1.00  0.00     0.074 A 
ATOM     67  C   UNL A   1      42.432  30.608  36.420  1.00  0.00     0.031 C 
ATOM     68  C   UNL A   1      42.723  29.220  34.270  1.00  0.00     0.037 A 
BRANCH  55  69
ATOM     69  C   UNL A   1      40.022  27.853  28.995  1.00  0.00     0.064 A 
ATOM     70  C   UNL A   1      39.389  26.597  29.072  1.00  0.00     0.173 A 
ATOM     71  C   UNL A   1      40.596  28.172  27.751  1.00  0.00     0.173 A 
ATOM     72  F   UNL A   1      38.758  26.199  30.183  1.00  0.00    -0.203 F 
ATOM     73  C   UNL A   1      39.415  25.690  28.012  1.00  0.00     0.198 A 
ATOM     74  C   UNL A   1      40.668  27.244  26.710  1.00  0.00     0.198 A 
ATOM     75  F   UNL A   1      41.106  29.393  27.525  1.00  0.00    -0.203 F 
ATOM     76  F   UNL A   1      38.806  24.502  28.140  1.00  0.00    -0.200 F 
ATOM     77  C   UNL A   1      40.083  26.000  26.844  1.00  0.00     0.200 A 
ATOM     78  F   UNL A   1      41.324  27.557  25.583  1.00  0.00    -0.200 F 
ATOM     79  F   UNL A   1      40.162  25.103  25.851  1.00  0.00    -0.200 F 
ENDBRANCH  55  69
BRANCH  56  80
ATOM     80  C   UNL A   1      40.215  34.429  35.994  1.00  0.00     0.064 A 
ATOM     81  C   UNL A   1      39.158  33.667  36.532  1.00  0.00     0.173 A 
ATOM     82  C   UNL A   1      40.560  35.618  36.644  1.00  0.00     0.173 A 
ATOM     83  F   UNL A   1      38.790  32.519  35.941  1.00  0.00    -0.203 F 
ATOM     84  C   UNL A   1      38.584  34.000  37.755  1.00  0.00     0.198 A 
ATOM     85  C   UNL A   1      39.960  35.962  37.853  1.00  0.00     0.198 A 
ATOM     86  F   UNL A   1      41.564  36.379  36.184  1.00  0.00    -0.203 F 
ATOM     87  F   UNL A   1      37.691  33.174  38.319  1.00  0.00    -0.200 F 
ATOM     88  C   UNL A   1      39.010  35.130  38.430  1.00  0.00     0.200 A 
ATOM     89  F   UNL A   1      40.384  37.047  38.517  1.00  0.00    -0.200 F 
ATOM     90  F   UNL A   1      38.544  35.393  39.658  1.00  0.00    -0.200 F 
ENDBRANCH  56  80
BRANCH  68  91
ATOM     91  C   UNL A   1      43.169  27.919  34.872  1.00  0.00     0.064 A 
ATOM     92  C   UNL A   1      44.494  27.692  35.277  1.00  0.00     0.173 A 
ATOM     93  C   UNL A   1      42.299  26.809  34.947  1.00  0.00     0.173 A 
ATOM     94  F   UNL A   1      45.418  28.657  35.173  1.00  0.00    -0.203 F 
ATOM     95  C   UNL A   1      44.906  26.455  35.778  1.00  0.00     0.198 A 
ATOM     96  C   UNL A   1      42.726  25.562  35.399  1.00  0.00     0.198 A 
ATOM     97  F   UNL A   1      41.007  26.910  34.605  1.00  0.00    -0.203 F 
ATOM     98  F   UNL A   1      46.167  26.296  36.203  1.00  0.00    -0.200 F 
ATOM     99  C   UNL A   1      44.026  25.389  35.828  1.00  0.00     0.200 A 
ATOM    100  F   UNL A   1      41.867  24.533  35.418  1.00  0.00    -0.200 F 
ATOM    101  F   UNL A   1      44.429  24.197  36.289  1.00  0.00    -0.200 F 
ENDBRANCH  68  91
ENDBRANCH  42  43
ENDBRANCH  34  37
ENDBRANCH  32  33
ENDBRANCH  31  32
ENDBRANCH   1  31
TORSDOF 15
ENDMDL
MODEL 2
REMARK VINA RESULT:     -14.3      5.484     10.735
REMARK SMILES Cc1ccccc1-c1c(Cl)ccc2c1C=C(C(=O)NCCCCCCNC(=O)c1ccc(-c3c4nc(c(-c5c(F)c(F)c(F)c(F)c5F)c5ccc([nH]5)c(-c5c(F)c(F)c(F)c(F)c5F)c5nc(c(-c6c(F)c(F)c(F)c(F)c6F)c6ccc3[nH]6)C=C5)C=C4)cc1)[C@@H](C(F)(F)F)O2
REMARK SMILES IDX 23 1 22 2 21 3 20 4 19 5 17 6 18 7 16 9 8 10 9 11 14 12
REMARK SMILES IDX 10 13 11 14 13 15 15 16 12 17 97 18 92 19 7 20 1 21 2 22
REMARK SMILES IDX 3 23 4 24 6 25 5 26 93 27 94 28 95 29 96 30 24 31 25 32
REMARK SMILES IDX 26 33 27 34 28 36 29 37 30 38 91 39 31 40 90 41 32 42 33 43
REMARK SMILES IDX 34 44 84 45 35 46 89 47 83 48 85 49 36 50 88 51 82 52 81 53
REMARK SMILES IDX 37 55 69 56 49 57 68 58 50 59 53 60 67 61 86 62 51 63 52 64
REMARK SMILES IDX 66 66 87 67 54 68 38 69 39 70 47 71 40 72 41 73 45 74 48 75
REMARK SMILES IDX 42 76 43 77 46 78 44 79 70 80 71 81 79 82 72 83 73 84 77 85
REMARK SMILES IDX 80 86 74 87 75 88 78 89 76 90 55 91 56 92 64 93 57 94 58 95
REMARK SMILES IDX 62 96 65 97 59 98 60 99 63 100 61 101
REMARK H PARENT 19 8 26 35 85 54 53 65
REMARK Flexibility Score: inf
ROOT
ATOM      1  C   UNL A   1      40.302  21.896  26.924  1.00  0.00     0.002 C 
ENDROOT
BRANCH   1   2
ATOM      2  C   UNL A   1      39.533  23.193  27.223  1.00  0.00     0.002 C 
BRANCH   2   3
ATOM      3  C   UNL A   1      38.435  23.621  26.237  1.00  0.00     0.021 C 
BRANCH   3   4
ATOM      4  C   UNL A   1      37.703  22.502  25.498  1.00  0.00     0.116 C 
BRANCH   4   5
ATOM      5  N   UNL A   1      36.995  22.968  24.331  1.00  0.00    -0.352 N 
ATOM      6  C   UNL A   1      35.767  23.531  24.201  1.00  0.00     0.251 C 
ATOM      7  O   UNL A   1      35.414  23.859  23.069  1.00  0.00    -0.270 OA
ATOM      8  H   UNL A   1      37.486  22.859  23.484  1.00  0.00     0.163 HD
BRANCH   6   9
ATOM      9  C   UNL A   1      34.842  23.700  25.383  1.00  0.00     0.067 C 
ATOM     10  C   UNL A   1      31.951  25.973  24.714  1.00  0.00     0.012 A 
ATOM     11  C   UNL A   1      30.793  25.856  23.903  1.00  0.00     0.049 A 
ATOM     12  C   UNL A   1      32.755  24.813  24.868  1.00  0.00     0.027 A 
ATOM     13  Cl  UNL A   1      29.802  27.227  23.512  1.00  0.00    -0.084 Cl
ATOM     14  C   UNL A   1      30.393  24.628  23.365  1.00  0.00     0.025 A 
ATOM     15  C   UNL A   1      32.276  23.568  24.410  1.00  0.00     0.128 A 
ATOM     16  C   UNL A   1      34.140  24.854  25.400  1.00  0.00     0.026 C 
ATOM     17  C   UNL A   1      31.113  23.478  23.655  1.00  0.00     0.049 A 
ATOM     18  O   UNL A   1      32.901  22.371  24.659  1.00  0.00    -0.475 OA
ATOM     19  C   UNL A   1      34.029  22.421  25.564  1.00  0.00     0.314 C 
BRANCH  10  20
ATOM     20  C   UNL A   1      32.189  27.219  25.493  1.00  0.00    -0.013 A 
ATOM     21  C   UNL A   1      33.725  28.349  23.776  1.00  0.00     0.045 C 
ATOM     22  C   UNL A   1      32.982  28.306  25.078  1.00  0.00    -0.043 A 
ATOM     23  C   UNL A   1      33.129  29.426  25.925  1.00  0.00     0.004 A 
ATOM     24  C   UNL A   1      32.474  29.497  27.154  1.00  0.00     0.000 A 
ATOM     25  C   UNL A   1      31.547  27.318  26.752  1.00  0.00     0.009 A 
ATOM     26  C   UNL A   1      31.674  28.444  27.565  1.00  0.00     0.001 A 
ENDBRANCH  10  20
BRANCH  19  27
ATOM     27  C   UNL A   1      33.608  22.203  27.026  1.00  0.00     0.429 C 
ATOM     28  F   UNL A   1      33.669  20.894  27.369  1.00  0.00    -0.167 F 
ATOM     29  F   UNL A   1      34.434  22.867  27.873  1.00  0.00    -0.167 F 
ATOM     30  F   UNL A   1      32.350  22.629  27.287  1.00  0.00    -0.167 F 
ENDBRANCH  19  27
ENDBRANCH   6   9
ENDBRANCH   4   5
ENDBRANCH   3   4
ENDBRANCH   2   3
ENDBRANCH   1   2
BRANCH   1  31
ATOM     31  C   UNL A   1      41.543  22.003  26.035  1.00  0.00     0.021 C 
BRANCH  31  32
ATOM     32  C   UNL A   1      42.637  20.984  26.338  1.00  0.00     0.116 C 
BRANCH  32  33
ATOM     33  N   UNL A   1      43.370  20.509  25.168  1.00  0.00    -0.352 N 
ATOM     34  C   UNL A   1      44.410  21.131  24.491  1.00  0.00     0.251 C 
ATOM     35  H   UNL A   1      43.091  19.634  24.813  1.00  0.00     0.163 HD
ATOM     36  O   UNL A   1      44.958  20.591  23.544  1.00  0.00    -0.269 OA
BRANCH  34  37
ATOM     37  C   UNL A   1      44.924  22.417  25.019  1.00  0.00     0.039 A 
ATOM     38  C   UNL A   1      45.670  22.398  26.202  1.00  0.00     0.014 A 
ATOM     39  C   UNL A   1      44.471  23.622  24.490  1.00  0.00     0.014 A 
ATOM     40  C   UNL A   1      45.732  23.552  26.983  1.00  0.00     0.010 A 
ATOM     41  C   UNL A   1      44.447  24.738  25.306  1.00  0.00     0.010 A 
ATOM     42  C   UNL A   1      45.011  24.680  26.585  1.00  0.00    -0.014 A 
BRANCH  42  43
ATOM     43  C   UNL A   1      44.667  25.765  27.501  1.00  0.00     0.031 A 
ATOM     44  C   UNL A   1      43.313  26.355  27.535  1.00  0.00     0.074 A 
ATOM     45  C   UNL A   1      45.580  26.224  28.388  1.00  0.00     0.049 A 
ATOM     46  N   UNL A   1      43.082  27.571  27.909  1.00  0.00    -0.248 NA
ATOM     47  C   UNL A   1      42.112  25.631  27.136  1.00  0.00     0.031 C 
ATOM     48  C   UNL A   1      45.336  27.107  29.527  1.00  0.00     0.029 A 
ATOM     49  N   UNL A   1      46.980  26.139  28.314  1.00  0.00    -0.354 N 
ATOM     50  C   UNL A   1      41.727  27.705  28.056  1.00  0.00     0.074 A 
ATOM     51  C   UNL A   1      41.158  26.495  27.502  1.00  0.00     0.031 C 
ATOM     52  C   UNL A   1      46.478  27.730  29.847  1.00  0.00     0.029 A 
ATOM     53  C   UNL A   1      47.469  27.353  28.859  1.00  0.00     0.049 A 
ATOM     54  H   UNL A   1      47.512  25.391  27.957  1.00  0.00     0.167 HD
ATOM     55  C   UNL A   1      41.211  28.765  28.738  1.00  0.00     0.037 A 
ATOM     56  C   UNL A   1      48.229  28.213  28.121  1.00  0.00     0.037 A 
ATOM     57  C   UNL A   1      42.230  29.673  29.248  1.00  0.00     0.049 A 
ATOM     58  C   UNL A   1      47.640  29.594  27.945  1.00  0.00     0.074 A 
ATOM     59  C   UNL A   1      42.819  29.873  30.486  1.00  0.00     0.029 A 
ATOM     60  N   UNL A   1      43.002  30.381  28.345  1.00  0.00    -0.354 N 
ATOM     61  N   UNL A   1      46.493  29.974  28.433  1.00  0.00    -0.248 NA
ATOM     62  C   UNL A   1      48.249  30.621  27.097  1.00  0.00     0.031 C 
ATOM     63  C   UNL A   1      43.938  30.734  30.318  1.00  0.00     0.029 A 
ATOM     64  C   UNL A   1      44.032  31.051  28.977  1.00  0.00     0.049 A 
ATOM     65  H   UNL A   1      42.839  30.404  27.374  1.00  0.00     0.167 HD
ATOM     66  C   UNL A   1      46.171  31.205  27.927  1.00  0.00     0.074 A 
ATOM     67  C   UNL A   1      47.303  31.576  27.101  1.00  0.00     0.031 C 
ATOM     68  C   UNL A   1      44.975  31.810  28.176  1.00  0.00     0.037 A 
BRANCH  55  69
ATOM     69  C   UNL A   1      39.760  28.823  29.113  1.00  0.00     0.064 A 
ATOM     70  C   UNL A   1      38.783  29.275  28.206  1.00  0.00     0.173 A 
ATOM     71  C   UNL A   1      39.290  28.472  30.392  1.00  0.00     0.173 A 
ATOM     72  F   UNL A   1      39.094  29.587  26.942  1.00  0.00    -0.203 F 
ATOM     73  C   UNL A   1      37.451  29.453  28.581  1.00  0.00     0.198 A 
ATOM     74  C   UNL A   1      37.969  28.702  30.783  1.00  0.00     0.198 A 
ATOM     75  F   UNL A   1      40.108  27.905  31.292  1.00  0.00    -0.203 F 
ATOM     76  F   UNL A   1      36.561  29.897  27.681  1.00  0.00    -0.200 F 
ATOM     77  C   UNL A   1      37.051  29.200  29.878  1.00  0.00     0.200 A 
ATOM     78  F   UNL A   1      37.595  28.455  32.047  1.00  0.00    -0.200 F 
ATOM     79  F   UNL A   1      35.786  29.433  30.254  1.00  0.00    -0.200 F 
ENDBRANCH  55  69
BRANCH  56  80
ATOM     80  C   UNL A   1      49.062  27.502  27.117  1.00  0.00     0.064 A 
ATOM     81  C   UNL A   1      48.572  27.417  25.798  1.00  0.00     0.173 A 
ATOM     82  C   UNL A   1      50.432  27.308  27.317  1.00  0.00     0.173 A 
ATOM     83  F   UNL A   1      47.262  27.593  25.557  1.00  0.00    -0.203 F 
ATOM     84  C   UNL A   1      49.438  27.306  24.716  1.00  0.00     0.198 A 
ATOM     85  C   UNL A   1      51.293  27.166  26.230  1.00  0.00     0.198 A 
ATOM     86  F   UNL A   1      50.958  27.387  28.548  1.00  0.00    -0.203 F 
ATOM     87  F   UNL A   1      48.958  27.385  23.466  1.00  0.00    -0.200 F 
ATOM     88  C   UNL A   1      50.801  27.213  24.933  1.00  0.00     0.200 A 
ATOM     89  F   UNL A   1      52.615  27.095  26.438  1.00  0.00    -0.200 F 
ATOM     90  F   UNL A   1      51.648  27.221  23.894  1.00  0.00    -0.200 F 
ENDBRANCH  56  80
BRANCH  68  91
ATOM     91  C   UNL A   1      44.601  33.172  27.668  1.00  0.00     0.064 A 
ATOM     92  C   UNL A   1      44.706  34.326  28.461  1.00  0.00     0.173 A 
ATOM     93  C   UNL A   1      44.005  33.345  26.399  1.00  0.00     0.173 A 
ATOM     94  F   UNL A   1      45.187  34.258  29.711  1.00  0.00    -0.203 F 
ATOM     95  C   UNL A   1      44.297  35.577  27.995  1.00  0.00     0.198 A 
ATOM     96  C   UNL A   1      43.550  34.585  25.957  1.00  0.00     0.198 A 
ATOM     97  F   UNL A   1      43.867  32.319  25.547  1.00  0.00    -0.203 F 
ATOM     98  F   UNL A   1      44.464  36.662  28.764  1.00  0.00    -0.200 F 
ATOM     99  C   UNL A   1      43.709  35.704  26.748  1.00  0.00     0.200 A 
ATOM    100  F   UNL A   1      42.961  34.687  24.757  1.00  0.00    -0.200 F 
ATOM    101  F   UNL A   1      43.298  36.902  26.311  1.00  0.00    -0.200 F 
ENDBRANCH  68  91
ENDBRANCH  42  43
ENDBRANCH  34  37
ENDBRANCH  32  33
ENDBRANCH  31  32
ENDBRANCH   1  31
TORSDOF 15
ENDMDL
MODEL 3
REMARK VINA RESULT:     -14.0      4.305      9.617
REMARK SMILES Cc1ccccc1-c1c(Cl)ccc2c1C=C(C(=O)NCCCCCCNC(=O)c1ccc(-c3c4nc(c(-c5c(F)c(F)c(F)c(F)c5F)c5ccc([nH]5)c(-c5c(F)c(F)c(F)c(F)c5F)c5nc(c(-c6c(F)c(F)c(F)c(F)c6F)c6ccc3[nH]6)C=C5)C=C4)cc1)[C@@H](C(F)(F)F)O2
REMARK SMILES IDX 23 1 22 2 21 3 20 4 19 5 17 6 18 7 16 9 8 10 9 11 14 12
REMARK SMILES IDX 10 13 11 14 13 15 15 16 12 17 97 18 92 19 7 20 1 21 2 22
REMARK SMILES IDX 3 23 4 24 6 25 5 26 93 27 94 28 95 29 96 30 24 31 25 32
REMARK SMILES IDX 26 33 27 34 28 36 29 37 30 38 91 39 31 40 90 41 32 42 33 43
REMARK SMILES IDX 34 44 84 45 35 46 89 47 83 48 85 49 36 50 88 51 82 52 81 53
REMARK SMILES IDX 37 55 69 56 49 57 68 58 50 59 53 60 67 61 86 62 51 63 52 64
REMARK SMILES IDX 66 66 87 67 54 68 38 69 39 70 47 71 40 72 41 73 45 74 48 75
REMARK SMILES IDX 42 76 43 77 46 78 44 79 70 80 71 81 79 82 72 83 73 84 77 85
REMARK SMILES IDX 80 86 74 87 75 88 78 89 76 90 55 91 56 92 64 93 57 94 58 95
REMARK SMILES IDX 62 96 65 97 59 98 60 99 63 100 61 101
REMARK H PARENT 19 8 26 35 85 54 53 65
REMARK Flexibility Score: inf
ROOT
ATOM      1  C   UNL A   1      40.559  21.330  26.555  1.00  0.00     0.002 C 
ENDROOT
BRANCH   1   2
ATOM      2  C   UNL A   1      39.200  21.877  26.090  1.00  0.00     0.002 C 
BRANCH   2   3
ATOM      3  C   UNL A   1      38.708  23.196  26.704  1.00  0.00     0.021 C 
BRANCH   3   4
ATOM      4  C   UNL A   1      37.490  23.847  26.047  1.00  0.00     0.116 C 
BRANCH   4   5
ATOM      5  N   UNL A   1      37.377  23.536  24.643  1.00  0.00    -0.352 N 
ATOM      6  C   UNL A   1      36.286  23.332  23.863  1.00  0.00     0.251 C 
ATOM      7  O   UNL A   1      36.481  23.099  22.671  1.00  0.00    -0.270 OA
ATOM      8  H   UNL A   1      38.237  23.458  24.171  1.00  0.00     0.163 HD
BRANCH   6   9
ATOM      9  C   UNL A   1      34.888  23.332  24.435  1.00  0.00     0.067 C 
ATOM     10  C   UNL A   1      33.017  26.511  23.831  1.00  0.00     0.012 A 
ATOM     11  C   UNL A   1      32.474  27.109  22.665  1.00  0.00     0.049 A 
ATOM     12  C   UNL A   1      33.511  25.185  23.710  1.00  0.00     0.027 A 
ATOM     13  Cl  UNL A   1      31.969  28.770  22.634  1.00  0.00    -0.084 Cl
ATOM     14  C   UNL A   1      32.324  26.394  21.472  1.00  0.00     0.025 A 
ATOM     15  C   UNL A   1      33.250  24.450  22.534  1.00  0.00     0.128 A 
ATOM     16  C   UNL A   1      34.389  24.552  24.725  1.00  0.00     0.026 C 
ATOM     17  C   UNL A   1      32.674  25.052  21.422  1.00  0.00     0.049 A 
ATOM     18  O   UNL A   1      33.538  23.116  22.389  1.00  0.00    -0.475 OA
ATOM     19  C   UNL A   1      34.000  22.434  23.578  1.00  0.00     0.314 C 
BRANCH  10  20
ATOM     20  C   UNL A   1      32.902  27.203  25.143  1.00  0.00    -0.013 A 
ATOM     21  C   UNL A   1      30.609  26.242  25.781  1.00  0.00     0.045 C 
ATOM     22  C   UNL A   1      31.823  27.085  26.040  1.00  0.00    -0.043 A 
ATOM     23  C   UNL A   1      31.841  27.809  27.252  1.00  0.00     0.004 A 
ATOM     24  C   UNL A   1      32.923  28.614  27.601  1.00  0.00     0.000 A 
ATOM     25  C   UNL A   1      33.981  28.039  25.522  1.00  0.00     0.009 A 
ATOM     26  C   UNL A   1      34.001  28.724  26.737  1.00  0.00     0.001 A 
ENDBRANCH  10  20
BRANCH  19  27
ATOM     27  C   UNL A   1      32.842  21.824  24.382  1.00  0.00     0.429 C 
ATOM     28  F   UNL A   1      31.717  22.571  24.275  1.00  0.00    -0.167 F 
ATOM     29  F   UNL A   1      32.532  20.585  23.923  1.00  0.00    -0.167 F 
ATOM     30  F   UNL A   1      33.118  21.698  25.701  1.00  0.00    -0.167 F 
ENDBRANCH  19  27
ENDBRANCH   6   9
ENDBRANCH   4   5
ENDBRANCH   3   4
ENDBRANCH   2   3
ENDBRANCH   1   2
BRANCH   1  31
ATOM     31  C   UNL A   1      41.024  21.707  27.964  1.00  0.00     0.021 C 
BRANCH  31  32
ATOM     32  C   UNL A   1      41.741  23.050  28.062  1.00  0.00     0.116 C 
BRANCH  32  33
ATOM     33  N   UNL A   1      42.395  23.485  26.831  1.00  0.00    -0.352 N 
ATOM     34  C   UNL A   1      42.201  24.662  26.121  1.00  0.00     0.251 C 
ATOM     35  H   UNL A   1      43.059  22.863  26.456  1.00  0.00     0.163 HD
ATOM     36  O   UNL A   1      42.854  24.909  25.120  1.00  0.00    -0.269 OA
BRANCH  34  37
ATOM     37  C   UNL A   1      41.265  25.671  26.672  1.00  0.00     0.039 A 
ATOM     38  C   UNL A   1      41.142  26.895  26.007  1.00  0.00     0.014 A 
ATOM     39  C   UNL A   1      40.718  25.499  27.939  1.00  0.00     0.014 A 
ATOM     40  C   UNL A   1      40.704  28.012  26.717  1.00  0.00     0.010 A 
ATOM     41  C   UNL A   1      40.379  26.621  28.674  1.00  0.00     0.010 A 
ATOM     42  C   UNL A   1      40.445  27.888  28.084  1.00  0.00    -0.014 A 
BRANCH  42  43
ATOM     43  C   UNL A   1      40.395  29.034  28.990  1.00  0.00     0.031 A 
ATOM     44  C   UNL A   1      39.284  30.006  28.953  1.00  0.00     0.074 A 
ATOM     45  C   UNL A   1      41.353  29.201  29.930  1.00  0.00     0.049 A 
ATOM     46  N   UNL A   1      39.410  31.238  29.324  1.00  0.00    -0.248 NA
ATOM     47  C   UNL A   1      37.943  29.676  28.481  1.00  0.00     0.031 C 
ATOM     48  C   UNL A   1      41.324  30.127  31.061  1.00  0.00     0.029 A 
ATOM     49  N   UNL A   1      42.664  28.696  29.933  1.00  0.00    -0.354 N 
ATOM     50  C   UNL A   1      38.154  31.777  29.397  1.00  0.00     0.074 A 
ATOM     51  C   UNL A   1      37.277  30.792  28.802  1.00  0.00     0.031 C 
ATOM     52  C   UNL A   1      42.581  30.377  31.450  1.00  0.00     0.029 A 
ATOM     53  C   UNL A   1      43.466  29.710  30.515  1.00  0.00     0.049 A 
ATOM     54  H   UNL A   1      42.963  27.819  29.599  1.00  0.00     0.167 HD
ATOM     55  C   UNL A   1      37.946  32.949  30.059  1.00  0.00     0.037 A 
ATOM     56  C   UNL A   1      44.491  30.293  29.829  1.00  0.00     0.037 A 
ATOM     57  C   UNL A   1      39.161  33.510  30.633  1.00  0.00     0.049 A 
ATOM     58  C   UNL A   1      44.358  31.787  29.632  1.00  0.00     0.074 A 
ATOM     59  C   UNL A   1      39.714  33.532  31.903  1.00  0.00     0.029 A 
ATOM     60  N   UNL A   1      40.161  33.944  29.781  1.00  0.00    -0.354 N 
ATOM     61  N   UNL A   1      43.354  32.500  30.059  1.00  0.00    -0.248 NA
ATOM     62  C   UNL A   1      45.295  32.574  28.829  1.00  0.00     0.031 C 
ATOM     63  C   UNL A   1      41.048  34.013  31.806  1.00  0.00     0.029 A 
ATOM     64  C   UNL A   1      41.309  34.276  30.475  1.00  0.00     0.049 A 
ATOM     65  H   UNL A   1      40.067  34.007  28.803  1.00  0.00     0.167 HD
ATOM     66  C   UNL A   1      43.449  33.766  29.547  1.00  0.00     0.074 A 
ATOM     67  C   UNL A   1      44.684  33.770  28.789  1.00  0.00     0.031 C 
ATOM     68  C   UNL A   1      42.480  34.707  29.734  1.00  0.00     0.037 A 
BRANCH  55  69
ATOM     69  C   UNL A   1      36.562  33.447  30.353  1.00  0.00     0.064 A 
ATOM     70  C   UNL A   1      35.718  33.922  29.331  1.00  0.00     0.173 A 
ATOM     71  C   UNL A   1      36.036  33.508  31.656  1.00  0.00     0.173 A 
ATOM     72  F   UNL A   1      36.079  33.866  28.043  1.00  0.00    -0.203 F 
ATOM     73  C   UNL A   1      34.479  34.503  29.605  1.00  0.00     0.198 A 
ATOM     74  C   UNL A   1      34.822  34.139  31.935  1.00  0.00     0.198 A 
ATOM     75  F   UNL A   1      36.697  32.961  32.689  1.00  0.00    -0.203 F 
ATOM     76  F   UNL A   1      33.718  34.951  28.595  1.00  0.00    -0.200 F 
ATOM     77  C   UNL A   1      34.046  34.643  30.908  1.00  0.00     0.200 A 
ATOM     78  F   UNL A   1      34.416  34.271  33.206  1.00  0.00    -0.200 F 
ATOM     79  F   UNL A   1      32.887  35.260  31.174  1.00  0.00    -0.200 F 
ENDBRANCH  55  69
BRANCH  56  80
ATOM     80  C   UNL A   1      45.124  29.355  28.866  1.00  0.00     0.064 A 
ATOM     81  C   UNL A   1      46.001  28.378  29.379  1.00  0.00     0.173 A 
ATOM     82  C   UNL A   1      44.575  29.138  27.598  1.00  0.00     0.173 A 
ATOM     83  F   UNL A   1      46.554  28.545  30.592  1.00  0.00    -0.203 F 
ATOM     84  C   UNL A   1      46.189  27.166  28.723  1.00  0.00     0.198 A 
ATOM     85  C   UNL A   1      44.792  27.934  26.930  1.00  0.00     0.198 A 
ATOM     86  F   UNL A   1      43.726  30.027  27.062  1.00  0.00    -0.203 F 
ATOM     87  F   UNL A   1      46.903  26.194  29.309  1.00  0.00    -0.200 F 
ATOM     88  C   UNL A   1      45.557  26.934  27.514  1.00  0.00     0.200 A 
ATOM     89  F   UNL A   1      44.166  27.699  25.768  1.00  0.00    -0.200 F 
ATOM     90  F   UNL A   1      45.643  25.729  26.934  1.00  0.00    -0.200 F 
ENDBRANCH  56  80
BRANCH  68  91
ATOM     91  C   UNL A   1      42.565  36.114  29.219  1.00  0.00     0.064 A 
ATOM     92  C   UNL A   1      41.960  36.513  28.016  1.00  0.00     0.173 A 
ATOM     93  C   UNL A   1      43.366  37.084  29.860  1.00  0.00     0.173 A 
ATOM     94  F   UNL A   1      41.241  35.646  27.289  1.00  0.00    -0.203 F 
ATOM     95  C   UNL A   1      42.100  37.811  27.519  1.00  0.00     0.198 A 
ATOM     96  C   UNL A   1      43.547  38.362  29.335  1.00  0.00     0.198 A 
ATOM     97  F   UNL A   1      43.980  36.824  31.024  1.00  0.00    -0.203 F 
ATOM     98  F   UNL A   1      41.462  38.165  26.395  1.00  0.00    -0.200 F 
ATOM     99  C   UNL A   1      42.902  38.730  28.173  1.00  0.00     0.200 A 
ATOM    100  F   UNL A   1      44.346  39.232  29.967  1.00  0.00    -0.200 F 
ATOM    101  F   UNL A   1      43.052  39.969  27.683  1.00  0.00    -0.200 F 
ENDBRANCH  68  91
ENDBRANCH  42  43
ENDBRANCH  34  37
ENDBRANCH  32  33
ENDBRANCH  31  32
ENDBRANCH   1  31
TORSDOF 15
ENDMDL
