MODEL 1
REMARK VINA RESULT:     -11.9      0.000      0.000
REMARK SMILES C[C@@]1(CN2C(=O)c3ccc(C(=O)NCCCCCCNC(=O)c4ccc(-c5c6nc(c(-c7c(F)c(F)c(F)c(F)c7F)c7ccc([nH]7)c(-c7c(F)c(F)c(F)c(F)c7F)c7nc(c(-c8c(F)c(F)c(F)c(F)c8F)c8ccc5[nH]8)C=C7)C=C6)cc4)cc3C2=O)CCCO1
REMARK SMILES IDX 16 1 15 2 14 3 13 4 11 5 12 6 10 8 4 9 5 10 88 11 6 12 7 13
REMARK SMILES IDX 87 14 89 15 8 16 86 17 9 18 3 19 2 20 1 21 90 22 93 23 91 24
REMARK SMILES IDX 92 25 17 26 18 27 19 28 20 29 21 30 22 32 23 33 24 34 85 35
REMARK SMILES IDX 25 36 84 37 26 38 27 39 28 40 78 41 29 42 83 43 77 44 79 45
REMARK SMILES IDX 30 46 82 47 76 48 75 49 31 51 63 52 43 53 62 54 44 55 47 56
REMARK SMILES IDX 61 57 80 58 45 59 46 60 60 62 81 63 48 64 32 65 33 66 41 67
REMARK SMILES IDX 34 68 35 69 39 70 42 71 36 72 37 73 40 74 38 75 64 76 65 77
REMARK SMILES IDX 73 78 66 79 67 80 71 81 74 82 68 83 69 84 72 85 70 86 49 87
REMARK SMILES IDX 50 88 58 89 51 90 52 91 56 92 59 93 53 94 54 95 57 96 55 97
REMARK H PARENT 13 7 20 31 79 50 47 61
REMARK Flexibility Score: inf
ROOT
ATOM      1  C   UNL A   1      41.188  21.877  26.407  1.00  0.00     0.002 C 
ENDROOT
BRANCH   1   2
ATOM      2  C   UNL A   1      40.218  22.678  27.284  1.00  0.00     0.021 C 
BRANCH   2   3
ATOM      3  C   UNL A   1      39.006  23.211  26.514  1.00  0.00     0.116 C 
BRANCH   3   4
ATOM      4  N   UNL A   1      38.532  22.214  25.577  1.00  0.00    -0.352 N 
ATOM      5  C   UNL A   1      37.280  21.837  25.170  1.00  0.00     0.251 C 
ATOM      6  O   UNL A   1      37.206  20.941  24.329  1.00  0.00    -0.269 OA
ATOM      7  H   UNL A   1      39.256  21.706  25.143  1.00  0.00     0.163 HD
BRANCH   5   8
ATOM      8  C   UNL A   1      36.019  22.465  25.660  1.00  0.00     0.040 A 
ATOM      9  N   UNL A   1      32.662  25.621  25.737  1.00  0.00    -0.271 N 
ATOM     10  C   UNL A   1      32.492  24.559  26.578  1.00  0.00     0.261 C 
ATOM     11  C   UNL A   1      33.818  25.512  25.008  1.00  0.00     0.261 C 
ATOM     12  O   UNL A   1      31.552  24.281  27.300  1.00  0.00    -0.269 OA
ATOM     13  C   UNL A   1      33.672  23.720  26.431  1.00  0.00     0.053 A 
ATOM     14  C   UNL A   1      34.484  24.293  25.473  1.00  0.00     0.054 A 
ATOM     15  O   UNL A   1      34.231  26.204  24.101  1.00  0.00    -0.269 OA
ATOM     16  C   UNL A   1      33.979  22.517  27.029  1.00  0.00     0.015 A 
ATOM     17  C   UNL A   1      35.662  23.695  25.069  1.00  0.00     0.028 A 
ATOM     18  C   UNL A   1      35.151  21.877  26.609  1.00  0.00     0.015 A 
BRANCH   9  19
ATOM     19  C   UNL A   1      31.683  26.680  25.564  1.00  0.00     0.164 C 
BRANCH  19  20
ATOM     20  C   UNL A   1      31.951  27.946  26.423  1.00  0.00     0.084 C 
ATOM     21  C   UNL A   1      31.171  27.952  27.737  1.00  0.00     0.044 C 
ATOM     22  C   UNL A   1      31.646  29.209  25.608  1.00  0.00     0.039 C 
ATOM     23  O   UNL A   1      33.360  28.014  26.740  1.00  0.00    -0.373 OA
ATOM     24  C   UNL A   1      32.969  29.514  24.953  1.00  0.00     0.031 C 
ATOM     25  C   UNL A   1      33.952  29.108  26.027  1.00  0.00     0.161 C 
ENDBRANCH  19  20
ENDBRANCH   9  19
ENDBRANCH   5   8
ENDBRANCH   3   4
ENDBRANCH   2   3
ENDBRANCH   1   2
BRANCH   1  26
ATOM     26  C   UNL A   1      41.507  20.469  26.924  1.00  0.00     0.002 C 
BRANCH  26  27
ATOM     27  C   UNL A   1      41.942  19.473  25.846  1.00  0.00     0.021 C 
BRANCH  27  28
ATOM     28  C   UNL A   1      43.290  18.815  26.119  1.00  0.00     0.116 C 
BRANCH  28  29
ATOM     29  N   UNL A   1      44.047  18.626  24.891  1.00  0.00    -0.352 N 
ATOM     30  C   UNL A   1      44.630  19.565  24.079  1.00  0.00     0.251 C 
ATOM     31  H   UNL A   1      44.155  17.692  24.601  1.00  0.00     0.163 HD
ATOM     32  O   UNL A   1      45.009  19.259  22.953  1.00  0.00    -0.269 OA
BRANCH  30  33
ATOM     33  C   UNL A   1      44.806  20.948  24.565  1.00  0.00     0.039 A 
ATOM     34  C   UNL A   1      45.492  21.164  25.763  1.00  0.00     0.014 A 
ATOM     35  C   UNL A   1      44.261  22.026  23.863  1.00  0.00     0.014 A 
ATOM     36  C   UNL A   1      45.659  22.464  26.239  1.00  0.00     0.010 A 
ATOM     37  C   UNL A   1      44.494  23.327  24.296  1.00  0.00     0.010 A 
ATOM     38  C   UNL A   1      45.177  23.558  25.500  1.00  0.00    -0.014 A 
BRANCH  38  39
ATOM     39  C   UNL A   1      45.343  24.948  25.990  1.00  0.00     0.031 A 
ATOM     40  C   UNL A   1      46.698  25.600  25.946  1.00  0.00     0.074 A 
ATOM     41  C   UNL A   1      44.290  25.601  26.518  1.00  0.00     0.049 A 
ATOM     42  N   UNL A   1      47.064  26.780  26.379  1.00  0.00    -0.248 NA
ATOM     43  C   UNL A   1      47.794  24.812  25.363  1.00  0.00     0.031 C 
ATOM     44  C   UNL A   1      42.939  25.056  26.654  1.00  0.00     0.029 A 
ATOM     45  N   UNL A   1      44.195  26.863  27.046  1.00  0.00    -0.354 N 
ATOM     46  C   UNL A   1      48.428  26.865  26.136  1.00  0.00     0.074 A 
ATOM     47  C   UNL A   1      48.838  25.598  25.572  1.00  0.00     0.031 C 
ATOM     48  C   UNL A   1      42.144  25.986  27.208  1.00  0.00     0.029 A 
ATOM     49  C   UNL A   1      42.936  27.176  27.499  1.00  0.00     0.049 A 
ATOM     50  H   UNL A   1      44.956  27.486  27.096  1.00  0.00     0.167 HD
ATOM     51  C   UNL A   1      49.259  27.914  26.341  1.00  0.00     0.037 A 
ATOM     52  C   UNL A   1      42.478  28.298  28.087  1.00  0.00     0.037 A 
ATOM     53  C   UNL A   1      48.839  29.183  26.876  1.00  0.00     0.049 A 
ATOM     54  C   UNL A   1      43.424  29.450  28.301  1.00  0.00     0.074 A 
ATOM     55  C   UNL A   1      49.591  30.328  27.074  1.00  0.00     0.029 A 
ATOM     56  N   UNL A   1      47.550  29.471  27.299  1.00  0.00    -0.354 N 
ATOM     57  N   UNL A   1      44.698  29.542  28.008  1.00  0.00    -0.248 NA
ATOM     58  C   UNL A   1      42.863  30.659  28.919  1.00  0.00     0.031 C 
ATOM     59  C   UNL A   1      48.768  31.294  27.661  1.00  0.00     0.029 A 
ATOM     60  C   UNL A   1      47.489  30.772  27.773  1.00  0.00     0.049 A 
ATOM     61  H   UNL A   1      46.791  28.846  27.266  1.00  0.00     0.167 HD
ATOM     62  C   UNL A   1      45.081  30.827  28.368  1.00  0.00     0.074 A 
ATOM     63  C   UNL A   1      43.901  31.482  28.891  1.00  0.00     0.031 C 
ATOM     64  C   UNL A   1      46.300  31.413  28.272  1.00  0.00     0.037 A 
BRANCH  51  65
ATOM     65  C   UNL A   1      50.707  27.738  25.981  1.00  0.00     0.064 A 
ATOM     66  C   UNL A   1      51.168  27.919  24.668  1.00  0.00     0.173 A 
ATOM     67  C   UNL A   1      51.654  27.425  26.969  1.00  0.00     0.173 A 
ATOM     68  F   UNL A   1      50.304  28.208  23.683  1.00  0.00    -0.203 F 
ATOM     69  C   UNL A   1      52.517  27.765  24.353  1.00  0.00     0.198 A 
ATOM     70  C   UNL A   1      53.005  27.304  26.656  1.00  0.00     0.198 A 
ATOM     71  F   UNL A   1      51.270  27.244  28.241  1.00  0.00    -0.203 F 
ATOM     72  F   UNL A   1      52.924  27.894  23.083  1.00  0.00    -0.200 F 
ATOM     73  C   UNL A   1      53.435  27.467  25.348  1.00  0.00     0.200 A 
ATOM     74  F   UNL A   1      53.893  27.029  27.621  1.00  0.00    -0.200 F 
ATOM     75  F   UNL A   1      54.732  27.330  25.044  1.00  0.00    -0.200 F 
ENDBRANCH  51  65
BRANCH  52  76
ATOM     76  C   UNL A   1      41.051  28.399  28.492  1.00  0.00     0.064 A 
ATOM     77  C   UNL A   1      40.090  28.930  27.620  1.00  0.00     0.173 A 
ATOM     78  C   UNL A   1      40.620  27.982  29.759  1.00  0.00     0.173 A 
ATOM     79  F   UNL A   1      40.456  29.359  26.402  1.00  0.00    -0.203 F 
ATOM     80  C   UNL A   1      38.760  29.069  28.009  1.00  0.00     0.198 A 
ATOM     81  C   UNL A   1      39.283  28.092  30.137  1.00  0.00     0.198 A 
ATOM     82  F   UNL A   1      41.496  27.459  30.629  1.00  0.00    -0.203 F 
ATOM     83  F   UNL A   1      37.875  29.631  27.177  1.00  0.00    -0.200 F 
ATOM     84  C   UNL A   1      38.357  28.646  29.267  1.00  0.00     0.200 A 
ATOM     85  F   UNL A   1      38.894  27.666  31.347  1.00  0.00    -0.200 F 
ATOM     86  F   UNL A   1      37.077  28.779  29.643  1.00  0.00    -0.200 F 
ENDBRANCH  52  76
BRANCH  64  87
ATOM     87  C   UNL A   1      46.407  32.852  28.689  1.00  0.00     0.064 A 
ATOM     88  C   UNL A   1      46.744  33.221  30.000  1.00  0.00     0.173 A 
ATOM     89  C   UNL A   1      46.206  33.876  27.751  1.00  0.00     0.173 A 
ATOM     90  F   UNL A   1      46.934  32.281  30.939  1.00  0.00    -0.203 F 
ATOM     91  C   UNL A   1      46.844  34.561  30.363  1.00  0.00     0.198 A 
ATOM     92  C   UNL A   1      46.340  35.213  28.108  1.00  0.00     0.198 A 
ATOM     93  F   UNL A   1      45.891  33.577  26.482  1.00  0.00    -0.203 F 
ATOM     94  F   UNL A   1      47.112  34.891  31.634  1.00  0.00    -0.200 F 
ATOM     95  C   UNL A   1      46.649  35.556  29.416  1.00  0.00     0.200 A 
ATOM     96  F   UNL A   1      46.168  36.172  27.187  1.00  0.00    -0.200 F 
ATOM     97  F   UNL A   1      46.752  36.845  29.765  1.00  0.00    -0.200 F 
ENDBRANCH  64  87
ENDBRANCH  38  39
ENDBRANCH  30  33
ENDBRANCH  28  29
ENDBRANCH  27  28
ENDBRANCH  26  27
ENDBRANCH   1  26
TORSDOF 15
ENDMDL
MODEL 2
REMARK VINA RESULT:     -11.7      1.943      7.634
REMARK SMILES C[C@@]1(CN2C(=O)c3ccc(C(=O)NCCCCCCNC(=O)c4ccc(-c5c6nc(c(-c7c(F)c(F)c(F)c(F)c7F)c7ccc([nH]7)c(-c7c(F)c(F)c(F)c(F)c7F)c7nc(c(-c8c(F)c(F)c(F)c(F)c8F)c8ccc5[nH]8)C=C7)C=C6)cc4)cc3C2=O)CCCO1
REMARK SMILES IDX 16 1 15 2 14 3 13 4 11 5 12 6 10 8 4 9 5 10 88 11 6 12 7 13
REMARK SMILES IDX 87 14 89 15 8 16 86 17 9 18 3 19 2 20 1 21 90 22 93 23 91 24
REMARK SMILES IDX 92 25 17 26 18 27 19 28 20 29 21 30 22 32 23 33 24 34 85 35
REMARK SMILES IDX 25 36 84 37 26 38 27 39 28 40 78 41 29 42 83 43 77 44 79 45
REMARK SMILES IDX 30 46 82 47 76 48 75 49 31 51 63 52 43 53 62 54 44 55 47 56
REMARK SMILES IDX 61 57 80 58 45 59 46 60 60 62 81 63 48 64 32 65 33 66 41 67
REMARK SMILES IDX 34 68 35 69 39 70 42 71 36 72 37 73 40 74 38 75 64 76 65 77
REMARK SMILES IDX 73 78 66 79 67 80 71 81 74 82 68 83 69 84 72 85 70 86 49 87
REMARK SMILES IDX 50 88 58 89 51 90 52 91 56 92 59 93 53 94 54 95 57 96 55 97
REMARK H PARENT 13 7 20 31 79 50 47 61
REMARK Flexibility Score: inf
ROOT
ATOM      1  C   UNL A   1      35.408  19.715  24.956  1.00  0.00     0.002 C 
ENDROOT
BRANCH   1   2
ATOM      2  C   UNL A   1      34.161  20.461  24.465  1.00  0.00     0.021 C 
BRANCH   2   3
ATOM      3  C   UNL A   1      32.978  20.365  25.433  1.00  0.00     0.116 C 
BRANCH   3   4
ATOM      4  N   UNL A   1      33.376  20.807  26.753  1.00  0.00    -0.352 N 
ATOM      5  C   UNL A   1      33.697  22.034  27.268  1.00  0.00     0.251 C 
ATOM      6  O   UNL A   1      33.991  22.086  28.462  1.00  0.00    -0.269 OA
ATOM      7  H   UNL A   1      33.426  20.077  27.414  1.00  0.00     0.163 HD
BRANCH   5   8
ATOM      8  C   UNL A   1      33.678  23.301  26.480  1.00  0.00     0.040 A 
ATOM      9  N   UNL A   1      31.798  27.135  24.751  1.00  0.00    -0.271 N 
ATOM     10  C   UNL A   1      33.132  26.974  24.512  1.00  0.00     0.261 C 
ATOM     11  C   UNL A   1      31.286  26.105  25.497  1.00  0.00     0.261 C 
ATOM     12  O   UNL A   1      33.921  27.725  23.968  1.00  0.00    -0.269 OA
ATOM     13  C   UNL A   1      33.506  25.695  25.096  1.00  0.00     0.053 A 
ATOM     14  C   UNL A   1      32.387  25.160  25.701  1.00  0.00     0.054 A 
ATOM     15  O   UNL A   1      30.182  25.972  25.981  1.00  0.00    -0.269 OA
ATOM     16  C   UNL A   1      34.739  25.082  25.160  1.00  0.00     0.015 A 
ATOM     17  C   UNL A   1      32.438  23.967  26.395  1.00  0.00     0.028 A 
ATOM     18  C   UNL A   1      34.820  23.889  25.888  1.00  0.00     0.015 A 
BRANCH   9  19
ATOM     19  C   UNL A   1      31.041  28.310  24.352  1.00  0.00     0.164 C 
BRANCH  19  20
ATOM     20  C   UNL A   1      30.283  28.156  23.006  1.00  0.00     0.084 C 
ATOM     21  C   UNL A   1      30.907  27.106  22.087  1.00  0.00     0.044 C 
ATOM     22  C   UNL A   1      30.193  29.511  22.294  1.00  0.00     0.039 C 
ATOM     23  O   UNL A   1      28.918  27.761  23.273  1.00  0.00    -0.373 OA
ATOM     24  C   UNL A   1      28.903  30.084  22.823  1.00  0.00     0.031 C 
ATOM     25  C   UNL A   1      28.041  28.849  22.951  1.00  0.00     0.161 C 
ENDBRANCH  19  20
ENDBRANCH   9  19
ENDBRANCH   5   8
ENDBRANCH   3   4
ENDBRANCH   2   3
ENDBRANCH   1   2
BRANCH   1  26
ATOM     26  C   UNL A   1      36.692  20.552  24.969  1.00  0.00     0.002 C 
BRANCH  26  27
ATOM     27  C   UNL A   1      37.989  19.739  24.909  1.00  0.00     0.021 C 
BRANCH  27  28
ATOM     28  C   UNL A   1      39.056  20.205  25.894  1.00  0.00     0.116 C 
BRANCH  28  29
ATOM     29  N   UNL A   1      40.140  19.240  25.996  1.00  0.00    -0.352 N 
ATOM     30  C   UNL A   1      41.490  19.460  26.092  1.00  0.00     0.251 C 
ATOM     31  H   UNL A   1      39.865  18.295  25.996  1.00  0.00     0.163 HD
ATOM     32  O   UNL A   1      42.281  18.539  25.913  1.00  0.00    -0.269 OA
BRANCH  30  33
ATOM     33  C   UNL A   1      41.993  20.810  26.416  1.00  0.00     0.039 A 
ATOM     34  C   UNL A   1      42.238  21.140  27.751  1.00  0.00     0.014 A 
ATOM     35  C   UNL A   1      42.185  21.760  25.409  1.00  0.00     0.014 A 
ATOM     36  C   UNL A   1      42.706  22.414  28.073  1.00  0.00     0.010 A 
ATOM     37  C   UNL A   1      42.724  23.003  25.722  1.00  0.00     0.010 A 
ATOM     38  C   UNL A   1      42.970  23.350  27.059  1.00  0.00    -0.014 A 
BRANCH  38  39
ATOM     39  C   UNL A   1      43.466  24.710  27.381  1.00  0.00     0.031 A 
ATOM     40  C   UNL A   1      42.526  25.732  27.960  1.00  0.00     0.074 A 
ATOM     41  C   UNL A   1      44.743  25.039  27.107  1.00  0.00     0.049 A 
ATOM     42  N   UNL A   1      42.746  26.989  28.253  1.00  0.00    -0.248 NA
ATOM     43  C   UNL A   1      41.146  25.292  28.218  1.00  0.00     0.031 C 
ATOM     44  C   UNL A   1      45.735  24.147  26.506  1.00  0.00     0.029 A 
ATOM     45  N   UNL A   1      45.422  26.217  27.291  1.00  0.00    -0.354 N 
ATOM     46  C   UNL A   1      41.534  27.488  28.711  1.00  0.00     0.074 A 
ATOM     47  C   UNL A   1      40.567  26.418  28.603  1.00  0.00     0.031 C 
ATOM     48  C   UNL A   1      46.902  24.802  26.392  1.00  0.00     0.029 A 
ATOM     49  C   UNL A   1      46.730  26.168  26.875  1.00  0.00     0.049 A 
ATOM     50  H   UNL A   1      45.011  27.020  27.684  1.00  0.00     0.167 HD
ATOM     51  C   UNL A   1      41.258  28.720  29.201  1.00  0.00     0.037 A 
ATOM     52  C   UNL A   1      47.680  27.122  26.881  1.00  0.00     0.037 A 
ATOM     53  C   UNL A   1      42.232  29.771  29.333  1.00  0.00     0.049 A 
ATOM     54  C   UNL A   1      47.347  28.482  27.434  1.00  0.00     0.074 A 
ATOM     55  C   UNL A   1      42.068  31.038  29.866  1.00  0.00     0.029 A 
ATOM     56  N   UNL A   1      43.554  29.676  28.925  1.00  0.00    -0.354 N 
ATOM     57  N   UNL A   1      46.214  28.923  27.924  1.00  0.00    -0.248 NA
ATOM     58  C   UNL A   1      48.430  29.475  27.443  1.00  0.00     0.031 C 
ATOM     59  C   UNL A   1      43.279  31.725  29.737  1.00  0.00     0.029 A 
ATOM     60  C   UNL A   1      44.214  30.868  29.180  1.00  0.00     0.049 A 
ATOM     61  H   UNL A   1      43.964  28.879  28.517  1.00  0.00     0.167 HD
ATOM     62  C   UNL A   1      46.457  30.227  28.336  1.00  0.00     0.074 A 
ATOM     63  C   UNL A   1      47.849  30.501  28.047  1.00  0.00     0.031 C 
ATOM     64  C   UNL A   1      45.605  31.116  28.903  1.00  0.00     0.037 A 
BRANCH  51  65
ATOM     65  C   UNL A   1      39.847  28.997  29.637  1.00  0.00     0.064 A 
ATOM     66  C   UNL A   1      38.875  29.464  28.739  1.00  0.00     0.173 A 
ATOM     67  C   UNL A   1      39.451  28.753  30.961  1.00  0.00     0.173 A 
ATOM     68  F   UNL A   1      39.204  29.725  27.464  1.00  0.00    -0.203 F 
ATOM     69  C   UNL A   1      37.568  29.704  29.156  1.00  0.00     0.198 A 
ATOM     70  C   UNL A   1      38.135  28.963  31.367  1.00  0.00     0.198 A 
ATOM     71  F   UNL A   1      40.337  28.302  31.861  1.00  0.00    -0.203 F 
ATOM     72  F   UNL A   1      36.672  30.198  28.292  1.00  0.00    -0.200 F 
ATOM     73  C   UNL A   1      37.197  29.445  30.467  1.00  0.00     0.200 A 
ATOM     74  F   UNL A   1      37.774  28.699  32.630  1.00  0.00    -0.200 F 
ATOM     75  F   UNL A   1      35.937  29.666  30.864  1.00  0.00    -0.200 F 
ENDBRANCH  51  65
BRANCH  52  76
ATOM     76  C   UNL A   1      49.044  26.820  26.372  1.00  0.00     0.064 A 
ATOM     77  C   UNL A   1      49.371  27.019  25.023  1.00  0.00     0.173 A 
ATOM     78  C   UNL A   1      50.042  26.311  27.215  1.00  0.00     0.173 A 
ATOM     79  F   UNL A   1      48.445  27.487  24.172  1.00  0.00    -0.203 F 
ATOM     80  C   UNL A   1      50.633  26.694  24.531  1.00  0.00     0.198 A 
ATOM     81  C   UNL A   1      51.314  26.017  26.729  1.00  0.00     0.198 A 
ATOM     82  F   UNL A   1      49.786  26.110  28.516  1.00  0.00    -0.203 F 
ATOM     83  F   UNL A   1      50.900  26.843  23.227  1.00  0.00    -0.200 F 
ATOM     84  C   UNL A   1      51.606  26.197  25.385  1.00  0.00     0.200 A 
ATOM     85  F   UNL A   1      52.257  25.553  27.561  1.00  0.00    -0.200 F 
ATOM     86  F   UNL A   1      52.820  25.884  24.912  1.00  0.00    -0.200 F 
ENDBRANCH  52  76
BRANCH  64  87
ATOM     87  C   UNL A   1      46.167  32.450  29.302  1.00  0.00     0.064 A 
ATOM     88  C   UNL A   1      46.735  32.669  30.565  1.00  0.00     0.173 A 
ATOM     89  C   UNL A   1      46.170  33.516  28.388  1.00  0.00     0.173 A 
ATOM     90  F   UNL A   1      46.746  31.687  31.481  1.00  0.00    -0.203 F 
ATOM     91  C   UNL A   1      47.256  33.913  30.911  1.00  0.00     0.198 A 
ATOM     92  C   UNL A   1      46.722  34.747  28.724  1.00  0.00     0.198 A 
ATOM     93  F   UNL A   1      45.647  33.357  27.163  1.00  0.00    -0.203 F 
ATOM     94  F   UNL A   1      47.743  34.115  32.143  1.00  0.00    -0.200 F 
ATOM     95  C   UNL A   1      47.255  34.949  29.988  1.00  0.00     0.200 A 
ATOM     96  F   UNL A   1      46.735  35.742  27.825  1.00  0.00    -0.200 F 
ATOM     97  F   UNL A   1      47.762  36.143  30.320  1.00  0.00    -0.200 F 
ENDBRANCH  64  87
ENDBRANCH  38  39
ENDBRANCH  30  33
ENDBRANCH  28  29
ENDBRANCH  27  28
ENDBRANCH  26  27
ENDBRANCH   1  26
TORSDOF 15
ENDMDL
MODEL 3
REMARK VINA RESULT:     -11.7      6.435     12.197
REMARK SMILES C[C@@]1(CN2C(=O)c3ccc(C(=O)NCCCCCCNC(=O)c4ccc(-c5c6nc(c(-c7c(F)c(F)c(F)c(F)c7F)c7ccc([nH]7)c(-c7c(F)c(F)c(F)c(F)c7F)c7nc(c(-c8c(F)c(F)c(F)c(F)c8F)c8ccc5[nH]8)C=C7)C=C6)cc4)cc3C2=O)CCCO1
REMARK SMILES IDX 16 1 15 2 14 3 13 4 11 5 12 6 10 8 4 9 5 10 88 11 6 12 7 13
REMARK SMILES IDX 87 14 89 15 8 16 86 17 9 18 3 19 2 20 1 21 90 22 93 23 91 24
REMARK SMILES IDX 92 25 17 26 18 27 19 28 20 29 21 30 22 32 23 33 24 34 85 35
REMARK SMILES IDX 25 36 84 37 26 38 27 39 28 40 78 41 29 42 83 43 77 44 79 45
REMARK SMILES IDX 30 46 82 47 76 48 75 49 31 51 63 52 43 53 62 54 44 55 47 56
REMARK SMILES IDX 61 57 80 58 45 59 46 60 60 62 81 63 48 64 32 65 33 66 41 67
REMARK SMILES IDX 34 68 35 69 39 70 42 71 36 72 37 73 40 74 38 75 64 76 65 77
REMARK SMILES IDX 73 78 66 79 67 80 71 81 74 82 68 83 69 84 72 85 70 86 49 87
REMARK SMILES IDX 50 88 58 89 51 90 52 91 56 92 59 93 53 94 54 95 57 96 55 97
REMARK H PARENT 13 7 20 31 79 50 47 61
REMARK Flexibility Score: inf
ROOT
ATOM      1  C   UNL A   1      34.797  33.033  28.693  1.00  0.00     0.002 C 
ENDROOT
BRANCH   1   2
ATOM      2  C   UNL A   1      35.725  32.046  27.974  1.00  0.00     0.021 C 
BRANCH   2   3
ATOM      3  C   UNL A   1      35.108  30.656  27.795  1.00  0.00     0.116 C 
BRANCH   3   4
ATOM      4  N   UNL A   1      33.667  30.759  27.694  1.00  0.00    -0.352 N 
ATOM      5  C   UNL A   1      32.737  30.109  26.928  1.00  0.00     0.251 C 
ATOM      6  O   UNL A   1      31.557  30.423  27.085  1.00  0.00    -0.269 OA
ATOM      7  H   UNL A   1      33.277  31.431  28.300  1.00  0.00     0.163 HD
BRANCH   5   8
ATOM      8  C   UNL A   1      33.067  29.033  25.948  1.00  0.00     0.040 A 
ATOM      9  N   UNL A   1      33.320  24.697  24.409  1.00  0.00    -0.271 N 
ATOM     10  C   UNL A   1      33.692  25.662  23.517  1.00  0.00     0.261 C 
ATOM     11  C   UNL A   1      32.915  25.237  25.603  1.00  0.00     0.261 C 
ATOM     12  O   UNL A   1      34.017  25.557  22.349  1.00  0.00    -0.269 OA
ATOM     13  C   UNL A   1      33.583  26.935  24.214  1.00  0.00     0.053 A 
ATOM     14  C   UNL A   1      33.107  26.685  25.484  1.00  0.00     0.054 A 
ATOM     15  O   UNL A   1      32.423  24.697  26.571  1.00  0.00    -0.269 OA
ATOM     16  C   UNL A   1      33.810  28.214  23.753  1.00  0.00     0.015 A 
ATOM     17  C   UNL A   1      32.843  27.708  26.375  1.00  0.00     0.028 A 
ATOM     18  C   UNL A   1      33.516  29.267  24.627  1.00  0.00     0.015 A 
BRANCH   9  19
ATOM     19  C   UNL A   1      33.261  23.281  24.090  1.00  0.00     0.164 C 
BRANCH  19  20
ATOM     20  C   UNL A   1      34.537  22.485  24.475  1.00  0.00     0.084 C 
ATOM     21  C   UNL A   1      35.704  22.731  23.520  1.00  0.00     0.044 C 
ATOM     22  C   UNL A   1      34.218  20.988  24.564  1.00  0.00     0.039 C 
ATOM     23  O   UNL A   1      34.957  22.876  25.802  1.00  0.00    -0.373 OA
ATOM     24  C   UNL A   1      33.814  20.815  26.006  1.00  0.00     0.031 C 
ATOM     25  C   UNL A   1      34.734  21.787  26.708  1.00  0.00     0.161 C 
ENDBRANCH  19  20
ENDBRANCH   9  19
ENDBRANCH   5   8
ENDBRANCH   3   4
ENDBRANCH   2   3
ENDBRANCH   1   2
BRANCH   1  26
ATOM     26  C   UNL A   1      35.156  34.510  28.496  1.00  0.00     0.002 C 
BRANCH  26  27
ATOM     27  C   UNL A   1      34.008  35.490  28.755  1.00  0.00     0.021 C 
BRANCH  27  28
ATOM     28  C   UNL A   1      32.837  34.883  29.520  1.00  0.00     0.116 C 
BRANCH  28  29
ATOM     29  N   UNL A   1      32.449  35.719  30.646  1.00  0.00    -0.352 N 
ATOM     30  C   UNL A   1      32.882  35.679  31.946  1.00  0.00     0.251 C 
ATOM     31  H   UNL A   1      31.778  36.411  30.446  1.00  0.00     0.163 HD
ATOM     32  O   UNL A   1      32.269  36.281  32.821  1.00  0.00    -0.269 OA
BRANCH  30  33
ATOM     33  C   UNL A   1      34.094  34.909  32.291  1.00  0.00     0.039 A 
ATOM     34  C   UNL A   1      35.345  35.515  32.152  1.00  0.00     0.014 A 
ATOM     35  C   UNL A   1      33.999  33.580  32.715  1.00  0.00     0.014 A 
ATOM     36  C   UNL A   1      36.499  34.798  32.467  1.00  0.00     0.010 A 
ATOM     37  C   UNL A   1      35.143  32.892  33.103  1.00  0.00     0.010 A 
ATOM     38  C   UNL A   1      36.407  33.487  32.962  1.00  0.00    -0.014 A 
BRANCH  38  39
ATOM     39  C   UNL A   1      37.622  32.707  33.302  1.00  0.00     0.031 A 
ATOM     40  C   UNL A   1      38.366  32.997  34.577  1.00  0.00     0.074 A 
ATOM     41  C   UNL A   1      38.082  31.777  32.443  1.00  0.00     0.049 A 
ATOM     42  N   UNL A   1      39.478  32.472  35.025  1.00  0.00    -0.248 NA
ATOM     43  C   UNL A   1      37.799  34.035  35.453  1.00  0.00     0.031 C 
ATOM     44  C   UNL A   1      37.471  31.439  31.157  1.00  0.00     0.029 A 
ATOM     45  N   UNL A   1      39.176  30.953  32.519  1.00  0.00    -0.354 N 
ATOM     46  C   UNL A   1      39.750  33.127  36.220  1.00  0.00     0.074 A 
ATOM     47  C   UNL A   1      38.720  34.126  36.399  1.00  0.00     0.031 C 
ATOM     48  C   UNL A   1      38.185  30.462  30.575  1.00  0.00     0.029 A 
ATOM     49  C   UNL A   1      39.323  30.132  31.427  1.00  0.00     0.049 A 
ATOM     50  H   UNL A   1      39.796  30.949  33.283  1.00  0.00     0.167 HD
ATOM     51  C   UNL A   1      40.753  32.897  37.100  1.00  0.00     0.037 A 
ATOM     52  C   UNL A   1      40.274  29.220  31.147  1.00  0.00     0.037 A 
ATOM     53  C   UNL A   1      41.757  31.880  36.929  1.00  0.00     0.049 A 
ATOM     54  C   UNL A   1      41.376  28.983  32.144  1.00  0.00     0.074 A 
ATOM     55  C   UNL A   1      42.786  31.530  37.787  1.00  0.00     0.029 A 
ATOM     56  N   UNL A   1      41.859  31.050  35.822  1.00  0.00    -0.354 N 
ATOM     57  N   UNL A   1      41.586  29.563  33.301  1.00  0.00    -0.248 NA
ATOM     58  C   UNL A   1      42.368  27.956  31.801  1.00  0.00     0.031 C 
ATOM     59  C   UNL A   1      43.538  30.521  37.178  1.00  0.00     0.029 A 
ATOM     60  C   UNL A   1      42.943  30.200  35.968  1.00  0.00     0.049 A 
ATOM     61  H   UNL A   1      41.250  31.063  35.049  1.00  0.00     0.167 HD
ATOM     62  C   UNL A   1      42.707  28.947  33.840  1.00  0.00     0.074 A 
ATOM     63  C   UNL A   1      43.126  27.940  32.888  1.00  0.00     0.031 C 
ATOM     64  C   UNL A   1      43.333  29.190  35.018  1.00  0.00     0.037 A 
BRANCH  51  65
ATOM     65  C   UNL A   1      40.811  33.756  38.331  1.00  0.00     0.064 A 
ATOM     66  C   UNL A   1      41.610  34.908  38.389  1.00  0.00     0.173 A 
ATOM     67  C   UNL A   1      40.026  33.447  39.452  1.00  0.00     0.173 A 
ATOM     68  F   UNL A   1      42.389  35.243  37.349  1.00  0.00    -0.203 F 
ATOM     69  C   UNL A   1      41.643  35.703  39.533  1.00  0.00     0.198 A 
ATOM     70  C   UNL A   1      40.036  34.261  40.582  1.00  0.00     0.198 A 
ATOM     71  F   UNL A   1      39.241  32.360  39.450  1.00  0.00    -0.203 F 
ATOM     72  F   UNL A   1      42.453  36.769  39.582  1.00  0.00    -0.200 F 
ATOM     73  C   UNL A   1      40.850  35.383  40.625  1.00  0.00     0.200 A 
ATOM     74  F   UNL A   1      39.259  33.960  41.631  1.00  0.00    -0.200 F 
ATOM     75  F   UNL A   1      40.875  36.154  41.720  1.00  0.00    -0.200 F 
ENDBRANCH  51  65
BRANCH  52  76
ATOM     76  C   UNL A   1      40.212  28.444  29.880  1.00  0.00     0.064 A 
ATOM     77  C   UNL A   1      39.523  27.225  29.815  1.00  0.00     0.173 A 
ATOM     78  C   UNL A   1      40.852  28.893  28.716  1.00  0.00     0.173 A 
ATOM     79  F   UNL A   1      38.909  26.743  30.906  1.00  0.00    -0.203 F 
ATOM     80  C   UNL A   1      39.500  26.471  28.644  1.00  0.00     0.198 A 
ATOM     81  C   UNL A   1      40.802  28.154  27.536  1.00  0.00     0.198 A 
ATOM     82  F   UNL A   1      41.519  30.056  28.722  1.00  0.00    -0.203 F 
ATOM     83  F   UNL A   1      38.880  25.283  28.625  1.00  0.00    -0.200 F 
ATOM     84  C   UNL A   1      40.136  26.938  27.504  1.00  0.00     0.200 A 
ATOM     85  F   UNL A   1      41.405  28.617  26.432  1.00  0.00    -0.200 F 
ATOM     86  F   UNL A   1      40.116  26.213  26.377  1.00  0.00    -0.200 F 
ENDBRANCH  52  76
BRANCH  64  87
ATOM     87  C   UNL A   1      44.503  28.317  35.370  1.00  0.00     0.064 A 
ATOM     88  C   UNL A   1      44.344  27.107  36.061  1.00  0.00     0.173 A 
ATOM     89  C   UNL A   1      45.799  28.682  34.975  1.00  0.00     0.173 A 
ATOM     90  F   UNL A   1      43.127  26.719  36.474  1.00  0.00    -0.203 F 
ATOM     91  C   UNL A   1      45.443  26.311  36.372  1.00  0.00     0.198 A 
ATOM     92  C   UNL A   1      46.891  27.867  35.256  1.00  0.00     0.198 A 
ATOM     93  F   UNL A   1      46.005  29.825  34.303  1.00  0.00    -0.203 F 
ATOM     94  F   UNL A   1      45.275  25.187  37.082  1.00  0.00    -0.200 F 
ATOM     95  C   UNL A   1      46.714  26.687  35.963  1.00  0.00     0.200 A 
ATOM     96  F   UNL A   1      48.115  28.225  34.845  1.00  0.00    -0.200 F 
ATOM     97  F   UNL A   1      47.769  25.916  36.257  1.00  0.00    -0.200 F 
ENDBRANCH  64  87
ENDBRANCH  38  39
ENDBRANCH  30  33
ENDBRANCH  28  29
ENDBRANCH  27  28
ENDBRANCH  26  27
ENDBRANCH   1  26
TORSDOF 15
ENDMDL
