MODEL 1
REMARK VINA RESULT:     -12.0      0.000      0.000
REMARK SMILES O=C(CC[C@@H]1CN(c2ccncc2)CC[C@@H]1[NH+]1CCOCC1)NCCCCCCNC(=O)c1ccc(-c2c3nc(c(-c4c(F)c(F)c(F)c(F)c4F)c4ccc([nH]4)c(-c4c(F)c(F)c(F)c(F)c4F)c4nc(c(-c5c(F)c(F)c(F)c(F)c5F)c5ccc2[nH]5)C=C4)C=C3)cc1
REMARK SMILES IDX 26 1 25 2 24 3 23 4 1 5 2 6 3 8 4 9 5 10 6 11 16 12 7 13
REMARK SMILES IDX 15 14 14 15 17 16 18 17 22 18 19 20 21 21 20 22 8 23 9 24
REMARK SMILES IDX 13 25 10 26 12 27 11 28 27 29 28 30 29 31 30 32 31 33 32 35
REMARK SMILES IDX 33 36 34 37 95 38 35 39 94 40 36 41 37 42 38 43 88 44 39 45
REMARK SMILES IDX 93 46 87 47 89 48 40 49 92 50 86 51 85 52 41 54 73 55 53 56
REMARK SMILES IDX 72 57 54 58 57 59 71 60 90 61 55 62 56 63 70 65 91 66 58 67
REMARK SMILES IDX 42 68 43 69 51 70 44 71 45 72 49 73 52 74 46 75 47 76 50 77
REMARK SMILES IDX 48 78 74 79 75 80 83 81 76 82 77 83 81 84 84 85 78 86 79 87
REMARK SMILES IDX 82 88 80 89 59 90 60 91 68 92 61 93 62 94 66 95 69 96 63 97
REMARK SMILES IDX 64 98 67 99 65 100
REMARK H PARENT 23 7 17 19 30 34 89 53 57 64
REMARK Flexibility Score: inf
ROOT
ATOM      1  C   UNL A   1      42.124  21.396  27.042  1.00  0.00     0.002 C 
ENDROOT
BRANCH   1   2
ATOM      2  C   UNL A   1      41.075  22.094  26.163  1.00  0.00     0.021 C 
BRANCH   2   3
ATOM      3  C   UNL A   1      39.902  22.724  26.917  1.00  0.00     0.116 C 
BRANCH   3   4
ATOM      4  N   UNL A   1      38.878  23.208  26.016  1.00  0.00    -0.356 N 
ATOM      5  O   UNL A   1      37.836  21.188  25.692  1.00  0.00    -0.275 OA
ATOM      6  C   UNL A   1      37.915  22.392  25.473  1.00  0.00     0.220 C 
ATOM      7  H   UNL A   1      38.871  24.165  25.781  1.00  0.00     0.163 HD
BRANCH   6   8
ATOM      8  C   UNL A   1      36.931  23.118  24.578  1.00  0.00     0.100 C 
BRANCH   8   9
ATOM      9  C   UNL A   1      35.739  23.707  25.342  1.00  0.00     0.021 C 
BRANCH   9  10
ATOM     10  C   UNL A   1      34.587  22.695  25.572  1.00  0.00     0.067 C 
ATOM     11  C   UNL A   1      34.569  21.553  24.533  1.00  0.00     0.126 C 
ATOM     12  C   UNL A   1      33.188  23.374  25.769  1.00  0.00     0.190 C 
ATOM     13  N   UNL A   1      33.504  20.609  24.890  1.00  0.00    -0.371 N 
ATOM     14  C   UNL A   1      32.136  22.285  26.024  1.00  0.00     0.087 C 
ATOM     15  C   UNL A   1      32.154  21.160  25.005  1.00  0.00     0.122 C 
BRANCH  12  16
ATOM     16  N   UNL A   1      32.847  24.450  24.822  1.00  0.00    -0.328 N 
ATOM     17  C   UNL A   1      32.170  25.616  25.435  1.00  0.00     0.291 C 
ATOM     18  C   UNL A   1      32.229  24.147  23.526  1.00  0.00     0.291 C 
ATOM     19  H   UNL A   1      33.807  24.675  24.564  1.00  0.00     0.348 HD
ATOM     20  C   UNL A   1      30.634  25.593  25.369  1.00  0.00     0.221 C 
ATOM     21  C   UNL A   1      30.689  24.186  23.495  1.00  0.00     0.221 C 
ATOM     22  O   UNL A   1      30.179  25.411  24.025  1.00  0.00    -0.370 OA
ENDBRANCH  12  16
BRANCH  13  23
ATOM     23  C   UNL A   1      33.491  19.324  24.345  1.00  0.00     0.040 A 
ATOM     24  C   UNL A   1      34.455  18.359  24.626  1.00  0.00     0.046 A 
ATOM     25  C   UNL A   1      32.532  19.021  23.375  1.00  0.00     0.046 A 
ATOM     26  C   UNL A   1      34.409  17.153  23.939  1.00  0.00     0.113 A 
ATOM     27  C   UNL A   1      32.544  17.779  22.764  1.00  0.00     0.113 A 
ATOM     28  N   UNL A   1      33.466  16.834  23.024  1.00  0.00    -0.265 NA
ENDBRANCH  13  23
ENDBRANCH   9  10
ENDBRANCH   8   9
ENDBRANCH   6   8
ENDBRANCH   3   4
ENDBRANCH   2   3
ENDBRANCH   1   2
BRANCH   1  29
ATOM     29  C   UNL A   1      41.894  19.902  27.260  1.00  0.00     0.002 C 
BRANCH  29  30
ATOM     30  C   UNL A   1      42.278  19.014  26.079  1.00  0.00     0.021 C 
BRANCH  30  31
ATOM     31  C   UNL A   1      43.713  18.505  26.123  1.00  0.00     0.116 C 
BRANCH  31  32
ATOM     32  N   UNL A   1      44.343  18.449  24.810  1.00  0.00    -0.352 N 
ATOM     33  C   UNL A   1      44.836  19.465  24.023  1.00  0.00     0.251 C 
ATOM     34  H   UNL A   1      44.429  17.546  24.427  1.00  0.00     0.163 HD
ATOM     35  O   UNL A   1      45.216  19.225  22.884  1.00  0.00    -0.269 OA
BRANCH  33  36
ATOM     36  C   UNL A   1      44.874  20.854  24.539  1.00  0.00     0.039 A 
ATOM     37  C   UNL A   1      45.555  21.120  25.730  1.00  0.00     0.014 A 
ATOM     38  C   UNL A   1      44.250  21.895  23.851  1.00  0.00     0.014 A 
ATOM     39  C   UNL A   1      45.671  22.437  26.186  1.00  0.00     0.010 A 
ATOM     40  C   UNL A   1      44.463  23.211  24.241  1.00  0.00     0.010 A 
ATOM     41  C   UNL A   1      45.161  23.499  25.423  1.00  0.00    -0.014 A 
BRANCH  41  42
ATOM     42  C   UNL A   1      45.293  24.916  25.852  1.00  0.00     0.031 A 
ATOM     43  C   UNL A   1      46.636  25.595  25.765  1.00  0.00     0.074 A 
ATOM     44  C   UNL A   1      44.242  25.565  26.390  1.00  0.00     0.049 A 
ATOM     45  N   UNL A   1      47.009  26.766  26.218  1.00  0.00    -0.248 NA
ATOM     46  C   UNL A   1      47.720  24.834  25.121  1.00  0.00     0.031 C 
ATOM     47  C   UNL A   1      42.904  25.004  26.586  1.00  0.00     0.029 A 
ATOM     48  N   UNL A   1      44.140  26.842  26.890  1.00  0.00    -0.354 N 
ATOM     49  C   UNL A   1      48.365  26.864  25.938  1.00  0.00     0.074 A 
ATOM     50  C   UNL A   1      48.769  25.610  25.343  1.00  0.00     0.031 C 
ATOM     51  C   UNL A   1      42.111  25.936  27.141  1.00  0.00     0.029 A 
ATOM     52  C   UNL A   1      42.892  27.146  27.377  1.00  0.00     0.049 A 
ATOM     53  H   UNL A   1      44.891  27.478  26.897  1.00  0.00     0.167 HD
ATOM     54  C   UNL A   1      49.195  27.918  26.122  1.00  0.00     0.037 A 
ATOM     55  C   UNL A   1      42.434  28.273  27.954  1.00  0.00     0.037 A 
ATOM     56  C   UNL A   1      48.782  29.182  26.669  1.00  0.00     0.049 A 
ATOM     57  C   UNL A   1      43.370  29.444  28.112  1.00  0.00     0.074 A 
ATOM     58  C   UNL A   1      49.535  30.324  26.874  1.00  0.00     0.029 A 
ATOM     59  N   UNL A   1      47.490  29.474  27.078  1.00  0.00    -0.354 N 
ATOM     60  N   UNL A   1      44.641  29.538  27.806  1.00  0.00    -0.248 NA
ATOM     61  C   UNL A   1      42.800  30.674  28.682  1.00  0.00     0.031 C 
ATOM     62  C   UNL A   1      48.702  31.303  27.426  1.00  0.00     0.029 A 
ATOM     63  C   UNL A   1      47.422  30.783  27.524  1.00  0.00     0.049 A 
ATOM     64  H   UNL A   1      46.733  28.845  27.055  1.00  0.00     0.167 HD
ATOM     65  C   UNL A   1      45.012  30.842  28.106  1.00  0.00     0.074 A 
ATOM     66  C   UNL A   1      43.827  31.507  28.606  1.00  0.00     0.031 C 
ATOM     67  C   UNL A   1      46.223  31.436  27.982  1.00  0.00     0.037 A 
BRANCH  54  68
ATOM     68  C   UNL A   1      50.626  27.759  25.693  1.00  0.00     0.064 A 
ATOM     69  C   UNL A   1      51.633  27.440  26.617  1.00  0.00     0.173 A 
ATOM     70  C   UNL A   1      50.992  27.893  24.346  1.00  0.00     0.173 A 
ATOM     71  F   UNL A   1      51.338  27.315  27.921  1.00  0.00    -0.203 F 
ATOM     72  C   UNL A   1      52.957  27.290  26.214  1.00  0.00     0.198 A 
ATOM     73  C   UNL A   1      52.313  27.710  23.942  1.00  0.00     0.198 A 
ATOM     74  F   UNL A   1      50.070  28.194  23.420  1.00  0.00    -0.203 F 
ATOM     75  F   UNL A   1      53.908  27.038  27.124  1.00  0.00    -0.200 F 
ATOM     76  C   UNL A   1      53.294  27.417  24.876  1.00  0.00     0.200 A 
ATOM     77  F   UNL A   1      52.636  27.820  22.645  1.00  0.00    -0.200 F 
ATOM     78  F   UNL A   1      54.568  27.263  24.488  1.00  0.00    -0.200 F 
ENDBRANCH  54  68
BRANCH  55  79
ATOM     79  C   UNL A   1      41.018  28.371  28.398  1.00  0.00     0.064 A 
ATOM     80  C   UNL A   1      40.034  28.908  27.555  1.00  0.00     0.173 A 
ATOM     81  C   UNL A   1      40.625  27.965  29.681  1.00  0.00     0.173 A 
ATOM     82  F   UNL A   1      40.363  29.329  26.326  1.00  0.00    -0.203 F 
ATOM     83  C   UNL A   1      38.721  29.072  27.993  1.00  0.00     0.198 A 
ATOM     84  C   UNL A   1      39.304  28.099  30.105  1.00  0.00     0.198 A 
ATOM     85  F   UNL A   1      41.524  27.437  30.525  1.00  0.00    -0.203 F 
ATOM     86  F   UNL A   1      37.817  29.650  27.189  1.00  0.00    -0.200 F 
ATOM     87  C   UNL A   1      38.356  28.665  29.267  1.00  0.00     0.200 A 
ATOM     88  F   UNL A   1      38.951  27.692  31.333  1.00  0.00    -0.200 F 
ATOM     89  F   UNL A   1      37.095  28.830  29.688  1.00  0.00    -0.200 F 
ENDBRANCH  55  79
BRANCH  67  90
ATOM     90  C   UNL A   1      46.313  32.894  28.323  1.00  0.00     0.064 A 
ATOM     91  C   UNL A   1      46.637  33.334  29.614  1.00  0.00     0.173 A 
ATOM     92  C   UNL A   1      46.106  33.863  27.329  1.00  0.00     0.173 A 
ATOM     93  F   UNL A   1      46.834  32.447  30.601  1.00  0.00    -0.203 F 
ATOM     94  C   UNL A   1      46.719  34.693  29.906  1.00  0.00     0.198 A 
ATOM     95  C   UNL A   1      46.217  35.219  27.617  1.00  0.00     0.198 A 
ATOM     96  F   UNL A   1      45.801  33.492  26.076  1.00  0.00    -0.203 F 
ATOM     97  F   UNL A   1      46.979  35.092  31.158  1.00  0.00    -0.200 F 
ATOM     98  C   UNL A   1      46.515  35.633  28.906  1.00  0.00     0.200 A 
ATOM     99  F   UNL A   1      46.034  36.126  26.648  1.00  0.00    -0.200 F 
ATOM    100  F   UNL A   1      46.598  36.940  29.189  1.00  0.00    -0.200 F 
ENDBRANCH  67  90
ENDBRANCH  41  42
ENDBRANCH  33  36
ENDBRANCH  31  32
ENDBRANCH  30  31
ENDBRANCH  29  30
ENDBRANCH   1  29
TORSDOF 17
ENDMDL
MODEL 2
REMARK VINA RESULT:     -11.9      6.626     11.451
REMARK SMILES O=C(CC[C@@H]1CN(c2ccncc2)CC[C@@H]1[NH+]1CCOCC1)NCCCCCCNC(=O)c1ccc(-c2c3nc(c(-c4c(F)c(F)c(F)c(F)c4F)c4ccc([nH]4)c(-c4c(F)c(F)c(F)c(F)c4F)c4nc(c(-c5c(F)c(F)c(F)c(F)c5F)c5ccc2[nH]5)C=C4)C=C3)cc1
REMARK SMILES IDX 26 1 25 2 24 3 23 4 1 5 2 6 3 8 4 9 5 10 6 11 16 12 7 13
REMARK SMILES IDX 15 14 14 15 17 16 18 17 22 18 19 20 21 21 20 22 8 23 9 24
REMARK SMILES IDX 13 25 10 26 12 27 11 28 27 29 28 30 29 31 30 32 31 33 32 35
REMARK SMILES IDX 33 36 34 37 95 38 35 39 94 40 36 41 37 42 38 43 88 44 39 45
REMARK SMILES IDX 93 46 87 47 89 48 40 49 92 50 86 51 85 52 41 54 73 55 53 56
REMARK SMILES IDX 72 57 54 58 57 59 71 60 90 61 55 62 56 63 70 65 91 66 58 67
REMARK SMILES IDX 42 68 43 69 51 70 44 71 45 72 49 73 52 74 46 75 47 76 50 77
REMARK SMILES IDX 48 78 74 79 75 80 83 81 76 82 77 83 81 84 84 85 78 86 79 87
REMARK SMILES IDX 82 88 80 89 59 90 60 91 68 92 61 93 62 94 66 95 69 96 63 97
REMARK SMILES IDX 64 98 67 99 65 100
REMARK H PARENT 23 7 17 19 30 34 89 53 57 64
REMARK Flexibility Score: inf
ROOT
ATOM      1  C   UNL A   1      32.300  29.915  27.286  1.00  0.00     0.002 C 
ENDROOT
BRANCH   1   2
ATOM      2  C   UNL A   1      33.028  28.652  26.804  1.00  0.00     0.021 C 
BRANCH   2   3
ATOM      3  C   UNL A   1      34.264  28.899  25.937  1.00  0.00     0.116 C 
BRANCH   3   4
ATOM      4  N   UNL A   1      33.981  28.714  24.529  1.00  0.00    -0.356 N 
ATOM      5  O   UNL A   1      34.084  26.421  24.538  1.00  0.00    -0.275 OA
ATOM      6  C   UNL A   1      33.910  27.476  23.938  1.00  0.00     0.220 C 
ATOM      7  H   UNL A   1      33.834  29.512  23.969  1.00  0.00     0.163 HD
BRANCH   6   8
ATOM      8  C   UNL A   1      33.578  27.521  22.461  1.00  0.00     0.100 C 
BRANCH   8   9
ATOM      9  C   UNL A   1      32.536  26.476  22.042  1.00  0.00     0.021 C 
BRANCH   9  10
ATOM     10  C   UNL A   1      31.072  26.933  22.270  1.00  0.00     0.067 C 
ATOM     11  C   UNL A   1      30.942  28.455  22.495  1.00  0.00     0.126 C 
ATOM     12  C   UNL A   1      30.311  26.082  23.344  1.00  0.00     0.190 C 
ATOM     13  N   UNL A   1      29.519  28.794  22.612  1.00  0.00    -0.371 N 
ATOM     14  C   UNL A   1      28.870  26.597  23.460  1.00  0.00     0.087 C 
ATOM     15  C   UNL A   1      28.765  28.099  23.655  1.00  0.00     0.122 C 
BRANCH  12  16
ATOM     16  N   UNL A   1      31.043  25.802  24.592  1.00  0.00    -0.328 N 
ATOM     17  C   UNL A   1      31.562  24.420  24.704  1.00  0.00     0.291 C 
ATOM     18  C   UNL A   1      30.514  26.236  25.890  1.00  0.00     0.291 C 
ATOM     19  H   UNL A   1      31.798  26.467  24.426  1.00  0.00     0.348 HD
ATOM     20  C   UNL A   1      30.656  23.438  25.465  1.00  0.00     0.221 C 
ATOM     21  C   UNL A   1      29.654  25.202  26.641  1.00  0.00     0.221 C 
ATOM     22  O   UNL A   1      30.322  23.944  26.760  1.00  0.00    -0.370 OA
ENDBRANCH  12  16
BRANCH  13  23
ATOM     23  C   UNL A   1      29.096  30.116  22.465  1.00  0.00     0.040 A 
ATOM     24  C   UNL A   1      29.103  31.046  23.502  1.00  0.00     0.046 A 
ATOM     25  C   UNL A   1      28.522  30.501  21.251  1.00  0.00     0.046 A 
ATOM     26  C   UNL A   1      28.551  32.300  23.273  1.00  0.00     0.113 A 
ATOM     27  C   UNL A   1      28.025  31.785  21.104  1.00  0.00     0.113 A 
ATOM     28  N   UNL A   1      28.025  32.697  22.093  1.00  0.00    -0.265 NA
ENDBRANCH  13  23
ENDBRANCH   9  10
ENDBRANCH   8   9
ENDBRANCH   6   8
ENDBRANCH   3   4
ENDBRANCH   2   3
ENDBRANCH   1   2
BRANCH   1  29
ATOM     29  C   UNL A   1      31.585  30.706  26.192  1.00  0.00     0.002 C 
BRANCH  29  30
ATOM     30  C   UNL A   1      31.412  32.195  26.483  1.00  0.00     0.021 C 
BRANCH  30  31
ATOM     31  C   UNL A   1      32.560  32.813  27.270  1.00  0.00     0.116 C 
BRANCH  31  32
ATOM     32  N   UNL A   1      32.327  34.207  27.625  1.00  0.00    -0.352 N 
ATOM     33  C   UNL A   1      32.950  34.993  28.569  1.00  0.00     0.251 C 
ATOM     34  H   UNL A   1      31.616  34.655  27.113  1.00  0.00     0.163 HD
ATOM     35  O   UNL A   1      32.522  36.115  28.807  1.00  0.00    -0.269 OA
BRANCH  33  36
ATOM     36  C   UNL A   1      34.115  34.471  29.320  1.00  0.00     0.039 A 
ATOM     37  C   UNL A   1      33.909  33.856  30.559  1.00  0.00     0.014 A 
ATOM     38  C   UNL A   1      35.408  34.575  28.806  1.00  0.00     0.014 A 
ATOM     39  C   UNL A   1      34.988  33.284  31.240  1.00  0.00     0.010 A 
ATOM     40  C   UNL A   1      36.458  33.908  29.426  1.00  0.00     0.010 A 
ATOM     41  C   UNL A   1      36.266  33.270  30.659  1.00  0.00    -0.014 A 
BRANCH  41  42
ATOM     42  C   UNL A   1      37.433  32.641  31.332  1.00  0.00     0.031 A 
ATOM     43  C   UNL A   1      38.153  31.501  30.659  1.00  0.00     0.074 A 
ATOM     44  C   UNL A   1      37.795  33.030  32.571  1.00  0.00     0.049 A 
ATOM     45  N   UNL A   1      39.092  30.717  31.125  1.00  0.00    -0.248 NA
ATOM     46  C   UNL A   1      37.727  31.170  29.288  1.00  0.00     0.031 C 
ATOM     47  C   UNL A   1      37.145  34.080  33.357  1.00  0.00     0.029 A 
ATOM     48  N   UNL A   1      38.796  32.573  33.395  1.00  0.00    -0.354 N 
ATOM     49  C   UNL A   1      39.344  29.792  30.120  1.00  0.00     0.074 A 
ATOM     50  C   UNL A   1      38.412  30.062  29.049  1.00  0.00     0.031 C 
ATOM     51  C   UNL A   1      37.775  34.201  34.538  1.00  0.00     0.029 A 
ATOM     52  C   UNL A   1      38.848  33.214  34.609  1.00  0.00     0.049 A 
ATOM     53  H   UNL A   1      39.416  31.853  33.138  1.00  0.00     0.167 HD
ATOM     54  C   UNL A   1      40.292  28.827  30.075  1.00  0.00     0.037 A 
ATOM     55  C   UNL A   1      39.666  33.021  35.660  1.00  0.00     0.037 A 
ATOM     56  C   UNL A   1      41.251  28.589  31.120  1.00  0.00     0.049 A 
ATOM     57  C   UNL A   1      40.737  31.965  35.568  1.00  0.00     0.074 A 
ATOM     58  C   UNL A   1      42.270  27.655  31.165  1.00  0.00     0.029 A 
ATOM     59  N   UNL A   1      41.318  29.313  32.301  1.00  0.00    -0.354 N 
ATOM     60  N   UNL A   1      40.989  31.123  34.596  1.00  0.00    -0.248 NA
ATOM     61  C   UNL A   1      41.648  31.845  36.715  1.00  0.00     0.031 C 
ATOM     62  C   UNL A   1      42.943  27.801  32.382  1.00  0.00     0.029 A 
ATOM     63  C   UNL A   1      42.370  28.854  33.075  1.00  0.00     0.049 A 
ATOM     64  H   UNL A   1      40.709  30.045  32.552  1.00  0.00     0.167 HD
ATOM     65  C   UNL A   1      42.109  30.403  34.994  1.00  0.00     0.074 A 
ATOM     66  C   UNL A   1      42.494  30.917  36.291  1.00  0.00     0.031 C 
ATOM     67  C   UNL A   1      42.758  29.406  34.347  1.00  0.00     0.037 A 
BRANCH  54  68
ATOM     68  C   UNL A   1      40.362  27.979  28.836  1.00  0.00     0.064 A 
ATOM     69  C   UNL A   1      41.143  28.361  27.734  1.00  0.00     0.173 A 
ATOM     70  C   UNL A   1      39.670  26.761  28.759  1.00  0.00     0.173 A 
ATOM     71  F   UNL A   1      41.812  29.524  27.752  1.00  0.00    -0.203 F 
ATOM     72  C   UNL A   1      41.206  27.570  26.590  1.00  0.00     0.198 A 
ATOM     73  C   UNL A   1      39.762  25.957  27.625  1.00  0.00     0.198 A 
ATOM     74  F   UNL A   1      38.911  26.347  29.784  1.00  0.00    -0.203 F 
ATOM     75  F   UNL A   1      41.916  27.983  25.531  1.00  0.00    -0.200 F 
ATOM     76  C   UNL A   1      40.522  26.366  26.539  1.00  0.00     0.200 A 
ATOM     77  F   UNL A   1      39.111  24.786  27.581  1.00  0.00    -0.200 F 
ATOM     78  F   UNL A   1      40.591  25.601  25.441  1.00  0.00    -0.200 F 
ENDBRANCH  54  68
BRANCH  55  79
ATOM     79  C   UNL A   1      39.534  33.860  36.882  1.00  0.00     0.064 A 
ATOM     80  C   UNL A   1      38.769  33.425  37.975  1.00  0.00     0.173 A 
ATOM     81  C   UNL A   1      40.135  35.123  36.971  1.00  0.00     0.173 A 
ATOM     82  F   UNL A   1      38.157  32.232  37.931  1.00  0.00    -0.203 F 
ATOM     83  C   UNL A   1      38.579  34.237  39.091  1.00  0.00     0.198 A 
ATOM     84  C   UNL A   1      39.970  35.921  38.101  1.00  0.00     0.198 A 
ATOM     85  F   UNL A   1      40.883  35.585  35.957  1.00  0.00    -0.203 F 
ATOM     86  F   UNL A   1      37.788  33.823  40.091  1.00  0.00    -0.200 F 
ATOM     87  C   UNL A   1      39.181  35.484  39.155  1.00  0.00     0.200 A 
ATOM     88  F   UNL A   1      40.565  37.121  38.166  1.00  0.00    -0.200 F 
ATOM     89  F   UNL A   1      38.991  36.267  40.225  1.00  0.00    -0.200 F 
ENDBRANCH  55  79
BRANCH  67  90
ATOM     90  C   UNL A   1      43.993  28.854  34.995  1.00  0.00     0.064 A 
ATOM     91  C   UNL A   1      43.945  27.762  35.873  1.00  0.00     0.173 A 
ATOM     92  C   UNL A   1      45.249  29.409  34.703  1.00  0.00     0.173 A 
ATOM     93  F   UNL A   1      42.767  27.204  36.193  1.00  0.00    -0.203 F 
ATOM     94  C   UNL A   1      45.106  27.265  36.460  1.00  0.00     0.198 A 
ATOM     95  C   UNL A   1      46.410  28.891  35.267  1.00  0.00     0.198 A 
ATOM     96  F   UNL A   1      45.349  30.451  33.862  1.00  0.00    -0.203 F 
ATOM     97  F   UNL A   1      45.031  26.254  37.335  1.00  0.00    -0.200 F 
ATOM     98  C   UNL A   1      46.337  27.826  36.151  1.00  0.00     0.200 A 
ATOM     99  F   UNL A   1      47.600  29.424  34.958  1.00  0.00    -0.200 F 
ATOM    100  F   UNL A   1      47.453  27.343  36.714  1.00  0.00    -0.200 F 
ENDBRANCH  67  90
ENDBRANCH  41  42
ENDBRANCH  33  36
ENDBRANCH  31  32
ENDBRANCH  30  31
ENDBRANCH  29  30
ENDBRANCH   1  29
TORSDOF 17
ENDMDL
MODEL 3
REMARK VINA RESULT:     -11.8      6.410     12.064
REMARK SMILES O=C(CC[C@@H]1CN(c2ccncc2)CC[C@@H]1[NH+]1CCOCC1)NCCCCCCNC(=O)c1ccc(-c2c3nc(c(-c4c(F)c(F)c(F)c(F)c4F)c4ccc([nH]4)c(-c4c(F)c(F)c(F)c(F)c4F)c4nc(c(-c5c(F)c(F)c(F)c(F)c5F)c5ccc2[nH]5)C=C4)C=C3)cc1
REMARK SMILES IDX 26 1 25 2 24 3 23 4 1 5 2 6 3 8 4 9 5 10 6 11 16 12 7 13
REMARK SMILES IDX 15 14 14 15 17 16 18 17 22 18 19 20 21 21 20 22 8 23 9 24
REMARK SMILES IDX 13 25 10 26 12 27 11 28 27 29 28 30 29 31 30 32 31 33 32 35
REMARK SMILES IDX 33 36 34 37 95 38 35 39 94 40 36 41 37 42 38 43 88 44 39 45
REMARK SMILES IDX 93 46 87 47 89 48 40 49 92 50 86 51 85 52 41 54 73 55 53 56
REMARK SMILES IDX 72 57 54 58 57 59 71 60 90 61 55 62 56 63 70 65 91 66 58 67
REMARK SMILES IDX 42 68 43 69 51 70 44 71 45 72 49 73 52 74 46 75 47 76 50 77
REMARK SMILES IDX 48 78 74 79 75 80 83 81 76 82 77 83 81 84 84 85 78 86 79 87
REMARK SMILES IDX 82 88 80 89 59 90 60 91 68 92 61 93 62 94 66 95 69 96 63 97
REMARK SMILES IDX 64 98 67 99 65 100
REMARK H PARENT 23 7 17 19 30 34 89 53 57 64
REMARK Flexibility Score: inf
ROOT
ATOM      1  C   UNL A   1      32.728  30.227  27.263  1.00  0.00     0.002 C 
ENDROOT
BRANCH   1   2
ATOM      2  C   UNL A   1      33.043  28.764  26.917  1.00  0.00     0.021 C 
BRANCH   2   3
ATOM      3  C   UNL A   1      34.279  28.550  26.042  1.00  0.00     0.116 C 
BRANCH   3   4
ATOM      4  N   UNL A   1      33.945  28.511  24.634  1.00  0.00    -0.356 N 
ATOM      5  O   UNL A   1      34.212  26.247  24.363  1.00  0.00    -0.275 OA
ATOM      6  C   UNL A   1      33.935  27.348  23.901  1.00  0.00     0.220 C 
ATOM      7  H   UNL A   1      33.715  29.355  24.180  1.00  0.00     0.163 HD
BRANCH   6   8
ATOM      8  C   UNL A   1      33.531  27.541  22.454  1.00  0.00     0.100 C 
BRANCH   8   9
ATOM      9  C   UNL A   1      32.532  26.488  21.958  1.00  0.00     0.021 C 
BRANCH   9  10
ATOM     10  C   UNL A   1      31.051  26.867  22.216  1.00  0.00     0.067 C 
ATOM     11  C   UNL A   1      30.849  28.376  22.469  1.00  0.00     0.126 C 
ATOM     12  C   UNL A   1      30.351  25.961  23.288  1.00  0.00     0.190 C 
ATOM     13  N   UNL A   1      29.413  28.641  22.613  1.00  0.00    -0.371 N 
ATOM     14  C   UNL A   1      28.888  26.401  23.434  1.00  0.00     0.087 C 
ATOM     15  C   UNL A   1      28.711  27.892  23.655  1.00  0.00     0.122 C 
BRANCH  12  16
ATOM     16  N   UNL A   1      31.116  25.699  24.520  1.00  0.00    -0.328 N 
ATOM     17  C   UNL A   1      31.601  24.307  24.657  1.00  0.00     0.291 C 
ATOM     18  C   UNL A   1      30.642  26.187  25.819  1.00  0.00     0.291 C 
ATOM     19  H   UNL A   1      31.883  26.338  24.308  1.00  0.00     0.348 HD
ATOM     20  C   UNL A   1      30.695  23.374  25.477  1.00  0.00     0.221 C 
ATOM     21  C   UNL A   1      29.780  25.199  26.629  1.00  0.00     0.221 C 
ATOM     22  O   UNL A   1      30.418  23.928  26.766  1.00  0.00    -0.370 OA
ENDBRANCH  12  16
BRANCH  13  23
ATOM     23  C   UNL A   1      28.921  29.942  22.494  1.00  0.00     0.040 A 
ATOM     24  C   UNL A   1      28.337  30.441  21.333  1.00  0.00     0.046 A 
ATOM     25  C   UNL A   1      29.129  30.832  23.551  1.00  0.00     0.046 A 
ATOM     26  C   UNL A   1      27.988  31.785  21.289  1.00  0.00     0.113 A 
ATOM     27  C   UNL A   1      28.719  32.149  23.429  1.00  0.00     0.113 A 
ATOM     28  N   UNL A   1      28.152  32.648  22.316  1.00  0.00    -0.265 NA
ENDBRANCH  13  23
ENDBRANCH   9  10
ENDBRANCH   8   9
ENDBRANCH   6   8
ENDBRANCH   3   4
ENDBRANCH   2   3
ENDBRANCH   1   2
BRANCH   1  29
ATOM     29  C   UNL A   1      31.545  30.829  26.508  1.00  0.00     0.002 C 
BRANCH  29  30
ATOM     30  C   UNL A   1      31.373  32.336  26.680  1.00  0.00     0.021 C 
BRANCH  30  31
ATOM     31  C   UNL A   1      32.650  33.068  27.071  1.00  0.00     0.116 C 
BRANCH  31  32
ATOM     32  N   UNL A   1      32.404  34.381  27.656  1.00  0.00    -0.352 N 
ATOM     33  C   UNL A   1      32.997  34.991  28.738  1.00  0.00     0.251 C 
ATOM     34  H   UNL A   1      31.707  34.912  27.208  1.00  0.00     0.163 HD
ATOM     35  O   UNL A   1      32.559  36.055  29.154  1.00  0.00    -0.269 OA
BRANCH  33  36
ATOM     36  C   UNL A   1      34.142  34.343  29.421  1.00  0.00     0.039 A 
ATOM     37  C   UNL A   1      33.896  33.430  30.450  1.00  0.00     0.014 A 
ATOM     38  C   UNL A   1      35.456  34.624  29.045  1.00  0.00     0.014 A 
ATOM     39  C   UNL A   1      34.962  32.749  31.047  1.00  0.00     0.010 A 
ATOM     40  C   UNL A   1      36.503  33.866  29.556  1.00  0.00     0.010 A 
ATOM     41  C   UNL A   1      36.272  32.932  30.576  1.00  0.00    -0.014 A 
BRANCH  41  42
ATOM     42  C   UNL A   1      37.429  32.201  31.157  1.00  0.00     0.031 A 
ATOM     43  C   UNL A   1      37.943  32.589  32.519  1.00  0.00     0.074 A 
ATOM     44  C   UNL A   1      38.067  31.256  30.439  1.00  0.00     0.049 A 
ATOM     45  N   UNL A   1      39.020  32.191  33.148  1.00  0.00    -0.248 NA
ATOM     46  C   UNL A   1      37.161  33.597  33.257  1.00  0.00     0.031 C 
ATOM     47  C   UNL A   1      37.708  30.828  29.085  1.00  0.00     0.029 A 
ATOM     48  N   UNL A   1      39.167  30.491  30.745  1.00  0.00    -0.354 N 
ATOM     49  C   UNL A   1      39.056  32.916  34.332  1.00  0.00     0.074 A 
ATOM     50  C   UNL A   1      37.936  33.831  34.305  1.00  0.00     0.031 C 
ATOM     51  C   UNL A   1      38.556  29.864  28.687  1.00  0.00     0.029 A 
ATOM     52  C   UNL A   1      39.541  29.633  29.739  1.00  0.00     0.049 A 
ATOM     53  H   UNL A   1      39.642  30.553  31.605  1.00  0.00     0.167 HD
ATOM     54  C   UNL A   1      39.919  32.805  35.369  1.00  0.00     0.037 A 
ATOM     55  C   UNL A   1      40.567  28.763  29.674  1.00  0.00     0.037 A 
ATOM     56  C   UNL A   1      41.003  31.862  35.417  1.00  0.00     0.049 A 
ATOM     57  C   UNL A   1      41.491  28.634  30.857  1.00  0.00     0.074 A 
ATOM     58  C   UNL A   1      41.921  31.648  36.428  1.00  0.00     0.029 A 
ATOM     59  N   UNL A   1      41.300  30.957  34.408  1.00  0.00    -0.354 N 
ATOM     60  N   UNL A   1      41.489  29.298  31.987  1.00  0.00    -0.248 NA
ATOM     61  C   UNL A   1      42.550  27.619  30.761  1.00  0.00     0.031 C 
ATOM     62  C   UNL A   1      42.787  30.626  36.025  1.00  0.00     0.029 A 
ATOM     63  C   UNL A   1      42.380  30.175  34.781  1.00  0.00     0.049 A 
ATOM     64  H   UNL A   1      40.815  30.882  33.554  1.00  0.00     0.167 HD
ATOM     65  C   UNL A   1      42.515  28.757  32.750  1.00  0.00     0.074 A 
ATOM     66  C   UNL A   1      43.109  27.699  31.960  1.00  0.00     0.031 C 
ATOM     67  C   UNL A   1      42.931  29.103  33.992  1.00  0.00     0.037 A 
BRANCH  54  68
ATOM     68  C   UNL A   1      39.702  33.703  36.552  1.00  0.00     0.064 A 
ATOM     69  C   UNL A   1      40.285  34.979  36.617  1.00  0.00     0.173 A 
ATOM     70  C   UNL A   1      38.880  33.305  37.617  1.00  0.00     0.173 A 
ATOM     71  F   UNL A   1      41.092  35.402  35.632  1.00  0.00    -0.203 F 
ATOM     72  C   UNL A   1      40.078  35.809  37.715  1.00  0.00     0.198 A 
ATOM     73  C   UNL A   1      38.649  34.151  38.699  1.00  0.00     0.198 A 
ATOM     74  F   UNL A   1      38.295  32.098  37.606  1.00  0.00    -0.203 F 
ATOM     75  F   UNL A   1      40.689  37.000  37.777  1.00  0.00    -0.200 F 
ATOM     76  C   UNL A   1      39.254  35.398  38.751  1.00  0.00     0.200 A 
ATOM     77  F   UNL A   1      37.841  33.759  39.694  1.00  0.00    -0.200 F 
ATOM     78  F   UNL A   1      39.047  36.202  39.803  1.00  0.00    -0.200 F 
ENDBRANCH  54  68
BRANCH  55  79
ATOM     79  C   UNL A   1      40.765  27.922  28.463  1.00  0.00     0.064 A 
ATOM     80  C   UNL A   1      41.551  28.374  27.392  1.00  0.00     0.173 A 
ATOM     81  C   UNL A   1      40.148  26.670  28.333  1.00  0.00     0.173 A 
ATOM     82  F   UNL A   1      42.147  29.573  27.460  1.00  0.00    -0.203 F 
ATOM     83  C   UNL A   1      41.679  27.624  26.225  1.00  0.00     0.198 A 
ATOM     84  C   UNL A   1      40.303  25.907  27.177  1.00  0.00     0.198 A 
ATOM     85  F   UNL A   1      39.391  26.187  29.329  1.00  0.00    -0.203 F 
ATOM     86  F   UNL A   1      42.382  28.112  25.193  1.00  0.00    -0.200 F 
ATOM     87  C   UNL A   1      41.057  26.390  26.119  1.00  0.00     0.200 A 
ATOM     88  F   UNL A   1      39.711  24.707  27.083  1.00  0.00    -0.200 F 
ATOM     89  F   UNL A   1      41.175  25.673  24.993  1.00  0.00    -0.200 F 
ENDBRANCH  55  79
BRANCH  67  90
ATOM     90  C   UNL A   1      44.032  28.288  34.603  1.00  0.00     0.064 A 
ATOM     91  C   UNL A   1      45.383  28.622  34.433  1.00  0.00     0.173 A 
ATOM     92  C   UNL A   1      43.724  27.174  35.399  1.00  0.00     0.173 A 
ATOM     93  F   UNL A   1      45.728  29.671  33.671  1.00  0.00    -0.203 F 
ATOM     94  C   UNL A   1      46.388  27.852  35.012  1.00  0.00     0.198 A 
ATOM     95  C   UNL A   1      44.729  26.424  36.001  1.00  0.00     0.198 A 
ATOM     96  F   UNL A   1      42.446  26.817  35.599  1.00  0.00    -0.203 F 
ATOM     97  F   UNL A   1      47.674  28.160  34.795  1.00  0.00    -0.200 F 
ATOM     98  C   UNL A   1      46.060  26.759  35.800  1.00  0.00     0.200 A 
ATOM     99  F   UNL A   1      44.412  25.377  36.774  1.00  0.00    -0.200 F 
ATOM    100  F   UNL A   1      47.029  26.022  36.360  1.00  0.00    -0.200 F 
ENDBRANCH  67  90
ENDBRANCH  41  42
ENDBRANCH  33  36
ENDBRANCH  31  32
ENDBRANCH  30  31
ENDBRANCH  29  30
ENDBRANCH   1  29
TORSDOF 17
ENDMDL
