MODEL 1
REMARK VINA RESULT:     -11.9      0.000      0.000
REMARK SMILES CC(C)[N@@H+](C)Cc1cc2c(cc1Cl)C=C(C(=O)NCCCCCCNC(=O)c1ccc(-c3c4nc(c(-c5c(F)c(F)c(F)c(F)c5F)c5ccc([nH]5)c(-c5c(F)c(F)c(F)c(F)c5F)c5nc(c(-c6c(F)c(F)c(F)c(F)c6F)c6ccc3[nH]6)C=C5)C=C4)cc1)[C@@H](C(F)(F)F)O2
REMARK SMILES IDX 21 1 20 2 19 3 18 4 16 5 17 6 15 8 7 9 8 10 12 11 9 12 11 13
REMARK SMILES IDX 13 14 10 15 96 16 14 17 91 18 6 19 4 20 5 21 2 23 1 24 3 25
REMARK SMILES IDX 92 26 93 27 94 28 95 29 22 30 23 31 24 32 25 33 26 34 27 36
REMARK SMILES IDX 28 37 29 38 90 39 30 40 89 41 31 42 32 43 33 44 83 45 34 46
REMARK SMILES IDX 88 47 82 48 84 49 35 50 87 51 81 52 80 53 36 55 68 56 48 57
REMARK SMILES IDX 67 58 49 59 52 60 66 61 85 62 50 63 51 64 65 66 86 67 53 68
REMARK SMILES IDX 37 69 38 70 46 71 39 72 40 73 44 74 47 75 41 76 42 77 45 78
REMARK SMILES IDX 43 79 69 80 70 81 78 82 71 83 72 84 76 85 79 86 73 87 74 88
REMARK SMILES IDX 77 89 75 90 54 91 55 92 63 93 56 94 57 95 61 96 64 97 58 98
REMARK SMILES IDX 59 99 62 100 60 101
REMARK H PARENT 18 7 4 22 25 35 84 54 52 65
REMARK Flexibility Score: inf
ROOT
ATOM      1  C   UNL A   1      31.809  29.663  26.275  1.00  0.00     0.002 C 
ENDROOT
BRANCH   1   2
ATOM      2  C   UNL A   1      32.116  28.209  26.639  1.00  0.00     0.021 C 
BRANCH   2   3
ATOM      3  C   UNL A   1      33.519  27.751  26.253  1.00  0.00     0.116 C 
BRANCH   3   4
ATOM      4  N   UNL A   1      33.687  27.627  24.814  1.00  0.00    -0.352 N 
ATOM      5  C   UNL A   1      33.574  26.651  23.879  1.00  0.00     0.251 C 
ATOM      6  O   UNL A   1      33.766  27.011  22.713  1.00  0.00    -0.270 OA
ATOM      7  H   UNL A   1      33.956  28.483  24.409  1.00  0.00     0.163 HD
BRANCH   5   8
ATOM      8  C   UNL A   1      33.254  25.219  24.163  1.00  0.00     0.067 C 
ATOM      9  C   UNL A   1      33.526  20.291  25.302  1.00  0.00     0.029 A 
ATOM     10  C   UNL A   1      32.516  21.245  25.188  1.00  0.00     0.058 A 
ATOM     11  C   UNL A   1      34.811  20.680  24.880  1.00  0.00     0.050 A 
ATOM     12  C   UNL A   1      32.787  22.561  24.842  1.00  0.00     0.128 A 
ATOM     13  C   UNL A   1      35.078  22.002  24.471  1.00  0.00     0.033 A 
ATOM     14  Cl  UNL A   1      36.133  19.564  24.838  1.00  0.00    -0.084 Cl
ATOM     15  C   UNL A   1      34.064  22.962  24.481  1.00  0.00     0.019 A 
ATOM     16  O   UNL A   1      31.731  23.401  24.971  1.00  0.00    -0.475 OA
ATOM     17  C   UNL A   1      34.300  24.368  24.178  1.00  0.00     0.025 C 
ATOM     18  C   UNL A   1      31.858  24.723  24.411  1.00  0.00     0.314 C 
BRANCH   9  19
ATOM     19  C   UNL A   1      33.216  18.901  25.826  1.00  0.00     0.300 C 
BRANCH  19  20
ATOM     20  N   UNL A   1      33.508  17.733  24.982  1.00  0.00    -0.332 N 
ATOM     21  C   UNL A   1      32.872  17.688  23.676  1.00  0.00     0.333 C 
ATOM     22  H   UNL A   1      34.469  18.022  24.805  1.00  0.00     0.348 HD
BRANCH  20  23
ATOM     23  C   UNL A   1      33.828  16.428  25.571  1.00  0.00     0.177 C 
ATOM     24  C   UNL A   1      32.753  15.388  25.245  1.00  0.00     0.075 C 
ATOM     25  C   UNL A   1      35.211  15.846  25.260  1.00  0.00     0.075 C 
ENDBRANCH  20  23
ENDBRANCH  19  20
ENDBRANCH   9  19
BRANCH  18  26
ATOM     26  C   UNL A   1      30.952  24.778  23.172  1.00  0.00     0.429 C 
ATOM     27  F   UNL A   1      30.156  23.678  23.126  1.00  0.00    -0.167 F 
ATOM     28  F   UNL A   1      30.124  25.845  23.165  1.00  0.00    -0.167 F 
ATOM     29  F   UNL A   1      31.659  24.814  22.020  1.00  0.00    -0.167 F 
ENDBRANCH  18  26
ENDBRANCH   5   8
ENDBRANCH   3   4
ENDBRANCH   2   3
ENDBRANCH   1   2
BRANCH   1  30
ATOM     30  C   UNL A   1      32.504  30.724  27.138  1.00  0.00     0.002 C 
BRANCH  30  31
ATOM     31  C   UNL A   1      31.846  32.106  27.157  1.00  0.00     0.021 C 
BRANCH  31  32
ATOM     32  C   UNL A   1      32.804  33.280  27.007  1.00  0.00     0.116 C 
BRANCH  32  33
ATOM     33  N   UNL A   1      32.531  34.355  27.946  1.00  0.00    -0.352 N 
ATOM     34  C   UNL A   1      33.172  34.665  29.122  1.00  0.00     0.251 C 
ATOM     35  H   UNL A   1      31.781  34.946  27.706  1.00  0.00     0.163 HD
ATOM     36  O   UNL A   1      32.723  35.531  29.866  1.00  0.00    -0.269 OA
BRANCH  34  37
ATOM     37  C   UNL A   1      34.391  33.922  29.505  1.00  0.00     0.039 A 
ATOM     38  C   UNL A   1      34.305  32.778  30.299  1.00  0.00     0.014 A 
ATOM     39  C   UNL A   1      35.638  34.394  29.083  1.00  0.00     0.014 A 
ATOM     40  C   UNL A   1      35.466  32.203  30.804  1.00  0.00     0.010 A 
ATOM     41  C   UNL A   1      36.805  33.763  29.524  1.00  0.00     0.010 A 
ATOM     42  C   UNL A   1      36.729  32.692  30.429  1.00  0.00    -0.014 A 
BRANCH  42  43
ATOM     43  C   UNL A   1      37.945  32.065  31.007  1.00  0.00     0.031 A 
ATOM     44  C   UNL A   1      38.370  32.362  32.419  1.00  0.00     0.074 A 
ATOM     45  C   UNL A   1      38.619  31.156  30.277  1.00  0.00     0.049 A 
ATOM     46  N   UNL A   1      39.350  31.837  33.112  1.00  0.00    -0.248 NA
ATOM     47  C   UNL A   1      37.601  33.380  33.151  1.00  0.00     0.031 C 
ATOM     48  C   UNL A   1      38.300  30.786  28.897  1.00  0.00     0.029 A 
ATOM     49  N   UNL A   1      39.682  30.351  30.600  1.00  0.00    -0.354 N 
ATOM     50  C   UNL A   1      39.322  32.467  34.349  1.00  0.00     0.074 A 
ATOM     51  C   UNL A   1      38.250  33.436  34.306  1.00  0.00     0.031 C 
ATOM     52  C   UNL A   1      39.098  29.779  28.517  1.00  0.00     0.029 A 
ATOM     53  C   UNL A   1      40.023  29.470  29.603  1.00  0.00     0.049 A 
ATOM     54  H   UNL A   1      40.154  30.400  31.462  1.00  0.00     0.167 HD
ATOM     55  C   UNL A   1      40.109  32.242  35.428  1.00  0.00     0.037 A 
ATOM     56  C   UNL A   1      40.973  28.516  29.567  1.00  0.00     0.037 A 
ATOM     57  C   UNL A   1      41.157  31.256  35.479  1.00  0.00     0.049 A 
ATOM     58  C   UNL A   1      41.853  28.311  30.766  1.00  0.00     0.074 A 
ATOM     59  C   UNL A   1      41.987  30.935  36.538  1.00  0.00     0.029 A 
ATOM     60  N   UNL A   1      41.517  30.431  34.423  1.00  0.00    -0.354 N 
ATOM     61  N   UNL A   1      41.801  28.899  31.936  1.00  0.00    -0.248 NA
ATOM     62  C   UNL A   1      42.931  27.321  30.638  1.00  0.00     0.031 C 
ATOM     63  C   UNL A   1      42.875  29.942  36.113  1.00  0.00     0.029 A 
ATOM     64  C   UNL A   1      42.573  29.617  34.801  1.00  0.00     0.049 A 
ATOM     65  H   UNL A   1      41.087  30.426  33.538  1.00  0.00     0.167 HD
ATOM     66  C   UNL A   1      42.830  28.348  32.685  1.00  0.00     0.074 A 
ATOM     67  C   UNL A   1      43.479  27.362  31.846  1.00  0.00     0.031 C 
ATOM     68  C   UNL A   1      43.207  28.641  33.953  1.00  0.00     0.037 A 
BRANCH  55  69
ATOM     69  C   UNL A   1      39.874  33.072  36.656  1.00  0.00     0.064 A 
ATOM     70  C   UNL A   1      38.939  32.690  37.629  1.00  0.00     0.173 A 
ATOM     71  C   UNL A   1      40.647  34.216  36.901  1.00  0.00     0.173 A 
ATOM     72  F   UNL A   1      38.168  31.609  37.437  1.00  0.00    -0.203 F 
ATOM     73  C   UNL A   1      38.778  33.432  38.797  1.00  0.00     0.198 A 
ATOM     74  C   UNL A   1      40.501  34.942  38.080  1.00  0.00     0.198 A 
ATOM     75  F   UNL A   1      41.562  34.619  36.005  1.00  0.00    -0.203 F 
ATOM     76  F   UNL A   1      37.860  33.064  39.701  1.00  0.00    -0.200 F 
ATOM     77  C   UNL A   1      39.565  34.551  39.026  1.00  0.00     0.200 A 
ATOM     78  F   UNL A   1      41.271  36.015  38.305  1.00  0.00    -0.200 F 
ATOM     79  F   UNL A   1      39.420  35.254  40.158  1.00  0.00    -0.200 F 
ENDBRANCH  55  69
BRANCH  56  80
ATOM     80  C   UNL A   1      41.120  27.675  28.351  1.00  0.00     0.064 A 
ATOM     81  C   UNL A   1      42.003  28.041  27.327  1.00  0.00     0.173 A 
ATOM     82  C   UNL A   1      40.414  26.471  28.208  1.00  0.00     0.173 A 
ATOM     83  F   UNL A   1      42.685  29.193  27.411  1.00  0.00    -0.203 F 
ATOM     84  C   UNL A   1      42.176  27.234  26.205  1.00  0.00     0.198 A 
ATOM     85  C   UNL A   1      40.608  25.652  27.099  1.00  0.00     0.198 A 
ATOM     86  F   UNL A   1      39.560  26.076  29.163  1.00  0.00    -0.203 F 
ATOM     87  F   UNL A   1      43.010  27.617  25.229  1.00  0.00    -0.200 F 
ATOM     88  C   UNL A   1      41.485  26.035  26.097  1.00  0.00     0.200 A 
ATOM     89  F   UNL A   1      39.953  24.487  27.007  1.00  0.00    -0.200 F 
ATOM     90  F   UNL A   1      41.667  25.250  25.026  1.00  0.00    -0.200 F 
ENDBRANCH  56  80
BRANCH  68  91
ATOM     91  C   UNL A   1      44.373  27.890  34.521  1.00  0.00     0.064 A 
ATOM     92  C   UNL A   1      45.675  28.401  34.436  1.00  0.00     0.173 A 
ATOM     93  C   UNL A   1      44.175  26.698  35.234  1.00  0.00     0.173 A 
ATOM     94  F   UNL A   1      45.914  29.531  33.753  1.00  0.00    -0.203 F 
ATOM     95  C   UNL A   1      46.741  27.741  35.041  1.00  0.00     0.198 A 
ATOM     96  C   UNL A   1      45.239  26.054  35.857  1.00  0.00     0.198 A 
ATOM     97  F   UNL A   1      42.945  26.176  35.348  1.00  0.00    -0.203 F 
ATOM     98  F   UNL A   1      47.982  28.235  34.930  1.00  0.00    -0.200 F 
ATOM     99  C   UNL A   1      46.521  26.576  35.760  1.00  0.00     0.200 A 
ATOM    100  F   UNL A   1      45.023  24.935  36.562  1.00  0.00    -0.200 F 
ATOM    101  F   UNL A   1      47.545  25.953  36.358  1.00  0.00    -0.200 F 
ENDBRANCH  68  91
ENDBRANCH  42  43
ENDBRANCH  34  37
ENDBRANCH  32  33
ENDBRANCH  31  32
ENDBRANCH  30  31
ENDBRANCH   1  30
TORSDOF 17
ENDMDL
MODEL 2
REMARK VINA RESULT:     -11.8      1.702      7.578
REMARK SMILES CC(C)[N@@H+](C)Cc1cc2c(cc1Cl)C=C(C(=O)NCCCCCCNC(=O)c1ccc(-c3c4nc(c(-c5c(F)c(F)c(F)c(F)c5F)c5ccc([nH]5)c(-c5c(F)c(F)c(F)c(F)c5F)c5nc(c(-c6c(F)c(F)c(F)c(F)c6F)c6ccc3[nH]6)C=C5)C=C4)cc1)[C@@H](C(F)(F)F)O2
REMARK SMILES IDX 21 1 20 2 19 3 18 4 16 5 17 6 15 8 7 9 8 10 12 11 9 12 11 13
REMARK SMILES IDX 13 14 10 15 96 16 14 17 91 18 6 19 4 20 5 21 2 23 1 24 3 25
REMARK SMILES IDX 92 26 93 27 94 28 95 29 22 30 23 31 24 32 25 33 26 34 27 36
REMARK SMILES IDX 28 37 29 38 90 39 30 40 89 41 31 42 32 43 33 44 83 45 34 46
REMARK SMILES IDX 88 47 82 48 84 49 35 50 87 51 81 52 80 53 36 55 68 56 48 57
REMARK SMILES IDX 67 58 49 59 52 60 66 61 85 62 50 63 51 64 65 66 86 67 53 68
REMARK SMILES IDX 37 69 38 70 46 71 39 72 40 73 44 74 47 75 41 76 42 77 45 78
REMARK SMILES IDX 43 79 69 80 70 81 78 82 71 83 72 84 76 85 79 86 73 87 74 88
REMARK SMILES IDX 77 89 75 90 54 91 55 92 63 93 56 94 57 95 61 96 64 97 58 98
REMARK SMILES IDX 59 99 62 100 60 101
REMARK H PARENT 18 7 4 22 25 35 84 54 52 65
REMARK Flexibility Score: inf
ROOT
ATOM      1  C   UNL A   1      34.573  31.780  28.352  1.00  0.00     0.002 C 
ENDROOT
BRANCH   1   2
ATOM      2  C   UNL A   1      33.412  31.094  27.629  1.00  0.00     0.021 C 
BRANCH   2   3
ATOM      3  C   UNL A   1      33.757  29.728  27.047  1.00  0.00     0.116 C 
BRANCH   3   4
ATOM      4  N   UNL A   1      33.575  29.675  25.606  1.00  0.00    -0.352 N 
ATOM      5  C   UNL A   1      33.264  28.737  24.676  1.00  0.00     0.251 C 
ATOM      6  O   UNL A   1      33.158  29.155  23.519  1.00  0.00    -0.270 OA
ATOM      7  H   UNL A   1      33.716  30.557  25.194  1.00  0.00     0.163 HD
BRANCH   5   8
ATOM      8  C   UNL A   1      33.058  27.283  24.953  1.00  0.00     0.067 C 
ATOM      9  C   UNL A   1      33.713  22.311  25.667  1.00  0.00     0.029 A 
ATOM     10  C   UNL A   1      32.700  23.239  25.906  1.00  0.00     0.058 A 
ATOM     11  C   UNL A   1      34.815  22.761  24.916  1.00  0.00     0.050 A 
ATOM     12  C   UNL A   1      32.843  24.580  25.576  1.00  0.00     0.128 A 
ATOM     13  C   UNL A   1      34.935  24.110  24.528  1.00  0.00     0.033 A 
ATOM     14  Cl  UNL A   1      36.082  21.689  24.428  1.00  0.00    -0.084 Cl
ATOM     15  C   UNL A   1      33.955  25.037  24.888  1.00  0.00     0.019 A 
ATOM     16  O   UNL A   1      31.858  25.379  26.055  1.00  0.00    -0.475 OA
ATOM     17  C   UNL A   1      34.074  26.465  24.615  1.00  0.00     0.025 C 
ATOM     18  C   UNL A   1      31.800  26.734  25.563  1.00  0.00     0.314 C 
BRANCH   9  19
ATOM     19  C   UNL A   1      33.586  20.887  26.173  1.00  0.00     0.300 C 
BRANCH  19  20
ATOM     20  N   UNL A   1      32.886  19.890  25.348  1.00  0.00    -0.332 N 
ATOM     21  C   UNL A   1      32.647  18.589  25.949  1.00  0.00     0.333 C 
ATOM     22  H   UNL A   1      31.995  20.381  25.400  1.00  0.00     0.348 HD
BRANCH  20  23
ATOM     23  C   UNL A   1      32.999  19.897  23.886  1.00  0.00     0.177 C 
ATOM     24  C   UNL A   1      32.783  18.498  23.301  1.00  0.00     0.075 C 
ATOM     25  C   UNL A   1      32.131  20.905  23.126  1.00  0.00     0.075 C 
ENDBRANCH  20  23
ENDBRANCH  19  20
ENDBRANCH   9  19
BRANCH  18  26
ATOM     26  C   UNL A   1      30.573  26.828  24.644  1.00  0.00     0.429 C 
ATOM     27  F   UNL A   1      30.858  26.293  23.428  1.00  0.00    -0.167 F 
ATOM     28  F   UNL A   1      29.503  26.153  25.114  1.00  0.00    -0.167 F 
ATOM     29  F   UNL A   1      30.181  28.106  24.440  1.00  0.00    -0.167 F 
ENDBRANCH  18  26
ENDBRANCH   5   8
ENDBRANCH   3   4
ENDBRANCH   2   3
ENDBRANCH   1   2
BRANCH   1  30
ATOM     30  C   UNL A   1      34.686  33.295  28.139  1.00  0.00     0.002 C 
BRANCH  30  31
ATOM     31  C   UNL A   1      33.454  34.118  28.524  1.00  0.00     0.021 C 
BRANCH  31  32
ATOM     32  C   UNL A   1      33.747  35.532  29.006  1.00  0.00     0.116 C 
BRANCH  32  33
ATOM     33  N   UNL A   1      32.782  36.006  29.986  1.00  0.00    -0.352 N 
ATOM     34  C   UNL A   1      32.734  35.774  31.340  1.00  0.00     0.251 C 
ATOM     35  H   UNL A   1      32.062  36.574  29.629  1.00  0.00     0.163 HD
ATOM     36  O   UNL A   1      31.768  36.141  32.000  1.00  0.00    -0.269 OA
BRANCH  34  37
ATOM     37  C   UNL A   1      33.841  35.044  31.994  1.00  0.00     0.039 A 
ATOM     38  C   UNL A   1      35.050  35.685  32.270  1.00  0.00     0.014 A 
ATOM     39  C   UNL A   1      33.671  33.693  32.314  1.00  0.00     0.014 A 
ATOM     40  C   UNL A   1      36.137  34.939  32.710  1.00  0.00     0.010 A 
ATOM     41  C   UNL A   1      34.743  32.963  32.837  1.00  0.00     0.010 A 
ATOM     42  C   UNL A   1      36.000  33.570  32.992  1.00  0.00    -0.014 A 
BRANCH  42  43
ATOM     43  C   UNL A   1      37.191  32.803  33.440  1.00  0.00     0.031 A 
ATOM     44  C   UNL A   1      37.860  31.813  32.527  1.00  0.00     0.074 A 
ATOM     45  C   UNL A   1      37.720  33.069  34.650  1.00  0.00     0.049 A 
ATOM     46  N   UNL A   1      38.958  31.125  32.720  1.00  0.00    -0.248 NA
ATOM     47  C   UNL A   1      37.217  31.557  31.228  1.00  0.00     0.031 C 
ATOM     48  C   UNL A   1      37.159  34.010  35.621  1.00  0.00     0.029 A 
ATOM     49  N   UNL A   1      38.863  32.609  35.253  1.00  0.00    -0.354 N 
ATOM     50  C   UNL A   1      39.128  30.350  31.580  1.00  0.00     0.074 A 
ATOM     51  C   UNL A   1      38.007  30.625  30.711  1.00  0.00     0.031 C 
ATOM     52  C   UNL A   1      37.994  34.113  36.665  1.00  0.00     0.029 A 
ATOM     53  C   UNL A   1      39.118  33.204  36.465  1.00  0.00     0.049 A 
ATOM     54  H   UNL A   1      39.442  31.919  34.857  1.00  0.00     0.167 HD
ATOM     55  C   UNL A   1      40.139  29.500  31.281  1.00  0.00     0.037 A 
ATOM     56  C   UNL A   1      40.146  33.039  37.320  1.00  0.00     0.037 A 
ATOM     57  C   UNL A   1      41.270  29.250  32.137  1.00  0.00     0.049 A 
ATOM     58  C   UNL A   1      41.236  32.067  36.977  1.00  0.00     0.074 A 
ATOM     59  C   UNL A   1      42.360  28.428  31.905  1.00  0.00     0.029 A 
ATOM     60  N   UNL A   1      41.457  29.820  33.387  1.00  0.00    -0.354 N 
ATOM     61  N   UNL A   1      41.395  31.357  35.887  1.00  0.00    -0.248 NA
ATOM     62  C   UNL A   1      42.284  31.860  37.987  1.00  0.00     0.031 C 
ATOM     63  C   UNL A   1      43.187  28.472  33.031  1.00  0.00     0.029 A 
ATOM     64  C   UNL A   1      42.633  29.350  33.948  1.00  0.00     0.049 A 
ATOM     65  H   UNL A   1      40.844  30.462  33.813  1.00  0.00     0.167 HD
ATOM     66  C   UNL A   1      42.560  30.626  36.074  1.00  0.00     0.074 A 
ATOM     67  C   UNL A   1      43.081  30.994  37.374  1.00  0.00     0.031 C 
ATOM     68  C   UNL A   1      43.139  29.726  35.243  1.00  0.00     0.037 A 
BRANCH  55  69
ATOM     69  C   UNL A   1      40.082  28.772  29.971  1.00  0.00     0.064 A 
ATOM     70  C   UNL A   1      40.685  29.293  28.817  1.00  0.00     0.173 A 
ATOM     71  C   UNL A   1      39.490  27.504  29.887  1.00  0.00     0.173 A 
ATOM     72  F   UNL A   1      41.256  30.507  28.843  1.00  0.00    -0.203 F 
ATOM     73  C   UNL A   1      40.684  28.577  27.623  1.00  0.00     0.198 A 
ATOM     74  C   UNL A   1      39.512  26.779  28.698  1.00  0.00     0.198 A 
ATOM     75  F   UNL A   1      38.907  26.956  30.965  1.00  0.00    -0.203 F 
ATOM     76  F   UNL A   1      41.242  29.106  26.525  1.00  0.00    -0.200 F 
ATOM     77  C   UNL A   1      40.106  27.317  27.566  1.00  0.00     0.200 A 
ATOM     78  F   UNL A   1      38.965  25.556  28.649  1.00  0.00    -0.200 F 
ATOM     79  F   UNL A   1      40.122  26.621  26.421  1.00  0.00    -0.200 F 
ENDBRANCH  55  69
BRANCH  56  80
ATOM     80  C   UNL A   1      40.190  33.837  38.573  1.00  0.00     0.064 A 
ATOM     81  C   UNL A   1      39.525  33.398  39.725  1.00  0.00     0.173 A 
ATOM     82  C   UNL A   1      40.930  35.025  38.655  1.00  0.00     0.173 A 
ATOM     83  F   UNL A   1      38.790  32.277  39.689  1.00  0.00    -0.203 F 
ATOM     84  C   UNL A   1      39.599  34.120  40.915  1.00  0.00     0.198 A 
ATOM     85  C   UNL A   1      41.025  35.731  39.851  1.00  0.00     0.198 A 
ATOM     86  F   UNL A   1      41.587  35.483  37.580  1.00  0.00    -0.203 F 
ATOM     87  F   UNL A   1      38.935  33.693  41.998  1.00  0.00    -0.200 F 
ATOM     88  C   UNL A   1      40.357  35.281  40.979  1.00  0.00     0.200 A 
ATOM     89  F   UNL A   1      41.772  36.841  39.914  1.00  0.00    -0.200 F 
ATOM     90  F   UNL A   1      40.442  35.963  42.129  1.00  0.00    -0.200 F 
ENDBRANCH  56  80
BRANCH  68  91
ATOM     91  C   UNL A   1      44.404  29.070  35.705  1.00  0.00     0.064 A 
ATOM     92  C   UNL A   1      44.378  27.856  36.405  1.00  0.00     0.173 A 
ATOM     93  C   UNL A   1      45.653  29.613  35.368  1.00  0.00     0.173 A 
ATOM     94  F   UNL A   1      43.207  27.306  36.760  1.00  0.00    -0.203 F 
ATOM     95  C   UNL A   1      45.560  27.209  36.754  1.00  0.00     0.198 A 
ATOM     96  C   UNL A   1      46.831  28.951  35.698  1.00  0.00     0.198 A 
ATOM     97  F   UNL A   1      45.727  30.769  34.693  1.00  0.00    -0.203 F 
ATOM     98  F   UNL A   1      45.514  26.059  37.441  1.00  0.00    -0.200 F 
ATOM     99  C   UNL A   1      46.784  27.751  36.392  1.00  0.00     0.200 A 
ATOM    100  F   UNL A   1      48.013  29.470  35.337  1.00  0.00    -0.200 F 
ATOM    101  F   UNL A   1      47.919  27.116  36.712  1.00  0.00    -0.200 F 
ENDBRANCH  68  91
ENDBRANCH  42  43
ENDBRANCH  34  37
ENDBRANCH  32  33
ENDBRANCH  31  32
ENDBRANCH  30  31
ENDBRANCH   1  30
TORSDOF 17
ENDMDL
MODEL 3
REMARK VINA RESULT:     -11.7      5.288     10.673
REMARK SMILES CC(C)[N@@H+](C)Cc1cc2c(cc1Cl)C=C(C(=O)NCCCCCCNC(=O)c1ccc(-c3c4nc(c(-c5c(F)c(F)c(F)c(F)c5F)c5ccc([nH]5)c(-c5c(F)c(F)c(F)c(F)c5F)c5nc(c(-c6c(F)c(F)c(F)c(F)c6F)c6ccc3[nH]6)C=C5)C=C4)cc1)[C@@H](C(F)(F)F)O2
REMARK SMILES IDX 21 1 20 2 19 3 18 4 16 5 17 6 15 8 7 9 8 10 12 11 9 12 11 13
REMARK SMILES IDX 13 14 10 15 96 16 14 17 91 18 6 19 4 20 5 21 2 23 1 24 3 25
REMARK SMILES IDX 92 26 93 27 94 28 95 29 22 30 23 31 24 32 25 33 26 34 27 36
REMARK SMILES IDX 28 37 29 38 90 39 30 40 89 41 31 42 32 43 33 44 83 45 34 46
REMARK SMILES IDX 88 47 82 48 84 49 35 50 87 51 81 52 80 53 36 55 68 56 48 57
REMARK SMILES IDX 67 58 49 59 52 60 66 61 85 62 50 63 51 64 65 66 86 67 53 68
REMARK SMILES IDX 37 69 38 70 46 71 39 72 40 73 44 74 47 75 41 76 42 77 45 78
REMARK SMILES IDX 43 79 69 80 70 81 78 82 71 83 72 84 76 85 79 86 73 87 74 88
REMARK SMILES IDX 77 89 75 90 54 91 55 92 63 93 56 94 57 95 61 96 64 97 58 98
REMARK SMILES IDX 59 99 62 100 60 101
REMARK H PARENT 18 7 4 22 25 35 84 54 52 65
REMARK Flexibility Score: inf
ROOT
ATOM      1  C   UNL A   1      39.187  23.139  25.858  1.00  0.00     0.002 C 
ENDROOT
BRANCH   1   2
ATOM      2  C   UNL A   1      38.032  24.022  26.334  1.00  0.00     0.021 C 
BRANCH   2   3
ATOM      3  C   UNL A   1      36.738  23.837  25.549  1.00  0.00     0.116 C 
BRANCH   3   4
ATOM      4  N   UNL A   1      35.658  23.318  26.371  1.00  0.00    -0.352 N 
ATOM      5  C   UNL A   1      34.308  23.433  26.429  1.00  0.00     0.251 C 
ATOM      6  O   UNL A   1      33.755  22.745  27.294  1.00  0.00    -0.270 OA
ATOM      7  H   UNL A   1      35.999  22.723  27.078  1.00  0.00     0.163 HD
BRANCH   5   8
ATOM      8  C   UNL A   1      33.479  24.313  25.550  1.00  0.00     0.067 C 
ATOM      9  C   UNL A   1      31.141  28.268  23.418  1.00  0.00     0.029 A 
ATOM     10  C   UNL A   1      31.391  26.940  23.075  1.00  0.00     0.058 A 
ATOM     11  C   UNL A   1      31.471  28.653  24.731  1.00  0.00     0.050 A 
ATOM     12  C   UNL A   1      32.085  26.084  23.919  1.00  0.00     0.128 A 
ATOM     13  C   UNL A   1      32.124  27.767  25.611  1.00  0.00     0.033 A 
ATOM     14  Cl  UNL A   1      31.097  30.229  25.339  1.00  0.00    -0.084 Cl
ATOM     15  C   UNL A   1      32.464  26.479  25.191  1.00  0.00     0.019 A 
ATOM     16  O   UNL A   1      32.418  24.896  23.357  1.00  0.00    -0.475 OA
ATOM     17  C   UNL A   1      33.238  25.556  26.013  1.00  0.00     0.025 C 
ATOM     18  C   UNL A   1      32.925  23.865  24.228  1.00  0.00     0.314 C 
BRANCH   9  19
ATOM     19  C   UNL A   1      30.512  29.216  22.415  1.00  0.00     0.300 C 
BRANCH  19  20
ATOM     20  N   UNL A   1      29.165  29.746  22.674  1.00  0.00    -0.332 N 
ATOM     21  C   UNL A   1      28.080  28.782  22.751  1.00  0.00     0.333 C 
ATOM     22  H   UNL A   1      29.378  29.991  23.639  1.00  0.00     0.348 HD
BRANCH  20  23
ATOM     23  C   UNL A   1      28.779  31.093  22.238  1.00  0.00     0.177 C 
ATOM     24  C   UNL A   1      28.031  31.057  20.902  1.00  0.00     0.075 C 
ATOM     25  C   UNL A   1      27.994  31.949  23.237  1.00  0.00     0.075 C 
ENDBRANCH  20  23
ENDBRANCH  19  20
ENDBRANCH   9  19
BRANCH  18  26
ATOM     26  C   UNL A   1      31.831  22.794  24.345  1.00  0.00     0.429 C 
ATOM     27  F   UNL A   1      32.390  21.557  24.389  1.00  0.00    -0.167 F 
ATOM     28  F   UNL A   1      31.087  22.914  25.466  1.00  0.00    -0.167 F 
ATOM     29  F   UNL A   1      30.978  22.814  23.296  1.00  0.00    -0.167 F 
ENDBRANCH  18  26
ENDBRANCH   5   8
ENDBRANCH   3   4
ENDBRANCH   2   3
ENDBRANCH   1   2
BRANCH   1  30
ATOM     30  C   UNL A   1      39.337  21.795  26.584  1.00  0.00     0.002 C 
BRANCH  30  31
ATOM     31  C   UNL A   1      39.587  20.578  25.690  1.00  0.00     0.021 C 
BRANCH  31  32
ATOM     32  C   UNL A   1      40.083  19.334  26.417  1.00  0.00     0.116 C 
BRANCH  32  33
ATOM     33  N   UNL A   1      41.351  18.846  25.899  1.00  0.00    -0.352 N 
ATOM     34  C   UNL A   1      42.542  19.515  25.746  1.00  0.00     0.251 C 
ATOM     35  H   UNL A   1      41.358  17.902  25.619  1.00  0.00     0.163 HD
ATOM     36  O   UNL A   1      43.482  18.986  25.162  1.00  0.00    -0.269 OA
BRANCH  34  37
ATOM     37  C   UNL A   1      42.673  20.896  26.257  1.00  0.00     0.039 A 
ATOM     38  C   UNL A   1      42.836  21.967  25.377  1.00  0.00     0.014 A 
ATOM     39  C   UNL A   1      42.657  21.116  27.638  1.00  0.00     0.014 A 
ATOM     40  C   UNL A   1      43.145  23.226  25.878  1.00  0.00     0.010 A 
ATOM     41  C   UNL A   1      42.885  22.402  28.139  1.00  0.00     0.010 A 
ATOM     42  C   UNL A   1      43.181  23.458  27.263  1.00  0.00    -0.014 A 
BRANCH  42  43
ATOM     43  C   UNL A   1      43.537  24.813  27.759  1.00  0.00     0.031 A 
ATOM     44  C   UNL A   1      44.969  25.270  27.793  1.00  0.00     0.074 A 
ATOM     45  C   UNL A   1      42.549  25.662  28.099  1.00  0.00     0.049 A 
ATOM     46  N   UNL A   1      45.450  26.447  28.109  1.00  0.00    -0.248 NA
ATOM     47  C   UNL A   1      45.998  24.284  27.427  1.00  0.00     0.031 C 
ATOM     48  C   UNL A   1      41.123  25.330  28.105  1.00  0.00     0.029 A 
ATOM     49  N   UNL A   1      42.584  26.984  28.465  1.00  0.00    -0.354 N 
ATOM     50  C   UNL A   1      46.830  26.338  27.994  1.00  0.00     0.074 A 
ATOM     51  C   UNL A   1      47.116  24.974  27.609  1.00  0.00     0.031 C 
ATOM     52  C   UNL A   1      40.417  26.434  28.385  1.00  0.00     0.029 A 
ATOM     53  C   UNL A   1      41.339  27.537  28.635  1.00  0.00     0.049 A 
ATOM     54  H   UNL A   1      43.421  27.486  28.594  1.00  0.00     0.167 HD
ATOM     55  C   UNL A   1      47.770  27.296  28.175  1.00  0.00     0.037 A 
ATOM     56  C   UNL A   1      40.978  28.795  28.954  1.00  0.00     0.037 A 
ATOM     57  C   UNL A   1      47.481  28.661  28.529  1.00  0.00     0.049 A 
ATOM     58  C   UNL A   1      42.042  29.828  29.181  1.00  0.00     0.074 A 
ATOM     59  C   UNL A   1      48.366  29.711  28.705  1.00  0.00     0.029 A 
ATOM     60  N   UNL A   1      46.209  29.165  28.761  1.00  0.00    -0.354 N 
ATOM     61  N   UNL A   1      43.341  29.717  29.048  1.00  0.00    -0.248 NA
ATOM     62  C   UNL A   1      41.595  31.160  29.616  1.00  0.00     0.031 C 
ATOM     63  C   UNL A   1      47.633  30.842  29.080  1.00  0.00     0.029 A 
ATOM     64  C   UNL A   1      46.290  30.507  29.100  1.00  0.00     0.049 A 
ATOM     65  H   UNL A   1      45.375  28.648  28.695  1.00  0.00     0.167 HD
ATOM     66  C   UNL A   1      43.866  30.959  29.373  1.00  0.00     0.074 A 
ATOM     67  C   UNL A   1      42.744  31.818  29.691  1.00  0.00     0.031 C 
ATOM     68  C   UNL A   1      45.163  31.348  29.412  1.00  0.00     0.037 A 
BRANCH  55  69
ATOM     69  C   UNL A   1      49.209  26.914  27.992  1.00  0.00     0.064 A 
ATOM     70  C   UNL A   1      49.831  26.982  26.736  1.00  0.00     0.173 A 
ATOM     71  C   UNL A   1      49.996  26.552  29.095  1.00  0.00     0.173 A 
ATOM     72  F   UNL A   1      49.119  27.313  25.648  1.00  0.00    -0.203 F 
ATOM     73  C   UNL A   1      51.184  26.690  26.591  1.00  0.00     0.198 A 
ATOM     74  C   UNL A   1      51.354  26.284  28.951  1.00  0.00     0.198 A 
ATOM     75  F   UNL A   1      49.451  26.480  30.319  1.00  0.00    -0.203 F 
ATOM     76  F   UNL A   1      51.751  26.736  25.377  1.00  0.00    -0.200 F 
ATOM     77  C   UNL A   1      51.947  26.351  27.698  1.00  0.00     0.200 A 
ATOM     78  F   UNL A   1      52.092  25.969  30.024  1.00  0.00    -0.200 F 
ATOM     79  F   UNL A   1      53.254  26.086  27.559  1.00  0.00    -0.200 F 
ENDBRANCH  55  69
BRANCH  56  80
ATOM     80  C   UNL A   1      39.536  29.139  29.056  1.00  0.00     0.064 A 
ATOM     81  C   UNL A   1      38.795  29.466  27.914  1.00  0.00     0.173 A 
ATOM     82  C   UNL A   1      38.863  29.104  30.287  1.00  0.00     0.173 A 
ATOM     83  F   UNL A   1      39.399  29.528  26.718  1.00  0.00    -0.203 F 
ATOM     84  C   UNL A   1      37.432  29.746  27.997  1.00  0.00     0.198 A 
ATOM     85  C   UNL A   1      37.497  29.359  30.366  1.00  0.00     0.198 A 
ATOM     86  F   UNL A   1      39.529  28.793  31.407  1.00  0.00    -0.203 F 
ATOM     87  F   UNL A   1      36.749  30.079  26.894  1.00  0.00    -0.200 F 
ATOM     88  C   UNL A   1      36.783  29.683  29.222  1.00  0.00     0.200 A 
ATOM     89  F   UNL A   1      36.870  29.280  31.547  1.00  0.00    -0.200 F 
ATOM     90  F   UNL A   1      35.469  29.934  29.299  1.00  0.00    -0.200 F 
ENDBRANCH  56  80
BRANCH  68  91
ATOM     91  C   UNL A   1      45.451  32.763  29.810  1.00  0.00     0.064 A 
ATOM     92  C   UNL A   1      45.740  33.098  31.140  1.00  0.00     0.173 A 
ATOM     93  C   UNL A   1      45.528  33.775  28.841  1.00  0.00     0.173 A 
ATOM     94  F   UNL A   1      45.667  32.167  32.102  1.00  0.00    -0.203 F 
ATOM     95  C   UNL A   1      46.092  34.400  31.487  1.00  0.00     0.198 A 
ATOM     96  C   UNL A   1      45.902  35.069  29.189  1.00  0.00     0.198 A 
ATOM     97  F   UNL A   1      45.266  33.500  27.555  1.00  0.00    -0.203 F 
ATOM     98  F   UNL A   1      46.345  34.704  32.768  1.00  0.00    -0.200 F 
ATOM     99  C   UNL A   1      46.183  35.380  30.511  1.00  0.00     0.200 A 
ATOM    100  F   UNL A   1      46.002  36.013  28.242  1.00  0.00    -0.200 F 
ATOM    101  F   UNL A   1      46.542  36.627  30.845  1.00  0.00    -0.200 F 
ENDBRANCH  68  91
ENDBRANCH  42  43
ENDBRANCH  34  37
ENDBRANCH  32  33
ENDBRANCH  31  32
ENDBRANCH  30  31
ENDBRANCH   1  30
TORSDOF 17
ENDMDL
