MODEL 1
REMARK VINA RESULT:     -12.8      0.000      0.000
REMARK SMILES O=C(NCCCCCCNC(=O)c1ccc(-c2c3nc(c(-c4c(F)c(F)c(F)c(F)c4F)c4ccc([nH]4)c(-c4c(F)c(F)c(F)c(F)c4F)c4nc(c(-c5c(F)c(F)c(F)c(F)c5F)c5ccc2[nH]5)C=C4)C=C3)cc1)C1=Cc2cc(Cl)cc(C#Cc3ccccc3)c2O[C@@H]1C(F)(F)F
REMARK SMILES IDX 6 1 5 2 4 3 3 4 1 5 2 6 76 8 77 9 94 10 78 11 93 12 79 13
REMARK SMILES IDX 92 14 80 15 83 16 81 17 82 18 95 19 96 20 97 21 98 22 84 23
REMARK SMILES IDX 85 24 86 25 87 26 91 27 88 28 90 29 89 30 7 31 8 32 9 33
REMARK SMILES IDX 10 34 11 35 12 37 13 38 14 39 75 40 15 41 74 42 16 43 17 44
REMARK SMILES IDX 18 45 68 46 19 47 73 48 67 49 69 50 20 51 72 52 66 53 65 54
REMARK SMILES IDX 21 56 53 57 33 58 52 59 34 60 37 61 51 62 70 63 35 64 36 65
REMARK SMILES IDX 50 67 71 68 38 69 22 70 23 71 31 72 24 73 25 74 29 75 32 76
REMARK SMILES IDX 26 77 27 78 30 79 28 80 54 81 55 82 63 83 56 84 57 85 61 86
REMARK SMILES IDX 64 87 58 88 59 89 62 90 60 91 39 92 40 93 48 94 41 95 42 96
REMARK SMILES IDX 46 97 49 98 43 99 44 100 47 101 45 102
REMARK H PARENT 3 7 10 36 69 55 37 66
REMARK Flexibility Score: inf
ROOT
ATOM      1  C   UNL A   1      30.983  27.610  24.055  1.00  0.00     0.002 C 
ENDROOT
BRANCH   1   2
ATOM      2  C   UNL A   1      30.324  26.628  25.025  1.00  0.00     0.021 C 
BRANCH   2   3
ATOM      3  C   UNL A   1      30.982  26.516  26.395  1.00  0.00     0.116 C 
BRANCH   3   4
ATOM      4  N   UNL A   1      31.219  25.165  26.869  1.00  0.00    -0.352 N 
ATOM      5  O   UNL A   1      32.322  23.220  27.107  1.00  0.00    -0.270 OA
ATOM      6  C   UNL A   1      32.149  24.247  26.454  1.00  0.00     0.251 C 
ATOM      7  H   UNL A   1      30.625  24.863  27.595  1.00  0.00     0.163 HD
BRANCH   6   8
ATOM      8  C   UNL A   1      33.045  24.506  25.287  1.00  0.00     0.067 C 
ATOM      9  C   UNL A   1      34.325  24.876  25.454  1.00  0.00     0.025 C 
ATOM     10  C   UNL A   1      32.703  23.649  24.096  1.00  0.00     0.314 C 
ATOM     11  C   UNL A   1      35.304  23.845  25.039  1.00  0.00     0.020 A 
ATOM     12  O   UNL A   1      33.551  22.471  24.043  1.00  0.00    -0.474 OA
ATOM     13  C   UNL A   1      36.605  23.958  25.544  1.00  0.00     0.032 A 
ATOM     14  C   UNL A   1      34.831  22.612  24.537  1.00  0.00     0.143 A 
ATOM     15  C   UNL A   1      37.401  22.821  25.631  1.00  0.00     0.043 A 
ATOM     16  C   UNL A   1      35.614  21.460  24.706  1.00  0.00     0.069 A 
ATOM     17  Cl  UNL A   1      38.925  22.911  26.427  1.00  0.00    -0.084 Cl
ATOM     18  C   UNL A   1      36.910  21.579  25.228  1.00  0.00     0.041 A 
BRANCH  10  19
ATOM     19  C   UNL A   1      32.735  24.492  22.803  1.00  0.00     0.429 C 
ATOM     20  F   UNL A   1      31.492  24.848  22.405  1.00  0.00    -0.167 F 
ATOM     21  F   UNL A   1      33.434  25.641  22.980  1.00  0.00    -0.167 F 
ATOM     22  F   UNL A   1      33.317  23.840  21.768  1.00  0.00    -0.167 F 
ENDBRANCH  10  19
BRANCH  16  23
ATOM     23  C   UNL A   1      35.054  20.132  24.634  1.00  0.00    -0.058 C 
ATOM     24  C   UNL A   1      34.573  19.038  24.766  1.00  0.00    -0.062 C 
BRANCH  24  25
ATOM     25  C   UNL A   1      34.007  17.736  25.008  1.00  0.00     0.025 A 
ATOM     26  C   UNL A   1      32.682  17.612  25.422  1.00  0.00     0.017 A 
ATOM     27  C   UNL A   1      34.767  16.576  24.822  1.00  0.00     0.017 A 
ATOM     28  C   UNL A   1      32.125  16.347  25.637  1.00  0.00     0.001 A 
ATOM     29  C   UNL A   1      34.217  15.310  25.042  1.00  0.00     0.001 A 
ATOM     30  C   UNL A   1      32.892  15.196  25.446  1.00  0.00     0.000 A 
ENDBRANCH  24  25
ENDBRANCH  16  23
ENDBRANCH   6   8
ENDBRANCH   3   4
ENDBRANCH   2   3
ENDBRANCH   1   2
BRANCH   1  31
ATOM     31  C   UNL A   1      31.831  28.720  24.690  1.00  0.00     0.002 C 
BRANCH  31  32
ATOM     32  C   UNL A   1      33.346  28.503  24.656  1.00  0.00     0.021 C 
BRANCH  32  33
ATOM     33  C   UNL A   1      34.085  28.708  25.970  1.00  0.00     0.116 C 
BRANCH  33  34
ATOM     34  N   UNL A   1      33.784  29.991  26.579  1.00  0.00    -0.352 N 
ATOM     35  C   UNL A   1      34.429  30.679  27.576  1.00  0.00     0.251 C 
ATOM     36  H   UNL A   1      32.988  30.442  26.217  1.00  0.00     0.163 HD
ATOM     37  O   UNL A   1      33.892  31.666  28.071  1.00  0.00    -0.269 OA
BRANCH  35  38
ATOM     38  C   UNL A   1      35.754  30.242  28.074  1.00  0.00     0.039 A 
ATOM     39  C   UNL A   1      35.831  29.649  29.337  1.00  0.00     0.014 A 
ATOM     40  C   UNL A   1      36.922  30.461  27.339  1.00  0.00     0.014 A 
ATOM     41  C   UNL A   1      37.067  29.238  29.842  1.00  0.00     0.010 A 
ATOM     42  C   UNL A   1      38.141  29.974  27.805  1.00  0.00     0.010 A 
ATOM     43  C   UNL A   1      38.230  29.373  29.068  1.00  0.00    -0.014 A 
BRANCH  43  44
ATOM     44  C   UNL A   1      39.547  28.913  29.574  1.00  0.00     0.031 A 
ATOM     45  C   UNL A   1      40.283  29.717  30.611  1.00  0.00     0.074 A 
ATOM     46  C   UNL A   1      40.105  27.799  29.063  1.00  0.00     0.049 A 
ATOM     47  N   UNL A   1      41.461  29.504  31.144  1.00  0.00    -0.248 NA
ATOM     48  C   UNL A   1      39.620  30.936  31.097  1.00  0.00     0.031 C 
ATOM     49  C   UNL A   1      39.506  26.954  28.028  1.00  0.00     0.029 A 
ATOM     50  N   UNL A   1      41.302  27.187  29.340  1.00  0.00    -0.354 N 
ATOM     51  C   UNL A   1      41.684  30.568  32.008  1.00  0.00     0.074 A 
ATOM     52  C   UNL A   1      40.545  31.452  31.892  1.00  0.00     0.031 C 
ATOM     53  C   UNL A   1      40.323  25.918  27.780  1.00  0.00     0.029 A 
ATOM     54  C   UNL A   1      41.521  26.048  28.603  1.00  0.00     0.049 A 
ATOM     55  H   UNL A   1      41.942  27.532  30.003  1.00  0.00     0.167 HD
ATOM     56  C   UNL A   1      42.735  30.779  32.837  1.00  0.00     0.037 A 
ATOM     57  C   UNL A   1      42.573  25.208  28.592  1.00  0.00     0.037 A 
ATOM     58  C   UNL A   1      43.854  29.882  32.964  1.00  0.00     0.049 A 
ATOM     59  C   UNL A   1      43.737  25.477  29.508  1.00  0.00     0.074 A 
ATOM     60  C   UNL A   1      44.932  29.966  33.828  1.00  0.00     0.029 A 
ATOM     61  N   UNL A   1      44.044  28.741  32.198  1.00  0.00    -0.354 N 
ATOM     62  N   UNL A   1      43.901  26.443  30.378  1.00  0.00    -0.248 NA
ATOM     63  C   UNL A   1      44.861  24.534  29.439  1.00  0.00     0.031 C 
ATOM     64  C   UNL A   1      45.806  28.913  33.541  1.00  0.00     0.029 A 
ATOM     65  C   UNL A   1      45.241  28.133  32.544  1.00  0.00     0.049 A 
ATOM     66  H   UNL A   1      43.422  28.412  31.510  1.00  0.00     0.167 HD
ATOM     67  C   UNL A   1      45.126  26.206  30.986  1.00  0.00     0.074 A 
ATOM     68  C   UNL A   1      45.658  24.997  30.393  1.00  0.00     0.031 C 
ATOM     69  C   UNL A   1      45.754  26.924  31.949  1.00  0.00     0.037 A 
BRANCH  56  70
ATOM     70  C   UNL A   1      42.732  32.034  33.662  1.00  0.00     0.064 A 
ATOM     71  C   UNL A   1      43.283  33.236  33.189  1.00  0.00     0.173 A 
ATOM     72  C   UNL A   1      42.137  32.046  34.934  1.00  0.00     0.173 A 
ATOM     73  F   UNL A   1      43.873  33.280  31.985  1.00  0.00    -0.203 F 
ATOM     74  C   UNL A   1      43.271  34.388  33.971  1.00  0.00     0.198 A 
ATOM     75  C   UNL A   1      42.095  33.208  35.698  1.00  0.00     0.198 A 
ATOM     76  F   UNL A   1      41.588  30.927  35.433  1.00  0.00    -0.203 F 
ATOM     77  F   UNL A   1      43.854  35.508  33.521  1.00  0.00    -0.200 F 
ATOM     78  C   UNL A   1      42.671  34.376  35.221  1.00  0.00     0.200 A 
ATOM     79  F   UNL A   1      41.500  33.198  36.899  1.00  0.00    -0.200 F 
ATOM     80  F   UNL A   1      42.653  35.488  35.969  1.00  0.00    -0.200 F 
ENDBRANCH  56  70
BRANCH  57  81
ATOM     81  C   UNL A   1      42.561  24.015  27.705  1.00  0.00     0.064 A 
ATOM     82  C   UNL A   1      42.206  22.753  28.204  1.00  0.00     0.173 A 
ATOM     83  C   UNL A   1      42.906  24.106  26.349  1.00  0.00     0.173 A 
ATOM     84  F   UNL A   1      41.888  22.612  29.499  1.00  0.00    -0.203 F 
ATOM     85  C   UNL A   1      42.219  21.626  27.387  1.00  0.00     0.198 A 
ATOM     86  C   UNL A   1      42.889  22.981  25.525  1.00  0.00     0.198 A 
ATOM     87  F   UNL A   1      43.250  25.289  25.819  1.00  0.00    -0.203 F 
ATOM     88  F   UNL A   1      41.922  20.425  27.902  1.00  0.00    -0.200 F 
ATOM     89  C   UNL A   1      42.553  21.742  26.046  1.00  0.00     0.200 A 
ATOM     90  F   UNL A   1      43.198  23.100  24.227  1.00  0.00    -0.200 F 
ATOM     91  F   UNL A   1      42.561  20.657  25.259  1.00  0.00    -0.200 F 
ENDBRANCH  57  81
BRANCH  69  92
ATOM     92  C   UNL A   1      47.068  26.400  32.455  1.00  0.00     0.064 A 
ATOM     93  C   UNL A   1      47.139  25.428  33.464  1.00  0.00     0.173 A 
ATOM     94  C   UNL A   1      48.273  26.850  31.892  1.00  0.00     0.173 A 
ATOM     95  F   UNL A   1      46.019  24.975  34.046  1.00  0.00    -0.203 F 
ATOM     96  C   UNL A   1      48.369  24.949  33.912  1.00  0.00     0.198 A 
ATOM     97  C   UNL A   1      49.498  26.344  32.318  1.00  0.00     0.198 A 
ATOM     98  F   UNL A   1      48.263  27.773  30.919  1.00  0.00    -0.203 F 
ATOM     99  F   UNL A   1      48.414  24.062  34.915  1.00  0.00    -0.200 F 
ATOM    100  C   UNL A   1      49.545  25.401  33.333  1.00  0.00     0.200 A 
ATOM    101  F   UNL A   1      50.633  26.769  31.745  1.00  0.00    -0.200 F 
ATOM    102  F   UNL A   1      50.727  24.932  33.758  1.00  0.00    -0.200 F 
ENDBRANCH  69  92
ENDBRANCH  43  44
ENDBRANCH  35  38
ENDBRANCH  33  34
ENDBRANCH  32  33
ENDBRANCH  31  32
ENDBRANCH   1  31
TORSDOF 16
ENDMDL
MODEL 2
REMARK VINA RESULT:     -12.7      3.625      9.443
REMARK SMILES O=C(NCCCCCCNC(=O)c1ccc(-c2c3nc(c(-c4c(F)c(F)c(F)c(F)c4F)c4ccc([nH]4)c(-c4c(F)c(F)c(F)c(F)c4F)c4nc(c(-c5c(F)c(F)c(F)c(F)c5F)c5ccc2[nH]5)C=C4)C=C3)cc1)C1=Cc2cc(Cl)cc(C#Cc3ccccc3)c2O[C@@H]1C(F)(F)F
REMARK SMILES IDX 6 1 5 2 4 3 3 4 1 5 2 6 76 8 77 9 94 10 78 11 93 12 79 13
REMARK SMILES IDX 92 14 80 15 83 16 81 17 82 18 95 19 96 20 97 21 98 22 84 23
REMARK SMILES IDX 85 24 86 25 87 26 91 27 88 28 90 29 89 30 7 31 8 32 9 33
REMARK SMILES IDX 10 34 11 35 12 37 13 38 14 39 75 40 15 41 74 42 16 43 17 44
REMARK SMILES IDX 18 45 68 46 19 47 73 48 67 49 69 50 20 51 72 52 66 53 65 54
REMARK SMILES IDX 21 56 53 57 33 58 52 59 34 60 37 61 51 62 70 63 35 64 36 65
REMARK SMILES IDX 50 67 71 68 38 69 22 70 23 71 31 72 24 73 25 74 29 75 32 76
REMARK SMILES IDX 26 77 27 78 30 79 28 80 54 81 55 82 63 83 56 84 57 85 61 86
REMARK SMILES IDX 64 87 58 88 59 89 62 90 60 91 39 92 40 93 48 94 41 95 42 96
REMARK SMILES IDX 46 97 49 98 43 99 44 100 47 101 45 102
REMARK H PARENT 3 7 10 36 69 55 37 66
REMARK Flexibility Score: inf
ROOT
ATOM      1  C   UNL A   1      33.211  21.626  25.088  1.00  0.00     0.002 C 
ENDROOT
BRANCH   1   2
ATOM      2  C   UNL A   1      33.100  21.633  23.564  1.00  0.00     0.021 C 
BRANCH   2   3
ATOM      3  C   UNL A   1      32.299  22.786  22.968  1.00  0.00     0.116 C 
BRANCH   3   4
ATOM      4  N   UNL A   1      33.064  23.970  22.625  1.00  0.00    -0.352 N 
ATOM      5  O   UNL A   1      34.182  25.887  22.986  1.00  0.00    -0.270 OA
ATOM      6  C   UNL A   1      33.359  25.068  23.390  1.00  0.00     0.251 C 
ATOM      7  H   UNL A   1      33.424  23.987  21.708  1.00  0.00     0.163 HD
BRANCH   6   8
ATOM      8  C   UNL A   1      32.792  25.250  24.761  1.00  0.00     0.067 C 
ATOM      9  C   UNL A   1      33.474  25.892  25.722  1.00  0.00     0.025 C 
ATOM     10  C   UNL A   1      31.290  25.371  24.752  1.00  0.00     0.314 C 
ATOM     11  C   UNL A   1      32.883  27.195  26.105  1.00  0.00     0.020 A 
ATOM     12  O   UNL A   1      30.882  26.765  24.776  1.00  0.00    -0.474 OA
ATOM     13  C   UNL A   1      33.714  28.104  26.770  1.00  0.00     0.032 A 
ATOM     14  C   UNL A   1      31.713  27.637  25.448  1.00  0.00     0.143 A 
ATOM     15  C   UNL A   1      33.426  29.463  26.704  1.00  0.00     0.043 A 
ATOM     16  C   UNL A   1      31.480  29.015  25.321  1.00  0.00     0.069 A 
ATOM     17  Cl  UNL A   1      34.544  30.600  27.352  1.00  0.00    -0.084 Cl
ATOM     18  C   UNL A   1      32.327  29.920  25.976  1.00  0.00     0.041 A 
BRANCH  10  19
ATOM     19  C   UNL A   1      30.679  24.528  25.892  1.00  0.00     0.429 C 
ATOM     20  F   UNL A   1      29.569  25.108  26.405  1.00  0.00    -0.167 F 
ATOM     21  F   UNL A   1      30.312  23.298  25.454  1.00  0.00    -0.167 F 
ATOM     22  F   UNL A   1      31.541  24.333  26.919  1.00  0.00    -0.167 F 
ENDBRANCH  10  19
BRANCH  16  23
ATOM     23  C   UNL A   1      30.587  29.555  24.325  1.00  0.00    -0.058 C 
ATOM     24  C   UNL A   1      29.921  30.177  23.539  1.00  0.00    -0.062 C 
BRANCH  24  25
ATOM     25  C   UNL A   1      29.152  30.991  22.634  1.00  0.00     0.025 A 
ATOM     26  C   UNL A   1      28.850  32.312  22.963  1.00  0.00     0.017 A 
ATOM     27  C   UNL A   1      28.705  30.482  21.410  1.00  0.00     0.017 A 
ATOM     28  C   UNL A   1      28.121  33.111  22.075  1.00  0.00     0.001 A 
ATOM     29  C   UNL A   1      27.971  31.274  20.522  1.00  0.00     0.001 A 
ATOM     30  C   UNL A   1      27.683  32.593  20.855  1.00  0.00     0.000 A 
ENDBRANCH  24  25
ENDBRANCH  16  23
ENDBRANCH   6   8
ENDBRANCH   3   4
ENDBRANCH   2   3
ENDBRANCH   1   2
BRANCH   1  31
ATOM     31  C   UNL A   1      34.634  21.583  25.661  1.00  0.00     0.002 C 
BRANCH  31  32
ATOM     32  C   UNL A   1      35.056  22.801  26.488  1.00  0.00     0.021 C 
BRANCH  32  33
ATOM     33  C   UNL A   1      36.340  23.494  26.058  1.00  0.00     0.116 C 
BRANCH  33  34
ATOM     34  N   UNL A   1      37.472  22.586  26.021  1.00  0.00    -0.352 N 
ATOM     35  C   UNL A   1      38.802  22.806  26.278  1.00  0.00     0.251 C 
ATOM     36  H   UNL A   1      37.250  21.661  25.772  1.00  0.00     0.163 HD
ATOM     37  O   UNL A   1      39.622  21.934  26.003  1.00  0.00    -0.269 OA
BRANCH  35  38
ATOM     38  C   UNL A   1      39.266  24.083  26.868  1.00  0.00     0.039 A 
ATOM     39  C   UNL A   1      39.958  24.984  26.053  1.00  0.00     0.014 A 
ATOM     40  C   UNL A   1      39.079  24.376  28.221  1.00  0.00     0.014 A 
ATOM     41  C   UNL A   1      40.421  26.191  26.582  1.00  0.00     0.010 A 
ATOM     42  C   UNL A   1      39.464  25.615  28.727  1.00  0.00     0.010 A 
ATOM     43  C   UNL A   1      40.154  26.529  27.918  1.00  0.00    -0.014 A 
BRANCH  43  44
ATOM     44  C   UNL A   1      40.610  27.821  28.490  1.00  0.00     0.031 A 
ATOM     45  C   UNL A   1      42.061  28.030  28.828  1.00  0.00     0.074 A 
ATOM     46  C   UNL A   1      39.710  28.788  28.751  1.00  0.00     0.049 A 
ATOM     47  N   UNL A   1      42.645  29.068  29.374  1.00  0.00    -0.248 NA
ATOM     48  C   UNL A   1      42.976  26.915  28.539  1.00  0.00     0.031 C 
ATOM     49  C   UNL A   1      38.272  28.691  28.501  1.00  0.00     0.029 A 
ATOM     50  N   UNL A   1      39.870  30.040  29.290  1.00  0.00    -0.354 N 
ATOM     51  C   UNL A   1      43.983  28.724  29.508  1.00  0.00     0.074 A 
ATOM     52  C   UNL A   1      44.118  27.363  29.036  1.00  0.00     0.031 C 
ATOM     53  C   UNL A   1      37.685  29.845  28.856  1.00  0.00     0.029 A 
ATOM     54  C   UNL A   1      38.697  30.746  29.399  1.00  0.00     0.049 A 
ATOM     55  H   UNL A   1      40.743  30.398  29.571  1.00  0.00     0.167 HD
ATOM     56  C   UNL A   1      45.010  29.480  29.967  1.00  0.00     0.037 A 
ATOM     57  C   UNL A   1      38.465  31.980  29.887  1.00  0.00     0.037 A 
ATOM     58  C   UNL A   1      44.871  30.842  30.413  1.00  0.00     0.049 A 
ATOM     59  C   UNL A   1      39.621  32.790  30.411  1.00  0.00     0.074 A 
ATOM     60  C   UNL A   1      45.859  31.719  30.826  1.00  0.00     0.029 A 
ATOM     61  N   UNL A   1      43.666  31.522  30.515  1.00  0.00    -0.354 N 
ATOM     62  N   UNL A   1      40.894  32.484  30.459  1.00  0.00    -0.248 NA
ATOM     63  C   UNL A   1      39.303  34.122  30.944  1.00  0.00     0.031 C 
ATOM     64  C   UNL A   1      45.246  32.906  31.238  1.00  0.00     0.029 A 
ATOM     65  C   UNL A   1      43.882  32.795  31.019  1.00  0.00     0.049 A 
ATOM     66  H   UNL A   1      42.787  31.155  30.266  1.00  0.00     0.167 HD
ATOM     67  C   UNL A   1      41.534  33.594  30.993  1.00  0.00     0.074 A 
ATOM     68  C   UNL A   1      40.509  34.586  31.241  1.00  0.00     0.031 C 
ATOM     69  C   UNL A   1      42.852  33.776  31.254  1.00  0.00     0.037 A 
BRANCH  56  70
ATOM     70  C   UNL A   1      46.372  28.849  30.022  1.00  0.00     0.064 A 
ATOM     71  C   UNL A   1      46.846  28.205  31.176  1.00  0.00     0.173 A 
ATOM     72  C   UNL A   1      47.203  28.856  28.891  1.00  0.00     0.173 A 
ATOM     73  F   UNL A   1      46.098  28.175  32.289  1.00  0.00    -0.203 F 
ATOM     74  C   UNL A   1      48.112  27.627  31.207  1.00  0.00     0.198 A 
ATOM     75  C   UNL A   1      48.454  28.246  28.915  1.00  0.00     0.198 A 
ATOM     76  F   UNL A   1      46.798  29.451  27.758  1.00  0.00    -0.203 F 
ATOM     77  F   UNL A   1      48.566  27.067  32.337  1.00  0.00    -0.200 F 
ATOM     78  C   UNL A   1      48.913  27.640  30.074  1.00  0.00     0.200 A 
ATOM     79  F   UNL A   1      49.219  28.248  27.813  1.00  0.00    -0.200 F 
ATOM     80  F   UNL A   1      50.128  27.077  30.103  1.00  0.00    -0.200 F 
ENDBRANCH  56  70
BRANCH  57  81
ATOM     81  C   UNL A   1      37.087  32.536  29.877  1.00  0.00     0.064 A 
ATOM     82  C   UNL A   1      36.625  33.288  28.787  1.00  0.00     0.173 A 
ATOM     83  C   UNL A   1      36.206  32.335  30.950  1.00  0.00     0.173 A 
ATOM     84  F   UNL A   1      37.437  33.525  27.746  1.00  0.00    -0.203 F 
ATOM     85  C   UNL A   1      35.345  33.836  28.780  1.00  0.00     0.198 A 
ATOM     86  C   UNL A   1      34.914  32.858  30.928  1.00  0.00     0.198 A 
ATOM     87  F   UNL A   1      36.596  31.619  32.015  1.00  0.00    -0.203 F 
ATOM     88  F   UNL A   1      34.947  34.591  27.748  1.00  0.00    -0.200 F 
ATOM     89  C   UNL A   1      34.488  33.614  29.848  1.00  0.00     0.200 A 
ATOM     90  F   UNL A   1      34.084  32.629  31.954  1.00  0.00    -0.200 F 
ATOM     91  F   UNL A   1      33.254  34.138  29.840  1.00  0.00    -0.200 F 
ENDBRANCH  57  81
BRANCH  69  92
ATOM     92  C   UNL A   1      43.270  35.112  31.798  1.00  0.00     0.064 A 
ATOM     93  C   UNL A   1      43.727  36.142  30.963  1.00  0.00     0.173 A 
ATOM     94  C   UNL A   1      43.174  35.377  33.174  1.00  0.00     0.173 A 
ATOM     95  F   UNL A   1      43.852  35.937  29.643  1.00  0.00    -0.203 F 
ATOM     96  C   UNL A   1      44.101  37.377  31.488  1.00  0.00     0.198 A 
ATOM     97  C   UNL A   1      43.516  36.624  33.690  1.00  0.00     0.198 A 
ATOM     98  F   UNL A   1      42.736  34.431  34.016  1.00  0.00    -0.203 F 
ATOM     99  F   UNL A   1      44.587  38.327  30.677  1.00  0.00    -0.200 F 
ATOM    100  C   UNL A   1      43.987  37.619  32.848  1.00  0.00     0.200 A 
ATOM    101  F   UNL A   1      43.389  36.861  35.003  1.00  0.00    -0.200 F 
ATOM    102  F   UNL A   1      44.339  38.811  33.350  1.00  0.00    -0.200 F 
ENDBRANCH  69  92
ENDBRANCH  43  44
ENDBRANCH  35  38
ENDBRANCH  33  34
ENDBRANCH  32  33
ENDBRANCH  31  32
ENDBRANCH   1  31
TORSDOF 16
ENDMDL
MODEL 3
REMARK VINA RESULT:     -12.6      1.879      2.682
REMARK SMILES O=C(NCCCCCCNC(=O)c1ccc(-c2c3nc(c(-c4c(F)c(F)c(F)c(F)c4F)c4ccc([nH]4)c(-c4c(F)c(F)c(F)c(F)c4F)c4nc(c(-c5c(F)c(F)c(F)c(F)c5F)c5ccc2[nH]5)C=C4)C=C3)cc1)C1=Cc2cc(Cl)cc(C#Cc3ccccc3)c2O[C@@H]1C(F)(F)F
REMARK SMILES IDX 6 1 5 2 4 3 3 4 1 5 2 6 76 8 77 9 94 10 78 11 93 12 79 13
REMARK SMILES IDX 92 14 80 15 83 16 81 17 82 18 95 19 96 20 97 21 98 22 84 23
REMARK SMILES IDX 85 24 86 25 87 26 91 27 88 28 90 29 89 30 7 31 8 32 9 33
REMARK SMILES IDX 10 34 11 35 12 37 13 38 14 39 75 40 15 41 74 42 16 43 17 44
REMARK SMILES IDX 18 45 68 46 19 47 73 48 67 49 69 50 20 51 72 52 66 53 65 54
REMARK SMILES IDX 21 56 53 57 33 58 52 59 34 60 37 61 51 62 70 63 35 64 36 65
REMARK SMILES IDX 50 67 71 68 38 69 22 70 23 71 31 72 24 73 25 74 29 75 32 76
REMARK SMILES IDX 26 77 27 78 30 79 28 80 54 81 55 82 63 83 56 84 57 85 61 86
REMARK SMILES IDX 64 87 58 88 59 89 62 90 60 91 39 92 40 93 48 94 41 95 42 96
REMARK SMILES IDX 46 97 49 98 43 99 44 100 47 101 45 102
REMARK H PARENT 3 7 10 36 69 55 37 66
REMARK Flexibility Score: inf
ROOT
ATOM      1  C   UNL A   1      30.286  27.415  23.858  1.00  0.00     0.002 C 
ENDROOT
BRANCH   1   2
ATOM      2  C   UNL A   1      29.995  26.262  24.820  1.00  0.00     0.021 C 
BRANCH   2   3
ATOM      3  C   UNL A   1      30.694  26.342  26.172  1.00  0.00     0.116 C 
BRANCH   3   4
ATOM      4  N   UNL A   1      31.084  25.071  26.753  1.00  0.00    -0.352 N 
ATOM      5  O   UNL A   1      32.421  23.312  27.176  1.00  0.00    -0.270 OA
ATOM      6  C   UNL A   1      32.145  24.260  26.443  1.00  0.00     0.251 C 
ATOM      7  H   UNL A   1      30.501  24.742  27.476  1.00  0.00     0.163 HD
BRANCH   6   8
ATOM      8  C   UNL A   1      33.055  24.557  25.295  1.00  0.00     0.067 C 
ATOM      9  C   UNL A   1      34.310  24.994  25.490  1.00  0.00     0.025 C 
ATOM     10  C   UNL A   1      32.786  23.675  24.103  1.00  0.00     0.314 C 
ATOM     11  C   UNL A   1      35.350  24.012  25.106  1.00  0.00     0.020 A 
ATOM     12  O   UNL A   1      33.695  22.542  24.080  1.00  0.00    -0.474 OA
ATOM     13  C   UNL A   1      36.630  24.196  25.640  1.00  0.00     0.032 A 
ATOM     14  C   UNL A   1      34.953  22.753  24.603  1.00  0.00     0.143 A 
ATOM     15  C   UNL A   1      37.483  23.102  25.755  1.00  0.00     0.043 A 
ATOM     16  C   UNL A   1      35.791  21.644  24.799  1.00  0.00     0.069 A 
ATOM     17  Cl  UNL A   1      38.980  23.277  26.586  1.00  0.00    -0.084 Cl
ATOM     18  C   UNL A   1      37.066  21.834  25.351  1.00  0.00     0.041 A 
BRANCH  10  19
ATOM     19  C   UNL A   1      32.805  24.510  22.805  1.00  0.00     0.429 C 
ATOM     20  F   UNL A   1      33.267  25.763  23.021  1.00  0.00    -0.167 F 
ATOM     21  F   UNL A   1      33.613  23.951  21.870  1.00  0.00    -0.167 F 
ATOM     22  F   UNL A   1      31.579  24.626  22.240  1.00  0.00    -0.167 F 
ENDBRANCH  10  19
BRANCH  16  23
ATOM     23  C   UNL A   1      35.302  20.289  24.725  1.00  0.00    -0.058 C 
ATOM     24  C   UNL A   1      34.781  19.208  24.811  1.00  0.00    -0.062 C 
BRANCH  24  25
ATOM     25  C   UNL A   1      34.123  17.940  24.987  1.00  0.00     0.025 A 
ATOM     26  C   UNL A   1      32.803  17.890  25.434  1.00  0.00     0.017 A 
ATOM     27  C   UNL A   1      34.786  16.740  24.706  1.00  0.00     0.017 A 
ATOM     28  C   UNL A   1      32.156  16.659  25.585  1.00  0.00     0.001 A 
ATOM     29  C   UNL A   1      34.145  15.507  24.861  1.00  0.00     0.001 A 
ATOM     30  C   UNL A   1      32.825  15.469  25.298  1.00  0.00     0.000 A 
ENDBRANCH  24  25
ENDBRANCH  16  23
ENDBRANCH   6   8
ENDBRANCH   3   4
ENDBRANCH   2   3
ENDBRANCH   1   2
BRANCH   1  31
ATOM     31  C   UNL A   1      31.015  28.626  24.455  1.00  0.00     0.002 C 
BRANCH  31  32
ATOM     32  C   UNL A   1      32.506  28.733  24.127  1.00  0.00     0.021 C 
BRANCH  32  33
ATOM     33  C   UNL A   1      33.407  29.231  25.247  1.00  0.00     0.116 C 
BRANCH  33  34
ATOM     34  N   UNL A   1      32.970  30.510  25.780  1.00  0.00    -0.352 N 
ATOM     35  C   UNL A   1      33.402  31.215  26.875  1.00  0.00     0.251 C 
ATOM     36  H   UNL A   1      32.246  30.941  25.273  1.00  0.00     0.163 HD
ATOM     37  O   UNL A   1      32.761  32.191  27.254  1.00  0.00    -0.269 OA
BRANCH  35  38
ATOM     38  C   UNL A   1      34.620  30.809  27.615  1.00  0.00     0.039 A 
ATOM     39  C   UNL A   1      35.662  31.733  27.744  1.00  0.00     0.014 A 
ATOM     40  C   UNL A   1      34.769  29.520  28.131  1.00  0.00     0.014 A 
ATOM     41  C   UNL A   1      36.829  31.378  28.425  1.00  0.00     0.010 A 
ATOM     42  C   UNL A   1      35.896  29.195  28.883  1.00  0.00     0.010 A 
ATOM     43  C   UNL A   1      36.945  30.114  29.023  1.00  0.00    -0.014 A 
BRANCH  43  44
ATOM     44  C   UNL A   1      38.164  29.731  29.778  1.00  0.00     0.031 A 
ATOM     45  C   UNL A   1      38.407  30.285  31.156  1.00  0.00     0.074 A 
ATOM     46  C   UNL A   1      39.077  28.924  29.205  1.00  0.00     0.049 A 
ATOM     47  N   UNL A   1      39.431  30.104  31.955  1.00  0.00    -0.248 NA
ATOM     48  C   UNL A   1      37.377  31.182  31.700  1.00  0.00     0.031 C 
ATOM     49  C   UNL A   1      38.972  28.352  27.862  1.00  0.00     0.029 A 
ATOM     50  N   UNL A   1      40.276  28.449  29.675  1.00  0.00    -0.354 N 
ATOM     51  C   UNL A   1      39.174  30.876  33.079  1.00  0.00     0.074 A 
ATOM     52  C   UNL A   1      37.926  31.568  32.842  1.00  0.00     0.031 C 
ATOM     53  C   UNL A   1      40.044  27.579  27.628  1.00  0.00     0.029 A 
ATOM     54  C   UNL A   1      40.933  27.635  28.784  1.00  0.00     0.049 A 
ATOM     55  H   UNL A   1      40.630  28.670  30.566  1.00  0.00     0.167 HD
ATOM     56  C   UNL A   1      39.905  30.985  34.216  1.00  0.00     0.037 A 
ATOM     57  C   UNL A   1      42.121  27.010  28.889  1.00  0.00     0.037 A 
ATOM     58  C   UNL A   1      41.134  30.274  34.455  1.00  0.00     0.049 A 
ATOM     59  C   UNL A   1      42.922  27.165  30.154  1.00  0.00     0.074 A 
ATOM     60  C   UNL A   1      41.911  30.256  35.600  1.00  0.00     0.029 A 
ATOM     61  N   UNL A   1      41.772  29.464  33.527  1.00  0.00    -0.354 N 
ATOM     62  N   UNL A   1      42.631  27.834  31.243  1.00  0.00    -0.248 NA
ATOM     63  C   UNL A   1      44.216  26.471  30.203  1.00  0.00     0.031 C 
ATOM     64  C   UNL A   1      43.051  29.488  35.343  1.00  0.00     0.029 A 
ATOM     65  C   UNL A   1      42.952  28.971  34.062  1.00  0.00     0.049 A 
ATOM     66  H   UNL A   1      41.437  29.268  32.622  1.00  0.00     0.167 HD
ATOM     67  C   UNL A   1      43.686  27.614  32.119  1.00  0.00     0.074 A 
ATOM     68  C   UNL A   1      44.618  26.740  31.438  1.00  0.00     0.031 C 
ATOM     69  C   UNL A   1      43.867  28.093  33.374  1.00  0.00     0.037 A 
BRANCH  56  70
ATOM     70  C   UNL A   1      39.401  31.914  35.283  1.00  0.00     0.064 A 
ATOM     71  C   UNL A   1      39.740  33.276  35.304  1.00  0.00     0.173 A 
ATOM     72  C   UNL A   1      38.536  31.442  36.284  1.00  0.00     0.173 A 
ATOM     73  F   UNL A   1      40.571  33.779  34.378  1.00  0.00    -0.203 F 
ATOM     74  C   UNL A   1      39.263  34.120  36.304  1.00  0.00     0.198 A 
ATOM     75  C   UNL A   1      38.033  32.297  37.261  1.00  0.00     0.198 A 
ATOM     76  F   UNL A   1      38.172  30.151  36.309  1.00  0.00    -0.203 F 
ATOM     77  F   UNL A   1      39.647  35.404  36.334  1.00  0.00    -0.200 F 
ATOM     78  C   UNL A   1      38.404  33.632  37.276  1.00  0.00     0.200 A 
ATOM     79  F   UNL A   1      37.190  31.826  38.191  1.00  0.00    -0.200 F 
ATOM     80  F   UNL A   1      37.939  34.448  38.234  1.00  0.00    -0.200 F 
ENDBRANCH  56  70
BRANCH  57  81
ATOM     81  C   UNL A   1      42.612  26.156  27.776  1.00  0.00     0.064 A 
ATOM     82  C   UNL A   1      43.485  26.672  26.807  1.00  0.00     0.173 A 
ATOM     83  C   UNL A   1      42.220  24.815  27.651  1.00  0.00     0.173 A 
ATOM     84  F   UNL A   1      43.872  27.955  26.872  1.00  0.00    -0.203 F 
ATOM     85  C   UNL A   1      43.929  25.888  25.746  1.00  0.00     0.198 A 
ATOM     86  C   UNL A   1      42.689  24.022  26.606  1.00  0.00     0.198 A 
ATOM     87  F   UNL A   1      41.389  24.270  28.553  1.00  0.00    -0.203 F 
ATOM     88  F   UNL A   1      44.723  26.421  24.808  1.00  0.00    -0.200 F 
ATOM     89  C   UNL A   1      43.536  24.561  25.649  1.00  0.00     0.200 A 
ATOM     90  F   UNL A   1      42.320  22.737  26.525  1.00  0.00    -0.200 F 
ATOM     91  F   UNL A   1      43.966  23.805  24.630  1.00  0.00    -0.200 F 
ENDBRANCH  57  81
BRANCH  69  92
ATOM     92  C   UNL A   1      45.097  27.649  34.112  1.00  0.00     0.064 A 
ATOM     93  C   UNL A   1      45.116  26.478  34.884  1.00  0.00     0.173 A 
ATOM     94  C   UNL A   1      46.287  28.389  34.013  1.00  0.00     0.173 A 
ATOM     95  F   UNL A   1      44.003  25.742  35.023  1.00  0.00    -0.203 F 
ATOM     96  C   UNL A   1      46.271  26.079  35.553  1.00  0.00     0.198 A 
ATOM     97  C   UNL A   1      47.448  27.969  34.655  1.00  0.00     0.198 A 
ATOM     98  F   UNL A   1      46.327  29.512  33.283  1.00  0.00    -0.203 F 
ATOM     99  F   UNL A   1      46.250  24.987  36.328  1.00  0.00    -0.200 F 
ATOM    100  C   UNL A   1      47.437  26.820  35.431  1.00  0.00     0.200 A 
ATOM    101  F   UNL A   1      48.579  28.676  34.522  1.00  0.00    -0.200 F 
ATOM    102  F   UNL A   1      48.550  26.430  36.068  1.00  0.00    -0.200 F 
ENDBRANCH  69  92
ENDBRANCH  43  44
ENDBRANCH  35  38
ENDBRANCH  33  34
ENDBRANCH  32  33
ENDBRANCH  31  32
ENDBRANCH   1  31
TORSDOF 16
ENDMDL
