MODEL 1
REMARK VINA RESULT:     -12.0      0.000      0.000
REMARK SMILES Cc1cc(Br)cnc1Sc1nc(CC(=O)NCCCCCCNC(=O)c2ccc(-c3c4nc(c(-c5c(F)c(F)c(F)c(F)c5F)c5ccc([nH]5)c(-c5c(F)c(F)c(F)c(F)c5F)c5nc(c(-c6c(F)c(F)c(F)c(F)c6F)c6ccc3[nH]6)C=C5)C=C4)cc2)cs1
REMARK SMILES IDX 19 1 18 2 17 3 16 4 14 5 15 6 13 8 12 9 10 10 11 11 90 12
REMARK SMILES IDX 89 13 9 14 8 15 1 16 2 17 3 18 4 19 7 20 5 21 6 22 20 23
REMARK SMILES IDX 21 24 22 25 23 26 24 27 25 29 26 30 27 31 88 32 28 33 87 34
REMARK SMILES IDX 29 35 30 36 31 37 81 38 32 39 86 40 80 41 82 42 33 43 85 44
REMARK SMILES IDX 79 45 78 46 34 48 66 49 46 50 65 51 47 52 50 53 64 54 83 55
REMARK SMILES IDX 48 56 49 57 63 59 84 60 51 61 35 62 36 63 44 64 37 65 38 66
REMARK SMILES IDX 42 67 45 68 39 69 40 70 43 71 41 72 67 73 68 74 76 75 69 76
REMARK SMILES IDX 70 77 74 78 77 79 71 80 72 81 75 82 73 83 52 84 53 85 61 86
REMARK SMILES IDX 54 87 55 88 59 89 62 90 56 91 57 92 60 93 58 94
REMARK H PARENT 16 7 23 28 82 47 50 58
REMARK Flexibility Score: inf
ROOT
ATOM      1  C   UNL A   1      32.335  29.883  27.188  1.00  0.00     0.002 C 
ENDROOT
BRANCH   1   2
ATOM      2  C   UNL A   1      32.231  28.387  26.865  1.00  0.00     0.021 C 
BRANCH   2   3
ATOM      3  C   UNL A   1      32.186  28.085  25.366  1.00  0.00     0.116 C 
BRANCH   3   4
ATOM      4  N   UNL A   1      30.879  27.583  24.981  1.00  0.00    -0.356 N 
ATOM      5  C   UNL A   1      30.506  27.042  23.784  1.00  0.00     0.226 C 
ATOM      6  O   UNL A   1      29.311  26.816  23.583  1.00  0.00    -0.275 OA
ATOM      7  H   UNL A   1      30.177  27.639  25.667  1.00  0.00     0.163 HD
BRANCH   5   8
ATOM      8  C   UNL A   1      31.559  26.684  22.758  1.00  0.00     0.157 C 
BRANCH   8   9
ATOM      9  C   UNL A   1      32.130  25.321  22.960  1.00  0.00     0.062 A 
ATOM     10  C   UNL A   1      32.429  23.487  24.175  1.00  0.00     0.156 A 
ATOM     11  N   UNL A   1      31.956  24.712  24.199  1.00  0.00    -0.234 NA
ATOM     12  S   UNL A   1      33.232  23.042  22.723  1.00  0.00    -0.116 S 
ATOM     13  C   UNL A   1      32.811  24.553  22.035  1.00  0.00     0.092 A 
BRANCH  10  14
ATOM     14  S   UNL A   1      32.342  22.417  25.532  1.00  0.00    -0.039 SA
BRANCH  14  15
ATOM     15  C   UNL A   1      33.091  20.877  25.044  1.00  0.00     0.106 A 
ATOM     16  C   UNL A   1      35.615  21.255  25.504  1.00  0.00     0.047 C 
ATOM     17  C   UNL A   1      34.427  20.445  25.079  1.00  0.00    -0.017 A 
ATOM     18  C   UNL A   1      34.715  19.130  24.651  1.00  0.00     0.023 A 
ATOM     19  C   UNL A   1      33.701  18.272  24.258  1.00  0.00     0.036 A 
ATOM     20  N   UNL A   1      32.104  20.017  24.648  1.00  0.00    -0.248 NA
ATOM     21  Br  UNL A   1      34.078  16.504  23.734  1.00  0.00    -0.049 Br
ATOM     22  C   UNL A   1      32.417  18.754  24.278  1.00  0.00     0.128 A 
ENDBRANCH  14  15
ENDBRANCH  10  14
ENDBRANCH   8   9
ENDBRANCH   5   8
ENDBRANCH   3   4
ENDBRANCH   2   3
ENDBRANCH   1   2
BRANCH   1  23
ATOM     23  C   UNL A   1      31.600  30.804  26.210  1.00  0.00     0.002 C 
BRANCH  23  24
ATOM     24  C   UNL A   1      31.401  32.238  26.707  1.00  0.00     0.021 C 
BRANCH  24  25
ATOM     25  C   UNL A   1      32.664  32.889  27.260  1.00  0.00     0.116 C 
BRANCH  25  26
ATOM     26  N   UNL A   1      32.440  34.279  27.628  1.00  0.00    -0.352 N 
ATOM     27  C   UNL A   1      33.003  35.011  28.640  1.00  0.00     0.251 C 
ATOM     28  H   UNL A   1      31.790  34.763  27.068  1.00  0.00     0.163 HD
ATOM     29  O   UNL A   1      32.538  36.108  28.946  1.00  0.00    -0.269 OA
BRANCH  27  30
ATOM     30  C   UNL A   1      34.162  34.472  29.380  1.00  0.00     0.039 A 
ATOM     31  C   UNL A   1      33.941  33.782  30.574  1.00  0.00     0.014 A 
ATOM     32  C   UNL A   1      35.462  34.653  28.900  1.00  0.00     0.014 A 
ATOM     33  C   UNL A   1      35.022  33.225  31.260  1.00  0.00     0.010 A 
ATOM     34  C   UNL A   1      36.528  34.030  29.541  1.00  0.00     0.010 A 
ATOM     35  C   UNL A   1      36.320  33.316  30.730  1.00  0.00    -0.014 A 
BRANCH  35  36
ATOM     36  C   UNL A   1      37.471  32.667  31.406  1.00  0.00     0.031 A 
ATOM     37  C   UNL A   1      38.170  31.504  30.762  1.00  0.00     0.074 A 
ATOM     38  C   UNL A   1      37.840  33.080  32.633  1.00  0.00     0.049 A 
ATOM     39  N   UNL A   1      39.154  30.770  31.220  1.00  0.00    -0.248 NA
ATOM     40  C   UNL A   1      37.677  31.088  29.440  1.00  0.00     0.031 C 
ATOM     41  C   UNL A   1      37.201  34.159  33.387  1.00  0.00     0.029 A 
ATOM     42  N   UNL A   1      38.832  32.631  33.470  1.00  0.00    -0.354 N 
ATOM     43  C   UNL A   1      39.382  29.799  30.254  1.00  0.00     0.074 A 
ATOM     44  C   UNL A   1      38.400  30.002  29.211  1.00  0.00     0.031 C 
ATOM     45  C   UNL A   1      37.826  34.301  34.566  1.00  0.00     0.029 A 
ATOM     46  C   UNL A   1      38.882  33.297  34.668  1.00  0.00     0.049 A 
ATOM     47  H   UNL A   1      39.447  31.900  33.232  1.00  0.00     0.167 HD
ATOM     48  C   UNL A   1      40.337  28.839  30.230  1.00  0.00     0.037 A 
ATOM     49  C   UNL A   1      39.680  33.114  35.737  1.00  0.00     0.037 A 
ATOM     50  C   UNL A   1      41.323  28.655  31.265  1.00  0.00     0.049 A 
ATOM     51  C   UNL A   1      40.737  32.045  35.688  1.00  0.00     0.074 A 
ATOM     52  C   UNL A   1      42.382  27.766  31.300  1.00  0.00     0.029 A 
ATOM     53  N   UNL A   1      41.358  29.365  32.457  1.00  0.00    -0.354 N 
ATOM     54  N   UNL A   1      41.005  31.190  34.731  1.00  0.00    -0.248 NA
ATOM     55  C   UNL A   1      41.609  31.923  36.863  1.00  0.00     0.031 C 
ATOM     56  C   UNL A   1      43.019  27.894  32.539  1.00  0.00     0.029 A 
ATOM     57  C   UNL A   1      42.400  28.909  33.250  1.00  0.00     0.049 A 
ATOM     58  H   UNL A   1      40.735  30.086  32.704  1.00  0.00     0.167 HD
ATOM     59  C   UNL A   1      42.089  30.444  35.176  1.00  0.00     0.074 A 
ATOM     60  C   UNL A   1      42.437  30.959  36.483  1.00  0.00     0.031 C 
ATOM     61  C   UNL A   1      42.735  29.427  34.554  1.00  0.00     0.037 A 
BRANCH  48  62
ATOM     62  C   UNL A   1      40.349  27.904  29.054  1.00  0.00     0.064 A 
ATOM     63  C   UNL A   1      41.112  28.164  27.904  1.00  0.00     0.173 A 
ATOM     64  C   UNL A   1      39.594  26.720  29.079  1.00  0.00     0.173 A 
ATOM     65  F   UNL A   1      41.847  29.285  27.821  1.00  0.00    -0.203 F 
ATOM     66  C   UNL A   1      41.081  27.304  26.809  1.00  0.00     0.198 A 
ATOM     67  C   UNL A   1      39.596  25.843  27.998  1.00  0.00     0.198 A 
ATOM     68  F   UNL A   1      38.853  26.413  30.155  1.00  0.00    -0.203 F 
ATOM     69  F   UNL A   1      41.764  27.611  25.698  1.00  0.00    -0.200 F 
ATOM     70  C   UNL A   1      40.327  26.141  26.859  1.00  0.00     0.200 A 
ATOM     71  F   UNL A   1      38.879  24.711  28.055  1.00  0.00    -0.200 F 
ATOM     72  F   UNL A   1      40.298  25.313  25.806  1.00  0.00    -0.200 F 
ENDBRANCH  48  62
BRANCH  49  73
ATOM     73  C   UNL A   1      39.516  33.983  36.930  1.00  0.00     0.064 A 
ATOM     74  C   UNL A   1      38.755  33.564  38.029  1.00  0.00     0.173 A 
ATOM     75  C   UNL A   1      40.145  35.235  37.010  1.00  0.00     0.173 A 
ATOM     76  F   UNL A   1      38.120  32.383  37.993  1.00  0.00    -0.203 F 
ATOM     77  C   UNL A   1      38.622  34.368  39.161  1.00  0.00     0.198 A 
ATOM     78  C   UNL A   1      40.035  36.024  38.152  1.00  0.00     0.198 A 
ATOM     79  F   UNL A   1      40.891  35.678  35.987  1.00  0.00    -0.203 F 
ATOM     80  F   UNL A   1      37.861  33.958  40.185  1.00  0.00    -0.200 F 
ATOM     81  C   UNL A   1      39.268  35.592  39.225  1.00  0.00     0.200 A 
ATOM     82  F   UNL A   1      40.676  37.199  38.217  1.00  0.00    -0.200 F 
ATOM     83  F   UNL A   1      39.152  36.358  40.318  1.00  0.00    -0.200 F 
ENDBRANCH  49  73
BRANCH  61  84
ATOM     84  C   UNL A   1      43.908  28.816  35.268  1.00  0.00     0.064 A 
ATOM     85  C   UNL A   1      45.214  29.293  35.088  1.00  0.00     0.173 A 
ATOM     86  C   UNL A   1      43.713  27.767  36.181  1.00  0.00     0.173 A 
ATOM     87  F   UNL A   1      45.457  30.284  34.216  1.00  0.00    -0.203 F 
ATOM     88  C   UNL A   1      46.285  28.725  35.773  1.00  0.00     0.198 A 
ATOM     89  C   UNL A   1      44.781  27.224  36.889  1.00  0.00     0.198 A 
ATOM     90  F   UNL A   1      42.483  27.277  36.397  1.00  0.00    -0.203 F 
ATOM     91  F   UNL A   1      47.531  29.163  35.545  1.00  0.00    -0.200 F 
ATOM     92  C   UNL A   1      46.068  27.698  36.679  1.00  0.00     0.200 A 
ATOM     93  F   UNL A   1      44.566  26.244  37.777  1.00  0.00    -0.200 F 
ATOM     94  F   UNL A   1      47.098  27.159  37.344  1.00  0.00    -0.200 F 
ENDBRANCH  61  84
ENDBRANCH  35  36
ENDBRANCH  27  30
ENDBRANCH  25  26
ENDBRANCH  24  25
ENDBRANCH  23  24
ENDBRANCH   1  23
TORSDOF 16
ENDMDL
MODEL 2
REMARK VINA RESULT:     -11.9      1.277      2.012
REMARK SMILES Cc1cc(Br)cnc1Sc1nc(CC(=O)NCCCCCCNC(=O)c2ccc(-c3c4nc(c(-c5c(F)c(F)c(F)c(F)c5F)c5ccc([nH]5)c(-c5c(F)c(F)c(F)c(F)c5F)c5nc(c(-c6c(F)c(F)c(F)c(F)c6F)c6ccc3[nH]6)C=C5)C=C4)cc2)cs1
REMARK SMILES IDX 19 1 18 2 17 3 16 4 14 5 15 6 13 8 12 9 10 10 11 11 90 12
REMARK SMILES IDX 89 13 9 14 8 15 1 16 2 17 3 18 4 19 7 20 5 21 6 22 20 23
REMARK SMILES IDX 21 24 22 25 23 26 24 27 25 29 26 30 27 31 88 32 28 33 87 34
REMARK SMILES IDX 29 35 30 36 31 37 81 38 32 39 86 40 80 41 82 42 33 43 85 44
REMARK SMILES IDX 79 45 78 46 34 48 66 49 46 50 65 51 47 52 50 53 64 54 83 55
REMARK SMILES IDX 48 56 49 57 63 59 84 60 51 61 35 62 36 63 44 64 37 65 38 66
REMARK SMILES IDX 42 67 45 68 39 69 40 70 43 71 41 72 67 73 68 74 76 75 69 76
REMARK SMILES IDX 70 77 74 78 77 79 71 80 72 81 75 82 73 83 52 84 53 85 61 86
REMARK SMILES IDX 54 87 55 88 59 89 62 90 56 91 57 92 60 93 58 94
REMARK H PARENT 16 7 23 28 82 47 50 58
REMARK Flexibility Score: inf
ROOT
ATOM      1  C   UNL A   1      32.368  29.962  27.145  1.00  0.00     0.002 C 
ENDROOT
BRANCH   1   2
ATOM      2  C   UNL A   1      33.791  29.613  26.689  1.00  0.00     0.021 C 
BRANCH   2   3
ATOM      3  C   UNL A   1      33.854  28.418  25.737  1.00  0.00     0.116 C 
BRANCH   3   4
ATOM      4  N   UNL A   1      33.720  28.849  24.357  1.00  0.00    -0.356 N 
ATOM      5  C   UNL A   1      32.691  28.602  23.495  1.00  0.00     0.226 C 
ATOM      6  O   UNL A   1      32.825  28.913  22.310  1.00  0.00    -0.275 OA
ATOM      7  H   UNL A   1      34.463  29.386  24.000  1.00  0.00     0.163 HD
BRANCH   5   8
ATOM      8  C   UNL A   1      31.401  28.005  24.014  1.00  0.00     0.157 C 
BRANCH   8   9
ATOM      9  C   UNL A   1      31.365  26.518  23.909  1.00  0.00     0.062 A 
ATOM     10  C   UNL A   1      32.153  24.592  23.134  1.00  0.00     0.156 A 
ATOM     11  N   UNL A   1      32.247  25.898  23.031  1.00  0.00    -0.234 NA
ATOM     12  S   UNL A   1      30.910  24.031  24.179  1.00  0.00    -0.116 S 
ATOM     13  C   UNL A   1      30.555  25.649  24.616  1.00  0.00     0.092 A 
BRANCH  10  14
ATOM     14  S   UNL A   1      33.136  23.500  22.219  1.00  0.00    -0.039 SA
BRANCH  14  15
ATOM     15  C   UNL A   1      34.383  22.861  23.317  1.00  0.00     0.106 A 
ATOM     16  C   UNL A   1      33.145  20.995  24.626  1.00  0.00     0.047 C 
ATOM     17  C   UNL A   1      34.342  21.819  24.259  1.00  0.00    -0.017 A 
ATOM     18  C   UNL A   1      35.525  21.513  24.969  1.00  0.00     0.023 A 
ATOM     19  C   UNL A   1      36.707  22.185  24.703  1.00  0.00     0.036 A 
ATOM     20  N   UNL A   1      35.558  23.517  23.073  1.00  0.00    -0.248 NA
ATOM     21  Br  UNL A   1      38.295  21.745  25.613  1.00  0.00    -0.049 Br
ATOM     22  C   UNL A   1      36.678  23.171  23.749  1.00  0.00     0.128 A 
ENDBRANCH  14  15
ENDBRANCH  10  14
ENDBRANCH   8   9
ENDBRANCH   5   8
ENDBRANCH   3   4
ENDBRANCH   2   3
ENDBRANCH   1   2
BRANCH   1  23
ATOM     23  C   UNL A   1      31.589  30.866  26.185  1.00  0.00     0.002 C 
BRANCH  23  24
ATOM     24  C   UNL A   1      31.406  32.307  26.668  1.00  0.00     0.021 C 
BRANCH  24  25
ATOM     25  C   UNL A   1      32.646  32.910  27.319  1.00  0.00     0.116 C 
BRANCH  25  26
ATOM     26  N   UNL A   1      32.449  34.309  27.666  1.00  0.00    -0.352 N 
ATOM     27  C   UNL A   1      33.041  35.051  28.654  1.00  0.00     0.251 C 
ATOM     28  H   UNL A   1      31.796  34.793  27.109  1.00  0.00     0.163 HD
ATOM     29  O   UNL A   1      32.598  36.160  28.948  1.00  0.00    -0.269 OA
BRANCH  27  30
ATOM     30  C   UNL A   1      34.206  34.508  29.382  1.00  0.00     0.039 A 
ATOM     31  C   UNL A   1      34.002  33.879  30.612  1.00  0.00     0.014 A 
ATOM     32  C   UNL A   1      35.495  34.627  28.856  1.00  0.00     0.014 A 
ATOM     33  C   UNL A   1      35.087  33.318  31.289  1.00  0.00     0.010 A 
ATOM     34  C   UNL A   1      36.561  33.999  29.492  1.00  0.00     0.010 A 
ATOM     35  C   UNL A   1      36.369  33.345  30.718  1.00  0.00    -0.014 A 
BRANCH  35  36
ATOM     36  C   UNL A   1      37.521  32.689  31.386  1.00  0.00     0.031 A 
ATOM     37  C   UNL A   1      38.211  31.524  30.737  1.00  0.00     0.074 A 
ATOM     38  C   UNL A   1      37.898  33.099  32.613  1.00  0.00     0.049 A 
ATOM     39  N   UNL A   1      39.194  30.785  31.190  1.00  0.00    -0.248 NA
ATOM     40  C   UNL A   1      37.710  31.112  29.418  1.00  0.00     0.031 C 
ATOM     41  C   UNL A   1      37.268  34.180  33.370  1.00  0.00     0.029 A 
ATOM     42  N   UNL A   1      38.891  32.644  33.443  1.00  0.00    -0.354 N 
ATOM     43  C   UNL A   1      39.413  29.814  30.221  1.00  0.00     0.074 A 
ATOM     44  C   UNL A   1      38.426  30.023  29.184  1.00  0.00     0.031 C 
ATOM     45  C   UNL A   1      37.898  34.318  34.547  1.00  0.00     0.029 A 
ATOM     46  C   UNL A   1      38.950  33.309  34.643  1.00  0.00     0.049 A 
ATOM     47  H   UNL A   1      39.502  31.911  33.202  1.00  0.00     0.167 HD
ATOM     48  C   UNL A   1      40.363  28.850  30.192  1.00  0.00     0.037 A 
ATOM     49  C   UNL A   1      39.753  33.121  35.707  1.00  0.00     0.037 A 
ATOM     50  C   UNL A   1      41.353  28.660  31.221  1.00  0.00     0.049 A 
ATOM     51  C   UNL A   1      40.805  32.047  35.651  1.00  0.00     0.074 A 
ATOM     52  C   UNL A   1      42.408  27.766  31.250  1.00  0.00     0.029 A 
ATOM     53  N   UNL A   1      41.398  29.369  32.414  1.00  0.00    -0.354 N 
ATOM     54  N   UNL A   1      41.064  31.192  34.692  1.00  0.00    -0.248 NA
ATOM     55  C   UNL A   1      41.682  31.919  36.822  1.00  0.00     0.031 C 
ATOM     56  C   UNL A   1      43.052  27.889  32.486  1.00  0.00     0.029 A 
ATOM     57  C   UNL A   1      42.442  28.906  33.201  1.00  0.00     0.049 A 
ATOM     58  H   UNL A   1      40.779  30.092  32.665  1.00  0.00     0.167 HD
ATOM     59  C   UNL A   1      42.147  30.440  35.131  1.00  0.00     0.074 A 
ATOM     60  C   UNL A   1      42.504  30.952  36.437  1.00  0.00     0.031 C 
ATOM     61  C   UNL A   1      42.785  29.421  34.504  1.00  0.00     0.037 A 
BRANCH  48  62
ATOM     62  C   UNL A   1      40.365  27.916  29.014  1.00  0.00     0.064 A 
ATOM     63  C   UNL A   1      39.622  26.724  29.010  1.00  0.00     0.173 A 
ATOM     64  C   UNL A   1      41.113  28.221  27.866  1.00  0.00     0.173 A 
ATOM     65  F   UNL A   1      38.896  26.378  30.084  1.00  0.00    -0.203 F 
ATOM     66  C   UNL A   1      39.666  25.853  27.924  1.00  0.00     0.198 A 
ATOM     67  C   UNL A   1      41.124  27.366  26.767  1.00  0.00     0.198 A 
ATOM     68  F   UNL A   1      41.835  29.351  27.808  1.00  0.00    -0.203 F 
ATOM     69  F   UNL A   1      39.003  24.690  27.973  1.00  0.00    -0.200 F 
ATOM     70  C   UNL A   1      40.412  26.177  26.801  1.00  0.00     0.200 A 
ATOM     71  F   UNL A   1      41.833  27.690  25.676  1.00  0.00    -0.200 F 
ATOM     72  F   UNL A   1      40.453  25.339  25.756  1.00  0.00    -0.200 F 
ENDBRANCH  48  62
BRANCH  49  73
ATOM     73  C   UNL A   1      39.598  33.989  36.902  1.00  0.00     0.064 A 
ATOM     74  C   UNL A   1      38.829  33.578  37.999  1.00  0.00     0.173 A 
ATOM     75  C   UNL A   1      40.246  35.231  36.987  1.00  0.00     0.173 A 
ATOM     76  F   UNL A   1      38.177  32.407  37.958  1.00  0.00    -0.203 F 
ATOM     77  C   UNL A   1      38.705  34.381  39.132  1.00  0.00     0.198 A 
ATOM     78  C   UNL A   1      40.144  36.019  38.131  1.00  0.00     0.198 A 
ATOM     79  F   UNL A   1      41.000  35.666  35.966  1.00  0.00    -0.203 F 
ATOM     80  F   UNL A   1      37.936  33.979  40.153  1.00  0.00    -0.200 F 
ATOM     81  C   UNL A   1      39.369  35.596  39.200  1.00  0.00     0.200 A 
ATOM     82  F   UNL A   1      40.803  37.184  38.200  1.00  0.00    -0.200 F 
ATOM     83  F   UNL A   1      39.262  36.360  40.295  1.00  0.00    -0.200 F 
ENDBRANCH  49  73
BRANCH  61  84
ATOM     84  C   UNL A   1      43.958  28.804  35.212  1.00  0.00     0.064 A 
ATOM     85  C   UNL A   1      45.263  29.290  35.044  1.00  0.00     0.173 A 
ATOM     86  C   UNL A   1      43.766  27.739  36.106  1.00  0.00     0.173 A 
ATOM     87  F   UNL A   1      45.504  30.297  34.191  1.00  0.00    -0.203 F 
ATOM     88  C   UNL A   1      46.335  28.716  35.723  1.00  0.00     0.198 A 
ATOM     89  C   UNL A   1      44.835  27.189  36.808  1.00  0.00     0.198 A 
ATOM     90  F   UNL A   1      42.538  27.239  36.309  1.00  0.00    -0.203 F 
ATOM     91  F   UNL A   1      47.579  29.164  35.508  1.00  0.00    -0.200 F 
ATOM     92  C   UNL A   1      46.119  27.672  36.611  1.00  0.00     0.200 A 
ATOM     93  F   UNL A   1      44.621  26.193  37.679  1.00  0.00    -0.200 F 
ATOM     94  F   UNL A   1      47.151  27.128  37.270  1.00  0.00    -0.200 F 
ENDBRANCH  61  84
ENDBRANCH  35  36
ENDBRANCH  27  30
ENDBRANCH  25  26
ENDBRANCH  24  25
ENDBRANCH  23  24
ENDBRANCH   1  23
TORSDOF 16
ENDMDL
MODEL 3
REMARK VINA RESULT:     -11.9      1.164      2.454
REMARK SMILES Cc1cc(Br)cnc1Sc1nc(CC(=O)NCCCCCCNC(=O)c2ccc(-c3c4nc(c(-c5c(F)c(F)c(F)c(F)c5F)c5ccc([nH]5)c(-c5c(F)c(F)c(F)c(F)c5F)c5nc(c(-c6c(F)c(F)c(F)c(F)c6F)c6ccc3[nH]6)C=C5)C=C4)cc2)cs1
REMARK SMILES IDX 19 1 18 2 17 3 16 4 14 5 15 6 13 8 12 9 10 10 11 11 90 12
REMARK SMILES IDX 89 13 9 14 8 15 1 16 2 17 3 18 4 19 7 20 5 21 6 22 20 23
REMARK SMILES IDX 21 24 22 25 23 26 24 27 25 29 26 30 27 31 88 32 28 33 87 34
REMARK SMILES IDX 29 35 30 36 31 37 81 38 32 39 86 40 80 41 82 42 33 43 85 44
REMARK SMILES IDX 79 45 78 46 34 48 66 49 46 50 65 51 47 52 50 53 64 54 83 55
REMARK SMILES IDX 48 56 49 57 63 59 84 60 51 61 35 62 36 63 44 64 37 65 38 66
REMARK SMILES IDX 42 67 45 68 39 69 40 70 43 71 41 72 67 73 68 74 76 75 69 76
REMARK SMILES IDX 70 77 74 78 77 79 71 80 72 81 75 82 73 83 52 84 53 85 61 86
REMARK SMILES IDX 54 87 55 88 59 89 62 90 56 91 57 92 60 93 58 94
REMARK H PARENT 16 7 23 28 82 47 50 58
REMARK Flexibility Score: inf
ROOT
ATOM      1  C   UNL A   1      32.750  30.025  26.291  1.00  0.00     0.002 C 
ENDROOT
BRANCH   1   2
ATOM      2  C   UNL A   1      33.002  28.825  27.213  1.00  0.00     0.021 C 
BRANCH   2   3
ATOM      3  C   UNL A   1      33.128  27.495  26.469  1.00  0.00     0.116 C 
BRANCH   3   4
ATOM      4  N   UNL A   1      31.991  26.637  26.751  1.00  0.00    -0.356 N 
ATOM      5  C   UNL A   1      30.844  26.497  26.025  1.00  0.00     0.226 C 
ATOM      6  O   UNL A   1      29.917  25.840  26.503  1.00  0.00    -0.275 OA
ATOM      7  H   UNL A   1      32.056  26.089  27.565  1.00  0.00     0.163 HD
BRANCH   5   8
ATOM      8  C   UNL A   1      30.750  27.100  24.640  1.00  0.00     0.157 C 
BRANCH   8   9
ATOM      9  C   UNL A   1      31.477  26.305  23.609  1.00  0.00     0.062 A 
ATOM     10  C   UNL A   1      32.209  24.378  22.783  1.00  0.00     0.156 A 
ATOM     11  N   UNL A   1      31.639  24.940  23.824  1.00  0.00    -0.234 NA
ATOM     12  S   UNL A   1      32.709  25.465  21.549  1.00  0.00    -0.116 S 
ATOM     13  C   UNL A   1      32.006  26.763  22.417  1.00  0.00     0.092 A 
BRANCH  10  14
ATOM     14  S   UNL A   1      32.526  22.679  22.683  1.00  0.00    -0.039 SA
BRANCH  14  15
ATOM     15  C   UNL A   1      33.945  22.343  23.704  1.00  0.00     0.106 A 
ATOM     16  C   UNL A   1      33.197  20.312  25.135  1.00  0.00     0.047 C 
ATOM     17  C   UNL A   1      34.176  21.347  24.668  1.00  0.00    -0.017 A 
ATOM     18  C   UNL A   1      35.441  21.311  25.300  1.00  0.00     0.023 A 
ATOM     19  C   UNL A   1      36.441  22.197  24.938  1.00  0.00     0.036 A 
ATOM     20  N   UNL A   1      34.944  23.213  23.365  1.00  0.00    -0.248 NA
ATOM     21  Br  UNL A   1      38.141  22.117  25.743  1.00  0.00    -0.049 Br
ATOM     22  C   UNL A   1      36.152  23.123  23.968  1.00  0.00     0.128 A 
ENDBRANCH  14  15
ENDBRANCH  10  14
ENDBRANCH   8   9
ENDBRANCH   5   8
ENDBRANCH   3   4
ENDBRANCH   2   3
ENDBRANCH   1   2
BRANCH   1  23
ATOM     23  C   UNL A   1      31.394  30.710  26.483  1.00  0.00     0.002 C 
BRANCH  23  24
ATOM     24  C   UNL A   1      31.445  32.239  26.500  1.00  0.00     0.021 C 
BRANCH  24  25
ATOM     25  C   UNL A   1      32.629  32.817  27.268  1.00  0.00     0.116 C 
BRANCH  25  26
ATOM     26  N   UNL A   1      32.414  34.210  27.628  1.00  0.00    -0.352 N 
ATOM     27  C   UNL A   1      32.988  34.946  28.631  1.00  0.00     0.251 C 
ATOM     28  H   UNL A   1      31.762  34.693  27.070  1.00  0.00     0.163 HD
ATOM     29  O   UNL A   1      32.530  36.048  28.932  1.00  0.00    -0.269 OA
BRANCH  27  30
ATOM     30  C   UNL A   1      34.150  34.408  29.365  1.00  0.00     0.039 A 
ATOM     31  C   UNL A   1      33.939  33.755  30.582  1.00  0.00     0.014 A 
ATOM     32  C   UNL A   1      35.444  34.553  28.859  1.00  0.00     0.014 A 
ATOM     33  C   UNL A   1      35.022  33.198  31.264  1.00  0.00     0.010 A 
ATOM     34  C   UNL A   1      36.511  33.929  29.499  1.00  0.00     0.010 A 
ATOM     35  C   UNL A   1      36.312  33.252  30.710  1.00  0.00    -0.014 A 
BRANCH  35  36
ATOM     36  C   UNL A   1      37.464  32.602  31.384  1.00  0.00     0.031 A 
ATOM     37  C   UNL A   1      38.167  31.445  30.734  1.00  0.00     0.074 A 
ATOM     38  C   UNL A   1      37.829  33.008  32.615  1.00  0.00     0.049 A 
ATOM     39  N   UNL A   1      39.152  30.711  31.189  1.00  0.00    -0.248 NA
ATOM     40  C   UNL A   1      37.678  31.037  29.408  1.00  0.00     0.031 C 
ATOM     41  C   UNL A   1      37.185  34.080  33.374  1.00  0.00     0.029 A 
ATOM     42  N   UNL A   1      38.819  32.556  33.450  1.00  0.00    -0.354 N 
ATOM     43  C   UNL A   1      39.385  29.747  30.216  1.00  0.00     0.074 A 
ATOM     44  C   UNL A   1      38.404  29.954  29.173  1.00  0.00     0.031 C 
ATOM     45  C   UNL A   1      37.807  34.216  34.556  1.00  0.00     0.029 A 
ATOM     46  C   UNL A   1      38.865  33.214  34.653  1.00  0.00     0.049 A 
ATOM     47  H   UNL A   1      39.437  31.829  33.209  1.00  0.00     0.167 HD
ATOM     48  C   UNL A   1      40.343  28.790  30.189  1.00  0.00     0.037 A 
ATOM     49  C   UNL A   1      39.662  33.026  35.722  1.00  0.00     0.037 A 
ATOM     50  C   UNL A   1      41.327  28.602  31.224  1.00  0.00     0.049 A 
ATOM     51  C   UNL A   1      40.722  31.960  35.668  1.00  0.00     0.074 A 
ATOM     52  C   UNL A   1      42.388  27.716  31.255  1.00  0.00     0.029 A 
ATOM     53  N   UNL A   1      41.358  29.304  32.421  1.00  0.00    -0.354 N 
ATOM     54  N   UNL A   1      40.994  31.113  34.707  1.00  0.00    -0.248 NA
ATOM     55  C   UNL A   1      41.592  31.833  36.844  1.00  0.00     0.031 C 
ATOM     56  C   UNL A   1      43.023  27.837  32.496  1.00  0.00     0.029 A 
ATOM     57  C   UNL A   1      42.399  28.845  33.213  1.00  0.00     0.049 A 
ATOM     58  H   UNL A   1      40.732  30.022  32.672  1.00  0.00     0.167 HD
ATOM     59  C   UNL A   1      42.079  30.367  35.149  1.00  0.00     0.074 A 
ATOM     60  C   UNL A   1      42.424  30.874  36.460  1.00  0.00     0.031 C 
ATOM     61  C   UNL A   1      42.729  29.355  34.521  1.00  0.00     0.037 A 
BRANCH  48  62
ATOM     62  C   UNL A   1      40.360  27.862  29.006  1.00  0.00     0.064 A 
ATOM     63  C   UNL A   1      39.633  26.661  28.993  1.00  0.00     0.173 A 
ATOM     64  C   UNL A   1      41.106  28.184  27.861  1.00  0.00     0.173 A 
ATOM     65  F   UNL A   1      38.908  26.300  30.064  1.00  0.00    -0.203 F 
ATOM     66  C   UNL A   1      39.691  25.797  27.903  1.00  0.00     0.198 A 
ATOM     67  C   UNL A   1      41.131  27.335  26.758  1.00  0.00     0.198 A 
ATOM     68  F   UNL A   1      41.813  29.323  27.812  1.00  0.00    -0.203 F 
ATOM     69  F   UNL A   1      39.043  24.624  27.944  1.00  0.00    -0.200 F 
ATOM     70  C   UNL A   1      40.435  26.137  26.784  1.00  0.00     0.200 A 
ATOM     71  F   UNL A   1      41.839  27.674  25.670  1.00  0.00    -0.200 F 
ATOM     72  F   UNL A   1      40.490  25.305  25.735  1.00  0.00    -0.200 F 
ENDBRANCH  48  62
BRANCH  49  73
ATOM     73  C   UNL A   1      39.492  33.886  36.921  1.00  0.00     0.064 A 
ATOM     74  C   UNL A   1      40.046  35.172  36.972  1.00  0.00     0.173 A 
ATOM     75  C   UNL A   1      38.744  33.453  38.027  1.00  0.00     0.173 A 
ATOM     76  F   UNL A   1      40.784  35.624  35.948  1.00  0.00    -0.203 F 
ATOM     77  C   UNL A   1      39.865  35.990  38.086  1.00  0.00     0.198 A 
ATOM     78  C   UNL A   1      38.540  34.282  39.127  1.00  0.00     0.198 A 
ATOM     79  F   UNL A   1      38.187  32.233  38.024  1.00  0.00    -0.203 F 
ATOM     80  F   UNL A   1      40.433  37.203  38.123  1.00  0.00    -0.200 F 
ATOM     81  C   UNL A   1      39.106  35.548  39.158  1.00  0.00     0.200 A 
ATOM     82  F   UNL A   1      37.790  33.857  40.154  1.00  0.00    -0.200 F 
ATOM     83  F   UNL A   1      38.919  36.340  40.223  1.00  0.00    -0.200 F 
ENDBRANCH  49  73
BRANCH  61  84
ATOM     84  C   UNL A   1      43.903  28.744  35.234  1.00  0.00     0.064 A 
ATOM     85  C   UNL A   1      43.752  27.665  36.117  1.00  0.00     0.173 A 
ATOM     86  C   UNL A   1      45.202  29.218  34.995  1.00  0.00     0.173 A 
ATOM     87  F   UNL A   1      42.530  27.182  36.392  1.00  0.00    -0.203 F 
ATOM     88  C   UNL A   1      44.854  27.100  36.754  1.00  0.00     0.198 A 
ATOM     89  C   UNL A   1      46.305  28.630  35.608  1.00  0.00     0.198 A 
ATOM     90  F   UNL A   1      45.405  30.244  34.155  1.00  0.00    -0.203 F 
ATOM     91  F   UNL A   1      44.680  26.104  37.633  1.00  0.00    -0.200 F 
ATOM     92  C   UNL A   1      46.130  27.578  36.493  1.00  0.00     0.200 A 
ATOM     93  F   UNL A   1      47.539  29.081  35.340  1.00  0.00    -0.200 F 
ATOM     94  F   UNL A   1      47.190  27.027  37.100  1.00  0.00    -0.200 F 
ENDBRANCH  61  84
ENDBRANCH  35  36
ENDBRANCH  27  30
ENDBRANCH  25  26
ENDBRANCH  24  25
ENDBRANCH  23  24
ENDBRANCH   1  23
TORSDOF 16
ENDMDL
