MODEL 1
REMARK VINA RESULT:     -12.5      0.000      0.000
REMARK SMILES Cc1ccc(-c2ncccc2C(=O)NCCCCCCNC(=O)c2ccc(-c3c4nc(c(-c5c(F)c(F)c(F)c(F)c5F)c5ccc([nH]5)c(-c5c(F)c(F)c(F)c(F)c5F)c5nc(c(-c6c(F)c(F)c(F)c(F)c6F)c6ccc3[nH]6)C=C5)C=C4)cc2)c(C)c1
REMARK SMILES IDX 18 1 17 2 16 3 15 4 14 5 12 6 13 7 11 9 6 10 7 11 8 12 10 13
REMARK SMILES IDX 9 14 5 15 1 16 2 17 3 18 89 19 4 20 87 21 88 22 19 23 20 24
REMARK SMILES IDX 21 25 22 26 23 28 24 29 25 30 86 31 26 32 85 33 27 34 28 35
REMARK SMILES IDX 29 36 79 37 30 38 84 39 78 40 80 41 31 42 83 43 77 44 76 45
REMARK SMILES IDX 32 47 64 48 44 49 63 50 45 51 48 52 62 53 81 54 46 55 47 56
REMARK SMILES IDX 61 58 82 59 49 60 33 61 34 62 42 63 35 64 36 65 40 66 43 67
REMARK SMILES IDX 37 68 38 69 41 70 39 71 65 72 66 73 74 74 67 75 68 76 72 77
REMARK SMILES IDX 75 78 69 79 70 80 73 81 71 82 50 83 51 84 59 85 52 86 53 87
REMARK SMILES IDX 57 88 60 89 54 90 55 91 58 92 56 93
REMARK H PARENT 14 8 21 27 80 46 48 57
REMARK Flexibility Score: inf
ROOT
ATOM      1  C   UNL A   1      31.413  30.860  26.054  1.00  0.00     0.002 C 
ENDROOT
BRANCH   1   2
ATOM      2  C   UNL A   1      32.249  29.969  26.984  1.00  0.00     0.002 C 
BRANCH   2   3
ATOM      3  C   UNL A   1      33.716  29.777  26.566  1.00  0.00     0.021 C 
BRANCH   3   4
ATOM      4  C   UNL A   1      34.145  28.311  26.495  1.00  0.00     0.116 C 
BRANCH   4   5
ATOM      5  N   UNL A   1      33.022  27.437  26.745  1.00  0.00    -0.352 N 
ATOM      6  C   UNL A   1      32.405  26.376  26.138  1.00  0.00     0.253 C 
ATOM      7  O   UNL A   1      31.436  25.970  26.780  1.00  0.00    -0.269 OA
ATOM      8  H   UNL A   1      32.573  27.670  27.590  1.00  0.00     0.163 HD
BRANCH   6   9
ATOM      9  C   UNL A   1      32.826  25.698  24.863  1.00  0.00     0.066 A 
ATOM     10  C   UNL A   1      32.125  25.934  23.659  1.00  0.00     0.083 A 
ATOM     11  N   UNL A   1      32.377  25.246  22.501  1.00  0.00    -0.255 NA
ATOM     12  C   UNL A   1      33.349  24.320  22.504  1.00  0.00     0.112 A 
ATOM     13  C   UNL A   1      33.879  24.779  24.780  1.00  0.00     0.018 A 
ATOM     14  C   UNL A   1      34.132  24.067  23.605  1.00  0.00     0.021 A 
BRANCH  10  15
ATOM     15  C   UNL A   1      31.087  26.966  23.461  1.00  0.00     0.004 A 
ATOM     16  C   UNL A   1      27.920  29.849  22.811  1.00  0.00     0.044 C 
ATOM     17  C   UNL A   1      29.007  28.849  23.059  1.00  0.00    -0.051 A 
ATOM     18  C   UNL A   1      28.707  27.539  23.431  1.00  0.00     0.004 A 
ATOM     19  C   UNL A   1      30.350  29.225  22.926  1.00  0.00     0.007 A 
ATOM     20  C   UNL A   1      29.733  26.617  23.641  1.00  0.00     0.011 A 
ATOM     21  C   UNL A   1      31.395  28.299  23.112  1.00  0.00    -0.041 A 
ATOM     22  C   UNL A   1      32.809  28.795  22.967  1.00  0.00     0.045 C 
ENDBRANCH  10  15
ENDBRANCH   6   9
ENDBRANCH   4   5
ENDBRANCH   3   4
ENDBRANCH   2   3
ENDBRANCH   1   2
BRANCH   1  23
ATOM     23  C   UNL A   1      31.280  32.319  26.496  1.00  0.00     0.021 C 
BRANCH  23  24
ATOM     24  C   UNL A   1      32.454  32.832  27.321  1.00  0.00     0.116 C 
BRANCH  24  25
ATOM     25  N   UNL A   1      32.318  34.245  27.633  1.00  0.00    -0.352 N 
ATOM     26  C   UNL A   1      32.969  34.987  28.585  1.00  0.00     0.251 C 
ATOM     27  H   UNL A   1      31.669  34.738  27.082  1.00  0.00     0.163 HD
ATOM     28  O   UNL A   1      32.585  36.119  28.860  1.00  0.00    -0.269 OA
BRANCH  26  29
ATOM     29  C   UNL A   1      34.131  34.413  29.294  1.00  0.00     0.039 A 
ATOM     30  C   UNL A   1      33.919  33.708  30.482  1.00  0.00     0.014 A 
ATOM     31  C   UNL A   1      35.428  34.584  28.799  1.00  0.00     0.014 A 
ATOM     32  C   UNL A   1      35.002  33.132  31.147  1.00  0.00     0.010 A 
ATOM     33  C   UNL A   1      36.498  33.952  29.426  1.00  0.00     0.010 A 
ATOM     34  C   UNL A   1      36.296  33.226  30.610  1.00  0.00    -0.014 A 
BRANCH  34  35
ATOM     35  C   UNL A   1      37.457  32.591  31.283  1.00  0.00     0.031 A 
ATOM     36  C   UNL A   1      38.190  31.464  30.612  1.00  0.00     0.074 A 
ATOM     37  C   UNL A   1      37.813  32.993  32.518  1.00  0.00     0.049 A 
ATOM     38  N   UNL A   1      39.176  30.731  31.063  1.00  0.00    -0.248 NA
ATOM     39  C   UNL A   1      37.738  31.094  29.262  1.00  0.00     0.031 C 
ATOM     40  C   UNL A   1      37.158  34.052  33.285  1.00  0.00     0.029 A 
ATOM     41  N   UNL A   1      38.812  32.550  33.350  1.00  0.00    -0.354 N 
ATOM     42  C   UNL A   1      39.455  29.812  30.060  1.00  0.00     0.074 A 
ATOM     43  C   UNL A   1      38.496  30.040  29.000  1.00  0.00     0.031 C 
ATOM     44  C   UNL A   1      37.785  34.193  34.465  1.00  0.00     0.029 A 
ATOM     45  C   UNL A   1      38.860  33.209  34.553  1.00  0.00     0.049 A 
ATOM     46  H   UNL A   1      39.434  31.827  33.106  1.00  0.00     0.167 HD
ATOM     47  C   UNL A   1      40.438  28.882  30.014  1.00  0.00     0.037 A 
ATOM     48  C   UNL A   1      39.677  33.034  35.609  1.00  0.00     0.037 A 
ATOM     49  C   UNL A   1      41.401  28.672  31.063  1.00  0.00     0.049 A 
ATOM     50  C   UNL A   1      40.744  31.974  35.542  1.00  0.00     0.074 A 
ATOM     51  C   UNL A   1      42.458  27.780  31.098  1.00  0.00     0.029 A 
ATOM     52  N   UNL A   1      41.424  29.368  32.262  1.00  0.00    -0.354 N 
ATOM     53  N   UNL A   1      41.032  31.149  34.565  1.00  0.00    -0.248 NA
ATOM     54  C   UNL A   1      41.605  31.828  36.723  1.00  0.00     0.031 C 
ATOM     55  C   UNL A   1      43.097  27.907  32.336  1.00  0.00     0.029 A 
ATOM     56  C   UNL A   1      42.468  28.913  33.052  1.00  0.00     0.049 A 
ATOM     57  H   UNL A   1      40.792  30.079  32.515  1.00  0.00     0.167 HD
ATOM     58  C   UNL A   1      42.125  30.411  34.999  1.00  0.00     0.074 A 
ATOM     59  C   UNL A   1      42.457  30.896  36.323  1.00  0.00     0.031 C 
ATOM     60  C   UNL A   1      42.794  29.420  34.360  1.00  0.00     0.037 A 
BRANCH  47  61
ATOM     61  C   UNL A   1      40.526  28.027  28.783  1.00  0.00     0.064 A 
ATOM     62  C   UNL A   1      39.844  26.804  28.690  1.00  0.00     0.173 A 
ATOM     63  C   UNL A   1      41.271  28.448  27.671  1.00  0.00     0.173 A 
ATOM     64  F   UNL A   1      39.129  26.349  29.730  1.00  0.00    -0.203 F 
ATOM     65  C   UNL A   1      39.927  26.022  27.542  1.00  0.00     0.198 A 
ATOM     66  C   UNL A   1      41.326  27.678  26.512  1.00  0.00     0.198 A 
ATOM     67  F   UNL A   1      41.937  29.612  27.704  1.00  0.00    -0.203 F 
ATOM     68  F   UNL A   1      39.309  24.834  27.496  1.00  0.00    -0.200 F 
ATOM     69  C   UNL A   1      40.662  26.462  26.451  1.00  0.00     0.200 A 
ATOM     70  F   UNL A   1      42.025  28.111  25.454  1.00  0.00    -0.200 F 
ATOM     71  F   UNL A   1      40.735  25.711  25.342  1.00  0.00    -0.200 F 
ENDBRANCH  47  61
BRANCH  48  72
ATOM     72  C   UNL A   1      39.537  33.895  36.814  1.00  0.00     0.064 A 
ATOM     73  C   UNL A   1      38.792  33.465  37.920  1.00  0.00     0.173 A 
ATOM     74  C   UNL A   1      40.124  35.166  36.876  1.00  0.00     0.173 A 
ATOM     75  F   UNL A   1      38.194  32.265  37.899  1.00  0.00    -0.203 F 
ATOM     76  C   UNL A   1      38.615  34.285  39.032  1.00  0.00     0.198 A 
ATOM     77  C   UNL A   1      39.972  35.974  38.002  1.00  0.00     0.198 A 
ATOM     78  F   UNL A   1      40.851  35.623  35.846  1.00  0.00    -0.203 F 
ATOM     79  F   UNL A   1      37.853  33.870  40.053  1.00  0.00    -0.200 F 
ATOM     80  C   UNL A   1      39.208  35.538  39.075  1.00  0.00     0.200 A 
ATOM     81  F   UNL A   1      40.559  37.177  38.043  1.00  0.00    -0.200 F 
ATOM     82  F   UNL A   1      39.038  36.327  40.143  1.00  0.00    -0.200 F 
ENDBRANCH  48  72
BRANCH  60  83
ATOM     83  C   UNL A   1      43.980  28.827  35.063  1.00  0.00     0.064 A 
ATOM     84  C   UNL A   1      43.861  27.698  35.886  1.00  0.00     0.173 A 
ATOM     85  C   UNL A   1      45.259  29.376  34.878  1.00  0.00     0.173 A 
ATOM     86  F   UNL A   1      42.658  27.148  36.106  1.00  0.00    -0.203 F 
ATOM     87  C   UNL A   1      44.975  27.155  36.520  1.00  0.00     0.198 A 
ATOM     88  C   UNL A   1      46.375  28.811  35.489  1.00  0.00     0.198 A 
ATOM     89  F   UNL A   1      45.427  30.452  34.095  1.00  0.00    -0.203 F 
ATOM     90  F   UNL A   1      44.831  26.106  37.341  1.00  0.00    -0.200 F 
ATOM     91  C   UNL A   1      46.231  27.707  36.315  1.00  0.00     0.200 A 
ATOM     92  F   UNL A   1      47.589  29.337  35.279  1.00  0.00    -0.200 F 
ATOM     93  F   UNL A   1      47.304  27.178  36.921  1.00  0.00    -0.200 F 
ENDBRANCH  60  83
ENDBRANCH  34  35
ENDBRANCH  26  29
ENDBRANCH  24  25
ENDBRANCH  23  24
ENDBRANCH   1  23
TORSDOF 14
ENDMDL
MODEL 2
REMARK VINA RESULT:     -12.5      0.081      1.595
REMARK SMILES Cc1ccc(-c2ncccc2C(=O)NCCCCCCNC(=O)c2ccc(-c3c4nc(c(-c5c(F)c(F)c(F)c(F)c5F)c5ccc([nH]5)c(-c5c(F)c(F)c(F)c(F)c5F)c5nc(c(-c6c(F)c(F)c(F)c(F)c6F)c6ccc3[nH]6)C=C5)C=C4)cc2)c(C)c1
REMARK SMILES IDX 18 1 17 2 16 3 15 4 14 5 12 6 13 7 11 9 6 10 7 11 8 12 10 13
REMARK SMILES IDX 9 14 5 15 1 16 2 17 3 18 89 19 4 20 87 21 88 22 19 23 20 24
REMARK SMILES IDX 21 25 22 26 23 28 24 29 25 30 86 31 26 32 85 33 27 34 28 35
REMARK SMILES IDX 29 36 79 37 30 38 84 39 78 40 80 41 31 42 83 43 77 44 76 45
REMARK SMILES IDX 32 47 64 48 44 49 63 50 45 51 48 52 62 53 81 54 46 55 47 56
REMARK SMILES IDX 61 58 82 59 49 60 33 61 34 62 42 63 35 64 36 65 40 66 43 67
REMARK SMILES IDX 37 68 38 69 41 70 39 71 65 72 66 73 74 74 67 75 68 76 72 77
REMARK SMILES IDX 75 78 69 79 70 80 73 81 71 82 50 83 51 84 59 85 52 86 53 87
REMARK SMILES IDX 57 88 60 89 54 90 55 91 58 92 56 93
REMARK H PARENT 14 8 21 27 80 46 48 57
REMARK Flexibility Score: inf
ROOT
ATOM      1  C   UNL A   1      31.429  30.864  25.947  1.00  0.00     0.002 C 
ENDROOT
BRANCH   1   2
ATOM      2  C   UNL A   1      32.180  29.892  26.868  1.00  0.00     0.002 C 
BRANCH   2   3
ATOM      3  C   UNL A   1      33.672  29.702  26.548  1.00  0.00     0.021 C 
BRANCH   3   4
ATOM      4  C   UNL A   1      34.098  28.236  26.468  1.00  0.00     0.116 C 
BRANCH   4   5
ATOM      5  N   UNL A   1      32.977  27.362  26.728  1.00  0.00    -0.352 N 
ATOM      6  C   UNL A   1      32.354  26.302  26.125  1.00  0.00     0.253 C 
ATOM      7  O   UNL A   1      31.392  25.896  26.777  1.00  0.00    -0.269 OA
ATOM      8  H   UNL A   1      32.538  27.594  27.577  1.00  0.00     0.163 HD
BRANCH   6   9
ATOM      9  C   UNL A   1      32.762  25.627  24.846  1.00  0.00     0.066 A 
ATOM     10  C   UNL A   1      32.052  25.870  23.647  1.00  0.00     0.083 A 
ATOM     11  N   UNL A   1      32.292  25.184  22.485  1.00  0.00    -0.255 NA
ATOM     12  C   UNL A   1      33.260  24.253  22.478  1.00  0.00     0.112 A 
ATOM     13  C   UNL A   1      33.810  24.703  24.751  1.00  0.00     0.018 A 
ATOM     14  C   UNL A   1      34.050  23.992  23.573  1.00  0.00     0.021 A 
BRANCH  10  15
ATOM     15  C   UNL A   1      31.018  26.908  23.461  1.00  0.00     0.004 A 
ATOM     16  C   UNL A   1      27.862  29.809  22.842  1.00  0.00     0.044 C 
ATOM     17  C   UNL A   1      28.946  28.802  23.079  1.00  0.00    -0.051 A 
ATOM     18  C   UNL A   1      28.641  27.490  23.441  1.00  0.00     0.004 A 
ATOM     19  C   UNL A   1      30.289  29.174  22.946  1.00  0.00     0.007 A 
ATOM     20  C   UNL A   1      29.663  26.563  23.641  1.00  0.00     0.011 A 
ATOM     21  C   UNL A   1      31.331  28.243  23.122  1.00  0.00    -0.041 A 
ATOM     22  C   UNL A   1      32.747  28.733  22.977  1.00  0.00     0.045 C 
ENDBRANCH  10  15
ENDBRANCH   6   9
ENDBRANCH   4   5
ENDBRANCH   3   4
ENDBRANCH   2   3
ENDBRANCH   1   2
BRANCH   1  23
ATOM     23  C   UNL A   1      31.244  32.277  26.505  1.00  0.00     0.021 C 
BRANCH  23  24
ATOM     24  C   UNL A   1      32.446  32.810  27.276  1.00  0.00     0.116 C 
BRANCH  24  25
ATOM     25  N   UNL A   1      32.298  34.217  27.604  1.00  0.00    -0.352 N 
ATOM     26  C   UNL A   1      32.942  34.954  28.565  1.00  0.00     0.251 C 
ATOM     27  H   UNL A   1      31.644  34.711  27.058  1.00  0.00     0.163 HD
ATOM     28  O   UNL A   1      32.547  36.079  28.852  1.00  0.00    -0.269 OA
BRANCH  26  29
ATOM     29  C   UNL A   1      34.109  34.382  29.267  1.00  0.00     0.039 A 
ATOM     30  C   UNL A   1      33.899  33.628  30.425  1.00  0.00     0.014 A 
ATOM     31  C   UNL A   1      35.407  34.603  28.797  1.00  0.00     0.014 A 
ATOM     32  C   UNL A   1      34.988  33.054  31.083  1.00  0.00     0.010 A 
ATOM     33  C   UNL A   1      36.484  33.973  29.414  1.00  0.00     0.010 A 
ATOM     34  C   UNL A   1      36.286  33.199  30.568  1.00  0.00    -0.014 A 
BRANCH  34  35
ATOM     35  C   UNL A   1      37.453  32.568  31.232  1.00  0.00     0.031 A 
ATOM     36  C   UNL A   1      38.187  31.446  30.553  1.00  0.00     0.074 A 
ATOM     37  C   UNL A   1      37.814  32.967  32.466  1.00  0.00     0.049 A 
ATOM     38  N   UNL A   1      39.180  30.716  30.997  1.00  0.00    -0.248 NA
ATOM     39  C   UNL A   1      37.729  31.078  29.205  1.00  0.00     0.031 C 
ATOM     40  C   UNL A   1      37.158  34.021  33.240  1.00  0.00     0.029 A 
ATOM     41  N   UNL A   1      38.819  32.526  33.291  1.00  0.00    -0.354 N 
ATOM     42  C   UNL A   1      39.457  29.802  29.990  1.00  0.00     0.074 A 
ATOM     43  C   UNL A   1      38.491  30.028  28.935  1.00  0.00     0.031 C 
ATOM     44  C   UNL A   1      37.792  34.161  34.417  1.00  0.00     0.029 A 
ATOM     45  C   UNL A   1      38.871  33.182  34.496  1.00  0.00     0.049 A 
ATOM     46  H   UNL A   1      39.444  31.807  33.041  1.00  0.00     0.167 HD
ATOM     47  C   UNL A   1      40.444  28.877  29.935  1.00  0.00     0.037 A 
ATOM     48  C   UNL A   1      39.695  33.008  35.547  1.00  0.00     0.037 A 
ATOM     49  C   UNL A   1      41.414  28.668  30.978  1.00  0.00     0.049 A 
ATOM     50  C   UNL A   1      40.767  31.954  35.471  1.00  0.00     0.074 A 
ATOM     51  C   UNL A   1      42.476  27.780  31.005  1.00  0.00     0.029 A 
ATOM     52  N   UNL A   1      41.441  29.360  32.179  1.00  0.00    -0.354 N 
ATOM     53  N   UNL A   1      41.053  31.132  34.490  1.00  0.00    -0.248 NA
ATOM     54  C   UNL A   1      41.635  31.808  36.647  1.00  0.00     0.031 C 
ATOM     55  C   UNL A   1      43.121  27.906  32.240  1.00  0.00     0.029 A 
ATOM     56  C   UNL A   1      42.491  28.907  32.962  1.00  0.00     0.049 A 
ATOM     57  H   UNL A   1      40.807  30.068  32.438  1.00  0.00     0.167 HD
ATOM     58  C   UNL A   1      42.152  30.398  34.916  1.00  0.00     0.074 A 
ATOM     59  C   UNL A   1      42.489  30.881  36.239  1.00  0.00     0.031 C 
ATOM     60  C   UNL A   1      42.821  29.413  34.270  1.00  0.00     0.037 A 
BRANCH  47  61
ATOM     61  C   UNL A   1      40.530  28.025  28.701  1.00  0.00     0.064 A 
ATOM     62  C   UNL A   1      41.300  28.414  27.595  1.00  0.00     0.173 A 
ATOM     63  C   UNL A   1      39.864  26.791  28.636  1.00  0.00     0.173 A 
ATOM     64  F   UNL A   1      41.945  29.590  27.601  1.00  0.00    -0.203 F 
ATOM     65  C   UNL A   1      41.378  27.614  26.458  1.00  0.00     0.198 A 
ATOM     66  C   UNL A   1      39.970  25.979  27.510  1.00  0.00     0.198 A 
ATOM     67  F   UNL A   1      39.119  26.369  29.668  1.00  0.00    -0.203 F 
ATOM     68  F   UNL A   1      42.078  28.030  25.394  1.00  0.00    -0.200 F 
ATOM     69  C   UNL A   1      40.719  26.394  26.419  1.00  0.00     0.200 A 
ATOM     70  F   UNL A   1      39.343  24.795  27.479  1.00  0.00    -0.200 F 
ATOM     71  F   UNL A   1      40.800  25.621  25.327  1.00  0.00    -0.200 F 
ENDBRANCH  47  61
BRANCH  48  72
ATOM     72  C   UNL A   1      39.558  33.864  36.755  1.00  0.00     0.064 A 
ATOM     73  C   UNL A   1      38.806  33.436  37.857  1.00  0.00     0.173 A 
ATOM     74  C   UNL A   1      40.153  35.131  36.825  1.00  0.00     0.173 A 
ATOM     75  F   UNL A   1      38.200  32.240  37.829  1.00  0.00    -0.203 F 
ATOM     76  C   UNL A   1      38.632  34.252  38.973  1.00  0.00     0.198 A 
ATOM     77  C   UNL A   1      40.004  35.936  37.954  1.00  0.00     0.198 A 
ATOM     78  F   UNL A   1      40.887  35.587  35.799  1.00  0.00    -0.203 F 
ATOM     79  F   UNL A   1      37.864  33.838  39.989  1.00  0.00    -0.200 F 
ATOM     80  C   UNL A   1      39.234  35.500  39.022  1.00  0.00     0.200 A 
ATOM     81  F   UNL A   1      40.600  37.134  38.002  1.00  0.00    -0.200 F 
ATOM     82  F   UNL A   1      39.066  36.286  40.093  1.00  0.00    -0.200 F 
ENDBRANCH  48  72
BRANCH  60  83
ATOM     83  C   UNL A   1      44.015  28.823  34.964  1.00  0.00     0.064 A 
ATOM     84  C   UNL A   1      45.296  29.378  34.827  1.00  0.00     0.173 A 
ATOM     85  C   UNL A   1      43.866  27.712  35.807  1.00  0.00     0.173 A 
ATOM     86  F   UNL A   1      45.492  30.432  34.020  1.00  0.00    -0.203 F 
ATOM     87  C   UNL A   1      46.389  28.825  35.489  1.00  0.00     0.198 A 
ATOM     88  C   UNL A   1      44.955  27.180  36.490  1.00  0.00     0.198 A 
ATOM     89  F   UNL A   1      42.660  27.148  35.977  1.00  0.00    -0.203 F 
ATOM     90  F   UNL A   1      47.611  29.341  35.304  1.00  0.00    -0.200 F 
ATOM     91  C   UNL A   1      46.217  27.732  36.325  1.00  0.00     0.200 A 
ATOM     92  F   UNL A   1      44.785  26.133  37.309  1.00  0.00    -0.200 F 
ATOM     93  F   UNL A   1      47.269  27.205  36.966  1.00  0.00    -0.200 F 
ENDBRANCH  60  83
ENDBRANCH  34  35
ENDBRANCH  26  29
ENDBRANCH  24  25
ENDBRANCH  23  24
ENDBRANCH   1  23
TORSDOF 14
ENDMDL
MODEL 3
REMARK VINA RESULT:     -12.3      5.666     10.866
REMARK SMILES Cc1ccc(-c2ncccc2C(=O)NCCCCCCNC(=O)c2ccc(-c3c4nc(c(-c5c(F)c(F)c(F)c(F)c5F)c5ccc([nH]5)c(-c5c(F)c(F)c(F)c(F)c5F)c5nc(c(-c6c(F)c(F)c(F)c(F)c6F)c6ccc3[nH]6)C=C5)C=C4)cc2)c(C)c1
REMARK SMILES IDX 18 1 17 2 16 3 15 4 14 5 12 6 13 7 11 9 6 10 7 11 8 12 10 13
REMARK SMILES IDX 9 14 5 15 1 16 2 17 3 18 89 19 4 20 87 21 88 22 19 23 20 24
REMARK SMILES IDX 21 25 22 26 23 28 24 29 25 30 86 31 26 32 85 33 27 34 28 35
REMARK SMILES IDX 29 36 79 37 30 38 84 39 78 40 80 41 31 42 83 43 77 44 76 45
REMARK SMILES IDX 32 47 64 48 44 49 63 50 45 51 48 52 62 53 81 54 46 55 47 56
REMARK SMILES IDX 61 58 82 59 49 60 33 61 34 62 42 63 35 64 36 65 40 66 43 67
REMARK SMILES IDX 37 68 38 69 41 70 39 71 65 72 66 73 74 74 67 75 68 76 72 77
REMARK SMILES IDX 75 78 69 79 70 80 73 81 71 82 50 83 51 84 59 85 52 86 53 87
REMARK SMILES IDX 57 88 60 89 54 90 55 91 58 92 56 93
REMARK H PARENT 14 8 21 27 80 46 48 57
REMARK Flexibility Score: inf
ROOT
ATOM      1  C   UNL A   1      36.910  20.407  25.004  1.00  0.00     0.002 C 
ENDROOT
BRANCH   1   2
ATOM      2  C   UNL A   1      37.028  21.861  24.527  1.00  0.00     0.002 C 
BRANCH   2   3
ATOM      3  C   UNL A   1      37.291  22.897  25.632  1.00  0.00     0.021 C 
BRANCH   3   4
ATOM      4  C   UNL A   1      36.243  24.008  25.692  1.00  0.00     0.116 C 
BRANCH   4   5
ATOM      5  N   UNL A   1      35.594  24.168  24.410  1.00  0.00    -0.352 N 
ATOM      6  C   UNL A   1      34.331  24.394  23.932  1.00  0.00     0.253 C 
ATOM      7  O   UNL A   1      34.300  24.442  22.702  1.00  0.00    -0.269 OA
ATOM      8  H   UNL A   1      36.242  24.093  23.674  1.00  0.00     0.163 HD
BRANCH   6   9
ATOM      9  C   UNL A   1      33.086  24.616  24.746  1.00  0.00     0.066 A 
ATOM     10  C   UNL A   1      32.214  23.541  25.032  1.00  0.00     0.083 A 
ATOM     11  N   UNL A   1      31.003  23.706  25.651  1.00  0.00    -0.255 NA
ATOM     12  C   UNL A   1      30.636  24.943  26.022  1.00  0.00     0.112 A 
ATOM     13  C   UNL A   1      32.683  25.866  25.229  1.00  0.00     0.018 A 
ATOM     14  C   UNL A   1      31.444  26.042  25.849  1.00  0.00     0.021 A 
BRANCH  10  15
ATOM     15  C   UNL A   1      32.497  22.116  24.766  1.00  0.00     0.004 A 
ATOM     16  C   UNL A   1      33.158  17.929  23.873  1.00  0.00     0.044 C 
ATOM     17  C   UNL A   1      32.944  19.383  24.163  1.00  0.00    -0.051 A 
ATOM     18  C   UNL A   1      32.347  20.222  23.222  1.00  0.00     0.004 A 
ATOM     19  C   UNL A   1      33.350  19.922  25.390  1.00  0.00     0.007 A 
ATOM     20  C   UNL A   1      32.140  21.569  23.516  1.00  0.00     0.011 A 
ATOM     21  C   UNL A   1      33.127  21.275  25.709  1.00  0.00    -0.041 A 
ATOM     22  C   UNL A   1      33.613  21.773  27.044  1.00  0.00     0.045 C 
ENDBRANCH  10  15
ENDBRANCH   6   9
ENDBRANCH   4   5
ENDBRANCH   3   4
ENDBRANCH   2   3
ENDBRANCH   1   2
BRANCH   1  23
ATOM     23  C   UNL A   1      38.193  19.578  24.891  1.00  0.00     0.021 C 
BRANCH  23  24
ATOM     24  C   UNL A   1      39.299  20.002  25.850  1.00  0.00     0.116 C 
BRANCH  24  25
ATOM     25  N   UNL A   1      40.359  19.011  25.923  1.00  0.00    -0.352 N 
ATOM     26  C   UNL A   1      41.707  19.197  26.099  1.00  0.00     0.251 C 
ATOM     27  H   UNL A   1      40.069  18.075  25.835  1.00  0.00     0.163 HD
ATOM     28  O   UNL A   1      42.489  18.270  25.925  1.00  0.00    -0.269 OA
BRANCH  26  29
ATOM     29  C   UNL A   1      42.218  20.528  26.487  1.00  0.00     0.039 A 
ATOM     30  C   UNL A   1      42.711  21.379  25.495  1.00  0.00     0.014 A 
ATOM     31  C   UNL A   1      42.228  20.929  27.827  1.00  0.00     0.014 A 
ATOM     32  C   UNL A   1      43.169  22.652  25.839  1.00  0.00     0.010 A 
ATOM     33  C   UNL A   1      42.620  22.222  28.160  1.00  0.00     0.010 A 
ATOM     34  C   UNL A   1      43.101  23.094  27.171  1.00  0.00    -0.014 A 
BRANCH  34  35
ATOM     35  C   UNL A   1      43.549  24.456  27.553  1.00  0.00     0.031 A 
ATOM     36  C   UNL A   1      42.537  25.509  27.904  1.00  0.00     0.074 A 
ATOM     37  C   UNL A   1      44.862  24.757  27.531  1.00  0.00     0.049 A 
ATOM     38  N   UNL A   1      42.720  26.773  28.191  1.00  0.00    -0.248 NA
ATOM     39  C   UNL A   1      41.126  25.092  27.909  1.00  0.00     0.031 C 
ATOM     40  C   UNL A   1      45.936  23.830  27.174  1.00  0.00     0.029 A 
ATOM     41  N   UNL A   1      45.515  25.932  27.806  1.00  0.00    -0.354 N 
ATOM     42  C   UNL A   1      41.453  27.301  28.401  1.00  0.00     0.074 A 
ATOM     43  C   UNL A   1      40.505  26.237  28.152  1.00  0.00     0.031 C 
ATOM     44  C   UNL A   1      47.116  24.465  27.274  1.00  0.00     0.029 A 
ATOM     45  C   UNL A   1      46.878  25.852  27.664  1.00  0.00     0.049 A 
ATOM     46  H   UNL A   1      45.049  26.755  28.080  1.00  0.00     0.167 HD
ATOM     47  C   UNL A   1      41.113  28.551  28.794  1.00  0.00     0.037 A 
ATOM     48  C   UNL A   1      47.827  26.794  27.824  1.00  0.00     0.037 A 
ATOM     49  C   UNL A   1      42.060  29.602  29.059  1.00  0.00     0.049 A 
ATOM     50  C   UNL A   1      47.418  28.183  28.235  1.00  0.00     0.074 A 
ATOM     51  C   UNL A   1      41.819  30.892  29.496  1.00  0.00     0.029 A 
ATOM     52  N   UNL A   1      43.434  29.478  28.914  1.00  0.00    -0.354 N 
ATOM     53  N   UNL A   1      46.221  28.655  28.484  1.00  0.00    -0.248 NA
ATOM     54  C   UNL A   1      48.496  29.169  28.394  1.00  0.00     0.031 C 
ATOM     55  C   UNL A   1      43.044  31.563  29.576  1.00  0.00     0.029 A 
ATOM     56  C   UNL A   1      44.052  30.675  29.237  1.00  0.00     0.049 A 
ATOM     57  H   UNL A   1      43.900  28.661  28.624  1.00  0.00     0.167 HD
ATOM     58  C   UNL A   1      46.403  29.978  28.861  1.00  0.00     0.074 A 
ATOM     59  C   UNL A   1      47.829  30.231  28.820  1.00  0.00     0.031 C 
ATOM     60  C   UNL A   1      45.475  30.902  29.208  1.00  0.00     0.037 A 
BRANCH  47  61
ATOM     61  C   UNL A   1      39.651  28.849  28.970  1.00  0.00     0.064 A 
ATOM     62  C   UNL A   1      39.021  28.719  30.216  1.00  0.00     0.173 A 
ATOM     63  C   UNL A   1      38.879  29.303  27.889  1.00  0.00     0.173 A 
ATOM     64  F   UNL A   1      39.711  28.276  31.278  1.00  0.00    -0.203 F 
ATOM     65  C   UNL A   1      37.667  29.004  30.370  1.00  0.00     0.198 A 
ATOM     66  C   UNL A   1      37.532  29.617  28.054  1.00  0.00     0.198 A 
ATOM     67  F   UNL A   1      39.432  29.451  26.676  1.00  0.00    -0.203 F 
ATOM     68  F   UNL A   1      37.076  28.823  31.559  1.00  0.00    -0.200 F 
ATOM     69  C   UNL A   1      36.925  29.460  29.291  1.00  0.00     0.200 A 
ATOM     70  F   UNL A   1      36.819  30.070  27.013  1.00  0.00    -0.200 F 
ATOM     71  F   UNL A   1      35.623  29.741  29.441  1.00  0.00    -0.200 F 
ENDBRANCH  47  61
BRANCH  48  72
ATOM     72  C   UNL A   1      49.261  26.454  27.619  1.00  0.00     0.064 A 
ATOM     73  C   UNL A   1      50.115  26.260  28.713  1.00  0.00     0.173 A 
ATOM     74  C   UNL A   1      49.809  26.338  26.335  1.00  0.00     0.173 A 
ATOM     75  F   UNL A   1      49.641  26.381  29.962  1.00  0.00    -0.203 F 
ATOM     76  C   UNL A   1      51.469  25.990  28.531  1.00  0.00     0.198 A 
ATOM     77  C   UNL A   1      51.158  26.038  26.153  1.00  0.00     0.198 A 
ATOM     78  F   UNL A   1      49.034  26.509  25.254  1.00  0.00    -0.203 F 
ATOM     79  F   UNL A   1      52.274  25.863  29.595  1.00  0.00    -0.200 F 
ATOM     80  C   UNL A   1      51.990  25.875  27.251  1.00  0.00     0.200 A 
ATOM     81  F   UNL A   1      51.653  25.913  24.914  1.00  0.00    -0.200 F 
ATOM     82  F   UNL A   1      53.292  25.617  27.075  1.00  0.00    -0.200 F 
ENDBRANCH  48  72
BRANCH  60  83
ATOM     83  C   UNL A   1      45.973  32.258  29.619  1.00  0.00     0.064 A 
ATOM     84  C   UNL A   1      46.114  33.303  28.694  1.00  0.00     0.173 A 
ATOM     85  C   UNL A   1      46.277  32.522  30.963  1.00  0.00     0.173 A 
ATOM     86  F   UNL A   1      45.851  33.095  27.395  1.00  0.00    -0.203 F 
ATOM     87  C   UNL A   1      46.566  34.556  29.096  1.00  0.00     0.198 A 
ATOM     88  C   UNL A   1      46.700  33.786  31.366  1.00  0.00     0.198 A 
ATOM     89  F   UNL A   1      46.153  31.559  31.888  1.00  0.00    -0.203 F 
ATOM     90  F   UNL A   1      46.740  35.526  28.188  1.00  0.00    -0.200 F 
ATOM     91  C   UNL A   1      46.851  34.799  30.431  1.00  0.00     0.200 A 
ATOM     92  F   UNL A   1      46.961  34.022  32.658  1.00  0.00    -0.200 F 
ATOM     93  F   UNL A   1      47.280  36.009  30.817  1.00  0.00    -0.200 F 
ENDBRANCH  60  83
ENDBRANCH  34  35
ENDBRANCH  26  29
ENDBRANCH  24  25
ENDBRANCH  23  24
ENDBRANCH   1  23
TORSDOF 14
ENDMDL
