MODEL 1
REMARK VINA RESULT:     -13.2      0.000      0.000
REMARK SMILES Cc1cc(Cl)c(C)c2c1O[C@H](C(F)(F)F)C(C(=O)NCCCCCCNC(=O)c1ccc(-c3c4nc(c(-c5c(F)c(F)c(F)c(F)c5F)c5ccc([nH]5)c(-c5c(F)c(F)c(F)c(F)c5F)c5nc(c(-c6c(F)c(F)c(F)c(F)c6F)c6ccc3[nH]6)C=C5)C=C4)cc1)=C2
REMARK SMILES IDX 23 1 22 2 21 3 20 4 19 5 17 6 18 7 16 9 1 10 2 11 3 12 9 13
REMARK SMILES IDX 4 14 8 15 10 16 5 17 6 18 92 19 11 20 7 21 12 22 13 23 14 24
REMARK SMILES IDX 15 25 24 26 25 27 26 28 27 29 28 31 29 32 30 33 91 34 31 35
REMARK SMILES IDX 90 36 32 37 33 38 34 39 84 40 35 41 89 42 83 43 85 44 36 45
REMARK SMILES IDX 88 46 82 47 81 48 37 50 69 51 49 52 68 53 50 54 53 55 67 56
REMARK SMILES IDX 86 57 51 58 52 59 66 61 87 62 54 63 38 64 39 65 47 66 40 67
REMARK SMILES IDX 41 68 45 69 48 70 42 71 43 72 46 73 44 74 70 75 71 76 79 77
REMARK SMILES IDX 72 78 73 79 77 80 80 81 74 82 75 83 78 84 76 85 55 86 56 87
REMARK SMILES IDX 64 88 57 89 58 90 62 91 65 92 59 93 60 94 63 95 61 96
REMARK H PARENT 19 8 26 30 85 49 53 60
REMARK Flexibility Score: inf
ROOT
ATOM      1  C   UNL A   1      31.635  30.713  26.109  1.00  0.00     0.002 C 
ENDROOT
BRANCH   1   2
ATOM      2  C   UNL A   1      32.386  29.802  27.091  1.00  0.00     0.002 C 
BRANCH   2   3
ATOM      3  C   UNL A   1      31.594  28.605  27.625  1.00  0.00     0.021 C 
BRANCH   3   4
ATOM      4  C   UNL A   1      31.725  27.339  26.783  1.00  0.00     0.116 C 
BRANCH   4   5
ATOM      5  N   UNL A   1      32.606  27.535  25.647  1.00  0.00    -0.352 N 
ATOM      6  C   UNL A   1      33.295  26.762  24.777  1.00  0.00     0.251 C 
ATOM      7  O   UNL A   1      33.929  27.385  23.918  1.00  0.00    -0.270 OA
ATOM      8  H   UNL A   1      32.740  28.493  25.458  1.00  0.00     0.163 HD
BRANCH   6   9
ATOM      9  C   UNL A   1      33.335  25.268  24.781  1.00  0.00     0.067 C 
ATOM     10  C   UNL A   1      32.411  20.206  24.982  1.00  0.00     0.048 C 
ATOM     11  C   UNL A   1      33.637  21.074  24.929  1.00  0.00    -0.007 A 
ATOM     12  C   UNL A   1      34.898  20.470  24.921  1.00  0.00     0.028 A 
ATOM     13  C   UNL A   1      33.566  22.472  24.932  1.00  0.00     0.131 A 
ATOM     14  C   UNL A   1      36.064  21.243  24.896  1.00  0.00     0.045 A 
ATOM     15  C   UNL A   1      34.726  23.265  24.908  1.00  0.00     0.022 A 
ATOM     16  O   UNL A   1      32.315  23.013  25.016  1.00  0.00    -0.475 OA
ATOM     17  Cl  UNL A   1      37.560  20.375  24.897  1.00  0.00    -0.084 Cl
ATOM     18  C   UNL A   1      36.002  22.650  24.881  1.00  0.00    -0.021 A 
ATOM     19  C   UNL A   1      34.554  24.722  24.947  1.00  0.00     0.026 C 
ATOM     20  C   UNL A   1      32.146  24.382  24.574  1.00  0.00     0.314 C 
ATOM     21  C   UNL A   1      37.251  23.496  24.850  1.00  0.00     0.047 C 
BRANCH  20  22
ATOM     22  C   UNL A   1      31.629  24.389  23.126  1.00  0.00     0.429 C 
ATOM     23  F   UNL A   1      30.714  23.402  22.947  1.00  0.00    -0.167 F 
ATOM     24  F   UNL A   1      31.005  25.545  22.802  1.00  0.00    -0.167 F 
ATOM     25  F   UNL A   1      32.612  24.200  22.219  1.00  0.00    -0.167 F 
ENDBRANCH  20  22
ENDBRANCH   6   9
ENDBRANCH   4   5
ENDBRANCH   3   4
ENDBRANCH   2   3
ENDBRANCH   1   2
BRANCH   1  26
ATOM     26  C   UNL A   1      31.389  32.145  26.588  1.00  0.00     0.021 C 
BRANCH  26  27
ATOM     27  C   UNL A   1      32.571  32.801  27.292  1.00  0.00     0.116 C 
BRANCH  27  28
ATOM     28  N   UNL A   1      32.307  34.183  27.655  1.00  0.00    -0.352 N 
ATOM     29  C   UNL A   1      32.933  34.964  28.594  1.00  0.00     0.251 C 
ATOM     30  H   UNL A   1      31.577  34.620  27.159  1.00  0.00     0.163 HD
ATOM     31  O   UNL A   1      32.488  36.069  28.884  1.00  0.00    -0.269 OA
BRANCH  29  32
ATOM     32  C   UNL A   1      34.134  34.449  29.282  1.00  0.00     0.039 A 
ATOM     33  C   UNL A   1      33.977  33.787  30.501  1.00  0.00     0.014 A 
ATOM     34  C   UNL A   1      35.403  34.596  28.714  1.00  0.00     0.014 A 
ATOM     35  C   UNL A   1      35.087  33.211  31.119  1.00  0.00     0.010 A 
ATOM     36  C   UNL A   1      36.498  33.966  29.298  1.00  0.00     0.010 A 
ATOM     37  C   UNL A   1      36.349  33.265  30.503  1.00  0.00    -0.014 A 
BRANCH  37  38
ATOM     38  C   UNL A   1      37.512  32.570  31.108  1.00  0.00     0.031 A 
ATOM     39  C   UNL A   1      38.000  32.951  32.475  1.00  0.00     0.074 A 
ATOM     40  C   UNL A   1      38.145  31.610  30.405  1.00  0.00     0.049 A 
ATOM     41  N   UNL A   1      38.983  32.439  33.172  1.00  0.00    -0.248 NA
ATOM     42  C   UNL A   1      37.310  34.067  33.140  1.00  0.00     0.031 C 
ATOM     43  C   UNL A   1      37.794  31.191  29.047  1.00  0.00     0.029 A 
ATOM     44  N   UNL A   1      39.207  30.807  30.737  1.00  0.00    -0.354 N 
ATOM     45  C   UNL A   1      39.025  33.165  34.353  1.00  0.00     0.074 A 
ATOM     46  C   UNL A   1      38.012  34.193  34.257  1.00  0.00     0.031 C 
ATOM     47  C   UNL A   1      38.598  30.181  28.678  1.00  0.00     0.029 A 
ATOM     48  C   UNL A   1      39.534  29.896  29.761  1.00  0.00     0.049 A 
ATOM     49  H   UNL A   1      39.689  30.877  31.592  1.00  0.00     0.167 HD
ATOM     50  C   UNL A   1      39.817  32.970  35.434  1.00  0.00     0.037 A 
ATOM     51  C   UNL A   1      40.471  28.929  29.751  1.00  0.00     0.037 A 
ATOM     52  C   UNL A   1      40.807  31.932  35.535  1.00  0.00     0.049 A 
ATOM     53  C   UNL A   1      41.338  28.733  30.963  1.00  0.00     0.074 A 
ATOM     54  C   UNL A   1      41.628  31.625  36.604  1.00  0.00     0.029 A 
ATOM     55  N   UNL A   1      41.106  31.028  34.526  1.00  0.00    -0.354 N 
ATOM     56  N   UNL A   1      41.322  29.383  32.101  1.00  0.00    -0.248 NA
ATOM     57  C   UNL A   1      42.348  27.667  30.895  1.00  0.00     0.031 C 
ATOM     58  C   UNL A   1      42.449  30.557  36.233  1.00  0.00     0.029 A 
ATOM     59  C   UNL A   1      42.111  30.172  34.945  1.00  0.00     0.049 A 
ATOM     60  H   UNL A   1      40.670  30.999  33.643  1.00  0.00     0.167 HD
ATOM     61  C   UNL A   1      42.296  28.790  32.893  1.00  0.00     0.074 A 
ATOM     62  C   UNL A   1      42.881  27.723  32.108  1.00  0.00     0.031 C 
ATOM     63  C   UNL A   1      42.668  29.103  34.157  1.00  0.00     0.037 A 
BRANCH  50  64
ATOM     64  C   UNL A   1      39.628  33.880  36.610  1.00  0.00     0.064 A 
ATOM     65  C   UNL A   1      38.835  33.500  37.703  1.00  0.00     0.173 A 
ATOM     66  C   UNL A   1      40.295  35.112  36.677  1.00  0.00     0.173 A 
ATOM     67  F   UNL A   1      38.168  32.337  37.680  1.00  0.00    -0.203 F 
ATOM     68  C   UNL A   1      38.702  34.329  38.813  1.00  0.00     0.198 A 
ATOM     69  C   UNL A   1      40.181  35.926  37.801  1.00  0.00     0.198 A 
ATOM     70  F   UNL A   1      41.071  35.518  35.661  1.00  0.00    -0.203 F 
ATOM     71  F   UNL A   1      37.912  33.960  39.831  1.00  0.00    -0.200 F 
ATOM     72  C   UNL A   1      39.383  35.536  38.866  1.00  0.00     0.200 A 
ATOM     73  F   UNL A   1      40.848  37.088  37.856  1.00  0.00    -0.200 F 
ATOM     74  F   UNL A   1      39.265  36.326  39.942  1.00  0.00    -0.200 F 
ENDBRANCH  50  64
BRANCH  51  75
ATOM     75  C   UNL A   1      40.588  28.033  28.574  1.00  0.00     0.064 A 
ATOM     76  C   UNL A   1      39.905  26.808  28.538  1.00  0.00     0.173 A 
ATOM     77  C   UNL A   1      41.352  28.386  27.453  1.00  0.00     0.173 A 
ATOM     78  F   UNL A   1      39.175  26.420  29.594  1.00  0.00    -0.203 F 
ATOM     79  C   UNL A   1      39.990  25.968  27.430  1.00  0.00     0.198 A 
ATOM     80  C   UNL A   1      41.418  27.556  26.336  1.00  0.00     0.198 A 
ATOM     81  F   UNL A   1      42.018  29.551  27.436  1.00  0.00    -0.203 F 
ATOM     82  F   UNL A   1      39.349  24.791  27.434  1.00  0.00    -0.200 F 
ATOM     83  C   UNL A   1      40.740  26.346  26.327  1.00  0.00     0.200 A 
ATOM     84  F   UNL A   1      42.133  27.930  25.266  1.00  0.00    -0.200 F 
ATOM     85  F   UNL A   1      40.812  25.543  25.256  1.00  0.00    -0.200 F 
ENDBRANCH  51  75
BRANCH  63  86
ATOM     86  C   UNL A   1      43.740  28.273  34.794  1.00  0.00     0.064 A 
ATOM     87  C   UNL A   1      45.085  28.665  34.757  1.00  0.00     0.173 A 
ATOM     88  C   UNL A   1      43.404  27.132  35.538  1.00  0.00     0.173 A 
ATOM     89  F   UNL A   1      45.454  29.743  34.048  1.00  0.00    -0.203 F 
ATOM     90  C   UNL A   1      46.058  27.941  35.440  1.00  0.00     0.198 A 
ATOM     91  C   UNL A   1      44.375  26.425  36.239  1.00  0.00     0.198 A 
ATOM     92  F   UNL A   1      42.128  26.724  35.610  1.00  0.00    -0.203 F 
ATOM     93  F   UNL A   1      47.342  28.322  35.378  1.00  0.00    -0.200 F 
ATOM     94  C   UNL A   1      45.701  26.830  36.189  1.00  0.00     0.200 A 
ATOM     95  F   UNL A   1      44.028  25.359  36.974  1.00  0.00    -0.200 F 
ATOM     96  F   UNL A   1      46.636  26.148  36.866  1.00  0.00    -0.200 F 
ENDBRANCH  63  86
ENDBRANCH  37  38
ENDBRANCH  29  32
ENDBRANCH  27  28
ENDBRANCH  26  27
ENDBRANCH   1  26
TORSDOF 14
ENDMDL
MODEL 2
REMARK VINA RESULT:     -13.2      0.870      1.895
REMARK SMILES Cc1cc(Cl)c(C)c2c1O[C@H](C(F)(F)F)C(C(=O)NCCCCCCNC(=O)c1ccc(-c3c4nc(c(-c5c(F)c(F)c(F)c(F)c5F)c5ccc([nH]5)c(-c5c(F)c(F)c(F)c(F)c5F)c5nc(c(-c6c(F)c(F)c(F)c(F)c6F)c6ccc3[nH]6)C=C5)C=C4)cc1)=C2
REMARK SMILES IDX 23 1 22 2 21 3 20 4 19 5 17 6 18 7 16 9 1 10 2 11 3 12 9 13
REMARK SMILES IDX 4 14 8 15 10 16 5 17 6 18 92 19 11 20 7 21 12 22 13 23 14 24
REMARK SMILES IDX 15 25 24 26 25 27 26 28 27 29 28 31 29 32 30 33 91 34 31 35
REMARK SMILES IDX 90 36 32 37 33 38 34 39 84 40 35 41 89 42 83 43 85 44 36 45
REMARK SMILES IDX 88 46 82 47 81 48 37 50 69 51 49 52 68 53 50 54 53 55 67 56
REMARK SMILES IDX 86 57 51 58 52 59 66 61 87 62 54 63 38 64 39 65 47 66 40 67
REMARK SMILES IDX 41 68 45 69 48 70 42 71 43 72 46 73 44 74 70 75 71 76 79 77
REMARK SMILES IDX 72 78 73 79 77 80 80 81 74 82 75 83 78 84 76 85 55 86 56 87
REMARK SMILES IDX 64 88 57 89 58 90 62 91 65 92 59 93 60 94 63 95 61 96
REMARK H PARENT 19 8 26 30 85 49 53 60
REMARK Flexibility Score: inf
ROOT
ATOM      1  C   UNL A   1      31.712  30.655  26.369  1.00  0.00     0.002 C 
ENDROOT
BRANCH   1   2
ATOM      2  C   UNL A   1      31.102  30.264  25.016  1.00  0.00     0.002 C 
BRANCH   2   3
ATOM      3  C   UNL A   1      31.520  28.894  24.472  1.00  0.00     0.021 C 
BRANCH   3   4
ATOM      4  C   UNL A   1      33.002  28.781  24.127  1.00  0.00     0.116 C 
BRANCH   4   5
ATOM      5  N   UNL A   1      33.222  27.964  22.948  1.00  0.00    -0.352 N 
ATOM      6  C   UNL A   1      33.440  26.660  22.668  1.00  0.00     0.251 C 
ATOM      7  O   UNL A   1      33.560  26.399  21.466  1.00  0.00    -0.270 OA
ATOM      8  H   UNL A   1      33.210  28.509  22.128  1.00  0.00     0.163 HD
BRANCH   6   9
ATOM      9  C   UNL A   1      33.539  25.556  23.672  1.00  0.00     0.067 C 
ATOM     10  C   UNL A   1      33.160  22.350  27.683  1.00  0.00     0.048 C 
ATOM     11  C   UNL A   1      34.048  22.460  26.475  1.00  0.00    -0.007 A 
ATOM     12  C   UNL A   1      35.054  21.510  26.281  1.00  0.00     0.028 A 
ATOM     13  C   UNL A   1      33.934  23.510  25.556  1.00  0.00     0.131 A 
ATOM     14  C   UNL A   1      35.917  21.592  25.183  1.00  0.00     0.045 A 
ATOM     15  C   UNL A   1      34.791  23.609  24.447  1.00  0.00     0.022 A 
ATOM     16  O   UNL A   1      32.985  24.453  25.830  1.00  0.00    -0.475 OA
ATOM     17  Cl  UNL A   1      37.125  20.359  25.062  1.00  0.00    -0.084 Cl
ATOM     18  C   UNL A   1      35.798  22.633  24.243  1.00  0.00    -0.021 A 
ATOM     19  C   UNL A   1      34.619  24.762  23.554  1.00  0.00     0.026 C 
ATOM     20  C   UNL A   1      32.519  25.274  24.730  1.00  0.00     0.314 C 
ATOM     21  C   UNL A   1      36.719  22.731  23.051  1.00  0.00     0.047 C 
BRANCH  20  22
ATOM     22  C   UNL A   1      31.213  24.683  24.173  1.00  0.00     0.429 C 
ATOM     23  F   UNL A   1      30.320  25.672  23.913  1.00  0.00    -0.167 F 
ATOM     24  F   UNL A   1      31.398  24.025  23.005  1.00  0.00    -0.167 F 
ATOM     25  F   UNL A   1      30.624  23.818  25.028  1.00  0.00    -0.167 F 
ENDBRANCH  20  22
ENDBRANCH   6   9
ENDBRANCH   4   5
ENDBRANCH   3   4
ENDBRANCH   2   3
ENDBRANCH   1   2
BRANCH   1  26
ATOM     26  C   UNL A   1      31.466  32.099  26.815  1.00  0.00     0.021 C 
BRANCH  26  27
ATOM     27  C   UNL A   1      32.717  32.867  27.225  1.00  0.00     0.116 C 
BRANCH  27  28
ATOM     28  N   UNL A   1      32.423  34.224  27.655  1.00  0.00    -0.352 N 
ATOM     29  C   UNL A   1      33.019  34.966  28.644  1.00  0.00     0.251 C 
ATOM     30  H   UNL A   1      31.692  34.673  27.170  1.00  0.00     0.163 HD
ATOM     31  O   UNL A   1      32.550  36.046  28.983  1.00  0.00    -0.269 OA
BRANCH  29  32
ATOM     32  C   UNL A   1      34.218  34.436  29.324  1.00  0.00     0.039 A 
ATOM     33  C   UNL A   1      34.054  33.711  30.506  1.00  0.00     0.014 A 
ATOM     34  C   UNL A   1      35.493  34.632  28.784  1.00  0.00     0.014 A 
ATOM     35  C   UNL A   1      35.165  33.123  31.112  1.00  0.00     0.010 A 
ATOM     36  C   UNL A   1      36.590  33.992  29.353  1.00  0.00     0.010 A 
ATOM     37  C   UNL A   1      36.435  33.229  30.520  1.00  0.00    -0.014 A 
BRANCH  37  38
ATOM     38  C   UNL A   1      37.600  32.523  31.107  1.00  0.00     0.031 A 
ATOM     39  C   UNL A   1      38.094  32.882  32.478  1.00  0.00     0.074 A 
ATOM     40  C   UNL A   1      38.229  31.575  30.385  1.00  0.00     0.049 A 
ATOM     41  N   UNL A   1      39.080  32.358  33.162  1.00  0.00    -0.248 NA
ATOM     42  C   UNL A   1      37.408  33.987  33.165  1.00  0.00     0.031 C 
ATOM     43  C   UNL A   1      37.872  31.179  29.023  1.00  0.00     0.029 A 
ATOM     44  N   UNL A   1      39.292  30.766  30.699  1.00  0.00    -0.354 N 
ATOM     45  C   UNL A   1      39.128  33.064  34.355  1.00  0.00     0.074 A 
ATOM     46  C   UNL A   1      38.115  34.094  34.281  1.00  0.00     0.031 C 
ATOM     47  C   UNL A   1      38.673  30.174  28.633  1.00  0.00     0.029 A 
ATOM     48  C   UNL A   1      39.614  29.872  29.707  1.00  0.00     0.049 A 
ATOM     49  H   UNL A   1      39.779  30.822  31.553  1.00  0.00     0.167 HD
ATOM     50  C   UNL A   1      39.925  32.850  35.429  1.00  0.00     0.037 A 
ATOM     51  C   UNL A   1      40.551  28.904  29.676  1.00  0.00     0.037 A 
ATOM     52  C   UNL A   1      40.915  31.810  35.507  1.00  0.00     0.049 A 
ATOM     53  C   UNL A   1      41.424  28.688  30.881  1.00  0.00     0.074 A 
ATOM     54  C   UNL A   1      41.741  31.486  36.568  1.00  0.00     0.029 A 
ATOM     55  N   UNL A   1      41.209  30.923  34.482  1.00  0.00    -0.354 N 
ATOM     56  N   UNL A   1      41.413  29.319  32.030  1.00  0.00    -0.248 NA
ATOM     57  C   UNL A   1      42.433  27.623  30.790  1.00  0.00     0.031 C 
ATOM     58  C   UNL A   1      42.559  30.423  36.175  1.00  0.00     0.029 A 
ATOM     59  C   UNL A   1      42.215  30.060  34.883  1.00  0.00     0.049 A 
ATOM     60  H   UNL A   1      40.769  30.909  33.602  1.00  0.00     0.167 HD
ATOM     61  C   UNL A   1      42.390  28.712  32.807  1.00  0.00     0.074 A 
ATOM     62  C   UNL A   1      42.972  27.659  32.002  1.00  0.00     0.031 C 
ATOM     63  C   UNL A   1      42.769  29.004  34.074  1.00  0.00     0.037 A 
BRANCH  50  64
ATOM     64  C   UNL A   1      39.742  33.741  36.621  1.00  0.00     0.064 A 
ATOM     65  C   UNL A   1      40.371  34.993  36.694  1.00  0.00     0.173 A 
ATOM     66  C   UNL A   1      38.884  33.373  37.666  1.00  0.00     0.173 A 
ATOM     67  F   UNL A   1      41.210  35.385  35.723  1.00  0.00    -0.203 F 
ATOM     68  C   UNL A   1      40.159  35.838  37.781  1.00  0.00     0.198 A 
ATOM     69  C   UNL A   1      38.654  34.231  38.738  1.00  0.00     0.198 A 
ATOM     70  F   UNL A   1      38.254  32.189  37.640  1.00  0.00    -0.203 F 
ATOM     71  F   UNL A   1      40.797  37.015  37.845  1.00  0.00    -0.200 F 
ATOM     72  C   UNL A   1      39.294  35.460  38.796  1.00  0.00     0.200 A 
ATOM     73  F   UNL A   1      37.810  33.871  39.715  1.00  0.00    -0.200 F 
ATOM     74  F   UNL A   1      39.081  36.281  39.835  1.00  0.00    -0.200 F 
ENDBRANCH  50  64
BRANCH  51  75
ATOM     75  C   UNL A   1      40.662  28.027  28.484  1.00  0.00     0.064 A 
ATOM     76  C   UNL A   1      41.451  28.407  27.389  1.00  0.00     0.173 A 
ATOM     77  C   UNL A   1      40.012  26.786  28.421  1.00  0.00     0.173 A 
ATOM     78  F   UNL A   1      42.078  29.592  27.396  1.00  0.00    -0.203 F 
ATOM     79  C   UNL A   1      41.579  27.583  26.273  1.00  0.00     0.198 A 
ATOM     80  C   UNL A   1      40.159  25.953  27.314  1.00  0.00     0.198 A 
ATOM     81  F   UNL A   1      39.251  26.375  29.447  1.00  0.00    -0.203 F 
ATOM     82  F   UNL A   1      42.318  27.983  25.229  1.00  0.00    -0.200 F 
ATOM     83  C   UNL A   1      40.939  26.353  26.240  1.00  0.00     0.200 A 
ATOM     84  F   UNL A   1      39.551  24.759  27.291  1.00  0.00    -0.200 F 
ATOM     85  F   UNL A   1      41.072  25.555  25.171  1.00  0.00    -0.200 F 
ENDBRANCH  51  75
BRANCH  63  86
ATOM     86  C   UNL A   1      43.843  28.164  34.693  1.00  0.00     0.064 A 
ATOM     87  C   UNL A   1      45.187  28.562  34.666  1.00  0.00     0.173 A 
ATOM     88  C   UNL A   1      43.511  27.004  35.409  1.00  0.00     0.173 A 
ATOM     89  F   UNL A   1      45.552  29.657  33.984  1.00  0.00    -0.203 F 
ATOM     90  C   UNL A   1      46.162  27.825  35.333  1.00  0.00     0.198 A 
ATOM     91  C   UNL A   1      44.484  26.283  36.094  1.00  0.00     0.198 A 
ATOM     92  F   UNL A   1      42.237  26.589  35.469  1.00  0.00    -0.203 F 
ATOM     93  F   UNL A   1      47.444  28.213  35.281  1.00  0.00    -0.200 F 
ATOM     94  C   UNL A   1      45.808  26.695  36.055  1.00  0.00     0.200 A 
ATOM     95  F   UNL A   1      44.140  25.199  36.803  1.00  0.00    -0.200 F 
ATOM     96  F   UNL A   1      46.745  26.001  36.716  1.00  0.00    -0.200 F 
ENDBRANCH  63  86
ENDBRANCH  37  38
ENDBRANCH  29  32
ENDBRANCH  27  28
ENDBRANCH  26  27
ENDBRANCH   1  26
TORSDOF 14
ENDMDL
MODEL 3
REMARK VINA RESULT:     -13.1      0.890      1.869
REMARK SMILES Cc1cc(Cl)c(C)c2c1O[C@H](C(F)(F)F)C(C(=O)NCCCCCCNC(=O)c1ccc(-c3c4nc(c(-c5c(F)c(F)c(F)c(F)c5F)c5ccc([nH]5)c(-c5c(F)c(F)c(F)c(F)c5F)c5nc(c(-c6c(F)c(F)c(F)c(F)c6F)c6ccc3[nH]6)C=C5)C=C4)cc1)=C2
REMARK SMILES IDX 23 1 22 2 21 3 20 4 19 5 17 6 18 7 16 9 1 10 2 11 3 12 9 13
REMARK SMILES IDX 4 14 8 15 10 16 5 17 6 18 92 19 11 20 7 21 12 22 13 23 14 24
REMARK SMILES IDX 15 25 24 26 25 27 26 28 27 29 28 31 29 32 30 33 91 34 31 35
REMARK SMILES IDX 90 36 32 37 33 38 34 39 84 40 35 41 89 42 83 43 85 44 36 45
REMARK SMILES IDX 88 46 82 47 81 48 37 50 69 51 49 52 68 53 50 54 53 55 67 56
REMARK SMILES IDX 86 57 51 58 52 59 66 61 87 62 54 63 38 64 39 65 47 66 40 67
REMARK SMILES IDX 41 68 45 69 48 70 42 71 43 72 46 73 44 74 70 75 71 76 79 77
REMARK SMILES IDX 72 78 73 79 77 80 80 81 74 82 75 83 78 84 76 85 55 86 56 87
REMARK SMILES IDX 64 88 57 89 58 90 62 91 65 92 59 93 60 94 63 95 61 96
REMARK H PARENT 19 8 26 30 85 49 53 60
REMARK Flexibility Score: inf
ROOT
ATOM      1  C   UNL A   1      31.756  30.616  26.492  1.00  0.00     0.002 C 
ENDROOT
BRANCH   1   2
ATOM      2  C   UNL A   1      31.292  30.249  25.076  1.00  0.00     0.002 C 
BRANCH   2   3
ATOM      3  C   UNL A   1      31.706  28.859  24.581  1.00  0.00     0.021 C 
BRANCH   3   4
ATOM      4  C   UNL A   1      33.147  28.771  24.089  1.00  0.00     0.116 C 
BRANCH   4   5
ATOM      5  N   UNL A   1      33.266  27.934  22.909  1.00  0.00    -0.352 N 
ATOM      6  C   UNL A   1      33.414  26.619  22.634  1.00  0.00     0.251 C 
ATOM      7  O   UNL A   1      33.454  26.341  21.430  1.00  0.00    -0.270 OA
ATOM      8  H   UNL A   1      33.228  28.471  22.084  1.00  0.00     0.163 HD
BRANCH   6   9
ATOM      9  C   UNL A   1      33.525  25.523  23.645  1.00  0.00     0.067 C 
ATOM     10  C   UNL A   1      33.188  22.341  27.679  1.00  0.00     0.048 C 
ATOM     11  C   UNL A   1      34.069  22.450  26.467  1.00  0.00    -0.007 A 
ATOM     12  C   UNL A   1      35.081  21.506  26.275  1.00  0.00     0.028 A 
ATOM     13  C   UNL A   1      33.944  23.492  25.541  1.00  0.00     0.131 A 
ATOM     14  C   UNL A   1      35.939  21.586  25.172  1.00  0.00     0.045 A 
ATOM     15  C   UNL A   1      34.795  23.590  24.427  1.00  0.00     0.022 A 
ATOM     16  O   UNL A   1      32.989  24.431  25.813  1.00  0.00    -0.475 OA
ATOM     17  Cl  UNL A   1      37.155  20.361  25.055  1.00  0.00    -0.084 Cl
ATOM     18  C   UNL A   1      35.808  22.621  24.226  1.00  0.00    -0.021 A 
ATOM     19  C   UNL A   1      34.610  24.735  23.528  1.00  0.00     0.026 C 
ATOM     20  C   UNL A   1      32.512  25.240  24.710  1.00  0.00     0.314 C 
ATOM     21  C   UNL A   1      36.724  22.717  23.029  1.00  0.00     0.047 C 
BRANCH  20  22
ATOM     22  C   UNL A   1      31.208  24.636  24.162  1.00  0.00     0.429 C 
ATOM     23  F   UNL A   1      30.847  23.550  24.893  1.00  0.00    -0.167 F 
ATOM     24  F   UNL A   1      30.168  25.498  24.228  1.00  0.00    -0.167 F 
ATOM     25  F   UNL A   1      31.316  24.241  22.874  1.00  0.00    -0.167 F 
ENDBRANCH  20  22
ENDBRANCH   6   9
ENDBRANCH   4   5
ENDBRANCH   3   4
ENDBRANCH   2   3
ENDBRANCH   1   2
BRANCH   1  26
ATOM     26  C   UNL A   1      31.496  32.061  26.923  1.00  0.00     0.021 C 
BRANCH  26  27
ATOM     27  C   UNL A   1      32.746  32.875  27.234  1.00  0.00     0.116 C 
BRANCH  27  28
ATOM     28  N   UNL A   1      32.437  34.223  27.679  1.00  0.00    -0.352 N 
ATOM     29  C   UNL A   1      33.028  34.961  28.675  1.00  0.00     0.251 C 
ATOM     30  H   UNL A   1      31.701  34.670  27.200  1.00  0.00     0.163 HD
ATOM     31  O   UNL A   1      32.547  36.032  29.028  1.00  0.00    -0.269 OA
BRANCH  29  32
ATOM     32  C   UNL A   1      34.233  34.436  29.348  1.00  0.00     0.039 A 
ATOM     33  C   UNL A   1      34.080  33.714  30.532  1.00  0.00     0.014 A 
ATOM     34  C   UNL A   1      35.503  34.636  28.798  1.00  0.00     0.014 A 
ATOM     35  C   UNL A   1      35.198  33.131  31.131  1.00  0.00     0.010 A 
ATOM     36  C   UNL A   1      36.607  34.001  29.360  1.00  0.00     0.010 A 
ATOM     37  C   UNL A   1      36.463  33.240  30.530  1.00  0.00    -0.014 A 
BRANCH  37  38
ATOM     38  C   UNL A   1      37.635  32.539  31.110  1.00  0.00     0.031 A 
ATOM     39  C   UNL A   1      38.153  32.919  32.466  1.00  0.00     0.074 A 
ATOM     40  C   UNL A   1      38.248  31.576  30.394  1.00  0.00     0.049 A 
ATOM     41  N   UNL A   1      39.149  32.403  33.142  1.00  0.00    -0.248 NA
ATOM     42  C   UNL A   1      37.483  34.039  33.145  1.00  0.00     0.031 C 
ATOM     43  C   UNL A   1      37.867  31.158  29.044  1.00  0.00     0.029 A 
ATOM     44  N   UNL A   1      39.314  30.768  30.704  1.00  0.00    -0.354 N 
ATOM     45  C   UNL A   1      39.219  33.129  34.322  1.00  0.00     0.074 A 
ATOM     46  C   UNL A   1      38.209  34.162  34.247  1.00  0.00     0.031 C 
ATOM     47  C   UNL A   1      38.658  30.144  28.659  1.00  0.00     0.029 A 
ATOM     48  C   UNL A   1      39.615  29.856  29.723  1.00  0.00     0.049 A 
ATOM     49  H   UNL A   1      39.814  30.837  31.549  1.00  0.00     0.167 HD
ATOM     50  C   UNL A   1      40.033  32.931  35.386  1.00  0.00     0.037 A 
ATOM     51  C   UNL A   1      40.548  28.884  29.693  1.00  0.00     0.037 A 
ATOM     52  C   UNL A   1      41.020  31.888  35.466  1.00  0.00     0.049 A 
ATOM     53  C   UNL A   1      41.440  28.685  30.887  1.00  0.00     0.074 A 
ATOM     54  C   UNL A   1      41.862  31.578  36.518  1.00  0.00     0.029 A 
ATOM     55  N   UNL A   1      41.293  30.983  34.452  1.00  0.00    -0.354 N 
ATOM     56  N   UNL A   1      41.451  29.336  32.024  1.00  0.00    -0.248 NA
ATOM     57  C   UNL A   1      42.443  27.614  30.798  1.00  0.00     0.031 C 
ATOM     58  C   UNL A   1      42.670  30.506  36.131  1.00  0.00     0.029 A 
ATOM     59  C   UNL A   1      42.303  30.122  34.850  1.00  0.00     0.049 A 
ATOM     60  H   UNL A   1      40.839  30.955  33.579  1.00  0.00     0.167 HD
ATOM     61  C   UNL A   1      42.438  28.738  32.795  1.00  0.00     0.074 A 
ATOM     62  C   UNL A   1      43.002  27.668  31.999  1.00  0.00     0.031 C 
ATOM     63  C   UNL A   1      42.838  29.050  34.051  1.00  0.00     0.037 A 
BRANCH  50  64
ATOM     64  C   UNL A   1      39.874  33.843  36.565  1.00  0.00     0.064 A 
ATOM     65  C   UNL A   1      40.579  35.053  36.647  1.00  0.00     0.173 A 
ATOM     66  C   UNL A   1      38.964  33.540  37.587  1.00  0.00     0.173 A 
ATOM     67  F   UNL A   1      41.469  35.381  35.699  1.00  0.00    -0.203 F 
ATOM     68  C   UNL A   1      40.391  35.919  37.721  1.00  0.00     0.198 A 
ATOM     69  C   UNL A   1      38.759  34.422  38.645  1.00  0.00     0.198 A 
ATOM     70  F   UNL A   1      38.260  32.399  37.552  1.00  0.00    -0.203 F 
ATOM     71  F   UNL A   1      41.101  37.054  37.795  1.00  0.00    -0.200 F 
ATOM     72  C   UNL A   1      39.475  35.608  38.713  1.00  0.00     0.200 A 
ATOM     73  F   UNL A   1      37.865  34.126  39.600  1.00  0.00    -0.200 F 
ATOM     74  F   UNL A   1      39.285  36.450  39.739  1.00  0.00    -0.200 F 
ENDBRANCH  50  64
BRANCH  51  75
ATOM     75  C   UNL A   1      40.635  27.986  28.514  1.00  0.00     0.064 A 
ATOM     76  C   UNL A   1      39.934  26.772  28.487  1.00  0.00     0.173 A 
ATOM     77  C   UNL A   1      41.390  28.329  27.383  1.00  0.00     0.173 A 
ATOM     78  F   UNL A   1      39.213  26.394  29.553  1.00  0.00    -0.203 F 
ATOM     79  C   UNL A   1      39.992  25.931  27.379  1.00  0.00     0.198 A 
ATOM     80  C   UNL A   1      41.428  27.498  26.265  1.00  0.00     0.198 A 
ATOM     81  F   UNL A   1      42.072  29.484  27.357  1.00  0.00    -0.203 F 
ATOM     82  F   UNL A   1      39.334  24.764  27.391  1.00  0.00    -0.200 F 
ATOM     83  C   UNL A   1      40.732  26.299  26.265  1.00  0.00     0.200 A 
ATOM     84  F   UNL A   1      42.133  27.862  25.186  1.00  0.00    -0.200 F 
ATOM     85  F   UNL A   1      40.778  25.495  25.193  1.00  0.00    -0.200 F 
ENDBRANCH  51  75
BRANCH  63  86
ATOM     86  C   UNL A   1      43.920  28.216  34.666  1.00  0.00     0.064 A 
ATOM     87  C   UNL A   1      43.627  27.023  35.340  1.00  0.00     0.173 A 
ATOM     88  C   UNL A   1      45.269  28.561  34.487  1.00  0.00     0.173 A 
ATOM     89  F   UNL A   1      42.353  26.659  35.544  1.00  0.00    -0.203 F 
ATOM     90  C   UNL A   1      44.647  26.204  35.817  1.00  0.00     0.198 A 
ATOM     91  C   UNL A   1      46.285  27.729  34.944  1.00  0.00     0.198 A 
ATOM     92  F   UNL A   1      45.597  29.689  33.840  1.00  0.00    -0.203 F 
ATOM     93  F   UNL A   1      44.347  25.076  36.475  1.00  0.00    -0.200 F 
ATOM     94  C   UNL A   1      45.974  26.552  35.609  1.00  0.00     0.200 A 
ATOM     95  F   UNL A   1      47.567  28.059  34.731  1.00  0.00    -0.200 F 
ATOM     96  F   UNL A   1      46.955  25.751  36.048  1.00  0.00    -0.200 F 
ENDBRANCH  63  86
ENDBRANCH  37  38
ENDBRANCH  29  32
ENDBRANCH  27  28
ENDBRANCH  26  27
ENDBRANCH   1  26
TORSDOF 14
ENDMDL
