MODEL 1
REMARK VINA RESULT:     -12.9      0.000      0.000
REMARK SMILES CC1(C)S[C@H](c2ccc(-c3cccc([N+](=O)[O-])c3)o2)[NH2+][C@@H]1C(=O)NCCCCCCNC(=O)c1ccc(-c2c3nc(c(-c4c(F)c(F)c(F)c(F)c4F)c4ccc([nH]4)c(-c4c(F)c(F)c(F)c(F)c4F)c4nc(c(-c5c(F)c(F)c(F)c(F)c5F)c5ccc2[nH]5)C=C4)C=C3)cc1
REMARK SMILES IDX 27 1 26 2 25 3 24 4 22 5 23 6 21 8 1 9 2 10 3 11 4 12 5 13
REMARK SMILES IDX 20 14 6 17 7 18 19 19 8 20 9 21 10 22 11 23 18 24 12 25
REMARK SMILES IDX 14 26 13 27 15 28 16 29 17 30 28 31 29 32 30 33 31 34 32 35
REMARK SMILES IDX 33 37 34 38 35 39 96 40 36 41 95 42 37 43 38 44 39 45 89 46
REMARK SMILES IDX 40 47 94 48 88 49 90 50 41 51 93 52 87 53 86 54 42 56 74 57
REMARK SMILES IDX 54 58 73 59 55 60 58 61 72 62 91 63 56 64 57 65 71 67 92 68
REMARK SMILES IDX 59 69 43 70 44 71 52 72 45 73 46 74 50 75 53 76 47 77 48 78
REMARK SMILES IDX 51 79 49 80 75 81 76 82 84 83 77 84 78 85 82 86 85 87 79 88
REMARK SMILES IDX 80 89 83 90 81 91 60 92 61 93 69 94 62 95 63 96 67 97 70 98
REMARK SMILES IDX 64 99 65 100 68 101 66 102
REMARK H PARENT 24 7 20 15 20 16 31 36 90 55 58 66
REMARK Flexibility Score: inf
ROOT
ATOM      1  C   UNL A   1      32.949  30.127  26.968  1.00  0.00     0.002 C 
ENDROOT
BRANCH   1   2
ATOM      2  C   UNL A   1      32.852  28.651  27.348  1.00  0.00     0.021 C 
BRANCH   2   3
ATOM      3  C   UNL A   1      31.455  28.046  27.225  1.00  0.00     0.116 C 
BRANCH   3   4
ATOM      4  N   UNL A   1      31.467  26.599  27.114  1.00  0.00    -0.351 N 
ATOM      5  C   UNL A   1      31.829  25.847  26.023  1.00  0.00     0.279 C 
ATOM      6  O   UNL A   1      31.902  24.629  26.180  1.00  0.00    -0.268 OA
ATOM      7  H   UNL A   1      31.180  26.099  27.912  1.00  0.00     0.163 HD
BRANCH   5   8
ATOM      8  C   UNL A   1      32.004  26.567  24.664  1.00  0.00     0.289 C 
ATOM      9  C   UNL A   1      31.017  27.174  22.412  1.00  0.00     0.030 C 
ATOM     10  C   UNL A   1      31.245  26.029  23.425  1.00  0.00     0.078 C 
ATOM     11  C   UNL A   1      29.903  25.340  23.669  1.00  0.00     0.030 C 
ATOM     12  S   UNL A   1      32.409  24.837  22.682  1.00  0.00    -0.078 SA
ATOM     13  C   UNL A   1      33.843  25.460  23.584  1.00  0.00     0.311 C 
ATOM     14  N   UNL A   1      33.457  26.672  24.313  1.00  0.00    -0.317 N 
ATOM     15  H   UNL A   1      33.612  27.492  23.726  1.00  0.00     0.348 HD
ATOM     16  H   UNL A   1      34.017  26.766  25.161  1.00  0.00     0.348 HD
BRANCH  13  17
ATOM     17  C   UNL A   1      34.542  24.384  24.364  1.00  0.00     0.172 A 
ATOM     18  C   UNL A   1      35.317  24.487  25.507  1.00  0.00     0.054 A 
ATOM     19  O   UNL A   1      34.447  23.060  24.003  1.00  0.00    -0.454 OA
ATOM     20  C   UNL A   1      35.696  23.180  25.872  1.00  0.00     0.051 A 
ATOM     21  C   UNL A   1      35.148  22.334  24.933  1.00  0.00     0.134 A 
BRANCH  21  22
ATOM     22  C   UNL A   1      35.114  20.880  24.831  1.00  0.00     0.024 A 
ATOM     23  C   UNL A   1      36.275  20.098  24.914  1.00  0.00     0.012 A 
ATOM     24  C   UNL A   1      33.881  20.240  24.613  1.00  0.00     0.097 A 
ATOM     25  C   UNL A   1      36.210  18.702  24.780  1.00  0.00     0.008 A 
ATOM     26  C   UNL A   1      33.825  18.848  24.449  1.00  0.00     0.270 A 
ATOM     27  C   UNL A   1      34.985  18.071  24.543  1.00  0.00     0.085 A 
BRANCH  26  28
ATOM     28  N   UNL A   1      32.546  18.215  24.108  1.00  0.00     0.062 N 
ATOM     29  O   UNL A   1      31.879  17.734  25.033  1.00  0.00    -0.258 OA
ATOM     30  O   UNL A   1      32.214  18.200  22.914  1.00  0.00    -0.258 OA
ENDBRANCH  26  28
ENDBRANCH  21  22
ENDBRANCH  13  17
ENDBRANCH   5   8
ENDBRANCH   3   4
ENDBRANCH   2   3
ENDBRANCH   1   2
BRANCH   1  31
ATOM     31  C   UNL A   1      31.663  30.721  26.408  1.00  0.00     0.002 C 
BRANCH  31  32
ATOM     32  C   UNL A   1      31.405  32.194  26.687  1.00  0.00     0.021 C 
BRANCH  32  33
ATOM     33  C   UNL A   1      32.657  32.977  27.030  1.00  0.00     0.116 C 
BRANCH  33  34
ATOM     34  N   UNL A   1      32.382  34.278  27.625  1.00  0.00    -0.352 N 
ATOM     35  C   UNL A   1      33.006  34.890  28.685  1.00  0.00     0.251 C 
ATOM     36  H   UNL A   1      31.649  34.788  27.210  1.00  0.00     0.163 HD
ATOM     37  O   UNL A   1      32.594  35.958  29.115  1.00  0.00    -0.269 OA
BRANCH  35  38
ATOM     38  C   UNL A   1      34.174  34.233  29.307  1.00  0.00     0.039 A 
ATOM     39  C   UNL A   1      33.970  33.226  30.249  1.00  0.00     0.014 A 
ATOM     40  C   UNL A   1      35.470  34.605  28.942  1.00  0.00     0.014 A 
ATOM     41  C   UNL A   1      35.071  32.564  30.794  1.00  0.00     0.010 A 
ATOM     42  C   UNL A   1      36.553  33.864  29.387  1.00  0.00     0.010 A 
ATOM     43  C   UNL A   1      36.370  32.862  30.349  1.00  0.00    -0.014 A 
BRANCH  43  44
ATOM     44  C   UNL A   1      37.558  32.187  30.923  1.00  0.00     0.031 A 
ATOM     45  C   UNL A   1      38.044  32.571  32.296  1.00  0.00     0.074 A 
ATOM     46  C   UNL A   1      38.224  31.270  30.196  1.00  0.00     0.049 A 
ATOM     47  N   UNL A   1      39.076  32.125  32.966  1.00  0.00    -0.248 NA
ATOM     48  C   UNL A   1      37.292  33.627  32.997  1.00  0.00     0.031 C 
ATOM     49  C   UNL A   1      37.890  30.868  28.828  1.00  0.00     0.029 A 
ATOM     50  N   UNL A   1      39.320  30.509  30.508  1.00  0.00    -0.354 N 
ATOM     51  C   UNL A   1      39.102  32.856  34.147  1.00  0.00     0.074 A 
ATOM     52  C   UNL A   1      38.037  33.829  34.071  1.00  0.00     0.031 C 
ATOM     53  C   UNL A   1      38.736  29.902  28.436  1.00  0.00     0.029 A 
ATOM     54  C   UNL A   1      39.692  29.644  29.507  1.00  0.00     0.049 A 
ATOM     55  H   UNL A   1      39.797  30.575  31.367  1.00  0.00     0.167 HD
ATOM     56  C   UNL A   1      39.914  32.702  35.220  1.00  0.00     0.037 A 
ATOM     57  C   UNL A   1      40.690  28.741  29.468  1.00  0.00     0.037 A 
ATOM     58  C   UNL A   1      40.948  31.706  35.304  1.00  0.00     0.049 A 
ATOM     59  C   UNL A   1      41.568  28.578  30.680  1.00  0.00     0.074 A 
ATOM     60  C   UNL A   1      41.787  31.418  36.365  1.00  0.00     0.029 A 
ATOM     61  N   UNL A   1      41.281  30.832  34.279  1.00  0.00    -0.354 N 
ATOM     62  N   UNL A   1      41.531  29.216  31.825  1.00  0.00    -0.248 NA
ATOM     63  C   UNL A   1      42.618  27.554  30.598  1.00  0.00     0.031 C 
ATOM     64  C   UNL A   1      42.664  30.404  35.964  1.00  0.00     0.029 A 
ATOM     65  C   UNL A   1      42.330  30.018  34.674  1.00  0.00     0.049 A 
ATOM     66  H   UNL A   1      40.837  30.794  33.401  1.00  0.00     0.167 HD
ATOM     67  C   UNL A   1      42.533  28.656  32.607  1.00  0.00     0.074 A 
ATOM     68  C   UNL A   1      43.140  27.607  31.815  1.00  0.00     0.031 C 
ATOM     69  C   UNL A   1      42.920  28.982  33.866  1.00  0.00     0.037 A 
BRANCH  56  70
ATOM     70  C   UNL A   1      39.706  33.627  36.387  1.00  0.00     0.064 A 
ATOM     71  C   UNL A   1      40.338  34.879  36.460  1.00  0.00     0.173 A 
ATOM     72  C   UNL A   1      38.850  33.266  37.438  1.00  0.00     0.173 A 
ATOM     73  F   UNL A   1      41.179  35.269  35.490  1.00  0.00    -0.203 F 
ATOM     74  C   UNL A   1      40.151  35.715  37.557  1.00  0.00     0.198 A 
ATOM     75  C   UNL A   1      38.636  34.122  38.516  1.00  0.00     0.198 A 
ATOM     76  F   UNL A   1      38.217  32.083  37.420  1.00  0.00    -0.203 F 
ATOM     77  F   UNL A   1      40.816  36.877  37.633  1.00  0.00    -0.200 F 
ATOM     78  C   UNL A   1      39.295  35.340  38.580  1.00  0.00     0.200 A 
ATOM     79  F   UNL A   1      37.797  33.763  39.498  1.00  0.00    -0.200 F 
ATOM     80  F   UNL A   1      39.110  36.150  39.632  1.00  0.00    -0.200 F 
ENDBRANCH  56  70
BRANCH  57  81
ATOM     81  C   UNL A   1      40.884  27.897  28.261  1.00  0.00     0.064 A 
ATOM     82  C   UNL A   1      40.293  26.628  28.164  1.00  0.00     0.173 A 
ATOM     83  C   UNL A   1      41.672  28.330  27.185  1.00  0.00     0.173 A 
ATOM     84  F   UNL A   1      39.546  26.160  29.175  1.00  0.00    -0.203 F 
ATOM     85  C   UNL A   1      40.505  25.816  27.052  1.00  0.00     0.198 A 
ATOM     86  C   UNL A   1      41.857  27.530  26.058  1.00  0.00     0.198 A 
ATOM     87  F   UNL A   1      42.254  29.537  27.222  1.00  0.00    -0.203 F 
ATOM     88  F   UNL A   1      39.974  24.586  27.013  1.00  0.00    -0.200 F 
ATOM     89  C   UNL A   1      41.283  26.269  25.998  1.00  0.00     0.200 A 
ATOM     90  F   UNL A   1      42.596  27.979  25.035  1.00  0.00    -0.200 F 
ATOM     91  F   UNL A   1      41.487  25.488  24.929  1.00  0.00    -0.200 F 
ENDBRANCH  57  81
BRANCH  69  92
ATOM     92  C   UNL A   1      44.034  28.171  34.468  1.00  0.00     0.064 A 
ATOM     93  C   UNL A   1      45.375  28.573  34.371  1.00  0.00     0.173 A 
ATOM     94  C   UNL A   1      43.752  26.984  35.162  1.00  0.00     0.173 A 
ATOM     95  F   UNL A   1      45.697  29.693  33.707  1.00  0.00    -0.203 F 
ATOM     96  C   UNL A   1      46.395  27.793  34.907  1.00  0.00     0.198 A 
ATOM     97  C   UNL A   1      44.773  26.228  35.731  1.00  0.00     0.198 A 
ATOM     98  F   UNL A   1      42.487  26.561  35.296  1.00  0.00    -0.203 F 
ATOM     99  F   UNL A   1      47.674  28.162  34.742  1.00  0.00    -0.200 F 
ATOM    100  C   UNL A   1      46.094  26.626  35.592  1.00  0.00     0.200 A 
ATOM    101  F   UNL A   1      44.478  25.110  36.409  1.00  0.00    -0.200 F 
ATOM    102  F   UNL A   1      47.078  25.878  36.108  1.00  0.00    -0.200 F 
ENDBRANCH  69  92
ENDBRANCH  43  44
ENDBRANCH  35  38
ENDBRANCH  33  34
ENDBRANCH  32  33
ENDBRANCH  31  32
ENDBRANCH   1  31
TORSDOF 16
ENDMDL
MODEL 2
REMARK VINA RESULT:     -12.9      0.648      7.085
REMARK SMILES CC1(C)S[C@H](c2ccc(-c3cccc([N+](=O)[O-])c3)o2)[NH2+][C@@H]1C(=O)NCCCCCCNC(=O)c1ccc(-c2c3nc(c(-c4c(F)c(F)c(F)c(F)c4F)c4ccc([nH]4)c(-c4c(F)c(F)c(F)c(F)c4F)c4nc(c(-c5c(F)c(F)c(F)c(F)c5F)c5ccc2[nH]5)C=C4)C=C3)cc1
REMARK SMILES IDX 27 1 26 2 25 3 24 4 22 5 23 6 21 8 1 9 2 10 3 11 4 12 5 13
REMARK SMILES IDX 20 14 6 17 7 18 19 19 8 20 9 21 10 22 11 23 18 24 12 25
REMARK SMILES IDX 14 26 13 27 15 28 16 29 17 30 28 31 29 32 30 33 31 34 32 35
REMARK SMILES IDX 33 37 34 38 35 39 96 40 36 41 95 42 37 43 38 44 39 45 89 46
REMARK SMILES IDX 40 47 94 48 88 49 90 50 41 51 93 52 87 53 86 54 42 56 74 57
REMARK SMILES IDX 54 58 73 59 55 60 58 61 72 62 91 63 56 64 57 65 71 67 92 68
REMARK SMILES IDX 59 69 43 70 44 71 52 72 45 73 46 74 50 75 53 76 47 77 48 78
REMARK SMILES IDX 51 79 49 80 75 81 76 82 84 83 77 84 78 85 82 86 85 87 79 88
REMARK SMILES IDX 80 89 83 90 81 91 60 92 61 93 69 94 62 95 63 96 67 97 70 98
REMARK SMILES IDX 64 99 65 100 68 101 66 102
REMARK H PARENT 24 7 20 15 20 16 31 36 90 55 58 66
REMARK Flexibility Score: inf
ROOT
ATOM      1  C   UNL A   1      32.919  30.101  27.085  1.00  0.00     0.002 C 
ENDROOT
BRANCH   1   2
ATOM      2  C   UNL A   1      32.822  28.593  27.308  1.00  0.00     0.021 C 
BRANCH   2   3
ATOM      3  C   UNL A   1      31.425  28.004  27.120  1.00  0.00     0.116 C 
BRANCH   3   4
ATOM      4  N   UNL A   1      31.426  26.556  27.010  1.00  0.00    -0.351 N 
ATOM      5  C   UNL A   1      31.789  25.801  25.921  1.00  0.00     0.279 C 
ATOM      6  O   UNL A   1      31.850  24.583  26.078  1.00  0.00    -0.268 OA
ATOM      7  H   UNL A   1      31.131  26.059  27.806  1.00  0.00     0.163 HD
BRANCH   5   8
ATOM      8  C   UNL A   1      31.977  26.520  24.563  1.00  0.00     0.289 C 
ATOM      9  C   UNL A   1      31.021  27.106  22.292  1.00  0.00     0.030 C 
ATOM     10  C   UNL A   1      31.248  25.967  23.312  1.00  0.00     0.078 C 
ATOM     11  C   UNL A   1      29.910  25.261  23.536  1.00  0.00     0.030 C 
ATOM     12  S   UNL A   1      32.440  24.789  22.594  1.00  0.00    -0.078 SA
ATOM     13  C   UNL A   1      33.850  25.434  23.518  1.00  0.00     0.311 C 
ATOM     14  N   UNL A   1      33.434  26.643  24.237  1.00  0.00    -0.317 N 
ATOM     15  H   UNL A   1      33.588  27.463  23.650  1.00  0.00     0.348 HD
ATOM     16  H   UNL A   1      33.979  26.748  25.094  1.00  0.00     0.348 HD
BRANCH  13  17
ATOM     17  C   UNL A   1      34.550  24.370  24.314  1.00  0.00     0.172 A 
ATOM     18  C   UNL A   1      35.316  24.490  25.461  1.00  0.00     0.054 A 
ATOM     19  O   UNL A   1      34.464  23.042  23.967  1.00  0.00    -0.454 OA
ATOM     20  C   UNL A   1      35.700  23.188  25.842  1.00  0.00     0.051 A 
ATOM     21  C   UNL A   1      35.163  22.329  24.909  1.00  0.00     0.134 A 
BRANCH  21  22
ATOM     22  C   UNL A   1      35.137  20.874  24.821  1.00  0.00     0.024 A 
ATOM     23  C   UNL A   1      36.299  20.098  24.942  1.00  0.00     0.012 A 
ATOM     24  C   UNL A   1      33.913  20.227  24.579  1.00  0.00     0.097 A 
ATOM     25  C   UNL A   1      36.243  18.700  24.821  1.00  0.00     0.008 A 
ATOM     26  C   UNL A   1      33.867  18.833  24.428  1.00  0.00     0.270 A 
ATOM     27  C   UNL A   1      35.027  18.062  24.560  1.00  0.00     0.085 A 
BRANCH  26  28
ATOM     28  N   UNL A   1      32.600  18.191  24.062  1.00  0.00     0.062 N 
ATOM     29  O   UNL A   1      32.331  18.095  22.858  1.00  0.00    -0.258 OA
ATOM     30  O   UNL A   1      31.876  17.784  24.983  1.00  0.00    -0.258 OA
ENDBRANCH  26  28
ENDBRANCH  21  22
ENDBRANCH  13  17
ENDBRANCH   5   8
ENDBRANCH   3   4
ENDBRANCH   2   3
ENDBRANCH   1   2
BRANCH   1  31
ATOM     31  C   UNL A   1      31.698  30.720  26.418  1.00  0.00     0.002 C 
BRANCH  31  32
ATOM     32  C   UNL A   1      31.436  32.194  26.690  1.00  0.00     0.021 C 
BRANCH  32  33
ATOM     33  C   UNL A   1      32.670  32.963  27.119  1.00  0.00     0.116 C 
BRANCH  33  34
ATOM     34  N   UNL A   1      32.379  34.307  27.597  1.00  0.00    -0.352 N 
ATOM     35  C   UNL A   1      32.954  34.995  28.638  1.00  0.00     0.251 C 
ATOM     36  H   UNL A   1      31.673  34.788  27.107  1.00  0.00     0.163 HD
ATOM     37  O   UNL A   1      32.532  36.096  28.963  1.00  0.00    -0.269 OA
BRANCH  35  38
ATOM     38  C   UNL A   1      34.084  34.382  29.366  1.00  0.00     0.039 A 
ATOM     39  C   UNL A   1      33.822  33.553  30.458  1.00  0.00     0.014 A 
ATOM     40  C   UNL A   1      35.398  34.614  28.957  1.00  0.00     0.014 A 
ATOM     41  C   UNL A   1      34.884  32.926  31.111  1.00  0.00     0.010 A 
ATOM     42  C   UNL A   1      36.437  33.894  29.525  1.00  0.00     0.010 A 
ATOM     43  C   UNL A   1      36.197  33.073  30.634  1.00  0.00    -0.014 A 
BRANCH  43  44
ATOM     44  C   UNL A   1      37.344  32.432  31.319  1.00  0.00     0.031 A 
ATOM     45  C   UNL A   1      38.076  31.299  30.648  1.00  0.00     0.074 A 
ATOM     46  C   UNL A   1      37.695  32.832  32.555  1.00  0.00     0.049 A 
ATOM     47  N   UNL A   1      39.082  30.586  31.086  1.00  0.00    -0.248 NA
ATOM     48  C   UNL A   1      37.586  30.884  29.322  1.00  0.00     0.031 C 
ATOM     49  C   UNL A   1      37.017  33.870  33.334  1.00  0.00     0.029 A 
ATOM     50  N   UNL A   1      38.713  32.414  33.374  1.00  0.00    -0.354 N 
ATOM     51  C   UNL A   1      39.328  29.637  30.101  1.00  0.00     0.074 A 
ATOM     52  C   UNL A   1      38.318  29.808  29.082  1.00  0.00     0.031 C 
ATOM     53  C   UNL A   1      37.664  34.038  34.499  1.00  0.00     0.029 A 
ATOM     54  C   UNL A   1      38.777  33.097  34.564  1.00  0.00     0.049 A 
ATOM     55  H   UNL A   1      39.338  31.692  33.132  1.00  0.00     0.167 HD
ATOM     56  C   UNL A   1      40.331  28.731  30.030  1.00  0.00     0.037 A 
ATOM     57  C   UNL A   1      39.645  32.977  35.586  1.00  0.00     0.037 A 
ATOM     58  C   UNL A   1      41.354  28.591  31.030  1.00  0.00     0.049 A 
ATOM     59  C   UNL A   1      40.762  31.974  35.476  1.00  0.00     0.074 A 
ATOM     60  C   UNL A   1      42.454  27.753  31.031  1.00  0.00     0.029 A 
ATOM     61  N   UNL A   1      41.401  29.317  32.213  1.00  0.00    -0.354 N 
ATOM     62  N   UNL A   1      41.035  31.138  34.502  1.00  0.00    -0.248 NA
ATOM     63  C   UNL A   1      41.702  31.908  36.602  1.00  0.00     0.031 C 
ATOM     64  C   UNL A   1      43.138  27.932  32.239  1.00  0.00     0.029 A 
ATOM     65  C   UNL A   1      42.499  28.928  32.963  1.00  0.00     0.049 A 
ATOM     66  H   UNL A   1      40.751  30.006  32.479  1.00  0.00     0.167 HD
ATOM     67  C   UNL A   1      42.190  30.469  34.886  1.00  0.00     0.074 A 
ATOM     68  C   UNL A   1      42.579  31.016  36.169  1.00  0.00     0.031 C 
ATOM     69  C   UNL A   1      42.865  29.486  34.240  1.00  0.00     0.037 A 
BRANCH  56  70
ATOM     70  C   UNL A   1      40.371  27.831  28.826  1.00  0.00     0.064 A 
ATOM     71  C   UNL A   1      41.114  28.161  27.681  1.00  0.00     0.173 A 
ATOM     72  C   UNL A   1      39.672  26.614  28.822  1.00  0.00     0.173 A 
ATOM     73  F   UNL A   1      41.788  29.319  27.624  1.00  0.00    -0.203 F 
ATOM     74  C   UNL A   1      41.125  27.326  26.567  1.00  0.00     0.198 A 
ATOM     75  C   UNL A   1      39.716  25.764  27.720  1.00  0.00     0.198 A 
ATOM     76  F   UNL A   1      38.948  26.247  29.890  1.00  0.00    -0.203 F 
ATOM     77  F   UNL A   1      41.791  27.695  25.462  1.00  0.00    -0.200 F 
ATOM     78  C   UNL A   1      40.433  26.126  26.590  1.00  0.00     0.200 A 
ATOM     79  F   UNL A   1      39.058  24.597  27.749  1.00  0.00    -0.200 F 
ATOM     80  F   UNL A   1      40.451  25.319  25.519  1.00  0.00    -0.200 F 
ENDBRANCH  56  70
BRANCH  57  81
ATOM     81  C   UNL A   1      39.519  33.855  36.779  1.00  0.00     0.064 A 
ATOM     82  C   UNL A   1      38.809  33.433  37.913  1.00  0.00     0.173 A 
ATOM     83  C   UNL A   1      40.091  35.135  36.809  1.00  0.00     0.173 A 
ATOM     84  F   UNL A   1      38.226  32.225  37.926  1.00  0.00    -0.203 F 
ATOM     85  C   UNL A   1      38.653  34.267  39.018  1.00  0.00     0.198 A 
ATOM     86  C   UNL A   1      39.962  35.955  37.928  1.00  0.00     0.198 A 
ATOM     87  F   UNL A   1      40.787  35.584  35.755  1.00  0.00    -0.203 F 
ATOM     88  F   UNL A   1      37.922  33.860  40.064  1.00  0.00    -0.200 F 
ATOM     89  C   UNL A   1      39.234  35.526  39.027  1.00  0.00     0.200 A 
ATOM     90  F   UNL A   1      40.540  37.164  37.939  1.00  0.00    -0.200 F 
ATOM     91  F   UNL A   1      39.084  36.328  40.089  1.00  0.00    -0.200 F 
ENDBRANCH  57  81
BRANCH  69  92
ATOM     92  C   UNL A   1      44.110  28.965  34.901  1.00  0.00     0.064 A 
ATOM     93  C   UNL A   1      44.078  27.865  35.773  1.00  0.00     0.173 A 
ATOM     94  C   UNL A   1      45.353  29.567  34.648  1.00  0.00     0.173 A 
ATOM     95  F   UNL A   1      42.914  27.263  36.056  1.00  0.00    -0.203 F 
ATOM     96  C   UNL A   1      45.236  27.418  36.401  1.00  0.00     0.198 A 
ATOM     97  C   UNL A   1      46.515  29.090  35.248  1.00  0.00     0.198 A 
ATOM     98  F   UNL A   1      45.443  30.613  33.814  1.00  0.00    -0.203 F 
ATOM     99  F   UNL A   1      45.170  26.410  37.283  1.00  0.00    -0.200 F 
ATOM    100  C   UNL A   1      46.454  28.025  36.134  1.00  0.00     0.200 A 
ATOM    101  F   UNL A   1      47.694  29.666  34.974  1.00  0.00    -0.200 F 
ATOM    102  F   UNL A   1      47.567  27.591  36.739  1.00  0.00    -0.200 F 
ENDBRANCH  69  92
ENDBRANCH  43  44
ENDBRANCH  35  38
ENDBRANCH  33  34
ENDBRANCH  32  33
ENDBRANCH  31  32
ENDBRANCH   1  31
TORSDOF 16
ENDMDL
MODEL 3
REMARK VINA RESULT:     -12.7      1.474      7.279
REMARK SMILES CC1(C)S[C@H](c2ccc(-c3cccc([N+](=O)[O-])c3)o2)[NH2+][C@@H]1C(=O)NCCCCCCNC(=O)c1ccc(-c2c3nc(c(-c4c(F)c(F)c(F)c(F)c4F)c4ccc([nH]4)c(-c4c(F)c(F)c(F)c(F)c4F)c4nc(c(-c5c(F)c(F)c(F)c(F)c5F)c5ccc2[nH]5)C=C4)C=C3)cc1
REMARK SMILES IDX 27 1 26 2 25 3 24 4 22 5 23 6 21 8 1 9 2 10 3 11 4 12 5 13
REMARK SMILES IDX 20 14 6 17 7 18 19 19 8 20 9 21 10 22 11 23 18 24 12 25
REMARK SMILES IDX 14 26 13 27 15 28 16 29 17 30 28 31 29 32 30 33 31 34 32 35
REMARK SMILES IDX 33 37 34 38 35 39 96 40 36 41 95 42 37 43 38 44 39 45 89 46
REMARK SMILES IDX 40 47 94 48 88 49 90 50 41 51 93 52 87 53 86 54 42 56 74 57
REMARK SMILES IDX 54 58 73 59 55 60 58 61 72 62 91 63 56 64 57 65 71 67 92 68
REMARK SMILES IDX 59 69 43 70 44 71 52 72 45 73 46 74 50 75 53 76 47 77 48 78
REMARK SMILES IDX 51 79 49 80 75 81 76 82 84 83 77 84 78 85 82 86 85 87 79 88
REMARK SMILES IDX 80 89 83 90 81 91 60 92 61 93 69 94 62 95 63 96 67 97 70 98
REMARK SMILES IDX 64 99 65 100 68 101 66 102
REMARK H PARENT 24 7 20 15 20 16 31 36 90 55 58 66
REMARK Flexibility Score: inf
ROOT
ATOM      1  C   UNL A   1      32.964  30.094  27.012  1.00  0.00     0.002 C 
ENDROOT
BRANCH   1   2
ATOM      2  C   UNL A   1      32.858  28.598  27.301  1.00  0.00     0.021 C 
BRANCH   2   3
ATOM      3  C   UNL A   1      31.432  28.066  27.426  1.00  0.00     0.116 C 
BRANCH   3   4
ATOM      4  N   UNL A   1      31.257  26.755  26.828  1.00  0.00    -0.351 N 
ATOM      5  C   UNL A   1      31.452  26.402  25.515  1.00  0.00     0.279 C 
ATOM      6  O   UNL A   1      31.383  25.205  25.239  1.00  0.00    -0.268 OA
ATOM      7  H   UNL A   1      30.963  26.036  27.433  1.00  0.00     0.163 HD
BRANCH   5   8
ATOM      8  C   UNL A   1      31.626  27.533  24.472  1.00  0.00     0.289 C 
ATOM      9  C   UNL A   1      30.541  29.123  22.827  1.00  0.00     0.030 C 
ATOM     10  C   UNL A   1      30.596  27.660  23.322  1.00  0.00     0.078 C 
ATOM     11  C   UNL A   1      29.165  27.206  23.609  1.00  0.00     0.030 C 
ATOM     12  S   UNL A   1      31.298  26.635  21.988  1.00  0.00    -0.078 SA
ATOM     13  C   UNL A   1      32.952  26.579  22.709  1.00  0.00     0.311 C 
ATOM     14  N   UNL A   1      32.996  27.477  23.867  1.00  0.00    -0.317 N 
ATOM     15  H   UNL A   1      33.280  28.411  23.570  1.00  0.00     0.348 HD
ATOM     16  H   UNL A   1      33.669  27.133  24.553  1.00  0.00     0.348 HD
BRANCH  13  17
ATOM     17  C   UNL A   1      33.443  25.174  22.911  1.00  0.00     0.172 A 
ATOM     18  C   UNL A   1      33.016  23.999  22.318  1.00  0.00     0.054 A 
ATOM     19  O   UNL A   1      34.487  24.896  23.762  1.00  0.00    -0.454 OA
ATOM     20  C   UNL A   1      33.837  22.963  22.809  1.00  0.00     0.051 A 
ATOM     21  C   UNL A   1      34.723  23.546  23.687  1.00  0.00     0.134 A 
BRANCH  21  22
ATOM     22  C   UNL A   1      35.860  23.010  24.426  1.00  0.00     0.024 A 
ATOM     23  C   UNL A   1      36.755  23.836  25.123  1.00  0.00     0.012 A 
ATOM     24  C   UNL A   1      36.087  21.623  24.417  1.00  0.00     0.097 A 
ATOM     25  C   UNL A   1      37.857  23.288  25.799  1.00  0.00     0.008 A 
ATOM     26  C   UNL A   1      37.207  21.084  25.067  1.00  0.00     0.270 A 
ATOM     27  C   UNL A   1      38.090  21.910  25.771  1.00  0.00     0.085 A 
BRANCH  26  28
ATOM     28  N   UNL A   1      37.487  19.649  24.948  1.00  0.00     0.062 N 
ATOM     29  O   UNL A   1      36.523  18.886  24.797  1.00  0.00    -0.258 OA
ATOM     30  O   UNL A   1      38.671  19.288  25.008  1.00  0.00    -0.258 OA
ENDBRANCH  26  28
ENDBRANCH  21  22
ENDBRANCH  13  17
ENDBRANCH   5   8
ENDBRANCH   3   4
ENDBRANCH   2   3
ENDBRANCH   1   2
BRANCH   1  31
ATOM     31  C   UNL A   1      31.702  30.713  26.424  1.00  0.00     0.002 C 
BRANCH  31  32
ATOM     32  C   UNL A   1      31.501  32.205  26.642  1.00  0.00     0.021 C 
BRANCH  32  33
ATOM     33  C   UNL A   1      32.699  32.898  27.260  1.00  0.00     0.116 C 
BRANCH  33  34
ATOM     34  N   UNL A   1      32.428  34.269  27.671  1.00  0.00    -0.352 N 
ATOM     35  C   UNL A   1      33.016  35.000  28.676  1.00  0.00     0.251 C 
ATOM     36  H   UNL A   1      31.729  34.735  27.158  1.00  0.00     0.163 HD
ATOM     37  O   UNL A   1      32.611  36.121  28.946  1.00  0.00    -0.269 OA
BRANCH  35  38
ATOM     38  C   UNL A   1      34.137  34.406  29.433  1.00  0.00     0.039 A 
ATOM     39  C   UNL A   1      33.870  33.705  30.609  1.00  0.00     0.014 A 
ATOM     40  C   UNL A   1      35.448  34.531  28.969  1.00  0.00     0.014 A 
ATOM     41  C   UNL A   1      34.921  33.094  31.295  1.00  0.00     0.010 A 
ATOM     42  C   UNL A   1      36.469  33.820  29.579  1.00  0.00     0.010 A 
ATOM     43  C   UNL A   1      36.224  33.127  30.772  1.00  0.00    -0.014 A 
BRANCH  43  44
ATOM     44  C   UNL A   1      37.362  32.501  31.489  1.00  0.00     0.031 A 
ATOM     45  C   UNL A   1      38.105  31.356  30.852  1.00  0.00     0.074 A 
ATOM     46  C   UNL A   1      37.692  32.927  32.721  1.00  0.00     0.049 A 
ATOM     47  N   UNL A   1      39.104  30.653  31.321  1.00  0.00    -0.248 NA
ATOM     48  C   UNL A   1      37.637  30.913  29.527  1.00  0.00     0.031 C 
ATOM     49  C   UNL A   1      37.001  33.980  33.468  1.00  0.00     0.029 A 
ATOM     50  N   UNL A   1      38.697  32.526  33.565  1.00  0.00    -0.354 N 
ATOM     51  C   UNL A   1      39.366  29.684  30.359  1.00  0.00     0.074 A 
ATOM     52  C   UNL A   1      38.373  29.834  29.321  1.00  0.00     0.031 C 
ATOM     53  C   UNL A   1      37.629  34.172  34.640  1.00  0.00     0.029 A 
ATOM     54  C   UNL A   1      38.741  33.234  34.742  1.00  0.00     0.049 A 
ATOM     55  H   UNL A   1      39.326  31.801  33.348  1.00  0.00     0.167 HD
ATOM     56  C   UNL A   1      40.371  28.778  30.323  1.00  0.00     0.037 A 
ATOM     57  C   UNL A   1      39.592  33.136  35.780  1.00  0.00     0.037 A 
ATOM     58  C   UNL A   1      41.379  28.660  31.342  1.00  0.00     0.049 A 
ATOM     59  C   UNL A   1      40.712  32.131  35.708  1.00  0.00     0.074 A 
ATOM     60  C   UNL A   1      42.479  27.823  31.379  1.00  0.00     0.029 A 
ATOM     61  N   UNL A   1      41.406  29.409  32.510  1.00  0.00    -0.354 N 
ATOM     62  N   UNL A   1      41.001  31.277  34.756  1.00  0.00    -0.248 NA
ATOM     63  C   UNL A   1      41.633  32.090  36.851  1.00  0.00     0.031 C 
ATOM     64  C   UNL A   1      43.143  28.028  32.593  1.00  0.00     0.029 A 
ATOM     65  C   UNL A   1      42.492  29.037  33.286  1.00  0.00     0.049 A 
ATOM     66  H   UNL A   1      40.751  30.104  32.752  1.00  0.00     0.167 HD
ATOM     67  C   UNL A   1      42.150  30.616  35.172  1.00  0.00     0.074 A 
ATOM     68  C   UNL A   1      42.518  31.190  36.450  1.00  0.00     0.031 C 
ATOM     69  C   UNL A   1      42.837  29.621  34.557  1.00  0.00     0.037 A 
BRANCH  56  70
ATOM     70  C   UNL A   1      40.431  27.854  29.139  1.00  0.00     0.064 A 
ATOM     71  C   UNL A   1      41.199  28.157  28.003  1.00  0.00     0.173 A 
ATOM     72  C   UNL A   1      39.727  26.640  29.145  1.00  0.00     0.173 A 
ATOM     73  F   UNL A   1      41.880  29.312  27.936  1.00  0.00    -0.203 F 
ATOM     74  C   UNL A   1      41.229  27.301  26.906  1.00  0.00     0.198 A 
ATOM     75  C   UNL A   1      39.790  25.768  28.061  1.00  0.00     0.198 A 
ATOM     76  F   UNL A   1      38.980  26.298  30.205  1.00  0.00    -0.203 F 
ATOM     77  F   UNL A   1      41.919  27.644  25.808  1.00  0.00    -0.200 F 
ATOM     78  C   UNL A   1      40.531  26.104  26.939  1.00  0.00     0.200 A 
ATOM     79  F   UNL A   1      39.125  24.605  28.100  1.00  0.00    -0.200 F 
ATOM     80  F   UNL A   1      40.567  25.276  25.885  1.00  0.00    -0.200 F 
ENDBRANCH  56  70
BRANCH  57  81
ATOM     81  C   UNL A   1      39.446  34.037  36.952  1.00  0.00     0.064 A 
ATOM     82  C   UNL A   1      40.032  35.312  36.960  1.00  0.00     0.173 A 
ATOM     83  C   UNL A   1      38.729  33.644  38.092  1.00  0.00     0.173 A 
ATOM     84  F   UNL A   1      40.743  35.728  35.902  1.00  0.00    -0.203 F 
ATOM     85  C   UNL A   1      39.931  36.145  38.073  1.00  0.00     0.198 A 
ATOM     86  C   UNL A   1      38.602  34.492  39.191  1.00  0.00     0.198 A 
ATOM     87  F   UNL A   1      38.143  32.439  38.133  1.00  0.00    -0.203 F 
ATOM     88  F   UNL A   1      40.549  37.334  38.074  1.00  0.00    -0.200 F 
ATOM     89  C   UNL A   1      39.212  35.737  39.185  1.00  0.00     0.200 A 
ATOM     90  F   UNL A   1      37.892  34.098  40.257  1.00  0.00    -0.200 F 
ATOM     91  F   UNL A   1      39.116  36.537  40.255  1.00  0.00    -0.200 F 
ENDBRANCH  57  81
BRANCH  69  92
ATOM     92  C   UNL A   1      44.071  29.115  35.249  1.00  0.00     0.064 A 
ATOM     93  C   UNL A   1      45.335  29.674  35.004  1.00  0.00     0.173 A 
ATOM     94  C   UNL A   1      43.984  28.068  36.179  1.00  0.00     0.173 A 
ATOM     95  F   UNL A   1      45.473  30.669  34.116  1.00  0.00    -0.203 F 
ATOM     96  C   UNL A   1      46.472  29.171  35.631  1.00  0.00     0.198 A 
ATOM     97  C   UNL A   1      45.118  27.595  36.833  1.00  0.00     0.198 A 
ATOM     98  F   UNL A   1      42.799  27.507  36.460  1.00  0.00    -0.203 F 
ATOM     99  F   UNL A   1      47.678  29.674  35.329  1.00  0.00    -0.200 F 
ATOM    100  C   UNL A   1      46.363  28.137  36.548  1.00  0.00     0.200 A 
ATOM    101  F   UNL A   1      45.008  26.609  37.734  1.00  0.00    -0.200 F 
ATOM    102  F   UNL A   1      47.458  27.656  37.151  1.00  0.00    -0.200 F 
ENDBRANCH  69  92
ENDBRANCH  43  44
ENDBRANCH  35  38
ENDBRANCH  33  34
ENDBRANCH  32  33
ENDBRANCH  31  32
ENDBRANCH   1  31
TORSDOF 16
ENDMDL
