MODEL 1
REMARK VINA RESULT:     -11.5      0.000      0.000
REMARK SMILES C[NH2+][C@@](C)(CC[N@@H+](C)C1CCC(C)(C)CC1)C(=O)NCCCCCCNC(=O)c1ccc(-c2c3nc(c(-c4c(F)c(F)c(F)c(F)c4F)c4ccc([nH]4)c(-c4c(F)c(F)c(F)c(F)c4F)c4nc(c(-c5c(F)c(F)c(F)c(F)c5F)c5ccc2[nH]5)C=C4)C=C3)cc1
REMARK SMILES IDX 21 1 20 2 19 3 17 4 18 5 3 7 4 8 2 9 1 10 5 13 6 14 7 15
REMARK SMILES IDX 8 16 9 18 10 19 16 20 11 21 15 22 12 23 13 24 14 25 22 26
REMARK SMILES IDX 23 27 24 28 25 29 26 30 27 31 28 33 29 34 30 35 91 36 31 37
REMARK SMILES IDX 90 38 32 39 33 40 34 41 84 42 35 43 89 44 83 45 85 46 36 47
REMARK SMILES IDX 88 48 82 49 81 50 37 52 69 53 49 54 68 55 50 56 53 57 67 58
REMARK SMILES IDX 86 59 51 60 52 61 66 63 87 64 54 65 38 66 39 67 47 68 40 69
REMARK SMILES IDX 41 70 45 71 48 72 42 73 43 74 46 75 44 76 70 77 71 78 79 79
REMARK SMILES IDX 72 80 73 81 77 82 80 83 74 84 75 85 78 86 76 87 55 88 56 89
REMARK SMILES IDX 64 90 57 91 58 92 62 93 65 94 59 95 60 96 63 97 61 98
REMARK H PARENT 19 6 2 11 2 12 7 17 26 32 85 51 53 62
REMARK Flexibility Score: inf
ROOT
ATOM      1  C   UNL A   1      36.718  23.521  25.044  1.00  0.00     0.021 C 
ENDROOT
BRANCH   1   2
ATOM      2  C   UNL A   1      35.226  23.745  24.766  1.00  0.00     0.116 C 
BRANCH   2   3
ATOM      3  N   UNL A   1      34.822  23.606  23.382  1.00  0.00    -0.351 N 
ATOM      4  C   UNL A   1      33.736  23.060  22.752  1.00  0.00     0.281 C 
ATOM      5  O   UNL A   1      33.626  23.410  21.569  1.00  0.00    -0.268 OA
ATOM      6  H   UNL A   1      35.475  23.990  22.753  1.00  0.00     0.163 HD
BRANCH   4   7
ATOM      7  C   UNL A   1      32.671  22.174  23.474  1.00  0.00     0.177 C 
ATOM      8  C   UNL A   1      32.060  21.314  22.340  1.00  0.00     0.090 C 
BRANCH   7   9
ATOM      9  N   UNL A   1      33.179  21.223  24.511  1.00  0.00    -0.336 N 
ATOM     10  C   UNL A   1      32.942  19.804  24.345  1.00  0.00     0.331 C 
ATOM     11  H   UNL A   1      34.189  21.353  24.567  1.00  0.00     0.346 HD
ATOM     12  H   UNL A   1      32.640  21.462  25.345  1.00  0.00     0.346 HD
ENDBRANCH   7   9
BRANCH   7  13
ATOM     13  C   UNL A   1      31.566  22.957  24.231  1.00  0.00     0.140 C 
BRANCH  13  14
ATOM     14  C   UNL A   1      30.800  24.128  23.542  1.00  0.00     0.269 C 
BRANCH  14  15
ATOM     15  N   UNL A   1      30.977  25.551  23.973  1.00  0.00    -0.335 N 
ATOM     16  C   UNL A   1      29.662  26.046  24.400  1.00  0.00     0.332 C 
ATOM     17  H   UNL A   1      31.324  26.109  23.192  1.00  0.00     0.348 HD
BRANCH  15  18
ATOM     18  C   UNL A   1      32.026  25.705  25.039  1.00  0.00     0.183 C 
ATOM     19  C   UNL A   1      33.103  26.662  24.528  1.00  0.00     0.065 C 
ATOM     20  C   UNL A   1      31.653  26.199  26.472  1.00  0.00     0.065 C 
ATOM     21  C   UNL A   1      32.702  28.124  24.573  1.00  0.00     0.012 C 
ATOM     22  C   UNL A   1      31.408  27.714  26.658  1.00  0.00     0.012 C 
ATOM     23  C   UNL A   1      32.452  28.633  25.987  1.00  0.00    -0.035 C 
ATOM     24  C   UNL A   1      31.909  30.071  25.873  1.00  0.00     0.011 C 
ATOM     25  C   UNL A   1      33.767  28.679  26.785  1.00  0.00     0.011 C 
ENDBRANCH  15  18
ENDBRANCH  14  15
ENDBRANCH  13  14
ENDBRANCH   7  13
ENDBRANCH   4   7
ENDBRANCH   2   3
ENDBRANCH   1   2
BRANCH   1  26
ATOM     26  C   UNL A   1      37.371  22.271  24.452  1.00  0.00     0.002 C 
BRANCH  26  27
ATOM     27  C   UNL A   1      37.004  20.915  25.044  1.00  0.00     0.002 C 
BRANCH  27  28
ATOM     28  C   UNL A   1      38.103  19.865  25.001  1.00  0.00     0.021 C 
BRANCH  28  29
ATOM     29  C   UNL A   1      39.329  20.197  25.837  1.00  0.00     0.116 C 
BRANCH  29  30
ATOM     30  N   UNL A   1      40.263  19.088  25.937  1.00  0.00    -0.352 N 
ATOM     31  C   UNL A   1      41.626  19.132  26.126  1.00  0.00     0.251 C 
ATOM     32  H   UNL A   1      39.870  18.189  25.860  1.00  0.00     0.163 HD
ATOM     33  O   UNL A   1      42.309  18.124  26.039  1.00  0.00    -0.269 OA
BRANCH  31  34
ATOM     34  C   UNL A   1      42.262  20.439  26.404  1.00  0.00     0.039 A 
ATOM     35  C   UNL A   1      42.814  21.165  25.347  1.00  0.00     0.014 A 
ATOM     36  C   UNL A   1      42.259  20.964  27.699  1.00  0.00     0.014 A 
ATOM     37  C   UNL A   1      43.304  22.451  25.579  1.00  0.00     0.010 A 
ATOM     38  C   UNL A   1      42.663  22.276  27.910  1.00  0.00     0.010 A 
ATOM     39  C   UNL A   1      43.200  23.031  26.855  1.00  0.00    -0.014 A 
BRANCH  39  40
ATOM     40  C   UNL A   1      43.664  24.416  27.119  1.00  0.00     0.031 A 
ATOM     41  C   UNL A   1      42.690  25.443  27.628  1.00  0.00     0.074 A 
ATOM     42  C   UNL A   1      44.933  24.769  26.837  1.00  0.00     0.049 A 
ATOM     43  N   UNL A   1      42.869  26.723  27.839  1.00  0.00    -0.248 NA
ATOM     44  C   UNL A   1      41.324  24.975  27.907  1.00  0.00     0.031 C 
ATOM     45  C   UNL A   1      45.959  23.876  26.296  1.00  0.00     0.029 A 
ATOM     46  N   UNL A   1      45.572  25.977  26.953  1.00  0.00    -0.354 N 
ATOM     47  C   UNL A   1      41.637  27.210  28.254  1.00  0.00     0.074 A 
ATOM     48  C   UNL A   1      40.704  26.105  28.206  1.00  0.00     0.031 C 
ATOM     49  C   UNL A   1      47.104  24.560  26.151  1.00  0.00     0.029 A 
ATOM     50  C   UNL A   1      46.884  25.949  26.546  1.00  0.00     0.049 A 
ATOM     51  H   UNL A   1      45.134  26.788  27.298  1.00  0.00     0.167 HD
ATOM     52  C   UNL A   1      41.317  28.460  28.667  1.00  0.00     0.037 A 
ATOM     53  C   UNL A   1      47.801  26.933  26.489  1.00  0.00     0.037 A 
ATOM     54  C   UNL A   1      42.254  29.549  28.737  1.00  0.00     0.049 A 
ATOM     55  C   UNL A   1      47.419  28.318  26.941  1.00  0.00     0.074 A 
ATOM     56  C   UNL A   1      42.046  30.838  29.195  1.00  0.00     0.029 A 
ATOM     57  N   UNL A   1      43.580  29.477  28.332  1.00  0.00    -0.354 N 
ATOM     58  N   UNL A   1      46.269  28.753  27.397  1.00  0.00    -0.248 NA
ATOM     59  C   UNL A   1      48.465  29.348  26.876  1.00  0.00     0.031 C 
ATOM     60  C   UNL A   1      43.229  31.561  29.016  1.00  0.00     0.029 A 
ATOM     61  C   UNL A   1      44.194  30.706  28.506  1.00  0.00     0.049 A 
ATOM     62  H   UNL A   1      44.017  28.671  27.974  1.00  0.00     0.167 HD
ATOM     63  C   UNL A   1      46.461  30.093  27.704  1.00  0.00     0.074 A 
ATOM     64  C   UNL A   1      47.842  30.398  27.394  1.00  0.00     0.031 C 
ATOM     65  C   UNL A   1      45.573  30.991  28.201  1.00  0.00     0.037 A 
BRANCH  52  66
ATOM     66  C   UNL A   1      39.892  28.713  29.072  1.00  0.00     0.064 A 
ATOM     67  C   UNL A   1      38.931  29.162  28.152  1.00  0.00     0.173 A 
ATOM     68  C   UNL A   1      39.477  28.484  30.392  1.00  0.00     0.173 A 
ATOM     69  F   UNL A   1      39.277  29.408  26.880  1.00  0.00    -0.203 F 
ATOM     70  C   UNL A   1      37.619  29.407  28.548  1.00  0.00     0.198 A 
ATOM     71  C   UNL A   1      38.155  28.696  30.776  1.00  0.00     0.198 A 
ATOM     72  F   UNL A   1      40.352  28.050  31.312  1.00  0.00    -0.203 F 
ATOM     73  F   UNL A   1      36.735  29.894  27.665  1.00  0.00    -0.200 F 
ATOM     74  C   UNL A   1      37.231  29.168  29.857  1.00  0.00     0.200 A 
ATOM     75  F   UNL A   1      37.778  28.450  32.038  1.00  0.00    -0.200 F 
ATOM     76  F   UNL A   1      35.965  29.400  30.235  1.00  0.00    -0.200 F 
ENDBRANCH  52  66
BRANCH  53  77
ATOM     77  C   UNL A   1      49.178  26.641  26.008  1.00  0.00     0.064 A 
ATOM     78  C   UNL A   1      50.135  26.078  26.863  1.00  0.00     0.173 A 
ATOM     79  C   UNL A   1      49.565  26.919  24.689  1.00  0.00     0.173 A 
ATOM     80  F   UNL A   1      49.820  25.813  28.139  1.00  0.00    -0.203 F 
ATOM     81  C   UNL A   1      51.434  25.825  26.424  1.00  0.00     0.198 A 
ATOM     82  C   UNL A   1      50.855  26.637  24.243  1.00  0.00     0.198 A 
ATOM     83  F   UNL A   1      48.686  27.454  23.829  1.00  0.00    -0.203 F 
ATOM     84  F   UNL A   1      52.342  25.331  27.277  1.00  0.00    -0.200 F 
ATOM     85  C   UNL A   1      51.790  26.099  25.113  1.00  0.00     0.200 A 
ATOM     86  F   UNL A   1      51.191  26.889  22.970  1.00  0.00    -0.200 F 
ATOM     87  F   UNL A   1      53.037  25.850  24.689  1.00  0.00    -0.200 F 
ENDBRANCH  53  77
BRANCH  65  88
ATOM     88  C   UNL A   1      46.077  32.378  28.484  1.00  0.00     0.064 A 
ATOM     89  C   UNL A   1      46.653  32.720  29.715  1.00  0.00     0.173 A 
ATOM     90  C   UNL A   1      46.025  33.365  27.486  1.00  0.00     0.173 A 
ATOM     91  F   UNL A   1      46.714  31.817  30.706  1.00  0.00    -0.203 F 
ATOM     92  C   UNL A   1      47.135  34.006  29.947  1.00  0.00     0.198 A 
ATOM     93  C   UNL A   1      46.538  34.639  27.710  1.00  0.00     0.198 A 
ATOM     94  F   UNL A   1      45.490  33.088  26.288  1.00  0.00    -0.203 F 
ATOM     95  F   UNL A   1      47.637  34.324  31.149  1.00  0.00    -0.200 F 
ATOM     96  C   UNL A   1      47.085  34.960  28.943  1.00  0.00     0.200 A 
ATOM     97  F   UNL A   1      46.504  35.554  26.732  1.00  0.00    -0.200 F 
ATOM     98  F   UNL A   1      47.559  36.195  29.164  1.00  0.00    -0.200 F 
ENDBRANCH  65  88
ENDBRANCH  39  40
ENDBRANCH  31  34
ENDBRANCH  29  30
ENDBRANCH  28  29
ENDBRANCH  27  28
ENDBRANCH  26  27
ENDBRANCH   1  26
TORSDOF 18
ENDMDL
MODEL 2
REMARK VINA RESULT:     -11.3      5.603     11.100
REMARK SMILES C[NH2+][C@@](C)(CC[N@@H+](C)C1CCC(C)(C)CC1)C(=O)NCCCCCCNC(=O)c1ccc(-c2c3nc(c(-c4c(F)c(F)c(F)c(F)c4F)c4ccc([nH]4)c(-c4c(F)c(F)c(F)c(F)c4F)c4nc(c(-c5c(F)c(F)c(F)c(F)c5F)c5ccc2[nH]5)C=C4)C=C3)cc1
REMARK SMILES IDX 21 1 20 2 19 3 17 4 18 5 3 7 4 8 2 9 1 10 5 13 6 14 7 15
REMARK SMILES IDX 8 16 9 18 10 19 16 20 11 21 15 22 12 23 13 24 14 25 22 26
REMARK SMILES IDX 23 27 24 28 25 29 26 30 27 31 28 33 29 34 30 35 91 36 31 37
REMARK SMILES IDX 90 38 32 39 33 40 34 41 84 42 35 43 89 44 83 45 85 46 36 47
REMARK SMILES IDX 88 48 82 49 81 50 37 52 69 53 49 54 68 55 50 56 53 57 67 58
REMARK SMILES IDX 86 59 51 60 52 61 66 63 87 64 54 65 38 66 39 67 47 68 40 69
REMARK SMILES IDX 41 70 45 71 48 72 42 73 43 74 46 75 44 76 70 77 71 78 79 79
REMARK SMILES IDX 72 80 73 81 77 82 80 83 74 84 75 85 78 86 76 87 55 88 56 89
REMARK SMILES IDX 64 90 57 91 58 92 62 93 65 94 59 95 60 96 63 97 61 98
REMARK H PARENT 19 6 2 11 2 12 7 17 26 32 85 51 53 62
REMARK Flexibility Score: inf
ROOT
ATOM      1  C   UNL A   1      31.586  29.143  24.054  1.00  0.00     0.021 C 
ENDROOT
BRANCH   1   2
ATOM      2  C   UNL A   1      30.605  28.162  23.399  1.00  0.00     0.116 C 
BRANCH   2   3
ATOM      3  N   UNL A   1      31.054  27.567  22.157  1.00  0.00    -0.351 N 
ATOM      4  C   UNL A   1      31.529  26.332  21.803  1.00  0.00     0.281 C 
ATOM      5  O   UNL A   1      31.521  26.134  20.580  1.00  0.00    -0.268 OA
ATOM      6  H   UNL A   1      31.009  28.190  21.396  1.00  0.00     0.163 HD
BRANCH   4   7
ATOM      7  C   UNL A   1      31.934  25.232  22.836  1.00  0.00     0.177 C 
ATOM      8  C   UNL A   1      32.960  24.356  22.074  1.00  0.00     0.090 C 
BRANCH   7   9
ATOM      9  N   UNL A   1      32.608  25.699  24.087  1.00  0.00    -0.336 N 
ATOM     10  C   UNL A   1      33.995  26.112  24.029  1.00  0.00     0.331 C 
ATOM     11  H   UNL A   1      32.074  26.495  24.435  1.00  0.00     0.346 HD
ATOM     12  H   UNL A   1      32.627  24.867  24.678  1.00  0.00     0.346 HD
ENDBRANCH   7   9
BRANCH   7  13
ATOM     13  C   UNL A   1      30.761  24.369  23.373  1.00  0.00     0.140 C 
BRANCH  13  14
ATOM     14  C   UNL A   1      31.031  23.034  24.132  1.00  0.00     0.269 C 
BRANCH  14  15
ATOM     15  N   UNL A   1      31.939  22.968  25.320  1.00  0.00    -0.335 N 
ATOM     16  C   UNL A   1      31.127  23.265  26.508  1.00  0.00     0.332 C 
ATOM     17  H   UNL A   1      32.685  23.657  25.225  1.00  0.00     0.348 HD
BRANCH  15  18
ATOM     18  C   UNL A   1      32.656  21.651  25.427  1.00  0.00     0.183 C 
ATOM     19  C   UNL A   1      33.520  21.464  24.180  1.00  0.00     0.065 C 
ATOM     20  C   UNL A   1      33.579  21.331  26.644  1.00  0.00     0.065 C 
ATOM     21  C   UNL A   1      34.801  22.275  24.189  1.00  0.00     0.012 C 
ATOM     22  C   UNL A   1      34.988  21.966  26.650  1.00  0.00     0.012 C 
ATOM     23  C   UNL A   1      35.752  21.877  25.311  1.00  0.00    -0.035 C 
ATOM     24  C   UNL A   1      36.929  22.873  25.296  1.00  0.00     0.011 C 
ATOM     25  C   UNL A   1      36.316  20.467  25.069  1.00  0.00     0.011 C 
ENDBRANCH  15  18
ENDBRANCH  14  15
ENDBRANCH  13  14
ENDBRANCH   7  13
ENDBRANCH   4   7
ENDBRANCH   2   3
ENDBRANCH   1   2
BRANCH   1  26
ATOM     26  C   UNL A   1      31.017  30.169  25.035  1.00  0.00     0.002 C 
BRANCH  26  27
ATOM     27  C   UNL A   1      31.888  30.608  26.206  1.00  0.00     0.002 C 
BRANCH  27  28
ATOM     28  C   UNL A   1      31.530  31.956  26.815  1.00  0.00     0.021 C 
BRANCH  28  29
ATOM     29  C   UNL A   1      32.711  32.730  27.376  1.00  0.00     0.116 C 
BRANCH  29  30
ATOM     30  N   UNL A   1      32.401  34.126  27.635  1.00  0.00    -0.352 N 
ATOM     31  C   UNL A   1      32.962  34.968  28.569  1.00  0.00     0.251 C 
ATOM     32  H   UNL A   1      31.698  34.521  27.070  1.00  0.00     0.163 HD
ATOM     33  O   UNL A   1      32.498  36.078  28.779  1.00  0.00    -0.269 OA
BRANCH  31  34
ATOM     34  C   UNL A   1      34.128  34.490  29.345  1.00  0.00     0.039 A 
ATOM     35  C   UNL A   1      33.919  33.924  30.605  1.00  0.00     0.014 A 
ATOM     36  C   UNL A   1      35.413  34.555  28.801  1.00  0.00     0.014 A 
ATOM     37  C   UNL A   1      34.996  33.359  31.290  1.00  0.00     0.010 A 
ATOM     38  C   UNL A   1      36.464  33.912  29.443  1.00  0.00     0.010 A 
ATOM     39  C   UNL A   1      36.270  33.316  30.699  1.00  0.00    -0.014 A 
BRANCH  39  40
ATOM     40  C   UNL A   1      37.421  32.674  31.382  1.00  0.00     0.031 A 
ATOM     41  C   UNL A   1      38.126  31.519  30.726  1.00  0.00     0.074 A 
ATOM     42  C   UNL A   1      37.788  33.080  32.613  1.00  0.00     0.049 A 
ATOM     43  N   UNL A   1      39.092  30.766  31.188  1.00  0.00    -0.248 NA
ATOM     44  C   UNL A   1      37.661  31.139  29.383  1.00  0.00     0.031 C 
ATOM     45  C   UNL A   1      37.154  34.158  33.374  1.00  0.00     0.029 A 
ATOM     46  N   UNL A   1      38.776  32.621  33.449  1.00  0.00    -0.354 N 
ATOM     47  C   UNL A   1      39.332  29.817  30.203  1.00  0.00     0.074 A 
ATOM     48  C   UNL A   1      38.372  30.049  29.147  1.00  0.00     0.031 C 
ATOM     49  C   UNL A   1      37.783  34.294  34.551  1.00  0.00     0.029 A 
ATOM     50  C   UNL A   1      38.835  33.286  34.650  1.00  0.00     0.049 A 
ATOM     51  H   UNL A   1      39.385  31.886  33.210  1.00  0.00     0.167 HD
ATOM     52  C   UNL A   1      40.287  28.857  30.169  1.00  0.00     0.037 A 
ATOM     53  C   UNL A   1      39.641  33.097  35.711  1.00  0.00     0.037 A 
ATOM     54  C   UNL A   1      41.256  28.647  31.211  1.00  0.00     0.049 A 
ATOM     55  C   UNL A   1      40.687  32.015  35.655  1.00  0.00     0.074 A 
ATOM     56  C   UNL A   1      42.301  27.741  31.248  1.00  0.00     0.029 A 
ATOM     57  N   UNL A   1      41.296  29.353  32.405  1.00  0.00    -0.354 N 
ATOM     58  N   UNL A   1      40.951  31.167  34.690  1.00  0.00    -0.248 NA
ATOM     59  C   UNL A   1      41.551  31.867  36.834  1.00  0.00     0.031 C 
ATOM     60  C   UNL A   1      42.938  27.859  32.487  1.00  0.00     0.029 A 
ATOM     61  C   UNL A   1      42.332  28.884  33.197  1.00  0.00     0.049 A 
ATOM     62  H   UNL A   1      40.679  30.079  32.653  1.00  0.00     0.167 HD
ATOM     63  C   UNL A   1      42.029  30.411  35.129  1.00  0.00     0.074 A 
ATOM     64  C   UNL A   1      42.378  30.908  36.444  1.00  0.00     0.031 C 
ATOM     65  C   UNL A   1      42.673  29.397  34.500  1.00  0.00     0.037 A 
BRANCH  52  66
ATOM     66  C   UNL A   1      40.324  27.960  28.964  1.00  0.00     0.064 A 
ATOM     67  C   UNL A   1      41.069  28.290  27.821  1.00  0.00     0.173 A 
ATOM     68  C   UNL A   1      39.623  26.746  28.959  1.00  0.00     0.173 A 
ATOM     69  F   UNL A   1      41.749  29.445  27.767  1.00  0.00    -0.203 F 
ATOM     70  C   UNL A   1      41.080  27.456  26.706  1.00  0.00     0.198 A 
ATOM     71  C   UNL A   1      39.665  25.897  27.856  1.00  0.00     0.198 A 
ATOM     72  F   UNL A   1      38.899  26.377  30.027  1.00  0.00    -0.203 F 
ATOM     73  F   UNL A   1      41.749  27.823  25.603  1.00  0.00    -0.200 F 
ATOM     74  C   UNL A   1      40.384  26.258  26.727  1.00  0.00     0.200 A 
ATOM     75  F   UNL A   1      39.004  24.731  27.884  1.00  0.00    -0.200 F 
ATOM     76  F   UNL A   1      40.399  25.453  25.654  1.00  0.00    -0.200 F 
ENDBRANCH  52  66
BRANCH  53  77
ATOM     77  C   UNL A   1      39.509  33.968  36.910  1.00  0.00     0.064 A 
ATOM     78  C   UNL A   1      38.758  33.557  38.019  1.00  0.00     0.173 A 
ATOM     79  C   UNL A   1      40.128  35.225  36.972  1.00  0.00     0.173 A 
ATOM     80  F   UNL A   1      38.129  32.372  38.001  1.00  0.00    -0.203 F 
ATOM     81  C   UNL A   1      38.611  34.379  39.136  1.00  0.00     0.198 A 
ATOM     82  C   UNL A   1      40.006  36.033  38.100  1.00  0.00     0.198 A 
ATOM     83  F   UNL A   1      40.863  35.664  35.939  1.00  0.00    -0.203 F 
ATOM     84  F   UNL A   1      37.847  33.981  40.162  1.00  0.00    -0.200 F 
ATOM     85  C   UNL A   1      39.240  35.613  39.177  1.00  0.00     0.200 A 
ATOM     86  F   UNL A   1      40.628  37.219  38.143  1.00  0.00    -0.200 F 
ATOM     87  F   UNL A   1      39.104  36.402  40.253  1.00  0.00    -0.200 F 
ENDBRANCH  53  77
BRANCH  65  88
ATOM     88  C   UNL A   1      43.851  28.784  35.202  1.00  0.00     0.064 A 
ATOM     89  C   UNL A   1      43.707  27.707  36.089  1.00  0.00     0.173 A 
ATOM     90  C   UNL A   1      45.149  29.253  34.944  1.00  0.00     0.173 A 
ATOM     91  F   UNL A   1      42.487  27.232  36.380  1.00  0.00    -0.203 F 
ATOM     92  C   UNL A   1      44.816  27.140  36.711  1.00  0.00     0.198 A 
ATOM     93  C   UNL A   1      46.258  28.661  35.542  1.00  0.00     0.198 A 
ATOM     94  F   UNL A   1      45.344  30.275  34.098  1.00  0.00    -0.203 F 
ATOM     95  F   UNL A   1      44.649  26.144  37.594  1.00  0.00    -0.200 F 
ATOM     96  C   UNL A   1      46.090  27.610  36.431  1.00  0.00     0.200 A 
ATOM     97  F   UNL A   1      47.489  29.107  35.256  1.00  0.00    -0.200 F 
ATOM     98  F   UNL A   1      47.157  27.055  37.023  1.00  0.00    -0.200 F 
ENDBRANCH  65  88
ENDBRANCH  39  40
ENDBRANCH  31  34
ENDBRANCH  29  30
ENDBRANCH  28  29
ENDBRANCH  27  28
ENDBRANCH  26  27
ENDBRANCH   1  26
TORSDOF 18
ENDMDL
MODEL 3
REMARK VINA RESULT:     -11.2      6.499     11.047
REMARK SMILES C[NH2+][C@@](C)(CC[N@@H+](C)C1CCC(C)(C)CC1)C(=O)NCCCCCCNC(=O)c1ccc(-c2c3nc(c(-c4c(F)c(F)c(F)c(F)c4F)c4ccc([nH]4)c(-c4c(F)c(F)c(F)c(F)c4F)c4nc(c(-c5c(F)c(F)c(F)c(F)c5F)c5ccc2[nH]5)C=C4)C=C3)cc1
REMARK SMILES IDX 21 1 20 2 19 3 17 4 18 5 3 7 4 8 2 9 1 10 5 13 6 14 7 15
REMARK SMILES IDX 8 16 9 18 10 19 16 20 11 21 15 22 12 23 13 24 14 25 22 26
REMARK SMILES IDX 23 27 24 28 25 29 26 30 27 31 28 33 29 34 30 35 91 36 31 37
REMARK SMILES IDX 90 38 32 39 33 40 34 41 84 42 35 43 89 44 83 45 85 46 36 47
REMARK SMILES IDX 88 48 82 49 81 50 37 52 69 53 49 54 68 55 50 56 53 57 67 58
REMARK SMILES IDX 86 59 51 60 52 61 66 63 87 64 54 65 38 66 39 67 47 68 40 69
REMARK SMILES IDX 41 70 45 71 48 72 42 73 43 74 46 75 44 76 70 77 71 78 79 79
REMARK SMILES IDX 72 80 73 81 77 82 80 83 74 84 75 85 78 86 76 87 55 88 56 89
REMARK SMILES IDX 64 90 57 91 58 92 62 93 65 94 59 95 60 96 63 97 61 98
REMARK H PARENT 19 6 2 11 2 12 7 17 26 32 85 51 53 62
REMARK Flexibility Score: inf
ROOT
ATOM      1  C   UNL A   1      35.632  31.636  28.058  1.00  0.00     0.021 C 
ENDROOT
BRANCH   1   2
ATOM      2  C   UNL A   1      34.628  30.565  27.613  1.00  0.00     0.116 C 
BRANCH   2   3
ATOM      3  N   UNL A   1      33.409  31.064  27.010  1.00  0.00    -0.351 N 
ATOM      4  C   UNL A   1      32.286  30.476  26.495  1.00  0.00     0.281 C 
ATOM      5  O   UNL A   1      31.341  31.264  26.348  1.00  0.00    -0.268 OA
ATOM      6  H   UNL A   1      33.383  32.047  26.960  1.00  0.00     0.163 HD
BRANCH   4   7
ATOM      7  C   UNL A   1      32.157  28.943  26.223  1.00  0.00     0.177 C 
ATOM      8  C   UNL A   1      31.697  28.354  27.579  1.00  0.00     0.090 C 
BRANCH   7   9
ATOM      9  N   UNL A   1      31.145  28.523  25.204  1.00  0.00    -0.336 N 
ATOM     10  C   UNL A   1      31.201  29.096  23.875  1.00  0.00     0.331 C 
ATOM     11  H   UNL A   1      31.230  27.512  25.097  1.00  0.00     0.346 HD
ATOM     12  H   UNL A   1      30.263  28.871  25.581  1.00  0.00     0.346 HD
ENDBRANCH   7   9
BRANCH   7  13
ATOM     13  C   UNL A   1      33.455  28.250  25.731  1.00  0.00     0.140 C 
BRANCH  13  14
ATOM     14  C   UNL A   1      33.722  26.743  26.029  1.00  0.00     0.269 C 
BRANCH  14  15
ATOM     15  N   UNL A   1      33.649  25.699  24.959  1.00  0.00    -0.335 N 
ATOM     16  C   UNL A   1      33.689  26.395  23.666  1.00  0.00     0.332 C 
ATOM     17  H   UNL A   1      32.780  25.173  25.045  1.00  0.00     0.348 HD
BRANCH  15  18
ATOM     18  C   UNL A   1      34.730  24.662  25.089  1.00  0.00     0.183 C 
ATOM     19  C   UNL A   1      34.311  23.653  26.158  1.00  0.00     0.065 C 
ATOM     20  C   UNL A   1      35.194  23.821  23.859  1.00  0.00     0.065 C 
ATOM     21  C   UNL A   1      33.271  22.653  25.689  1.00  0.00     0.012 C 
ATOM     22  C   UNL A   1      34.286  22.651  23.417  1.00  0.00     0.012 C 
ATOM     23  C   UNL A   1      33.770  21.755  24.564  1.00  0.00    -0.035 C 
ATOM     24  C   UNL A   1      32.577  20.904  24.087  1.00  0.00     0.011 C 
ATOM     25  C   UNL A   1      34.863  20.801  25.078  1.00  0.00     0.011 C 
ENDBRANCH  15  18
ENDBRANCH  14  15
ENDBRANCH  13  14
ENDBRANCH   7  13
ENDBRANCH   4   7
ENDBRANCH   2   3
ENDBRANCH   1   2
BRANCH   1  26
ATOM     26  C   UNL A   1      35.126  32.744  28.983  1.00  0.00     0.002 C 
BRANCH  26  27
ATOM     27  C   UNL A   1      35.441  34.189  28.617  1.00  0.00     0.002 C 
BRANCH  27  28
ATOM     28  C   UNL A   1      34.313  35.182  28.853  1.00  0.00     0.021 C 
BRANCH  28  29
ATOM     29  C   UNL A   1      33.112  34.614  29.591  1.00  0.00     0.116 C 
BRANCH  29  30
ATOM     30  N   UNL A   1      32.552  35.541  30.561  1.00  0.00    -0.352 N 
ATOM     31  C   UNL A   1      32.907  35.718  31.880  1.00  0.00     0.251 C 
ATOM     32  H   UNL A   1      31.826  36.117  30.232  1.00  0.00     0.163 HD
ATOM     33  O   UNL A   1      32.249  36.430  32.621  1.00  0.00    -0.269 OA
BRANCH  31  34
ATOM     34  C   UNL A   1      34.091  34.998  32.398  1.00  0.00     0.039 A 
ATOM     35  C   UNL A   1      33.928  33.718  32.931  1.00  0.00     0.014 A 
ATOM     36  C   UNL A   1      35.363  35.571  32.305  1.00  0.00     0.014 A 
ATOM     37  C   UNL A   1      35.054  32.983  33.308  1.00  0.00     0.010 A 
ATOM     38  C   UNL A   1      36.484  34.805  32.595  1.00  0.00     0.010 A 
ATOM     39  C   UNL A   1      36.343  33.506  33.110  1.00  0.00    -0.014 A 
BRANCH  39  40
ATOM     40  C   UNL A   1      37.559  32.727  33.452  1.00  0.00     0.031 A 
ATOM     41  C   UNL A   1      38.295  33.019  34.730  1.00  0.00     0.074 A 
ATOM     42  C   UNL A   1      38.039  31.810  32.589  1.00  0.00     0.049 A 
ATOM     43  N   UNL A   1      39.421  32.518  35.172  1.00  0.00    -0.248 NA
ATOM     44  C   UNL A   1      37.704  34.037  35.614  1.00  0.00     0.031 C 
ATOM     45  C   UNL A   1      37.441  31.468  31.298  1.00  0.00     0.029 A 
ATOM     46  N   UNL A   1      39.150  31.008  32.663  1.00  0.00    -0.354 N 
ATOM     47  C   UNL A   1      39.677  33.171  36.371  1.00  0.00     0.074 A 
ATOM     48  C   UNL A   1      38.627  34.148  36.555  1.00  0.00     0.031 C 
ATOM     49  C   UNL A   1      38.177  30.511  30.713  1.00  0.00     0.029 A 
ATOM     50  C   UNL A   1      39.321  30.201  31.564  1.00  0.00     0.049 A 
ATOM     51  H   UNL A   1      39.765  31.009  33.431  1.00  0.00     0.167 HD
ATOM     52  C   UNL A   1      40.683  32.956  37.252  1.00  0.00     0.037 A 
ATOM     53  C   UNL A   1      40.296  29.319  31.275  1.00  0.00     0.037 A 
ATOM     54  C   UNL A   1      41.711  31.966  37.076  1.00  0.00     0.049 A 
ATOM     55  C   UNL A   1      41.411  29.105  32.265  1.00  0.00     0.074 A 
ATOM     56  C   UNL A   1      42.740  31.628  37.937  1.00  0.00     0.029 A 
ATOM     57  N   UNL A   1      41.841  31.154  35.958  1.00  0.00    -0.354 N 
ATOM     58  N   UNL A   1      41.608  29.680  33.428  1.00  0.00    -0.248 NA
ATOM     59  C   UNL A   1      42.437  28.117  31.905  1.00  0.00     0.031 C 
ATOM     60  C   UNL A   1      43.526  30.652  37.315  1.00  0.00     0.029 A 
ATOM     61  C   UNL A   1      42.950  30.335  36.095  1.00  0.00     0.049 A 
ATOM     62  H   UNL A   1      41.235  31.160  35.182  1.00  0.00     0.167 HD
ATOM     63  C   UNL A   1      42.755  29.101  33.952  1.00  0.00     0.074 A 
ATOM     64  C   UNL A   1      43.205  28.121  32.985  1.00  0.00     0.031 C 
ATOM     65  C   UNL A   1      43.379  29.356  35.129  1.00  0.00     0.037 A 
BRANCH  52  66
ATOM     66  C   UNL A   1      40.717  33.813  38.486  1.00  0.00     0.064 A 
ATOM     67  C   UNL A   1      39.963  33.497  39.627  1.00  0.00     0.173 A 
ATOM     68  C   UNL A   1      41.530  34.955  38.536  1.00  0.00     0.173 A 
ATOM     69  F   UNL A   1      39.158  32.423  39.629  1.00  0.00    -0.203 F 
ATOM     70  C   UNL A   1      39.993  34.311  40.756  1.00  0.00     0.198 A 
ATOM     71  C   UNL A   1      41.586  35.747  39.681  1.00  0.00     0.198 A 
ATOM     72  F   UNL A   1      42.277  35.302  37.477  1.00  0.00    -0.203 F 
ATOM     73  F   UNL A   1      39.216  34.021  41.810  1.00  0.00    -0.200 F 
ATOM     74  C   UNL A   1      40.809  35.431  40.784  1.00  0.00     0.200 A 
ATOM     75  F   UNL A   1      42.387  36.821  39.712  1.00  0.00    -0.200 F 
ATOM     76  F   UNL A   1      40.841  36.211  41.874  1.00  0.00    -0.200 F 
ENDBRANCH  52  66
BRANCH  53  77
ATOM     77  C   UNL A   1      40.251  28.551  30.002  1.00  0.00     0.064 A 
ATOM     78  C   UNL A   1      39.544  27.344  29.913  1.00  0.00     0.173 A 
ATOM     79  C   UNL A   1      40.912  29.004  28.851  1.00  0.00     0.173 A 
ATOM     80  F   UNL A   1      38.912  26.857  30.992  1.00  0.00    -0.203 F 
ATOM     81  C   UNL A   1      39.518  26.608  28.730  1.00  0.00     0.198 A 
ATOM     82  C   UNL A   1      40.860  28.284  27.660  1.00  0.00     0.198 A 
ATOM     83  F   UNL A   1      41.599  30.156  28.880  1.00  0.00    -0.203 F 
ATOM     84  F   UNL A   1      38.874  25.434  28.688  1.00  0.00    -0.200 F 
ATOM     85  C   UNL A   1      40.171  27.082  27.603  1.00  0.00     0.200 A 
ATOM     86  F   UNL A   1      41.479  28.753  26.567  1.00  0.00    -0.200 F 
ATOM     87  F   UNL A   1      40.141  26.378  26.462  1.00  0.00    -0.200 F 
ENDBRANCH  53  77
BRANCH  65  88
ATOM     88  C   UNL A   1      44.591  28.534  35.461  1.00  0.00     0.064 A 
ATOM     89  C   UNL A   1      44.493  27.306  36.131  1.00  0.00     0.173 A 
ATOM     90  C   UNL A   1      45.867  28.962  35.059  1.00  0.00     0.173 A 
ATOM     91  F   UNL A   1      43.299  26.860  36.549  1.00  0.00    -0.203 F 
ATOM     92  C   UNL A   1      45.628  26.550  36.408  1.00  0.00     0.198 A 
ATOM     93  C   UNL A   1      46.996  28.186  35.308  1.00  0.00     0.198 A 
ATOM     94  F   UNL A   1      46.017  30.125  34.408  1.00  0.00    -0.203 F 
ATOM     95  F   UNL A   1      45.515  25.402  37.094  1.00  0.00    -0.200 F 
ATOM     96  C   UNL A   1      46.876  26.985  35.989  1.00  0.00     0.200 A 
ATOM     97  F   UNL A   1      48.198  28.602  34.887  1.00  0.00    -0.200 F 
ATOM     98  F   UNL A   1      47.966  26.250  36.248  1.00  0.00    -0.200 F 
ENDBRANCH  65  88
ENDBRANCH  39  40
ENDBRANCH  31  34
ENDBRANCH  29  30
ENDBRANCH  28  29
ENDBRANCH  27  28
ENDBRANCH  26  27
ENDBRANCH   1  26
TORSDOF 18
ENDMDL
