MODEL 1
REMARK VINA RESULT:     -12.3      0.000      0.000
REMARK SMILES CC1(C)C(NC(=O)[C@@H]2CCC[C@@H](C(=O)NCCCCCCNC(=O)c3ccc(-c4c5nc(c(-c6c(F)c(F)c(F)c(F)c6F)c6ccc([nH]6)c(-c6c(F)c(F)c(F)c(F)c6F)c6nc(c(-c7c(F)c(F)c(F)c(F)c7F)c7ccc4[nH]7)C=C6)C=C5)cc3)C2)C1(C)C
REMARK SMILES IDX 18 1 17 2 16 3 15 4 13 5 14 6 12 8 8 9 9 10 88 11 10 12
REMARK SMILES IDX 11 13 6 14 5 15 7 17 4 18 1 19 2 20 3 21 89 22 90 23 91 24
REMARK SMILES IDX 19 25 20 26 21 27 22 28 23 29 24 31 25 32 26 33 87 34 27 35
REMARK SMILES IDX 86 36 28 37 29 38 30 39 80 40 31 41 85 42 79 43 81 44 32 45
REMARK SMILES IDX 84 46 78 47 77 48 33 50 65 51 45 52 64 53 46 54 49 55 63 56
REMARK SMILES IDX 82 57 47 58 48 59 62 61 83 62 50 63 34 64 35 65 43 66 36 67
REMARK SMILES IDX 37 68 41 69 44 70 38 71 39 72 42 73 40 74 66 75 67 76 75 77
REMARK SMILES IDX 68 78 69 79 73 80 76 81 70 82 71 83 74 84 72 85 51 86 52 87
REMARK SMILES IDX 60 88 53 89 54 90 58 91 61 92 55 93 56 94 59 95 57 96
REMARK H PARENT 15 7 5 16 22 30 81 49 49 60
REMARK Flexibility Score: inf
ROOT
ATOM      1  C   UNL A   1      37.613  21.999  24.723  1.00  0.00     0.002 C 
ENDROOT
BRANCH   1   2
ATOM      2  C   UNL A   1      37.515  22.907  25.955  1.00  0.00     0.021 C 
BRANCH   2   3
ATOM      3  C   UNL A   1      36.225  23.722  26.030  1.00  0.00     0.116 C 
BRANCH   3   4
ATOM      4  N   UNL A   1      35.771  24.082  24.703  1.00  0.00    -0.356 N 
ATOM      5  C   UNL A   1      34.805  23.539  23.920  1.00  0.00     0.223 C 
ATOM      6  O   UNL A   1      34.734  23.929  22.754  1.00  0.00    -0.275 OA
ATOM      7  H   UNL A   1      36.241  24.847  24.302  1.00  0.00     0.163 HD
BRANCH   5   8
ATOM      8  C   UNL A   1      33.837  22.510  24.496  1.00  0.00     0.079 C 
ATOM      9  C   UNL A   1      31.901  24.040  25.174  1.00  0.00     0.079 C 
ATOM     10  C   UNL A   1      30.997  23.235  24.235  1.00  0.00     0.013 C 
ATOM     11  C   UNL A   1      33.045  23.139  25.655  1.00  0.00     0.027 C 
ATOM     12  C   UNL A   1      31.775  22.793  23.002  1.00  0.00     0.002 C 
ATOM     13  C   UNL A   1      32.958  21.914  23.390  1.00  0.00     0.013 C 
BRANCH   9  14
ATOM     14  C   UNL A   1      31.124  24.659  26.336  1.00  0.00     0.223 C 
ATOM     15  N   UNL A   1      30.991  26.029  26.362  1.00  0.00    -0.352 N 
ATOM     16  H   UNL A   1      30.530  26.409  27.144  1.00  0.00     0.163 HD
ATOM     17  O   UNL A   1      30.644  23.987  27.248  1.00  0.00    -0.275 OA
BRANCH  15  18
ATOM     18  C   UNL A   1      31.448  26.959  25.378  1.00  0.00     0.094 C 
ATOM     19  C   UNL A   1      31.203  29.478  24.876  1.00  0.00     0.014 C 
ATOM     20  C   UNL A   1      31.781  28.392  25.760  1.00  0.00    -0.007 C 
ATOM     21  C   UNL A   1      31.774  28.806  27.217  1.00  0.00     0.014 C 
ATOM     22  C   UNL A   1      32.875  27.437  25.234  1.00  0.00    -0.007 C 
ATOM     23  C   UNL A   1      33.379  27.571  23.811  1.00  0.00     0.014 C 
ATOM     24  C   UNL A   1      33.938  26.878  26.152  1.00  0.00     0.014 C 
ENDBRANCH  15  18
ENDBRANCH   9  14
ENDBRANCH   5   8
ENDBRANCH   3   4
ENDBRANCH   2   3
ENDBRANCH   1   2
BRANCH   1  25
ATOM     25  C   UNL A   1      37.245  20.532  24.972  1.00  0.00     0.002 C 
BRANCH  25  26
ATOM     26  C   UNL A   1      38.427  19.563  24.960  1.00  0.00     0.021 C 
BRANCH  26  27
ATOM     27  C   UNL A   1      39.468  19.829  26.040  1.00  0.00     0.116 C 
BRANCH  27  28
ATOM     28  N   UNL A   1      40.596  18.917  25.950  1.00  0.00    -0.352 N 
ATOM     29  C   UNL A   1      41.938  19.196  25.988  1.00  0.00     0.251 C 
ATOM     30  H   UNL A   1      40.364  17.966  25.847  1.00  0.00     0.163 HD
ATOM     31  O   UNL A   1      42.762  18.331  25.701  1.00  0.00    -0.269 OA
BRANCH  29  32
ATOM     32  C   UNL A   1      42.391  20.553  26.356  1.00  0.00     0.039 A 
ATOM     33  C   UNL A   1      42.826  21.418  25.348  1.00  0.00     0.014 A 
ATOM     34  C   UNL A   1      42.381  20.972  27.689  1.00  0.00     0.014 A 
ATOM     35  C   UNL A   1      43.199  22.723  25.674  1.00  0.00     0.010 A 
ATOM     36  C   UNL A   1      42.673  22.295  28.000  1.00  0.00     0.010 A 
ATOM     37  C   UNL A   1      43.094  23.182  26.997  1.00  0.00    -0.014 A 
BRANCH  37  38
ATOM     38  C   UNL A   1      43.429  24.583  27.356  1.00  0.00     0.031 A 
ATOM     39  C   UNL A   1      44.864  25.026  27.401  1.00  0.00     0.074 A 
ATOM     40  C   UNL A   1      42.447  25.436  27.703  1.00  0.00     0.049 A 
ATOM     41  N   UNL A   1      45.364  26.185  27.751  1.00  0.00    -0.248 NA
ATOM     42  C   UNL A   1      45.875  24.024  27.032  1.00  0.00     0.031 C 
ATOM     43  C   UNL A   1      41.021  25.113  27.739  1.00  0.00     0.029 A 
ATOM     44  N   UNL A   1      42.501  26.749  28.100  1.00  0.00    -0.354 N 
ATOM     45  C   UNL A   1      46.743  26.045  27.659  1.00  0.00     0.074 A 
ATOM     46  C   UNL A   1      47.002  24.672  27.282  1.00  0.00     0.031 C 
ATOM     47  C   UNL A   1      40.332  26.205  28.106  1.00  0.00     0.029 A 
ATOM     48  C   UNL A   1      41.270  27.291  28.375  1.00  0.00     0.049 A 
ATOM     49  H   UNL A   1      43.343  27.254  28.180  1.00  0.00     0.167 HD
ATOM     50  C   UNL A   1      47.703  26.981  27.847  1.00  0.00     0.037 A 
ATOM     51  C   UNL A   1      40.936  28.523  28.803  1.00  0.00     0.037 A 
ATOM     52  C   UNL A   1      47.435  28.349  28.210  1.00  0.00     0.049 A 
ATOM     53  C   UNL A   1      42.022  29.540  29.033  1.00  0.00     0.074 A 
ATOM     54  C   UNL A   1      48.331  29.391  28.366  1.00  0.00     0.029 A 
ATOM     55  N   UNL A   1      46.174  28.861  28.482  1.00  0.00    -0.354 N 
ATOM     56  N   UNL A   1      43.318  29.418  28.872  1.00  0.00    -0.248 NA
ATOM     57  C   UNL A   1      41.597  30.866  29.498  1.00  0.00     0.031 C 
ATOM     58  C   UNL A   1      47.621  30.518  28.795  1.00  0.00     0.029 A 
ATOM     59  C   UNL A   1      46.274  30.198  28.839  1.00  0.00     0.049 A 
ATOM     60  H   UNL A   1      45.334  28.352  28.429  1.00  0.00     0.167 HD
ATOM     61  C   UNL A   1      43.860  30.658  29.186  1.00  0.00     0.074 A 
ATOM     62  C   UNL A   1      42.749  31.521  29.533  1.00  0.00     0.031 C 
ATOM     63  C   UNL A   1      45.158  31.047  29.181  1.00  0.00     0.037 A 
BRANCH  50  64
ATOM     64  C   UNL A   1      49.133  26.548  27.679  1.00  0.00     0.064 A 
ATOM     65  C   UNL A   1      49.952  26.252  28.781  1.00  0.00     0.173 A 
ATOM     66  C   UNL A   1      49.691  26.417  26.399  1.00  0.00     0.173 A 
ATOM     67  F   UNL A   1      49.473  26.368  30.030  1.00  0.00    -0.203 F 
ATOM     68  C   UNL A   1      51.285  25.889  28.608  1.00  0.00     0.198 A 
ATOM     69  C   UNL A   1      51.013  26.018  26.228  1.00  0.00     0.198 A 
ATOM     70  F   UNL A   1      48.953  26.679  25.309  1.00  0.00    -0.203 F 
ATOM     71  F   UNL A   1      52.066  25.681  29.678  1.00  0.00    -0.200 F 
ATOM     72  C   UNL A   1      51.814  25.766  27.333  1.00  0.00     0.200 A 
ATOM     73  F   UNL A   1      51.517  25.884  24.994  1.00  0.00    -0.200 F 
ATOM     74  F   UNL A   1      53.096  25.417  27.168  1.00  0.00    -0.200 F 
ENDBRANCH  50  64
BRANCH  51  75
ATOM     75  C   UNL A   1      39.506  28.871  29.010  1.00  0.00     0.064 A 
ATOM     76  C   UNL A   1      38.911  28.740  30.273  1.00  0.00     0.173 A 
ATOM     77  C   UNL A   1      38.710  29.353  27.961  1.00  0.00     0.173 A 
ATOM     78  F   UNL A   1      39.628  28.266  31.303  1.00  0.00    -0.203 F 
ATOM     79  C   UNL A   1      37.572  29.064  30.476  1.00  0.00     0.198 A 
ATOM     80  C   UNL A   1      37.378  29.703  28.172  1.00  0.00     0.198 A 
ATOM     81  F   UNL A   1      39.231  29.502  26.735  1.00  0.00    -0.203 F 
ATOM     82  F   UNL A   1      37.019  28.890  31.683  1.00  0.00    -0.200 F 
ATOM     83  C   UNL A   1      36.807  29.552  29.427  1.00  0.00     0.200 A 
ATOM     84  F   UNL A   1      36.648  30.190  27.159  1.00  0.00    -0.200 F 
ATOM     85  F   UNL A   1      35.521  29.871  29.624  1.00  0.00    -0.200 F 
ENDBRANCH  51  75
BRANCH  63  86
ATOM     86  C   UNL A   1      45.453  32.480  29.526  1.00  0.00     0.064 A 
ATOM     87  C   UNL A   1      45.443  33.494  28.557  1.00  0.00     0.173 A 
ATOM     88  C   UNL A   1      45.710  32.849  30.856  1.00  0.00     0.173 A 
ATOM     89  F   UNL A   1      45.217  33.193  27.268  1.00  0.00    -0.203 F 
ATOM     90  C   UNL A   1      45.706  34.817  28.900  1.00  0.00     0.198 A 
ATOM     91  C   UNL A   1      45.938  34.177  31.202  1.00  0.00     0.198 A 
ATOM     92  F   UNL A   1      45.726  31.920  31.825  1.00  0.00    -0.203 F 
ATOM     93  F   UNL A   1      45.744  35.760  27.949  1.00  0.00    -0.200 F 
ATOM     94  C   UNL A   1      45.945  35.159  30.224  1.00  0.00     0.200 A 
ATOM     95  F   UNL A   1      46.151  34.507  32.483  1.00  0.00    -0.200 F 
ATOM     96  F   UNL A   1      46.188  36.435  30.554  1.00  0.00    -0.200 F 
ENDBRANCH  63  86
ENDBRANCH  37  38
ENDBRANCH  29  32
ENDBRANCH  27  28
ENDBRANCH  26  27
ENDBRANCH  25  26
ENDBRANCH   1  25
TORSDOF 15
ENDMDL
MODEL 2
REMARK VINA RESULT:     -12.3      6.001     11.301
REMARK SMILES CC1(C)C(NC(=O)[C@@H]2CCC[C@@H](C(=O)NCCCCCCNC(=O)c3ccc(-c4c5nc(c(-c6c(F)c(F)c(F)c(F)c6F)c6ccc([nH]6)c(-c6c(F)c(F)c(F)c(F)c6F)c6nc(c(-c7c(F)c(F)c(F)c(F)c7F)c7ccc4[nH]7)C=C6)C=C5)cc3)C2)C1(C)C
REMARK SMILES IDX 18 1 17 2 16 3 15 4 13 5 14 6 12 8 8 9 9 10 88 11 10 12
REMARK SMILES IDX 11 13 6 14 5 15 7 17 4 18 1 19 2 20 3 21 89 22 90 23 91 24
REMARK SMILES IDX 19 25 20 26 21 27 22 28 23 29 24 31 25 32 26 33 87 34 27 35
REMARK SMILES IDX 86 36 28 37 29 38 30 39 80 40 31 41 85 42 79 43 81 44 32 45
REMARK SMILES IDX 84 46 78 47 77 48 33 50 65 51 45 52 64 53 46 54 49 55 63 56
REMARK SMILES IDX 82 57 47 58 48 59 62 61 83 62 50 63 34 64 35 65 43 66 36 67
REMARK SMILES IDX 37 68 41 69 44 70 38 71 39 72 42 73 40 74 66 75 67 76 75 77
REMARK SMILES IDX 68 78 69 79 73 80 76 81 70 82 71 83 74 84 72 85 51 86 52 87
REMARK SMILES IDX 60 88 53 89 54 90 58 91 61 92 55 93 56 94 59 95 57 96
REMARK H PARENT 15 7 5 16 22 30 81 49 49 60
REMARK Flexibility Score: inf
ROOT
ATOM      1  C   UNL A   1      34.451  32.353  29.280  1.00  0.00     0.002 C 
ENDROOT
BRANCH   1   2
ATOM      2  C   UNL A   1      34.716  31.526  28.015  1.00  0.00     0.021 C 
BRANCH   2   3
ATOM      3  C   UNL A   1      33.452  31.002  27.334  1.00  0.00     0.116 C 
BRANCH   3   4
ATOM      4  N   UNL A   1      33.397  29.557  27.407  1.00  0.00    -0.356 N 
ATOM      5  C   UNL A   1      33.107  28.632  26.456  1.00  0.00     0.223 C 
ATOM      6  O   UNL A   1      32.961  27.466  26.824  1.00  0.00    -0.275 OA
ATOM      7  H   UNL A   1      33.604  29.182  28.293  1.00  0.00     0.163 HD
BRANCH   5   8
ATOM      8  C   UNL A   1      33.004  29.045  24.990  1.00  0.00     0.079 C 
ATOM      9  C   UNL A   1      32.905  26.742  23.879  1.00  0.00     0.079 C 
ATOM     10  C   UNL A   1      31.545  27.136  23.292  1.00  0.00     0.013 C 
ATOM     11  C   UNL A   1      33.731  28.013  24.112  1.00  0.00     0.027 C 
ATOM     12  C   UNL A   1      30.774  28.002  24.280  1.00  0.00     0.002 C 
ATOM     13  C   UNL A   1      31.541  29.281  24.596  1.00  0.00     0.013 C 
BRANCH   9  14
ATOM     14  C   UNL A   1      33.639  25.725  23.006  1.00  0.00     0.223 C 
ATOM     15  N   UNL A   1      34.099  24.574  23.606  1.00  0.00    -0.352 N 
ATOM     16  H   UNL A   1      34.611  23.957  23.036  1.00  0.00     0.163 HD
ATOM     17  O   UNL A   1      33.854  25.909  21.808  1.00  0.00    -0.275 OA
BRANCH  15  18
ATOM     18  C   UNL A   1      33.911  24.178  24.967  1.00  0.00     0.094 C 
ATOM     19  C   UNL A   1      31.976  24.064  26.670  1.00  0.00     0.014 C 
ATOM     20  C   UNL A   1      32.617  23.517  25.412  1.00  0.00    -0.007 C 
ATOM     21  C   UNL A   1      31.572  23.135  24.383  1.00  0.00     0.014 C 
ATOM     22  C   UNL A   1      33.958  22.753  25.469  1.00  0.00    -0.007 C 
ATOM     23  C   UNL A   1      34.660  22.550  26.797  1.00  0.00     0.014 C 
ATOM     24  C   UNL A   1      34.269  21.637  24.498  1.00  0.00     0.014 C 
ENDBRANCH  15  18
ENDBRANCH   9  14
ENDBRANCH   5   8
ENDBRANCH   3   4
ENDBRANCH   2   3
ENDBRANCH   1   2
BRANCH   1  25
ATOM     25  C   UNL A   1      34.635  33.865  29.114  1.00  0.00     0.002 C 
BRANCH  25  26
ATOM     26  C   UNL A   1      33.335  34.667  29.044  1.00  0.00     0.021 C 
BRANCH  26  27
ATOM     27  C   UNL A   1      33.429  36.066  29.638  1.00  0.00     0.116 C 
BRANCH  27  28
ATOM     28  N   UNL A   1      32.500  36.257  30.739  1.00  0.00    -0.352 N 
ATOM     29  C   UNL A   1      32.548  35.740  32.009  1.00  0.00     0.251 C 
ATOM     30  H   UNL A   1      31.729  36.837  30.548  1.00  0.00     0.163 HD
ATOM     31  O   UNL A   1      31.581  35.842  32.759  1.00  0.00    -0.269 OA
BRANCH  29  32
ATOM     32  C   UNL A   1      33.766  35.040  32.467  1.00  0.00     0.039 A 
ATOM     33  C   UNL A   1      33.656  33.728  32.936  1.00  0.00     0.014 A 
ATOM     34  C   UNL A   1      35.011  35.673  32.428  1.00  0.00     0.014 A 
ATOM     35  C   UNL A   1      34.806  33.034  33.314  1.00  0.00     0.010 A 
ATOM     36  C   UNL A   1      36.162  34.953  32.726  1.00  0.00     0.010 A 
ATOM     37  C   UNL A   1      36.071  33.629  33.181  1.00  0.00    -0.014 A 
BRANCH  37  38
ATOM     38  C   UNL A   1      37.311  32.887  33.522  1.00  0.00     0.031 A 
ATOM     39  C   UNL A   1      38.045  33.193  34.796  1.00  0.00     0.074 A 
ATOM     40  C   UNL A   1      37.809  31.985  32.654  1.00  0.00     0.049 A 
ATOM     41  N   UNL A   1      39.175  32.702  35.241  1.00  0.00    -0.248 NA
ATOM     42  C   UNL A   1      37.446  34.209  35.674  1.00  0.00     0.031 C 
ATOM     43  C   UNL A   1      37.211  31.633  31.367  1.00  0.00     0.029 A 
ATOM     44  N   UNL A   1      38.939  31.209  32.722  1.00  0.00    -0.354 N 
ATOM     45  C   UNL A   1      39.426  33.359  36.439  1.00  0.00     0.074 A 
ATOM     46  C   UNL A   1      38.366  34.327  36.619  1.00  0.00     0.031 C 
ATOM     47  C   UNL A   1      37.961  30.687  30.779  1.00  0.00     0.029 A 
ATOM     48  C   UNL A   1      39.116  30.401  31.625  1.00  0.00     0.049 A 
ATOM     49  H   UNL A   1      39.562  31.229  33.483  1.00  0.00     0.167 HD
ATOM     50  C   UNL A   1      40.435  33.156  37.320  1.00  0.00     0.037 A 
ATOM     51  C   UNL A   1      40.102  29.532  31.334  1.00  0.00     0.037 A 
ATOM     52  C   UNL A   1      41.480  32.181  37.139  1.00  0.00     0.049 A 
ATOM     53  C   UNL A   1      41.228  29.343  32.314  1.00  0.00     0.074 A 
ATOM     54  C   UNL A   1      42.513  31.855  37.999  1.00  0.00     0.029 A 
ATOM     55  N   UNL A   1      41.627  31.381  36.015  1.00  0.00    -0.354 N 
ATOM     56  N   UNL A   1      41.418  29.916  33.478  1.00  0.00    -0.248 NA
ATOM     57  C   UNL A   1      42.274  28.382  31.942  1.00  0.00     0.031 C 
ATOM     58  C   UNL A   1      43.323  30.904  37.368  1.00  0.00     0.029 A 
ATOM     59  C   UNL A   1      42.756  30.586  36.144  1.00  0.00     0.049 A 
ATOM     60  H   UNL A   1      41.020  31.379  35.240  1.00  0.00     0.167 HD
ATOM     61  C   UNL A   1      42.585  29.364  33.991  1.00  0.00     0.074 A 
ATOM     62  C   UNL A   1      43.052  28.401  33.015  1.00  0.00     0.031 C 
ATOM     63  C   UNL A   1      43.209  29.628  35.165  1.00  0.00     0.037 A 
BRANCH  50  64
ATOM     64  C   UNL A   1      40.462  34.019  38.550  1.00  0.00     0.064 A 
ATOM     65  C   UNL A   1      39.785  33.656  39.726  1.00  0.00     0.173 A 
ATOM     66  C   UNL A   1      41.182  35.224  38.558  1.00  0.00     0.173 A 
ATOM     67  F   UNL A   1      39.073  32.519  39.772  1.00  0.00    -0.203 F 
ATOM     68  C   UNL A   1      39.789  34.487  40.843  1.00  0.00     0.198 A 
ATOM     69  C   UNL A   1      41.215  36.034  39.690  1.00  0.00     0.198 A 
ATOM     70  F   UNL A   1      41.854  35.618  37.466  1.00  0.00    -0.203 F 
ATOM     71  F   UNL A   1      39.076  34.152  41.928  1.00  0.00    -0.200 F 
ATOM     72  C   UNL A   1      40.508  35.672  40.828  1.00  0.00     0.200 A 
ATOM     73  F   UNL A   1      41.924  37.170  39.678  1.00  0.00    -0.200 F 
ATOM     74  F   UNL A   1      40.511  36.470  41.903  1.00  0.00    -0.200 F 
ENDBRANCH  50  64
BRANCH  51  75
ATOM     75  C   UNL A   1      40.049  28.752  30.070  1.00  0.00     0.064 A 
ATOM     76  C   UNL A   1      40.601  29.265  28.886  1.00  0.00     0.173 A 
ATOM     77  C   UNL A   1      39.464  27.479  30.018  1.00  0.00     0.173 A 
ATOM     78  F   UNL A   1      41.155  30.486  28.881  1.00  0.00    -0.203 F 
ATOM     79  C   UNL A   1      40.555  28.541  27.697  1.00  0.00     0.198 A 
ATOM     80  C   UNL A   1      39.445  26.743  28.835  1.00  0.00     0.198 A 
ATOM     81  F   UNL A   1      38.928  26.940  31.123  1.00  0.00    -0.203 F 
ATOM     82  F   UNL A   1      41.052  29.072  26.573  1.00  0.00    -0.200 F 
ATOM     83  C   UNL A   1      39.984  27.277  27.674  1.00  0.00     0.200 A 
ATOM     84  F   UNL A   1      38.907  25.516  28.820  1.00  0.00    -0.200 F 
ATOM     85  F   UNL A   1      39.948  26.577  26.532  1.00  0.00    -0.200 F 
ENDBRANCH  51  75
BRANCH  63  86
ATOM     86  C   UNL A   1      44.447  28.838  35.483  1.00  0.00     0.064 A 
ATOM     87  C   UNL A   1      45.726  29.285  35.121  1.00  0.00     0.173 A 
ATOM     88  C   UNL A   1      44.353  27.632  36.197  1.00  0.00     0.173 A 
ATOM     89  F   UNL A   1      45.870  30.423  34.424  1.00  0.00    -0.203 F 
ATOM     90  C   UNL A   1      46.862  28.543  35.436  1.00  0.00     0.198 A 
ATOM     91  C   UNL A   1      45.493  26.910  36.542  1.00  0.00     0.198 A 
ATOM     92  F   UNL A   1      43.155  27.161  36.574  1.00  0.00    -0.203 F 
ATOM     93  F   UNL A   1      48.068  28.964  35.033  1.00  0.00    -0.200 F 
ATOM     94  C   UNL A   1      46.744  27.361  36.153  1.00  0.00     0.200 A 
ATOM     95  F   UNL A   1      45.378  25.779  37.250  1.00  0.00    -0.200 F 
ATOM     96  F   UNL A   1      47.839  26.654  36.465  1.00  0.00    -0.200 F 
ENDBRANCH  63  86
ENDBRANCH  37  38
ENDBRANCH  29  32
ENDBRANCH  27  28
ENDBRANCH  26  27
ENDBRANCH  25  26
ENDBRANCH   1  25
TORSDOF 15
ENDMDL
MODEL 3
REMARK VINA RESULT:     -12.2      0.876      7.246
REMARK SMILES CC1(C)C(NC(=O)[C@@H]2CCC[C@@H](C(=O)NCCCCCCNC(=O)c3ccc(-c4c5nc(c(-c6c(F)c(F)c(F)c(F)c6F)c6ccc([nH]6)c(-c6c(F)c(F)c(F)c(F)c6F)c6nc(c(-c7c(F)c(F)c(F)c(F)c7F)c7ccc4[nH]7)C=C6)C=C5)cc3)C2)C1(C)C
REMARK SMILES IDX 18 1 17 2 16 3 15 4 13 5 14 6 12 8 8 9 9 10 88 11 10 12
REMARK SMILES IDX 11 13 6 14 5 15 7 17 4 18 1 19 2 20 3 21 89 22 90 23 91 24
REMARK SMILES IDX 19 25 20 26 21 27 22 28 23 29 24 31 25 32 26 33 87 34 27 35
REMARK SMILES IDX 86 36 28 37 29 38 30 39 80 40 31 41 85 42 79 43 81 44 32 45
REMARK SMILES IDX 84 46 78 47 77 48 33 50 65 51 45 52 64 53 46 54 49 55 63 56
REMARK SMILES IDX 82 57 47 58 48 59 62 61 83 62 50 63 34 64 35 65 43 66 36 67
REMARK SMILES IDX 37 68 41 69 44 70 38 71 39 72 42 73 40 74 66 75 67 76 75 77
REMARK SMILES IDX 68 78 69 79 73 80 76 81 70 82 71 83 74 84 72 85 51 86 52 87
REMARK SMILES IDX 60 88 53 89 54 90 58 91 61 92 55 93 56 94 59 95 57 96
REMARK H PARENT 15 7 5 16 22 30 81 49 49 60
REMARK Flexibility Score: inf
ROOT
ATOM      1  C   UNL A   1      38.612  22.354  25.925  1.00  0.00     0.002 C 
ENDROOT
BRANCH   1   2
ATOM      2  C   UNL A   1      37.891  23.708  25.952  1.00  0.00     0.021 C 
BRANCH   2   3
ATOM      3  C   UNL A   1      36.367  23.605  25.946  1.00  0.00     0.116 C 
BRANCH   3   4
ATOM      4  N   UNL A   1      35.835  23.996  24.657  1.00  0.00    -0.356 N 
ATOM      5  C   UNL A   1      34.819  23.476  23.923  1.00  0.00     0.223 C 
ATOM      6  O   UNL A   1      34.679  23.892  22.772  1.00  0.00    -0.275 OA
ATOM      7  H   UNL A   1      36.284  24.769  24.245  1.00  0.00     0.163 HD
BRANCH   5   8
ATOM      8  C   UNL A   1      33.882  22.439  24.535  1.00  0.00     0.079 C 
ATOM      9  C   UNL A   1      31.912  23.937  25.184  1.00  0.00     0.079 C 
ATOM     10  C   UNL A   1      31.023  23.082  24.275  1.00  0.00     0.013 C 
ATOM     11  C   UNL A   1      33.082  23.079  25.682  1.00  0.00     0.027 C 
ATOM     12  C   UNL A   1      31.804  22.627  23.048  1.00  0.00     0.002 C 
ATOM     13  C   UNL A   1      33.012  21.790  23.452  1.00  0.00     0.013 C 
BRANCH   9  14
ATOM     14  C   UNL A   1      31.127  24.568  26.333  1.00  0.00     0.223 C 
ATOM     15  N   UNL A   1      30.989  25.938  26.343  1.00  0.00    -0.352 N 
ATOM     16  H   UNL A   1      30.523  26.327  27.117  1.00  0.00     0.163 HD
ATOM     17  O   UNL A   1      30.642  23.906  27.251  1.00  0.00    -0.275 OA
BRANCH  15  18
ATOM     18  C   UNL A   1      31.450  26.857  25.349  1.00  0.00     0.094 C 
ATOM     19  C   UNL A   1      31.212  29.372  24.822  1.00  0.00     0.014 C 
ATOM     20  C   UNL A   1      31.786  28.293  25.717  1.00  0.00    -0.007 C 
ATOM     21  C   UNL A   1      31.778  28.722  27.170  1.00  0.00     0.014 C 
ATOM     22  C   UNL A   1      32.879  27.331  25.203  1.00  0.00    -0.007 C 
ATOM     23  C   UNL A   1      33.385  27.449  23.779  1.00  0.00     0.014 C 
ATOM     24  C   UNL A   1      33.939  26.779  26.128  1.00  0.00     0.014 C 
ENDBRANCH  15  18
ENDBRANCH   9  14
ENDBRANCH   5   8
ENDBRANCH   3   4
ENDBRANCH   2   3
ENDBRANCH   1   2
BRANCH   1  25
ATOM     25  C   UNL A   1      37.985  21.306  24.999  1.00  0.00     0.002 C 
BRANCH  25  26
ATOM     26  C   UNL A   1      38.630  19.922  25.065  1.00  0.00     0.021 C 
BRANCH  26  27
ATOM     27  C   UNL A   1      39.388  19.645  26.357  1.00  0.00     0.116 C 
BRANCH  27  28
ATOM     28  N   UNL A   1      40.597  18.871  26.126  1.00  0.00    -0.352 N 
ATOM     29  C   UNL A   1      41.890  19.308  25.994  1.00  0.00     0.251 C 
ATOM     30  H   UNL A   1      40.470  17.898  26.054  1.00  0.00     0.163 HD
ATOM     31  O   UNL A   1      42.769  18.542  25.607  1.00  0.00    -0.269 OA
BRANCH  29  32
ATOM     32  C   UNL A   1      42.221  20.715  26.301  1.00  0.00     0.039 A 
ATOM     33  C   UNL A   1      42.518  21.068  27.619  1.00  0.00     0.014 A 
ATOM     34  C   UNL A   1      42.242  21.679  25.290  1.00  0.00     0.014 A 
ATOM     35  C   UNL A   1      42.891  22.381  27.913  1.00  0.00     0.010 A 
ATOM     36  C   UNL A   1      42.694  22.964  25.570  1.00  0.00     0.010 A 
ATOM     37  C   UNL A   1      43.015  23.330  26.886  1.00  0.00    -0.014 A 
BRANCH  37  38
ATOM     38  C   UNL A   1      43.467  24.716  27.168  1.00  0.00     0.031 A 
ATOM     39  C   UNL A   1      42.504  25.724  27.728  1.00  0.00     0.074 A 
ATOM     40  C   UNL A   1      44.726  25.083  26.859  1.00  0.00     0.049 A 
ATOM     41  N   UNL A   1      42.688  26.995  27.983  1.00  0.00    -0.248 NA
ATOM     42  C   UNL A   1      41.143  25.247  28.013  1.00  0.00     0.031 C 
ATOM     43  C   UNL A   1      45.740  24.208  26.272  1.00  0.00     0.029 A 
ATOM     44  N   UNL A   1      45.362  26.292  26.989  1.00  0.00    -0.354 N 
ATOM     45  C   UNL A   1      41.466  27.469  28.442  1.00  0.00     0.074 A 
ATOM     46  C   UNL A   1      40.532  26.366  28.370  1.00  0.00     0.031 C 
ATOM     47  C   UNL A   1      46.881  24.899  26.120  1.00  0.00     0.029 A 
ATOM     48  C   UNL A   1      46.666  26.275  26.556  1.00  0.00     0.049 A 
ATOM     49  H   UNL A   1      44.926  27.094  27.357  1.00  0.00     0.167 HD
ATOM     50  C   UNL A   1      41.156  28.705  28.903  1.00  0.00     0.037 A 
ATOM     51  C   UNL A   1      47.580  27.262  26.510  1.00  0.00     0.037 A 
ATOM     52  C   UNL A   1      42.095  29.794  28.983  1.00  0.00     0.049 A 
ATOM     53  C   UNL A   1      47.207  28.635  27.003  1.00  0.00     0.074 A 
ATOM     54  C   UNL A   1      41.898  31.065  29.491  1.00  0.00     0.029 A 
ATOM     55  N   UNL A   1      43.407  29.740  28.534  1.00  0.00    -0.354 N 
ATOM     56  N   UNL A   1      46.069  29.054  27.502  1.00  0.00    -0.248 NA
ATOM     57  C   UNL A   1      48.246  29.669  26.929  1.00  0.00     0.031 C 
ATOM     58  C   UNL A   1      43.071  31.802  29.290  1.00  0.00     0.029 A 
ATOM     59  C   UNL A   1      44.021  30.969  28.721  1.00  0.00     0.049 A 
ATOM     60  H   UNL A   1      43.837  28.947  28.140  1.00  0.00     0.167 HD
ATOM     61  C   UNL A   1      46.265  30.389  27.831  1.00  0.00     0.074 A 
ATOM     62  C   UNL A   1      47.635  30.705  27.485  1.00  0.00     0.031 C 
ATOM     63  C   UNL A   1      45.389  31.270  28.374  1.00  0.00     0.037 A 
BRANCH  50  64
ATOM     64  C   UNL A   1      39.738  28.943  29.341  1.00  0.00     0.064 A 
ATOM     65  C   UNL A   1      38.759  29.422  28.455  1.00  0.00     0.173 A 
ATOM     66  C   UNL A   1      39.347  28.680  30.663  1.00  0.00     0.173 A 
ATOM     67  F   UNL A   1      39.078  29.699  27.180  1.00  0.00    -0.203 F 
ATOM     68  C   UNL A   1      37.460  29.673  28.887  1.00  0.00     0.198 A 
ATOM     69  C   UNL A   1      38.038  28.897  31.082  1.00  0.00     0.198 A 
ATOM     70  F   UNL A   1      40.237  28.214  31.552  1.00  0.00    -0.203 F 
ATOM     71  F   UNL A   1      36.563  30.198  28.039  1.00  0.00    -0.200 F 
ATOM     72  C   UNL A   1      37.097  29.405  30.198  1.00  0.00     0.200 A 
ATOM     73  F   UNL A   1      37.686  28.622  32.345  1.00  0.00    -0.200 F 
ATOM     74  F   UNL A   1      35.847  29.648  30.612  1.00  0.00    -0.200 F 
ENDBRANCH  50  64
BRANCH  51  75
ATOM     75  C   UNL A   1      48.950  26.976  26.008  1.00  0.00     0.064 A 
ATOM     76  C   UNL A   1      49.966  26.572  26.886  1.00  0.00     0.173 A 
ATOM     77  C   UNL A   1      49.270  27.087  24.648  1.00  0.00     0.173 A 
ATOM     78  F   UNL A   1      49.713  26.470  28.200  1.00  0.00    -0.203 F 
ATOM     79  C   UNL A   1      51.253  26.303  26.425  1.00  0.00     0.198 A 
ATOM     80  C   UNL A   1      50.550  26.790  24.183  1.00  0.00     0.198 A 
ATOM     81  F   UNL A   1      48.333  27.464  23.765  1.00  0.00    -0.203 F 
ATOM     82  F   UNL A   1      52.214  25.959  27.291  1.00  0.00    -0.200 F 
ATOM     83  C   UNL A   1      51.542  26.405  25.072  1.00  0.00     0.200 A 
ATOM     84  F   UNL A   1      50.820  26.874  22.874  1.00  0.00    -0.200 F 
ATOM     85  F   UNL A   1      52.777  26.138  24.627  1.00  0.00    -0.200 F 
ENDBRANCH  51  75
BRANCH  63  86
ATOM     86  C   UNL A   1      45.894  32.655  28.667  1.00  0.00     0.064 A 
ATOM     87  C   UNL A   1      45.763  33.703  27.744  1.00  0.00     0.173 A 
ATOM     88  C   UNL A   1      46.484  32.946  29.908  1.00  0.00     0.173 A 
ATOM     89  F   UNL A   1      45.221  33.475  26.538  1.00  0.00    -0.203 F 
ATOM     90  C   UNL A   1      46.227  34.982  28.040  1.00  0.00     0.198 A 
ATOM     91  C   UNL A   1      46.915  34.233  30.215  1.00  0.00     0.198 A 
ATOM     92  F   UNL A   1      46.628  31.982  30.830  1.00  0.00    -0.203 F 
ATOM     93  F   UNL A   1      46.139  35.954  27.122  1.00  0.00    -0.200 F 
ATOM     94  C   UNL A   1      46.795  35.248  29.278  1.00  0.00     0.200 A 
ATOM     95  F   UNL A   1      47.446  34.491  31.417  1.00  0.00    -0.200 F 
ATOM     96  F   UNL A   1      47.231  36.482  29.566  1.00  0.00    -0.200 F 
ENDBRANCH  63  86
ENDBRANCH  37  38
ENDBRANCH  29  32
ENDBRANCH  27  28
ENDBRANCH  26  27
ENDBRANCH  25  26
ENDBRANCH   1  25
TORSDOF 15
ENDMDL
