MODEL 1
REMARK VINA RESULT:     -12.2      0.000      0.000
REMARK SMILES O=C(CCN1C(=O)/C(=C/c2cc(Br)cc(Br)c2O)SC1=S)NCCCCCCNC(=O)c1ccc(-c2c3nc(c(-c4c(F)c(F)c(F)c(F)c4F)c4ccc([nH]4)c(-c4c(F)c(F)c(F)c(F)c4F)c4nc(c(-c5c(F)c(F)c(F)c(F)c5F)c5ccc2[nH]5)C=C4)C=C3)cc1
REMARK SMILES IDX 24 1 23 2 22 3 1 4 2 5 3 7 4 8 5 9 6 10 20 11 7 12 8 13
REMARK SMILES IDX 19 14 21 15 9 16 10 17 11 18 17 19 12 20 15 21 13 22 14 23
REMARK SMILES IDX 16 24 18 25 25 27 26 28 27 29 28 30 29 31 30 32 31 34 32 35
REMARK SMILES IDX 33 36 94 37 34 38 93 39 35 40 36 41 37 42 87 43 38 44 92 45
REMARK SMILES IDX 86 46 88 47 39 48 91 49 85 50 84 51 40 53 72 54 52 55 71 56
REMARK SMILES IDX 53 57 56 58 70 59 89 60 54 61 55 62 69 64 90 65 57 66 41 67
REMARK SMILES IDX 42 68 50 69 43 70 44 71 48 72 51 73 45 74 46 75 49 76 47 77
REMARK SMILES IDX 73 78 74 79 82 80 75 81 76 82 80 83 83 84 77 85 78 86 81 87
REMARK SMILES IDX 79 88 58 89 59 90 67 91 60 92 61 93 65 94 68 95 62 96 63 97
REMARK SMILES IDX 66 98 64 99
REMARK H PARENT 22 6 18 26 29 33 88 52 56 63
REMARK Flexibility Score: inf
ROOT
ATOM      1  C   UNL A   1      34.014  31.849  27.942  1.00  0.00     0.021 C 
ENDROOT
BRANCH   1   2
ATOM      2  C   UNL A   1      34.399  30.443  27.481  1.00  0.00     0.116 C 
BRANCH   2   3
ATOM      3  N   UNL A   1      33.632  30.066  26.312  1.00  0.00    -0.356 N 
ATOM      4  O   UNL A   1      31.882  29.064  27.409  1.00  0.00    -0.275 OA
ATOM      5  C   UNL A   1      32.445  29.379  26.369  1.00  0.00     0.221 C 
ATOM      6  H   UNL A   1      33.981  30.317  25.426  1.00  0.00     0.163 HD
BRANCH   5   7
ATOM      7  C   UNL A   1      31.912  28.997  25.008  1.00  0.00     0.122 C 
BRANCH   7   8
ATOM      8  C   UNL A   1      30.914  27.840  25.051  1.00  0.00     0.137 C 
BRANCH   8   9
ATOM      9  N   UNL A   1      31.458  26.512  24.716  1.00  0.00    -0.292 N 
ATOM     10  C   UNL A   1      31.718  25.601  25.727  1.00  0.00     0.266 C 
ATOM     11  C   UNL A   1      31.659  26.059  23.424  1.00  0.00     0.148 C 
ATOM     12  O   UNL A   1      31.573  25.795  26.927  1.00  0.00    -0.268 OA
ATOM     13  C   UNL A   1      32.287  24.342  25.167  1.00  0.00     0.081 C 
ATOM     14  S   UNL A   1      32.177  24.381  23.457  1.00  0.00    -0.054 SA
ATOM     15  S   UNL A   1      31.486  26.885  21.988  1.00  0.00    -0.052 S 
ATOM     16  C   UNL A   1      32.837  23.394  25.945  1.00  0.00     0.033 C 
BRANCH  16  17
ATOM     17  C   UNL A   1      33.532  22.154  25.525  1.00  0.00     0.020 A 
ATOM     18  C   UNL A   1      34.925  22.154  25.356  1.00  0.00     0.027 A 
ATOM     19  C   UNL A   1      32.860  20.925  25.399  1.00  0.00     0.137 A 
ATOM     20  C   UNL A   1      35.629  20.980  25.082  1.00  0.00     0.019 A 
ATOM     21  C   UNL A   1      33.574  19.746  25.120  1.00  0.00     0.061 A 
ATOM     22  Br  UNL A   1      37.505  21.058  24.861  1.00  0.00    -0.051 Br
ATOM     23  C   UNL A   1      34.961  19.771  24.969  1.00  0.00     0.035 A 
ATOM     24  Br  UNL A   1      32.690  18.078  24.912  1.00  0.00    -0.047 Br
BRANCH  19  25
ATOM     25  O   UNL A   1      31.497  20.842  25.537  1.00  0.00    -0.506 OA
ATOM     26  H   UNL A   1      31.127  20.277  26.187  1.00  0.00     0.293 HD
ENDBRANCH  19  25
ENDBRANCH  16  17
ENDBRANCH   8   9
ENDBRANCH   7   8
ENDBRANCH   5   7
ENDBRANCH   2   3
ENDBRANCH   1   2
BRANCH   1  27
ATOM     27  C   UNL A   1      35.207  32.772  28.220  1.00  0.00     0.002 C 
BRANCH  27  28
ATOM     28  C   UNL A   1      34.949  33.864  29.256  1.00  0.00     0.002 C 
BRANCH  28  29
ATOM     29  C   UNL A   1      33.569  34.508  29.204  1.00  0.00     0.021 C 
BRANCH  29  30
ATOM     30  C   UNL A   1      33.562  35.982  29.591  1.00  0.00     0.116 C 
BRANCH  30  31
ATOM     31  N   UNL A   1      32.566  36.300  30.610  1.00  0.00    -0.352 N 
ATOM     32  C   UNL A   1      32.517  35.905  31.926  1.00  0.00     0.251 C 
ATOM     33  H   UNL A   1      31.827  36.878  30.313  1.00  0.00     0.163 HD
ATOM     34  O   UNL A   1      31.547  36.167  32.629  1.00  0.00    -0.269 OA
BRANCH  32  35
ATOM     35  C   UNL A   1      33.648  35.140  32.478  1.00  0.00     0.039 A 
ATOM     36  C   UNL A   1      33.449  33.823  32.898  1.00  0.00     0.014 A 
ATOM     37  C   UNL A   1      34.918  35.718  32.521  1.00  0.00     0.014 A 
ATOM     38  C   UNL A   1      34.548  33.057  33.293  1.00  0.00     0.010 A 
ATOM     39  C   UNL A   1      36.018  34.928  32.824  1.00  0.00     0.010 A 
ATOM     40  C   UNL A   1      35.844  33.592  33.219  1.00  0.00    -0.014 A 
BRANCH  40  41
ATOM     41  C   UNL A   1      37.048  32.796  33.567  1.00  0.00     0.031 A 
ATOM     42  C   UNL A   1      37.787  33.102  34.841  1.00  0.00     0.074 A 
ATOM     43  C   UNL A   1      37.530  31.886  32.699  1.00  0.00     0.049 A 
ATOM     44  N   UNL A   1      38.941  32.648  35.260  1.00  0.00    -0.248 NA
ATOM     45  C   UNL A   1      37.163  34.079  35.749  1.00  0.00     0.031 C 
ATOM     46  C   UNL A   1      36.924  31.531  31.414  1.00  0.00     0.029 A 
ATOM     47  N   UNL A   1      38.661  31.106  32.755  1.00  0.00    -0.354 N 
ATOM     48  C   UNL A   1      39.193  33.310  36.454  1.00  0.00     0.074 A 
ATOM     49  C   UNL A   1      38.099  34.228  36.675  1.00  0.00     0.031 C 
ATOM     50  C   UNL A   1      37.679  30.597  30.812  1.00  0.00     0.029 A 
ATOM     51  C   UNL A   1      38.848  30.322  31.642  1.00  0.00     0.049 A 
ATOM     52  H   UNL A   1      39.278  31.110  33.522  1.00  0.00     0.167 HD
ATOM     53  C   UNL A   1      40.238  33.151  37.299  1.00  0.00     0.037 A 
ATOM     54  C   UNL A   1      39.860  29.494  31.321  1.00  0.00     0.037 A 
ATOM     55  C   UNL A   1      41.295  32.197  37.098  1.00  0.00     0.049 A 
ATOM     56  C   UNL A   1      41.011  29.341  32.285  1.00  0.00     0.074 A 
ATOM     57  C   UNL A   1      42.349  31.893  37.940  1.00  0.00     0.029 A 
ATOM     58  N   UNL A   1      41.431  31.394  35.976  1.00  0.00    -0.354 N 
ATOM     59  N   UNL A   1      41.197  29.911  33.452  1.00  0.00    -0.248 NA
ATOM     60  C   UNL A   1      42.091  28.427  31.888  1.00  0.00     0.031 C 
ATOM     61  C   UNL A   1      43.158  30.950  37.301  1.00  0.00     0.029 A 
ATOM     62  C   UNL A   1      42.571  30.618  36.090  1.00  0.00     0.049 A 
ATOM     63  H   UNL A   1      40.810  31.380  35.212  1.00  0.00     0.167 HD
ATOM     64  C   UNL A   1      42.388  29.391  33.943  1.00  0.00     0.074 A 
ATOM     65  C   UNL A   1      42.876  28.454  32.955  1.00  0.00     0.031 C 
ATOM     66  C   UNL A   1      43.022  29.666  35.109  1.00  0.00     0.037 A 
BRANCH  53  67
ATOM     67  C   UNL A   1      40.299  34.019  38.521  1.00  0.00     0.064 A 
ATOM     68  C   UNL A   1      40.969  35.251  38.522  1.00  0.00     0.173 A 
ATOM     69  C   UNL A   1      39.609  33.647  39.686  1.00  0.00     0.173 A 
ATOM     70  F   UNL A   1      41.653  35.649  37.438  1.00  0.00    -0.203 F 
ATOM     71  C   UNL A   1      40.959  36.071  39.647  1.00  0.00     0.198 A 
ATOM     72  C   UNL A   1      39.575  34.483  40.797  1.00  0.00     0.198 A 
ATOM     73  F   UNL A   1      38.950  32.480  39.738  1.00  0.00    -0.203 F 
ATOM     74  F   UNL A   1      41.636  37.228  39.637  1.00  0.00    -0.200 F 
ATOM     75  C   UNL A   1      40.253  35.694  40.778  1.00  0.00     0.200 A 
ATOM     76  F   UNL A   1      38.879  34.123  41.884  1.00  0.00    -0.200 F 
ATOM     77  F   UNL A   1      40.226  36.494  41.853  1.00  0.00    -0.200 F 
ENDBRANCH  53  67
BRANCH  54  78
ATOM     78  C   UNL A   1      39.847  28.736  30.039  1.00  0.00     0.064 A 
ATOM     79  C   UNL A   1      39.308  27.443  29.975  1.00  0.00     0.173 A 
ATOM     80  C   UNL A   1      40.418  29.260  28.871  1.00  0.00     0.173 A 
ATOM     81  F   UNL A   1      38.767  26.887  31.070  1.00  0.00    -0.203 F 
ATOM     82  C   UNL A   1      39.379  26.688  28.805  1.00  0.00     0.198 A 
ATOM     83  C   UNL A   1      40.457  28.519  27.692  1.00  0.00     0.198 A 
ATOM     84  F   UNL A   1      40.944  30.494  28.874  1.00  0.00    -0.203 F 
ATOM     85  F   UNL A   1      38.922  25.429  28.794  1.00  0.00    -0.200 F 
ATOM     86  C   UNL A   1      39.952  27.228  27.663  1.00  0.00     0.200 A 
ATOM     87  F   UNL A   1      40.997  29.049  26.587  1.00  0.00    -0.200 F 
ATOM     88  F   UNL A   1      40.029  26.499  26.542  1.00  0.00    -0.200 F 
ENDBRANCH  54  78
BRANCH  66  89
ATOM     89  C   UNL A   1      44.276  28.899  35.415  1.00  0.00     0.064 A 
ATOM     90  C   UNL A   1      45.536  29.338  34.987  1.00  0.00     0.173 A 
ATOM     91  C   UNL A   1      44.215  27.737  36.201  1.00  0.00     0.173 A 
ATOM     92  F   UNL A   1      45.646  30.436  34.223  1.00  0.00    -0.203 F 
ATOM     93  C   UNL A   1      46.689  28.629  35.315  1.00  0.00     0.198 A 
ATOM     94  C   UNL A   1      45.373  27.051  36.556  1.00  0.00     0.198 A 
ATOM     95  F   UNL A   1      43.035  27.280  36.644  1.00  0.00    -0.203 F 
ATOM     96  F   UNL A   1      47.879  29.040  34.855  1.00  0.00    -0.200 F 
ATOM     97  C   UNL A   1      46.608  27.493  36.107  1.00  0.00     0.200 A 
ATOM     98  F   UNL A   1      45.293  25.965  37.338  1.00  0.00    -0.200 F 
ATOM     99  F   UNL A   1      47.719  26.822  36.433  1.00  0.00    -0.200 F 
ENDBRANCH  66  89
ENDBRANCH  40  41
ENDBRANCH  32  35
ENDBRANCH  30  31
ENDBRANCH  29  30
ENDBRANCH  28  29
ENDBRANCH  27  28
ENDBRANCH   1  27
TORSDOF 17
ENDMDL
MODEL 2
REMARK VINA RESULT:     -11.4      1.017      2.203
REMARK SMILES O=C(CCN1C(=O)/C(=C/c2cc(Br)cc(Br)c2O)SC1=S)NCCCCCCNC(=O)c1ccc(-c2c3nc(c(-c4c(F)c(F)c(F)c(F)c4F)c4ccc([nH]4)c(-c4c(F)c(F)c(F)c(F)c4F)c4nc(c(-c5c(F)c(F)c(F)c(F)c5F)c5ccc2[nH]5)C=C4)C=C3)cc1
REMARK SMILES IDX 24 1 23 2 22 3 1 4 2 5 3 7 4 8 5 9 6 10 20 11 7 12 8 13
REMARK SMILES IDX 19 14 21 15 9 16 10 17 11 18 17 19 12 20 15 21 13 22 14 23
REMARK SMILES IDX 16 24 18 25 25 27 26 28 27 29 28 30 29 31 30 32 31 34 32 35
REMARK SMILES IDX 33 36 94 37 34 38 93 39 35 40 36 41 37 42 87 43 38 44 92 45
REMARK SMILES IDX 86 46 88 47 39 48 91 49 85 50 84 51 40 53 72 54 52 55 71 56
REMARK SMILES IDX 53 57 56 58 70 59 89 60 54 61 55 62 69 64 90 65 57 66 41 67
REMARK SMILES IDX 42 68 50 69 43 70 44 71 48 72 51 73 45 74 46 75 49 76 47 77
REMARK SMILES IDX 73 78 74 79 82 80 75 81 76 82 80 83 83 84 77 85 78 86 81 87
REMARK SMILES IDX 79 88 58 89 59 90 67 91 60 92 61 93 65 94 68 95 62 96 63 97
REMARK SMILES IDX 66 98 64 99
REMARK H PARENT 22 6 18 26 29 33 88 52 56 63
REMARK Flexibility Score: inf
ROOT
ATOM      1  C   UNL A   1      33.990  31.539  27.637  1.00  0.00     0.021 C 
ENDROOT
BRANCH   1   2
ATOM      2  C   UNL A   1      33.960  30.031  27.386  1.00  0.00     0.116 C 
BRANCH   2   3
ATOM      3  N   UNL A   1      33.748  29.755  25.981  1.00  0.00    -0.356 N 
ATOM      4  O   UNL A   1      31.468  30.021  25.960  1.00  0.00    -0.275 OA
ATOM      5  C   UNL A   1      32.513  29.744  25.384  1.00  0.00     0.221 C 
ATOM      6  H   UNL A   1      34.536  29.566  25.420  1.00  0.00     0.163 HD
BRANCH   5   7
ATOM      7  C   UNL A   1      32.552  29.304  23.940  1.00  0.00     0.122 C 
BRANCH   7   8
ATOM      8  C   UNL A   1      31.746  28.033  23.671  1.00  0.00     0.137 C 
BRANCH   8   9
ATOM      9  N   UNL A   1      32.353  26.776  24.146  1.00  0.00    -0.292 N 
ATOM     10  C   UNL A   1      33.326  26.152  23.382  1.00  0.00     0.266 C 
ATOM     11  C   UNL A   1      32.077  26.197  25.371  1.00  0.00     0.148 C 
ATOM     12  O   UNL A   1      33.734  26.525  22.290  1.00  0.00    -0.268 OA
ATOM     13  C   UNL A   1      33.777  24.890  24.036  1.00  0.00     0.081 C 
ATOM     14  S   UNL A   1      33.113  24.798  25.613  1.00  0.00    -0.054 SA
ATOM     15  S   UNL A   1      30.954  26.652  26.514  1.00  0.00    -0.052 S 
ATOM     16  C   UNL A   1      34.539  23.984  23.398  1.00  0.00     0.033 C 
BRANCH  16  17
ATOM     17  C   UNL A   1      34.967  22.649  23.878  1.00  0.00     0.020 A 
ATOM     18  C   UNL A   1      36.293  22.443  24.287  1.00  0.00     0.027 A 
ATOM     19  C   UNL A   1      34.059  21.590  24.053  1.00  0.00     0.137 A 
ATOM     20  C   UNL A   1      36.704  21.238  24.858  1.00  0.00     0.019 A 
ATOM     21  C   UNL A   1      34.479  20.377  24.626  1.00  0.00     0.061 A 
ATOM     22  Br  UNL A   1      38.509  21.030  25.381  1.00  0.00    -0.051 Br
ATOM     23  C   UNL A   1      35.801  20.202  25.038  1.00  0.00     0.035 A 
ATOM     24  Br  UNL A   1      33.283  18.917  24.846  1.00  0.00    -0.047 Br
BRANCH  19  25
ATOM     25  O   UNL A   1      32.748  21.706  23.667  1.00  0.00    -0.506 OA
ATOM     26  H   UNL A   1      32.466  22.461  23.188  1.00  0.00     0.293 HD
ENDBRANCH  19  25
ENDBRANCH  16  17
ENDBRANCH   8   9
ENDBRANCH   7   8
ENDBRANCH   5   7
ENDBRANCH   2   3
ENDBRANCH   1   2
BRANCH   1  27
ATOM     27  C   UNL A   1      34.725  31.953  28.917  1.00  0.00     0.002 C 
BRANCH  27  28
ATOM     28  C   UNL A   1      34.809  33.459  29.154  1.00  0.00     0.002 C 
BRANCH  28  29
ATOM     29  C   UNL A   1      33.494  34.220  29.030  1.00  0.00     0.021 C 
BRANCH  29  30
ATOM     30  C   UNL A   1      33.609  35.704  29.355  1.00  0.00     0.116 C 
BRANCH  30  31
ATOM     31  N   UNL A   1      32.643  36.145  30.356  1.00  0.00    -0.352 N 
ATOM     32  C   UNL A   1      32.606  35.874  31.703  1.00  0.00     0.251 C 
ATOM     33  H   UNL A   1      31.916  36.717  30.020  1.00  0.00     0.163 HD
ATOM     34  O   UNL A   1      31.659  36.230  32.396  1.00  0.00    -0.269 OA
BRANCH  32  35
ATOM     35  C   UNL A   1      33.724  35.126  32.305  1.00  0.00     0.039 A 
ATOM     36  C   UNL A   1      33.506  33.838  32.798  1.00  0.00     0.014 A 
ATOM     37  C   UNL A   1      35.002  35.689  32.323  1.00  0.00     0.014 A 
ATOM     38  C   UNL A   1      34.592  33.081  33.243  1.00  0.00     0.010 A 
ATOM     39  C   UNL A   1      36.089  34.903  32.676  1.00  0.00     0.010 A 
ATOM     40  C   UNL A   1      35.895  33.594  33.146  1.00  0.00    -0.014 A 
BRANCH  40  41
ATOM     41  C   UNL A   1      37.087  32.804  33.546  1.00  0.00     0.031 A 
ATOM     42  C   UNL A   1      37.766  33.111  34.852  1.00  0.00     0.074 A 
ATOM     43  C   UNL A   1      37.612  31.898  32.699  1.00  0.00     0.049 A 
ATOM     44  N   UNL A   1      38.903  32.662  35.321  1.00  0.00    -0.248 NA
ATOM     45  C   UNL A   1      37.098  34.083  35.733  1.00  0.00     0.031 C 
ATOM     46  C   UNL A   1      37.065  31.542  31.387  1.00  0.00     0.029 A 
ATOM     47  N   UNL A   1      38.742  31.124  32.804  1.00  0.00    -0.354 N 
ATOM     48  C   UNL A   1      39.099  33.323  36.526  1.00  0.00     0.074 A 
ATOM     49  C   UNL A   1      37.991  34.235  36.700  1.00  0.00     0.031 C 
ATOM     50  C   UNL A   1      37.851  30.613  30.818  1.00  0.00     0.029 A 
ATOM     51  C   UNL A   1      38.983  30.342  31.698  1.00  0.00     0.049 A 
ATOM     52  H   UNL A   1      39.325  31.129  33.597  1.00  0.00     0.167 HD
ATOM     53  C   UNL A   1      40.106  33.167  37.417  1.00  0.00     0.037 A 
ATOM     54  C   UNL A   1      40.013  29.520  31.422  1.00  0.00     0.037 A 
ATOM     55  C   UNL A   1      41.175  32.219  37.261  1.00  0.00     0.049 A 
ATOM     56  C   UNL A   1      41.120  29.371  32.435  1.00  0.00     0.074 A 
ATOM     57  C   UNL A   1      42.193  31.919  38.149  1.00  0.00     0.029 A 
ATOM     58  N   UNL A   1      41.365  31.419  36.145  1.00  0.00    -0.354 N 
ATOM     59  N   UNL A   1      41.251  29.939  33.610  1.00  0.00    -0.248 NA
ATOM     60  C   UNL A   1      42.221  28.463  32.085  1.00  0.00     0.031 C 
ATOM     61  C   UNL A   1      43.034  30.981  37.544  1.00  0.00     0.029 A 
ATOM     62  C   UNL A   1      42.503  30.649  36.308  1.00  0.00     0.049 A 
ATOM     63  H   UNL A   1      40.779  31.403  35.355  1.00  0.00     0.167 HD
ATOM     64  C   UNL A   1      42.422  29.425  34.154  1.00  0.00     0.074 A 
ATOM     65  C   UNL A   1      42.958  28.492  33.187  1.00  0.00     0.031 C 
ATOM     66  C   UNL A   1      43.002  29.700  35.346  1.00  0.00     0.037 A 
BRANCH  53  67
ATOM     67  C   UNL A   1      40.108  34.033  38.642  1.00  0.00     0.064 A 
ATOM     68  C   UNL A   1      39.476  33.638  39.830  1.00  0.00     0.173 A 
ATOM     69  C   UNL A   1      40.821  35.242  38.649  1.00  0.00     0.173 A 
ATOM     70  F   UNL A   1      38.771  32.497  39.873  1.00  0.00    -0.203 F 
ATOM     71  C   UNL A   1      39.545  34.428  40.975  1.00  0.00     0.198 A 
ATOM     72  C   UNL A   1      40.915  36.013  39.804  1.00  0.00     0.198 A 
ATOM     73  F   UNL A   1      41.446  35.665  37.540  1.00  0.00    -0.203 F 
ATOM     74  F   UNL A   1      38.903  34.048  42.088  1.00  0.00    -0.200 F 
ATOM     75  C   UNL A   1      40.274  35.608  40.965  1.00  0.00     0.200 A 
ATOM     76  F   UNL A   1      41.633  37.145  39.796  1.00  0.00    -0.200 F 
ATOM     77  F   UNL A   1      40.357  36.355  42.074  1.00  0.00    -0.200 F 
ENDBRANCH  53  67
BRANCH  54  78
ATOM     78  C   UNL A   1      40.061  28.765  30.139  1.00  0.00     0.064 A 
ATOM     79  C   UNL A   1      40.644  29.329  28.995  1.00  0.00     0.173 A 
ATOM     80  C   UNL A   1      39.480  27.495  30.012  1.00  0.00     0.173 A 
ATOM     81  F   UNL A   1      41.196  30.550  29.058  1.00  0.00    -0.203 F 
ATOM     82  C   UNL A   1      40.608  28.673  27.767  1.00  0.00     0.198 A 
ATOM     83  C   UNL A   1      39.475  26.823  28.791  1.00  0.00     0.198 A 
ATOM     84  F   UNL A   1      38.912  26.905  31.074  1.00  0.00    -0.203 F 
ATOM     85  F   UNL A   1      41.108  29.269  26.676  1.00  0.00    -0.200 F 
ATOM     86  C   UNL A   1      40.024  27.418  27.666  1.00  0.00     0.200 A 
ATOM     87  F   UNL A   1      38.925  25.605  28.701  1.00  0.00    -0.200 F 
ATOM     88  F   UNL A   1      39.980  26.791  26.483  1.00  0.00    -0.200 F 
ENDBRANCH  54  78
BRANCH  66  89
ATOM     89  C   UNL A   1      44.245  28.939  35.707  1.00  0.00     0.064 A 
ATOM     90  C   UNL A   1      44.194  27.719  36.394  1.00  0.00     0.173 A 
ATOM     91  C   UNL A   1      45.503  29.416  35.304  1.00  0.00     0.173 A 
ATOM     92  F   UNL A   1      43.017  27.228  36.812  1.00  0.00    -0.203 F 
ATOM     93  C   UNL A   1      45.358  27.014  36.685  1.00  0.00     0.198 A 
ATOM     94  C   UNL A   1      46.661  28.690  35.565  1.00  0.00     0.198 A 
ATOM     95  F   UNL A   1      45.606  30.573  34.635  1.00  0.00    -0.203 F 
ATOM     96  F   UNL A   1      45.291  25.872  37.385  1.00  0.00    -0.200 F 
ATOM     97  C   UNL A   1      46.589  27.494  36.262  1.00  0.00     0.200 A 
ATOM     98  F   UNL A   1      47.846  29.148  35.138  1.00  0.00    -0.200 F 
ATOM     99  F   UNL A   1      47.706  26.806  36.530  1.00  0.00    -0.200 F 
ENDBRANCH  66  89
ENDBRANCH  40  41
ENDBRANCH  32  35
ENDBRANCH  30  31
ENDBRANCH  29  30
ENDBRANCH  28  29
ENDBRANCH  27  28
ENDBRANCH   1  27
TORSDOF 17
ENDMDL
MODEL 3
REMARK VINA RESULT:     -10.9      5.128      7.742
REMARK SMILES O=C(CCN1C(=O)/C(=C/c2cc(Br)cc(Br)c2O)SC1=S)NCCCCCCNC(=O)c1ccc(-c2c3nc(c(-c4c(F)c(F)c(F)c(F)c4F)c4ccc([nH]4)c(-c4c(F)c(F)c(F)c(F)c4F)c4nc(c(-c5c(F)c(F)c(F)c(F)c5F)c5ccc2[nH]5)C=C4)C=C3)cc1
REMARK SMILES IDX 24 1 23 2 22 3 1 4 2 5 3 7 4 8 5 9 6 10 20 11 7 12 8 13
REMARK SMILES IDX 19 14 21 15 9 16 10 17 11 18 17 19 12 20 15 21 13 22 14 23
REMARK SMILES IDX 16 24 18 25 25 27 26 28 27 29 28 30 29 31 30 32 31 34 32 35
REMARK SMILES IDX 33 36 94 37 34 38 93 39 35 40 36 41 37 42 87 43 38 44 92 45
REMARK SMILES IDX 86 46 88 47 39 48 91 49 85 50 84 51 40 53 72 54 52 55 71 56
REMARK SMILES IDX 53 57 56 58 70 59 89 60 54 61 55 62 69 64 90 65 57 66 41 67
REMARK SMILES IDX 42 68 50 69 43 70 44 71 48 72 51 73 45 74 46 75 49 76 47 77
REMARK SMILES IDX 73 78 74 79 82 80 75 81 76 82 80 83 83 84 77 85 78 86 81 87
REMARK SMILES IDX 79 88 58 89 59 90 67 91 60 92 61 93 65 94 68 95 62 96 63 97
REMARK SMILES IDX 66 98 64 99
REMARK H PARENT 22 6 18 26 29 33 88 52 56 63
REMARK Flexibility Score: inf
ROOT
ATOM      1  C   UNL A   1      35.400  29.632  28.095  1.00  0.00     0.021 C 
ENDROOT
BRANCH   1   2
ATOM      2  C   UNL A   1      35.182  28.970  26.733  1.00  0.00     0.116 C 
BRANCH   2   3
ATOM      3  N   UNL A   1      33.802  29.109  26.319  1.00  0.00    -0.356 N 
ATOM      4  O   UNL A   1      34.086  28.525  24.117  1.00  0.00    -0.275 OA
ATOM      5  C   UNL A   1      33.367  28.903  25.034  1.00  0.00     0.221 C 
ATOM      6  H   UNL A   1      33.136  29.365  26.998  1.00  0.00     0.163 HD
BRANCH   5   7
ATOM      7  C   UNL A   1      31.907  29.236  24.837  1.00  0.00     0.122 C 
BRANCH   7   8
ATOM      8  C   UNL A   1      30.969  28.080  25.182  1.00  0.00     0.137 C 
BRANCH   8   9
ATOM      9  N   UNL A   1      31.457  26.733  24.835  1.00  0.00    -0.292 N 
ATOM     10  C   UNL A   1      31.787  25.841  25.843  1.00  0.00     0.266 C 
ATOM     11  C   UNL A   1      31.536  26.246  23.543  1.00  0.00     0.148 C 
ATOM     12  O   UNL A   1      31.750  26.067  27.045  1.00  0.00    -0.268 OA
ATOM     13  C   UNL A   1      32.281  24.557  25.267  1.00  0.00     0.081 C 
ATOM     14  S   UNL A   1      32.023  24.558  23.573  1.00  0.00    -0.054 SA
ATOM     15  S   UNL A   1      31.253  27.041  22.107  1.00  0.00    -0.052 S 
ATOM     16  C   UNL A   1      32.878  23.617  26.019  1.00  0.00     0.033 C 
BRANCH  16  17
ATOM     17  C   UNL A   1      33.511  22.353  25.571  1.00  0.00     0.020 A 
ATOM     18  C   UNL A   1      34.888  22.314  25.303  1.00  0.00     0.027 A 
ATOM     19  C   UNL A   1      32.801  21.140  25.514  1.00  0.00     0.137 A 
ATOM     20  C   UNL A   1      35.541  21.119  25.000  1.00  0.00     0.019 A 
ATOM     21  C   UNL A   1      33.464  19.939  25.206  1.00  0.00     0.061 A 
ATOM     22  Br  UNL A   1      37.398  21.145  24.644  1.00  0.00    -0.051 Br
ATOM     23  C   UNL A   1      34.837  19.926  24.956  1.00  0.00     0.035 A 
ATOM     24  Br  UNL A   1      32.527  18.291  25.090  1.00  0.00    -0.047 Br
BRANCH  19  25
ATOM     25  O   UNL A   1      31.451  21.095  25.751  1.00  0.00    -0.506 OA
ATOM     26  H   UNL A   1      30.935  21.873  25.669  1.00  0.00     0.293 HD
ENDBRANCH  19  25
ENDBRANCH  16  17
ENDBRANCH   8   9
ENDBRANCH   7   8
ENDBRANCH   5   7
ENDBRANCH   2   3
ENDBRANCH   1   2
BRANCH   1  27
ATOM     27  C   UNL A   1      35.989  31.046  28.023  1.00  0.00     0.002 C 
BRANCH  27  28
ATOM     28  C   UNL A   1      34.958  32.173  27.996  1.00  0.00     0.002 C 
BRANCH  28  29
ATOM     29  C   UNL A   1      34.624  32.792  29.348  1.00  0.00     0.021 C 
BRANCH  29  30
ATOM     30  C   UNL A   1      35.073  31.953  30.538  1.00  0.00     0.116 C 
BRANCH  30  31
ATOM     31  N   UNL A   1      35.249  32.738  31.755  1.00  0.00    -0.352 N 
ATOM     32  C   UNL A   1      36.404  33.016  32.447  1.00  0.00     0.251 C 
ATOM     33  H   UNL A   1      34.426  33.123  32.134  1.00  0.00     0.163 HD
ATOM     34  O   UNL A   1      36.372  33.601  33.524  1.00  0.00    -0.269 OA
BRANCH  32  35
ATOM     35  C   UNL A   1      37.691  32.578  31.879  1.00  0.00     0.039 A 
ATOM     36  C   UNL A   1      38.533  31.756  32.632  1.00  0.00     0.014 A 
ATOM     37  C   UNL A   1      38.030  32.941  30.575  1.00  0.00     0.014 A 
ATOM     38  C   UNL A   1      39.686  31.233  32.043  1.00  0.00     0.010 A 
ATOM     39  C   UNL A   1      39.124  32.347  29.963  1.00  0.00     0.010 A 
ATOM     40  C   UNL A   1      39.967  31.492  30.692  1.00  0.00    -0.014 A 
BRANCH  40  41
ATOM     41  C   UNL A   1      41.146  30.908  30.004  1.00  0.00     0.031 A 
ATOM     42  C   UNL A   1      42.327  31.787  29.698  1.00  0.00     0.074 A 
ATOM     43  C   UNL A   1      41.110  29.634  29.568  1.00  0.00     0.049 A 
ATOM     44  N   UNL A   1      43.384  31.530  28.970  1.00  0.00    -0.248 NA
ATOM     45  C   UNL A   1      42.298  33.151  30.251  1.00  0.00     0.031 C 
ATOM     46  C   UNL A   1      40.003  28.695  29.770  1.00  0.00     0.029 A 
ATOM     47  N   UNL A   1      42.024  28.911  28.839  1.00  0.00    -0.354 N 
ATOM     48  C   UNL A   1      44.121  32.707  28.950  1.00  0.00     0.074 A 
ATOM     49  C   UNL A   1      43.374  33.692  29.700  1.00  0.00     0.031 C 
ATOM     50  C   UNL A   1      40.308  27.522  29.193  1.00  0.00     0.029 A 
ATOM     51  C   UNL A   1      41.607  27.636  28.537  1.00  0.00     0.049 A 
ATOM     52  H   UNL A   1      42.895  29.273  28.560  1.00  0.00     0.167 HD
ATOM     53  C   UNL A   1      45.323  32.938  28.373  1.00  0.00     0.037 A 
ATOM     54  C   UNL A   1      42.200  26.679  27.798  1.00  0.00     0.037 A 
ATOM     55  C   UNL A   1      46.083  31.937  27.675  1.00  0.00     0.049 A 
ATOM     56  C   UNL A   1      43.538  26.970  27.166  1.00  0.00     0.074 A 
ATOM     57  C   UNL A   1      47.351  32.044  27.134  1.00  0.00     0.029 A 
ATOM     58  N   UNL A   1      45.644  30.647  27.421  1.00  0.00    -0.354 N 
ATOM     59  N   UNL A   1      44.264  28.061  27.225  1.00  0.00    -0.248 NA
ATOM     60  C   UNL A   1      44.141  25.894  26.367  1.00  0.00     0.031 C 
ATOM     61  C   UNL A   1      47.656  30.837  26.499  1.00  0.00     0.029 A 
ATOM     62  C   UNL A   1      46.605  29.957  26.702  1.00  0.00     0.049 A 
ATOM     63  H   UNL A   1      44.778  30.277  27.709  1.00  0.00     0.167 HD
ATOM     64  C   UNL A   1      45.423  27.786  26.510  1.00  0.00     0.074 A 
ATOM     65  C   UNL A   1      45.310  26.424  26.036  1.00  0.00     0.031 C 
ATOM     66  C   UNL A   1      46.487  28.590  26.268  1.00  0.00     0.037 A 
BRANCH  53  67
ATOM     67  C   UNL A   1      45.900  34.320  28.466  1.00  0.00     0.064 A 
ATOM     68  C   UNL A   1      46.758  34.696  29.510  1.00  0.00     0.173 A 
ATOM     69  C   UNL A   1      45.651  35.257  27.451  1.00  0.00     0.173 A 
ATOM     70  F   UNL A   1      47.019  33.841  30.511  1.00  0.00    -0.203 F 
ATOM     71  C   UNL A   1      47.333  35.963  29.542  1.00  0.00     0.198 A 
ATOM     72  C   UNL A   1      46.253  36.512  27.470  1.00  0.00     0.198 A 
ATOM     73  F   UNL A   1      44.840  34.948  26.429  1.00  0.00    -0.203 F 
ATOM     74  F   UNL A   1      48.121  36.313  30.568  1.00  0.00    -0.200 F 
ATOM     75  C   UNL A   1      47.091  36.865  28.518  1.00  0.00     0.200 A 
ATOM     76  F   UNL A   1      46.030  37.376  26.471  1.00  0.00    -0.200 F 
ATOM     77  F   UNL A   1      47.663  38.077  28.540  1.00  0.00    -0.200 F 
ENDBRANCH  53  67
BRANCH  54  78
ATOM     78  C   UNL A   1      41.549  25.354  27.606  1.00  0.00     0.064 A 
ATOM     79  C   UNL A   1      40.431  25.217  26.770  1.00  0.00     0.173 A 
ATOM     80  C   UNL A   1      41.991  24.213  28.290  1.00  0.00     0.173 A 
ATOM     81  F   UNL A   1      39.956  26.282  26.107  1.00  0.00    -0.203 F 
ATOM     82  C   UNL A   1      39.756  24.002  26.659  1.00  0.00     0.198 A 
ATOM     83  C   UNL A   1      41.337  22.990  28.151  1.00  0.00     0.198 A 
ATOM     84  F   UNL A   1      43.059  24.284  29.099  1.00  0.00    -0.203 F 
ATOM     85  F   UNL A   1      38.648  23.920  25.911  1.00  0.00    -0.200 F 
ATOM     86  C   UNL A   1      40.211  22.889  27.349  1.00  0.00     0.200 A 
ATOM     87  F   UNL A   1      41.789  21.913  28.807  1.00  0.00    -0.200 F 
ATOM     88  F   UNL A   1      39.556  21.724  27.252  1.00  0.00    -0.200 F 
ENDBRANCH  54  78
BRANCH  66  89
ATOM     89  C   UNL A   1      47.644  28.002  25.513  1.00  0.00     0.064 A 
ATOM     90  C   UNL A   1      47.627  27.868  24.118  1.00  0.00     0.173 A 
ATOM     91  C   UNL A   1      48.810  27.623  26.197  1.00  0.00     0.173 A 
ATOM     92  F   UNL A   1      46.531  28.204  23.420  1.00  0.00    -0.203 F 
ATOM     93  C   UNL A   1      48.727  27.354  23.436  1.00  0.00     0.198 A 
ATOM     94  C   UNL A   1      49.921  27.143  25.508  1.00  0.00     0.198 A 
ATOM     95  F   UNL A   1      48.882  27.741  27.530  1.00  0.00    -0.203 F 
ATOM     96  F   UNL A   1      48.671  27.189  22.107  1.00  0.00    -0.200 F 
ATOM     97  C   UNL A   1      49.875  27.002  24.129  1.00  0.00     0.200 A 
ATOM     98  F   UNL A   1      51.035  26.822  26.179  1.00  0.00    -0.200 F 
ATOM     99  F   UNL A   1      50.937  26.521  23.470  1.00  0.00    -0.200 F 
ENDBRANCH  66  89
ENDBRANCH  40  41
ENDBRANCH  32  35
ENDBRANCH  30  31
ENDBRANCH  29  30
ENDBRANCH  28  29
ENDBRANCH  27  28
ENDBRANCH   1  27
TORSDOF 17
ENDMDL
