MODEL 1
REMARK VINA RESULT:     -10.7      0.000      0.000
REMARK SMILES O=C(NCCCCCCNC(=O)[C@H](CCC(F)(F)F)Cc1ccccc1)c1ccc(-c2c3nc(c(-c4c(F)c(F)c(F)c(F)c4F)c4ccc([nH]4)c(-c4c(F)c(F)c(F)c(F)c4F)c4nc(c(-c5c(F)c(F)c(F)c(F)c5F)c5ccc2[nH]5)C=C4)C=C3)cc1
REMARK SMILES IDX 7 1 6 2 5 3 4 4 3 5 1 6 2 7 27 9 28 10 89 11 29 12 88 13
REMARK SMILES IDX 30 14 31 15 32 16 82 17 33 18 87 19 81 20 83 21 34 22 86 23
REMARK SMILES IDX 80 24 79 25 35 27 67 28 47 29 66 30 48 31 51 32 65 33 84 34
REMARK SMILES IDX 49 35 50 36 64 38 85 39 52 40 36 41 37 42 45 43 38 44 39 45
REMARK SMILES IDX 43 46 46 47 40 48 41 49 44 50 42 51 68 52 69 53 77 54 70 55
REMARK SMILES IDX 71 56 75 57 78 58 72 59 73 60 76 61 74 62 53 63 54 64 62 65
REMARK SMILES IDX 55 66 56 67 60 68 63 69 57 70 58 71 61 72 59 73 8 74 9 75
REMARK SMILES IDX 10 76 11 77 12 79 13 80 20 81 21 82 22 83 26 84 23 85 25 86
REMARK SMILES IDX 24 87 14 88 15 89 16 90 17 91 18 92 19 93
REMARK H PARENT 3 8 83 26 51 37 10 78
REMARK Flexibility Score: inf
ROOT
ATOM      1  C   UNL A   1      36.681  21.875  24.796  1.00  0.00     0.002 C 
ENDROOT
BRANCH   1   2
ATOM      2  C   UNL A   1      36.632  20.355  24.999  1.00  0.00     0.002 C 
BRANCH   2   3
ATOM      3  C   UNL A   1      37.967  19.622  24.838  1.00  0.00     0.021 C 
BRANCH   3   4
ATOM      4  C   UNL A   1      39.087  20.150  25.725  1.00  0.00     0.116 C 
BRANCH   4   5
ATOM      5  N   UNL A   1      40.141  19.166  25.905  1.00  0.00    -0.352 N 
ATOM      6  O   UNL A   1      42.265  18.418  26.008  1.00  0.00    -0.269 OA
ATOM      7  C   UNL A   1      41.482  19.355  26.114  1.00  0.00     0.251 C 
ATOM      8  H   UNL A   1      39.849  18.226  25.871  1.00  0.00     0.163 HD
BRANCH   7   9
ATOM      9  C   UNL A   1      41.981  20.698  26.469  1.00  0.00     0.039 A 
ATOM     10  C   UNL A   1      42.330  21.610  25.469  1.00  0.00     0.014 A 
ATOM     11  C   UNL A   1      42.056  21.063  27.815  1.00  0.00     0.014 A 
ATOM     12  C   UNL A   1      42.859  22.846  25.815  1.00  0.00     0.010 A 
ATOM     13  C   UNL A   1      42.504  22.340  28.160  1.00  0.00     0.010 A 
ATOM     14  C   UNL A   1      42.916  23.236  27.162  1.00  0.00    -0.014 A 
BRANCH  14  15
ATOM     15  C   UNL A   1      43.305  24.626  27.499  1.00  0.00     0.031 A 
ATOM     16  C   UNL A   1      44.744  25.045  27.532  1.00  0.00     0.074 A 
ATOM     17  C   UNL A   1      42.328  25.509  27.785  1.00  0.00     0.049 A 
ATOM     18  N   UNL A   1      45.256  26.209  27.840  1.00  0.00    -0.248 NA
ATOM     19  C   UNL A   1      45.744  24.024  27.183  1.00  0.00     0.031 C 
ATOM     20  C   UNL A   1      40.895  25.200  27.796  1.00  0.00     0.029 A 
ATOM     21  N   UNL A   1      42.383  26.836  28.121  1.00  0.00    -0.354 N 
ATOM     22  C   UNL A   1      46.632  26.059  27.742  1.00  0.00     0.074 A 
ATOM     23  C   UNL A   1      46.880  24.683  27.367  1.00  0.00     0.031 C 
ATOM     24  C   UNL A   1      40.207  26.311  28.092  1.00  0.00     0.029 A 
ATOM     25  C   UNL A   1      41.150  27.389  28.363  1.00  0.00     0.049 A 
ATOM     26  H   UNL A   1      43.225  27.343  28.183  1.00  0.00     0.167 HD
ATOM     27  C   UNL A   1      47.594  26.992  27.943  1.00  0.00     0.037 A 
ATOM     28  C   UNL A   1      40.815  28.620  28.791  1.00  0.00     0.037 A 
ATOM     29  C   UNL A   1      47.327  28.361  28.307  1.00  0.00     0.049 A 
ATOM     30  C   UNL A   1      41.907  29.617  29.046  1.00  0.00     0.074 A 
ATOM     31  C   UNL A   1      48.228  29.398  28.479  1.00  0.00     0.029 A 
ATOM     32  N   UNL A   1      46.067  28.882  28.567  1.00  0.00    -0.354 N 
ATOM     33  N   UNL A   1      43.203  29.482  28.895  1.00  0.00    -0.248 NA
ATOM     34  C   UNL A   1      41.494  30.938  29.538  1.00  0.00     0.031 C 
ATOM     35  C   UNL A   1      47.521  30.526  28.906  1.00  0.00     0.029 A 
ATOM     36  C   UNL A   1      46.171  30.214  28.937  1.00  0.00     0.049 A 
ATOM     37  H   UNL A   1      45.223  28.379  28.499  1.00  0.00     0.167 HD
ATOM     38  C   UNL A   1      43.757  30.702  29.252  1.00  0.00     0.074 A 
ATOM     39  C   UNL A   1      42.655  31.572  29.607  1.00  0.00     0.031 C 
ATOM     40  C   UNL A   1      45.063  31.066  29.287  1.00  0.00     0.037 A 
BRANCH  27  41
ATOM     41  C   UNL A   1      49.027  26.567  27.802  1.00  0.00     0.064 A 
ATOM     42  C   UNL A   1      49.671  26.528  26.557  1.00  0.00     0.173 A 
ATOM     43  C   UNL A   1      49.786  26.253  28.941  1.00  0.00     0.173 A 
ATOM     44  F   UNL A   1      48.991  26.811  25.436  1.00  0.00    -0.203 F 
ATOM     45  C   UNL A   1      51.014  26.171  26.455  1.00  0.00     0.198 A 
ATOM     46  C   UNL A   1      51.135  25.924  28.838  1.00  0.00     0.198 A 
ATOM     47  F   UNL A   1      49.223  26.280  30.158  1.00  0.00    -0.203 F 
ATOM     48  F   UNL A   1      51.598  26.102  25.249  1.00  0.00    -0.200 F 
ATOM     49  C   UNL A   1      51.747  25.878  27.595  1.00  0.00     0.200 A 
ATOM     50  F   UNL A   1      51.845  25.656  29.943  1.00  0.00    -0.200 F 
ATOM     51  F   UNL A   1      53.041  25.546  27.496  1.00  0.00    -0.200 F 
ENDBRANCH  27  41
BRANCH  28  52
ATOM     52  C   UNL A   1      39.387  28.959  29.025  1.00  0.00     0.064 A 
ATOM     53  C   UNL A   1      38.576  29.432  27.987  1.00  0.00     0.173 A 
ATOM     54  C   UNL A   1      38.805  28.812  30.294  1.00  0.00     0.173 A 
ATOM     55  F   UNL A   1      39.090  29.603  26.760  1.00  0.00    -0.203 F 
ATOM     56  C   UNL A   1      37.243  29.767  28.212  1.00  0.00     0.198 A 
ATOM     57  C   UNL A   1      37.462  29.115  30.510  1.00  0.00     0.198 A 
ATOM     58  F   UNL A   1      39.536  28.357  31.322  1.00  0.00    -0.203 F 
ATOM     59  F   UNL A   1      36.502  30.265  27.211  1.00  0.00    -0.200 F 
ATOM     60  C   UNL A   1      36.686  29.602  29.471  1.00  0.00     0.200 A 
ATOM     61  F   UNL A   1      36.925  28.934  31.723  1.00  0.00    -0.200 F 
ATOM     62  F   UNL A   1      35.401  29.919  29.685  1.00  0.00    -0.200 F 
ENDBRANCH  28  52
BRANCH  40  63
ATOM     63  C   UNL A   1      45.367  32.478  29.698  1.00  0.00     0.064 A 
ATOM     64  C   UNL A   1      45.407  33.523  28.765  1.00  0.00     0.173 A 
ATOM     65  C   UNL A   1      45.582  32.792  31.048  1.00  0.00     0.173 A 
ATOM     66  F   UNL A   1      45.226  33.271  27.460  1.00  0.00    -0.203 F 
ATOM     67  C   UNL A   1      45.674  34.829  29.166  1.00  0.00     0.198 A 
ATOM     68  C   UNL A   1      45.815  34.104  31.450  1.00  0.00     0.198 A 
ATOM     69  F   UNL A   1      45.551  31.828  31.981  1.00  0.00    -0.203 F 
ATOM     70  F   UNL A   1      45.756  35.806  28.251  1.00  0.00    -0.200 F 
ATOM     71  C   UNL A   1      45.869  35.119  30.509  1.00  0.00     0.200 A 
ATOM     72  F   UNL A   1      45.988  34.384  32.749  1.00  0.00    -0.200 F 
ATOM     73  F   UNL A   1      46.114  36.380  30.894  1.00  0.00    -0.200 F 
ENDBRANCH  40  63
ENDBRANCH  14  15
ENDBRANCH   7   9
ENDBRANCH   4   5
ENDBRANCH   3   4
ENDBRANCH   2   3
ENDBRANCH   1   2
BRANCH   1  74
ATOM     74  C   UNL A   1      36.105  22.708  25.939  1.00  0.00     0.021 C 
BRANCH  74  75
ATOM     75  C   UNL A   1      35.235  23.870  25.483  1.00  0.00     0.116 C 
BRANCH  75  76
ATOM     76  N   UNL A   1      34.939  23.836  24.078  1.00  0.00    -0.356 N 
ATOM     77  C   UNL A   1      34.061  24.541  23.328  1.00  0.00     0.223 C 
ATOM     78  H   UNL A   1      35.472  23.183  23.568  1.00  0.00     0.163 HD
ATOM     79  O   UNL A   1      34.091  24.308  22.112  1.00  0.00    -0.275 OA
BRANCH  77  80
ATOM     80  C   UNL A   1      33.010  25.530  23.872  1.00  0.00     0.083 C 
BRANCH  80  81
ATOM     81  C   UNL A   1      33.568  26.961  23.689  1.00  0.00     0.049 C 
BRANCH  81  82
ATOM     82  C   UNL A   1      33.427  27.903  24.863  1.00  0.00    -0.047 A 
ATOM     83  C   UNL A   1      32.816  29.150  24.672  1.00  0.00     0.004 A 
ATOM     84  C   UNL A   1      33.871  27.564  26.150  1.00  0.00     0.004 A 
ATOM     85  C   UNL A   1      32.579  29.999  25.755  1.00  0.00     0.000 A 
ATOM     86  C   UNL A   1      33.612  28.402  27.235  1.00  0.00     0.000 A 
ATOM     87  C   UNL A   1      32.957  29.615  27.039  1.00  0.00     0.000 A 
ENDBRANCH  81  82
ENDBRANCH  80  81
BRANCH  80  88
ATOM     88  C   UNL A   1      31.493  25.272  23.639  1.00  0.00     0.023 C 
BRANCH  88  89
ATOM     89  C   UNL A   1      30.396  26.012  24.441  1.00  0.00     0.116 C 
BRANCH  89  90
ATOM     90  C   UNL A   1      30.333  25.869  25.946  1.00  0.00     0.389 C 
ATOM     91  F   UNL A   1      31.227  24.952  26.385  1.00  0.00    -0.171 F 
ATOM     92  F   UNL A   1      30.644  27.038  26.551  1.00  0.00    -0.171 F 
ATOM     93  F   UNL A   1      29.117  25.498  26.389  1.00  0.00    -0.171 F 
ENDBRANCH  89  90
ENDBRANCH  88  89
ENDBRANCH  80  88
ENDBRANCH  77  80
ENDBRANCH  75  76
ENDBRANCH  74  75
ENDBRANCH   1  74
TORSDOF 18
ENDMDL
MODEL 2
REMARK VINA RESULT:     -10.6      0.930      7.249
REMARK SMILES O=C(NCCCCCCNC(=O)[C@H](CCC(F)(F)F)Cc1ccccc1)c1ccc(-c2c3nc(c(-c4c(F)c(F)c(F)c(F)c4F)c4ccc([nH]4)c(-c4c(F)c(F)c(F)c(F)c4F)c4nc(c(-c5c(F)c(F)c(F)c(F)c5F)c5ccc2[nH]5)C=C4)C=C3)cc1
REMARK SMILES IDX 7 1 6 2 5 3 4 4 3 5 1 6 2 7 27 9 28 10 89 11 29 12 88 13
REMARK SMILES IDX 30 14 31 15 32 16 82 17 33 18 87 19 81 20 83 21 34 22 86 23
REMARK SMILES IDX 80 24 79 25 35 27 67 28 47 29 66 30 48 31 51 32 65 33 84 34
REMARK SMILES IDX 49 35 50 36 64 38 85 39 52 40 36 41 37 42 45 43 38 44 39 45
REMARK SMILES IDX 43 46 46 47 40 48 41 49 44 50 42 51 68 52 69 53 77 54 70 55
REMARK SMILES IDX 71 56 75 57 78 58 72 59 73 60 76 61 74 62 53 63 54 64 62 65
REMARK SMILES IDX 55 66 56 67 60 68 63 69 57 70 58 71 61 72 59 73 8 74 9 75
REMARK SMILES IDX 10 76 11 77 12 79 13 80 20 81 21 82 22 83 26 84 23 85 25 86
REMARK SMILES IDX 24 87 14 88 15 89 16 90 17 91 18 92 19 93
REMARK H PARENT 3 8 83 26 51 37 10 78
REMARK Flexibility Score: inf
ROOT
ATOM      1  C   UNL A   1      36.947  21.940  24.357  1.00  0.00     0.002 C 
ENDROOT
BRANCH   1   2
ATOM      2  C   UNL A   1      36.707  20.539  24.935  1.00  0.00     0.002 C 
BRANCH   2   3
ATOM      3  C   UNL A   1      37.928  19.615  24.959  1.00  0.00     0.021 C 
BRANCH   3   4
ATOM      4  C   UNL A   1      39.127  20.173  25.716  1.00  0.00     0.116 C 
BRANCH   4   5
ATOM      5  N   UNL A   1      40.163  19.171  25.899  1.00  0.00    -0.352 N 
ATOM      6  O   UNL A   1      42.272  18.380  25.980  1.00  0.00    -0.269 OA
ATOM      7  C   UNL A   1      41.511  19.335  26.080  1.00  0.00     0.251 C 
ATOM      8  H   UNL A   1      39.850  18.237  25.891  1.00  0.00     0.163 HD
BRANCH   7   9
ATOM      9  C   UNL A   1      42.045  20.675  26.396  1.00  0.00     0.039 A 
ATOM     10  C   UNL A   1      42.295  21.595  25.375  1.00  0.00     0.014 A 
ATOM     11  C   UNL A   1      42.253  21.027  27.732  1.00  0.00     0.014 A 
ATOM     12  C   UNL A   1      42.857  22.828  25.679  1.00  0.00     0.010 A 
ATOM     13  C   UNL A   1      42.734  22.300  28.043  1.00  0.00     0.010 A 
ATOM     14  C   UNL A   1      43.048  23.206  27.018  1.00  0.00    -0.014 A 
BRANCH  14  15
ATOM     15  C   UNL A   1      43.470  24.592  27.328  1.00  0.00     0.031 A 
ATOM     16  C   UNL A   1      42.498  25.600  27.863  1.00  0.00     0.074 A 
ATOM     17  C   UNL A   1      44.756  24.929  27.108  1.00  0.00     0.049 A 
ATOM     18  N   UNL A   1      42.697  26.861  28.153  1.00  0.00    -0.248 NA
ATOM     19  C   UNL A   1      41.121  25.140  28.095  1.00  0.00     0.031 C 
ATOM     20  C   UNL A   1      45.781  24.027  26.575  1.00  0.00     0.029 A 
ATOM     21  N   UNL A   1      45.423  26.111  27.300  1.00  0.00    -0.354 N 
ATOM     22  C   UNL A   1      41.472  27.350  28.583  1.00  0.00     0.074 A 
ATOM     23  C   UNL A   1      40.526  26.256  28.495  1.00  0.00     0.031 C 
ATOM     24  C   UNL A   1      46.951  24.677  26.512  1.00  0.00     0.029 A 
ATOM     25  C   UNL A   1      46.743  26.058  26.928  1.00  0.00     0.049 A 
ATOM     26  H   UNL A   1      44.996  26.918  27.669  1.00  0.00     0.167 HD
ATOM     27  C   UNL A   1      41.172  28.599  29.015  1.00  0.00     0.037 A 
ATOM     28  C   UNL A   1      47.678  27.026  26.892  1.00  0.00     0.037 A 
ATOM     29  C   UNL A   1      42.129  29.673  29.106  1.00  0.00     0.049 A 
ATOM     30  C   UNL A   1      47.303  28.409  27.337  1.00  0.00     0.074 A 
ATOM     31  C   UNL A   1      41.938  30.959  29.583  1.00  0.00     0.029 A 
ATOM     32  N   UNL A   1      43.453  29.592  28.697  1.00  0.00    -0.354 N 
ATOM     33  N   UNL A   1      46.156  28.847  27.796  1.00  0.00    -0.248 NA
ATOM     34  C   UNL A   1      48.349  29.436  27.254  1.00  0.00     0.031 C 
ATOM     35  C   UNL A   1      43.127  31.673  29.403  1.00  0.00     0.029 A 
ATOM     36  C   UNL A   1      44.079  30.816  28.875  1.00  0.00     0.049 A 
ATOM     37  H   UNL A   1      43.884  28.784  28.335  1.00  0.00     0.167 HD
ATOM     38  C   UNL A   1      46.346  30.193  28.075  1.00  0.00     0.074 A 
ATOM     39  C   UNL A   1      47.726  30.493  27.754  1.00  0.00     0.031 C 
ATOM     40  C   UNL A   1      45.456  31.098  28.550  1.00  0.00     0.037 A 
BRANCH  27  41
ATOM     41  C   UNL A   1      39.749  28.888  29.401  1.00  0.00     0.064 A 
ATOM     42  C   UNL A   1      38.803  29.333  28.468  1.00  0.00     0.173 A 
ATOM     43  C   UNL A   1      39.313  28.653  30.715  1.00  0.00     0.173 A 
ATOM     44  F   UNL A   1      39.168  29.581  27.201  1.00  0.00    -0.203 F 
ATOM     45  C   UNL A   1      37.478  29.554  28.840  1.00  0.00     0.198 A 
ATOM     46  C   UNL A   1      37.982  28.847  31.076  1.00  0.00     0.198 A 
ATOM     47  F   UNL A   1      40.174  28.219  31.647  1.00  0.00    -0.203 F 
ATOM     48  F   UNL A   1      36.599  30.019  27.939  1.00  0.00    -0.200 F 
ATOM     49  C   UNL A   1      37.067  29.302  30.140  1.00  0.00     0.200 A 
ATOM     50  F   UNL A   1      37.584  28.588  32.330  1.00  0.00    -0.200 F 
ATOM     51  F   UNL A   1      35.790  29.504  30.493  1.00  0.00    -0.200 F 
ENDBRANCH  27  41
BRANCH  28  52
ATOM     52  C   UNL A   1      49.044  26.717  26.394  1.00  0.00     0.064 A 
ATOM     53  C   UNL A   1      49.394  26.942  25.057  1.00  0.00     0.173 A 
ATOM     54  C   UNL A   1      50.028  26.195  27.248  1.00  0.00     0.173 A 
ATOM     55  F   UNL A   1      48.484  27.425  24.198  1.00  0.00    -0.203 F 
ATOM     56  C   UNL A   1      50.668  26.635  24.586  1.00  0.00     0.198 A 
ATOM     57  C   UNL A   1      51.313  25.921  26.784  1.00  0.00     0.198 A 
ATOM     58  F   UNL A   1      49.747  25.968  28.539  1.00  0.00    -0.203 F 
ATOM     59  F   UNL A   1      50.962  26.813  23.290  1.00  0.00    -0.200 F 
ATOM     60  C   UNL A   1      51.628  26.132  25.451  1.00  0.00     0.200 A 
ATOM     61  F   UNL A   1      52.242  25.455  27.629  1.00  0.00    -0.200 F 
ATOM     62  F   UNL A   1      52.857  25.842  24.998  1.00  0.00    -0.200 F 
ENDBRANCH  28  52
BRANCH  40  63
ATOM     63  C   UNL A   1      45.957  32.494  28.778  1.00  0.00     0.064 A 
ATOM     64  C   UNL A   1      45.881  33.475  27.779  1.00  0.00     0.173 A 
ATOM     65  C   UNL A   1      46.483  32.864  30.025  1.00  0.00     0.173 A 
ATOM     66  F   UNL A   1      45.403  33.167  26.564  1.00  0.00    -0.203 F 
ATOM     67  C   UNL A   1      46.336  34.770  28.013  1.00  0.00     0.198 A 
ATOM     68  C   UNL A   1      46.904  34.168  30.266  1.00  0.00     0.198 A 
ATOM     69  F   UNL A   1      46.573  31.963  31.015  1.00  0.00    -0.203 F 
ATOM     70  F   UNL A   1      46.299  35.679  27.028  1.00  0.00    -0.200 F 
ATOM     71  C   UNL A   1      46.838  35.117  29.259  1.00  0.00     0.200 A 
ATOM     72  F   UNL A   1      47.375  34.505  31.475  1.00  0.00    -0.200 F 
ATOM     73  F   UNL A   1      47.264  36.368  29.486  1.00  0.00    -0.200 F 
ENDBRANCH  40  63
ENDBRANCH  14  15
ENDBRANCH   7   9
ENDBRANCH   4   5
ENDBRANCH   3   4
ENDBRANCH   2   3
ENDBRANCH   1   2
BRANCH   1  74
ATOM     74  C   UNL A   1      36.214  23.077  25.068  1.00  0.00     0.021 C 
BRANCH  74  75
ATOM     75  C   UNL A   1      34.706  23.065  24.866  1.00  0.00     0.116 C 
BRANCH  75  76
ATOM     76  N   UNL A   1      34.322  22.973  23.485  1.00  0.00    -0.356 N 
ATOM     77  C   UNL A   1      33.513  23.746  22.725  1.00  0.00     0.223 C 
ATOM     78  H   UNL A   1      34.720  22.210  23.004  1.00  0.00     0.163 HD
ATOM     79  O   UNL A   1      33.432  23.421  21.532  1.00  0.00    -0.275 OA
BRANCH  77  80
ATOM     80  C   UNL A   1      32.656  24.921  23.237  1.00  0.00     0.083 C 
BRANCH  80  81
ATOM     81  C   UNL A   1      33.435  26.229  22.964  1.00  0.00     0.049 C 
BRANCH  81  82
ATOM     82  C   UNL A   1      33.495  27.235  24.092  1.00  0.00    -0.047 A 
ATOM     83  C   UNL A   1      33.043  28.543  23.868  1.00  0.00     0.004 A 
ATOM     84  C   UNL A   1      33.971  26.899  25.368  1.00  0.00     0.004 A 
ATOM     85  C   UNL A   1      32.990  29.465  24.915  1.00  0.00     0.000 A 
ATOM     86  C   UNL A   1      33.895  27.814  26.418  1.00  0.00     0.000 A 
ATOM     87  C   UNL A   1      33.395  29.093  26.194  1.00  0.00     0.000 A 
ENDBRANCH  81  82
ENDBRANCH  80  81
BRANCH  80  88
ATOM     88  C   UNL A   1      31.110  24.906  23.052  1.00  0.00     0.023 C 
BRANCH  88  89
ATOM     89  C   UNL A   1      30.171  25.816  23.879  1.00  0.00     0.116 C 
BRANCH  89  90
ATOM     90  C   UNL A   1      30.299  25.867  25.386  1.00  0.00     0.389 C 
ATOM     91  F   UNL A   1      31.240  24.997  25.823  1.00  0.00    -0.171 F 
ATOM     92  F   UNL A   1      30.687  27.097  25.792  1.00  0.00    -0.171 F 
ATOM     93  F   UNL A   1      29.148  25.577  26.021  1.00  0.00    -0.171 F 
ENDBRANCH  89  90
ENDBRANCH  88  89
ENDBRANCH  80  88
ENDBRANCH  77  80
ENDBRANCH  75  76
ENDBRANCH  74  75
ENDBRANCH   1  74
TORSDOF 18
ENDMDL
MODEL 3
REMARK VINA RESULT:     -10.5      0.935      7.551
REMARK SMILES O=C(NCCCCCCNC(=O)[C@H](CCC(F)(F)F)Cc1ccccc1)c1ccc(-c2c3nc(c(-c4c(F)c(F)c(F)c(F)c4F)c4ccc([nH]4)c(-c4c(F)c(F)c(F)c(F)c4F)c4nc(c(-c5c(F)c(F)c(F)c(F)c5F)c5ccc2[nH]5)C=C4)C=C3)cc1
REMARK SMILES IDX 7 1 6 2 5 3 4 4 3 5 1 6 2 7 27 9 28 10 89 11 29 12 88 13
REMARK SMILES IDX 30 14 31 15 32 16 82 17 33 18 87 19 81 20 83 21 34 22 86 23
REMARK SMILES IDX 80 24 79 25 35 27 67 28 47 29 66 30 48 31 51 32 65 33 84 34
REMARK SMILES IDX 49 35 50 36 64 38 85 39 52 40 36 41 37 42 45 43 38 44 39 45
REMARK SMILES IDX 43 46 46 47 40 48 41 49 44 50 42 51 68 52 69 53 77 54 70 55
REMARK SMILES IDX 71 56 75 57 78 58 72 59 73 60 76 61 74 62 53 63 54 64 62 65
REMARK SMILES IDX 55 66 56 67 60 68 63 69 57 70 58 71 61 72 59 73 8 74 9 75
REMARK SMILES IDX 10 76 11 77 12 79 13 80 20 81 21 82 22 83 26 84 23 85 25 86
REMARK SMILES IDX 24 87 14 88 15 89 16 90 17 91 18 92 19 93
REMARK H PARENT 3 8 83 26 51 37 10 78
REMARK Flexibility Score: inf
ROOT
ATOM      1  C   UNL A   1      37.215  21.736  24.579  1.00  0.00     0.002 C 
ENDROOT
BRANCH   1   2
ATOM      2  C   UNL A   1      36.928  20.258  24.873  1.00  0.00     0.002 C 
BRANCH   2   3
ATOM      3  C   UNL A   1      38.157  19.348  24.948  1.00  0.00     0.021 C 
BRANCH   3   4
ATOM      4  C   UNL A   1      39.310  19.910  25.770  1.00  0.00     0.116 C 
BRANCH   4   5
ATOM      5  N   UNL A   1      40.375  18.937  25.941  1.00  0.00    -0.352 N 
ATOM      6  O   UNL A   1      42.506  18.205  25.999  1.00  0.00    -0.269 OA
ATOM      7  C   UNL A   1      41.720  19.138  26.108  1.00  0.00     0.251 C 
ATOM      8  H   UNL A   1      40.089  17.994  25.936  1.00  0.00     0.163 HD
BRANCH   7   9
ATOM      9  C   UNL A   1      42.220  20.492  26.420  1.00  0.00     0.039 A 
ATOM     10  C   UNL A   1      42.508  21.394  25.392  1.00  0.00     0.014 A 
ATOM     11  C   UNL A   1      42.357  20.876  27.756  1.00  0.00     0.014 A 
ATOM     12  C   UNL A   1      43.038  22.641  25.695  1.00  0.00     0.010 A 
ATOM     13  C   UNL A   1      42.806  22.162  28.062  1.00  0.00     0.010 A 
ATOM     14  C   UNL A   1      43.157  23.050  27.033  1.00  0.00    -0.014 A 
BRANCH  14  15
ATOM     15  C   UNL A   1      43.546  24.449  27.332  1.00  0.00     0.031 A 
ATOM     16  C   UNL A   1      42.538  25.451  27.809  1.00  0.00     0.074 A 
ATOM     17  C   UNL A   1      44.834  24.803  27.156  1.00  0.00     0.049 A 
ATOM     18  N   UNL A   1      42.705  26.719  28.083  1.00  0.00    -0.248 NA
ATOM     19  C   UNL A   1      41.160  24.973  27.996  1.00  0.00     0.031 C 
ATOM     20  C   UNL A   1      45.893  23.907  26.681  1.00  0.00     0.029 A 
ATOM     21  N   UNL A   1      45.474  25.998  27.351  1.00  0.00    -0.354 N 
ATOM     22  C   UNL A   1      41.456  27.197  28.455  1.00  0.00     0.074 A 
ATOM     23  C   UNL A   1      40.533  26.086  28.351  1.00  0.00     0.031 C 
ATOM     24  C   UNL A   1      47.054  24.576  26.651  1.00  0.00     0.029 A 
ATOM     25  C   UNL A   1      46.809  25.960  27.031  1.00  0.00     0.049 A 
ATOM     26  H   UNL A   1      45.021  26.805  27.687  1.00  0.00     0.167 HD
ATOM     27  C   UNL A   1      41.121  28.449  28.851  1.00  0.00     0.037 A 
ATOM     28  C   UNL A   1      47.729  26.942  27.013  1.00  0.00     0.037 A 
ATOM     29  C   UNL A   1      42.056  29.540  28.957  1.00  0.00     0.049 A 
ATOM     30  C   UNL A   1      47.315  28.328  27.416  1.00  0.00     0.074 A 
ATOM     31  C   UNL A   1      41.827  30.831  29.402  1.00  0.00     0.029 A 
ATOM     32  N   UNL A   1      43.397  29.472  28.602  1.00  0.00    -0.354 N 
ATOM     33  N   UNL A   1      46.144  28.755  27.822  1.00  0.00    -0.248 NA
ATOM     34  C   UNL A   1      48.347  29.370  27.354  1.00  0.00     0.031 C 
ATOM     35  C   UNL A   1      43.011  31.561  29.255  1.00  0.00     0.029 A 
ATOM     36  C   UNL A   1      43.996  30.709  28.781  1.00  0.00     0.049 A 
ATOM     37  H   UNL A   1      43.854  28.665  28.273  1.00  0.00     0.167 HD
ATOM     38  C   UNL A   1      46.302  30.109  28.081  1.00  0.00     0.074 A 
ATOM     39  C   UNL A   1      47.689  30.426  27.808  1.00  0.00     0.031 C 
ATOM     40  C   UNL A   1      45.380  31.008  28.504  1.00  0.00     0.037 A 
BRANCH  27  41
ATOM     41  C   UNL A   1      39.680  28.721  29.175  1.00  0.00     0.064 A 
ATOM     42  C   UNL A   1      39.166  28.552  30.469  1.00  0.00     0.173 A 
ATOM     43  C   UNL A   1      38.816  29.219  28.188  1.00  0.00     0.173 A 
ATOM     44  F   UNL A   1      39.946  28.071  31.449  1.00  0.00    -0.203 F 
ATOM     45  C   UNL A   1      37.835  28.852  30.756  1.00  0.00     0.198 A 
ATOM     46  C   UNL A   1      37.495  29.545  28.485  1.00  0.00     0.198 A 
ATOM     47  F   UNL A   1      39.256  29.407  26.934  1.00  0.00    -0.203 F 
ATOM     48  F   UNL A   1      37.355  28.644  31.991  1.00  0.00    -0.200 F 
ATOM     49  C   UNL A   1      37.004  29.356  29.767  1.00  0.00     0.200 A 
ATOM     50  F   UNL A   1      36.697  30.046  27.531  1.00  0.00    -0.200 F 
ATOM     51  F   UNL A   1      35.728  29.654  30.049  1.00  0.00    -0.200 F 
ENDBRANCH  27  41
BRANCH  28  52
ATOM     52  C   UNL A   1      49.118  26.647  26.575  1.00  0.00     0.064 A 
ATOM     53  C   UNL A   1      50.074  26.162  27.476  1.00  0.00     0.173 A 
ATOM     54  C   UNL A   1      49.515  26.839  25.242  1.00  0.00     0.173 A 
ATOM     55  F   UNL A   1      49.747  25.976  28.763  1.00  0.00    -0.203 F 
ATOM     56  C   UNL A   1      51.380  25.903  27.068  1.00  0.00     0.198 A 
ATOM     57  C   UNL A   1      50.812  26.547  24.828  1.00  0.00     0.198 A 
ATOM     58  F   UNL A   1      48.637  27.295  24.337  1.00  0.00    -0.203 F 
ATOM     59  F   UNL A   1      52.288  25.488  27.962  1.00  0.00    -0.200 F 
ATOM     60  C   UNL A   1      51.746  26.089  25.743  1.00  0.00     0.200 A 
ATOM     61  F   UNL A   1      51.155  26.708  23.543  1.00  0.00    -0.200 F 
ATOM     62  F   UNL A   1      53.002  25.834  25.350  1.00  0.00    -0.200 F 
ENDBRANCH  28  52
BRANCH  40  63
ATOM     63  C   UNL A   1      45.850  32.417  28.724  1.00  0.00     0.064 A 
ATOM     64  C   UNL A   1      46.403  32.825  29.945  1.00  0.00     0.173 A 
ATOM     65  C   UNL A   1      45.781  33.356  27.685  1.00  0.00     0.173 A 
ATOM     66  F   UNL A   1      46.474  31.968  30.976  1.00  0.00    -0.203 F 
ATOM     67  C   UNL A   1      46.850  34.131  30.127  1.00  0.00     0.198 A 
ATOM     68  C   UNL A   1      46.260  34.652  27.859  1.00  0.00     0.198 A 
ATOM     69  F   UNL A   1      45.263  33.015  26.496  1.00  0.00    -0.203 F 
ATOM     70  F   UNL A   1      47.330  34.514  31.318  1.00  0.00    -0.200 F 
ATOM     71  C   UNL A   1      46.786  35.040  29.080  1.00  0.00     0.200 A 
ATOM     72  F   UNL A   1      46.211  35.524  26.843  1.00  0.00    -0.200 F 
ATOM     73  F   UNL A   1      47.228  36.294  29.254  1.00  0.00    -0.200 F 
ENDBRANCH  40  63
ENDBRANCH  14  15
ENDBRANCH   7   9
ENDBRANCH   4   5
ENDBRANCH   3   4
ENDBRANCH   2   3
ENDBRANCH   1   2
BRANCH   1  74
ATOM     74  C   UNL A   1      36.199  22.727  25.144  1.00  0.00     0.021 C 
BRANCH  74  75
ATOM     75  C   UNL A   1      34.755  22.409  24.783  1.00  0.00     0.116 C 
BRANCH  75  76
ATOM     76  N   UNL A   1      34.457  22.636  23.397  1.00  0.00    -0.356 N 
ATOM     77  C   UNL A   1      33.770  23.624  22.777  1.00  0.00     0.223 C 
ATOM     78  H   UNL A   1      34.816  21.951  22.788  1.00  0.00     0.163 HD
ATOM     79  O   UNL A   1      33.740  23.556  21.541  1.00  0.00    -0.275 OA
BRANCH  77  80
ATOM     80  C   UNL A   1      32.988  24.751  23.482  1.00  0.00     0.083 C 
BRANCH  80  81
ATOM     81  C   UNL A   1      33.788  26.063  23.307  1.00  0.00     0.049 C 
BRANCH  81  82
ATOM     82  C   UNL A   1      33.531  27.158  24.318  1.00  0.00    -0.047 A 
ATOM     83  C   UNL A   1      33.796  26.915  25.673  1.00  0.00     0.004 A 
ATOM     84  C   UNL A   1      33.052  28.422  23.944  1.00  0.00     0.004 A 
ATOM     85  C   UNL A   1      33.667  27.936  26.616  1.00  0.00     0.000 A 
ATOM     86  C   UNL A   1      32.946  29.448  24.883  1.00  0.00     0.000 A 
ATOM     87  C   UNL A   1      33.263  29.208  26.217  1.00  0.00     0.000 A 
ENDBRANCH  81  82
ENDBRANCH  80  81
BRANCH  80  88
ATOM     88  C   UNL A   1      31.433  24.793  23.408  1.00  0.00     0.023 C 
BRANCH  88  89
ATOM     89  C   UNL A   1      30.548  24.850  24.676  1.00  0.00     0.116 C 
BRANCH  89  90
ATOM     90  C   UNL A   1      29.886  26.149  25.080  1.00  0.00     0.389 C 
ATOM     91  F   UNL A   1      30.187  27.140  24.207  1.00  0.00    -0.171 F 
ATOM     92  F   UNL A   1      28.539  26.022  25.073  1.00  0.00    -0.171 F 
ATOM     93  F   UNL A   1      30.246  26.564  26.309  1.00  0.00    -0.171 F 
ENDBRANCH  89  90
ENDBRANCH  88  89
ENDBRANCH  80  88
ENDBRANCH  77  80
ENDBRANCH  75  76
ENDBRANCH  74  75
ENDBRANCH   1  74
TORSDOF 18
ENDMDL
