MODEL 1
REMARK VINA RESULT:     -12.5      0.000      0.000
REMARK SMILES CCc1cc(OC(F)(F)F)cc2c1O[C@@H](C(F)(F)F)C(C(=O)NCCCCCCNC(=O)c1ccc(-c3c4nc(c(-c5c(F)c(F)c(F)c(F)c5F)c5ccc([nH]5)c(-c5c(F)c(F)c(F)c(F)c5F)c5nc(c(-c6c(F)c(F)c(F)c(F)c6F)c6ccc3[nH]6)C=C5)C=C4)cc1)=C2
REMARK SMILES IDX 26 1 25 2 24 3 23 4 21 5 22 6 20 8 3 9 4 10 13 11 5 12 12 13
REMARK SMILES IDX 14 14 11 15 96 16 15 17 2 18 1 19 6 20 7 21 8 22 9 23 10 24
REMARK SMILES IDX 16 25 17 26 18 27 19 28 27 29 28 30 29 31 30 32 31 33 32 35
REMARK SMILES IDX 33 36 34 37 95 38 35 39 94 40 36 41 37 42 38 43 88 44 39 45
REMARK SMILES IDX 93 46 87 47 89 48 40 49 92 50 86 51 85 52 41 54 73 55 53 56
REMARK SMILES IDX 72 57 54 58 57 59 71 60 90 61 55 62 56 63 70 65 91 66 58 67
REMARK SMILES IDX 42 68 43 69 51 70 44 71 45 72 49 73 52 74 46 75 47 76 50 77
REMARK SMILES IDX 48 78 74 79 75 80 83 81 76 82 77 83 81 84 84 85 78 86 79 87
REMARK SMILES IDX 82 88 80 89 59 90 60 91 68 92 61 93 62 94 66 95 69 96 63 97
REMARK SMILES IDX 64 98 67 99 65 100
REMARK H PARENT 23 7 30 34 89 53 57 64
REMARK Flexibility Score: inf
ROOT
ATOM      1  C   UNL A   1      30.574  27.246  24.076  1.00  0.00     0.002 C 
ENDROOT
BRANCH   1   2
ATOM      2  C   UNL A   1      30.760  26.154  23.013  1.00  0.00     0.021 C 
BRANCH   2   3
ATOM      3  C   UNL A   1      30.608  24.735  23.574  1.00  0.00     0.116 C 
BRANCH   3   4
ATOM      4  N   UNL A   1      30.511  24.800  25.021  1.00  0.00    -0.352 N 
ATOM      5  C   UNL A   1      30.968  23.993  26.013  1.00  0.00     0.251 C 
ATOM      6  O   UNL A   1      30.529  24.166  27.147  1.00  0.00    -0.270 OA
ATOM      7  H   UNL A   1      30.015  25.585  25.349  1.00  0.00     0.163 HD
BRANCH   5   8
ATOM      8  C   UNL A   1      32.033  22.978  25.800  1.00  0.00     0.067 C 
ATOM      9  C   UNL A   1      35.261  20.405  24.983  1.00  0.00    -0.002 A 
ATOM     10  C   UNL A   1      34.991  19.075  24.609  1.00  0.00     0.054 A 
ATOM     11  C   UNL A   1      34.191  21.264  25.281  1.00  0.00     0.131 A 
ATOM     12  C   UNL A   1      33.681  18.604  24.542  1.00  0.00     0.130 A 
ATOM     13  C   UNL A   1      32.880  20.792  25.246  1.00  0.00     0.021 A 
ATOM     14  O   UNL A   1      34.488  22.571  25.532  1.00  0.00    -0.475 OA
ATOM     15  C   UNL A   1      32.632  19.464  24.876  1.00  0.00     0.058 A 
ATOM     16  C   UNL A   1      31.772  21.696  25.511  1.00  0.00     0.025 C 
ATOM     17  C   UNL A   1      33.459  23.442  26.082  1.00  0.00     0.314 C 
BRANCH   9  18
ATOM     18  C   UNL A   1      36.697  20.880  25.031  1.00  0.00     0.036 C 
ATOM     19  C   UNL A   1      37.687  19.730  24.936  1.00  0.00     0.009 C 
ENDBRANCH   9  18
BRANCH  12  20
ATOM     20  O   UNL A   1      33.282  17.354  24.162  1.00  0.00    -0.406 OA
BRANCH  20  21
ATOM     21  C   UNL A   1      33.358  16.313  25.121  1.00  0.00     0.573 C 
ATOM     22  F   UNL A   1      32.994  15.128  24.588  1.00  0.00    -0.132 F 
ATOM     23  F   UNL A   1      34.603  16.217  25.633  1.00  0.00    -0.132 F 
ATOM     24  F   UNL A   1      32.508  16.598  26.133  1.00  0.00    -0.132 F 
ENDBRANCH  20  21
ENDBRANCH  12  20
BRANCH  17  25
ATOM     25  C   UNL A   1      33.810  24.885  25.650  1.00  0.00     0.429 C 
ATOM     26  F   UNL A   1      33.179  25.823  26.389  1.00  0.00    -0.167 F 
ATOM     27  F   UNL A   1      35.139  25.130  25.812  1.00  0.00    -0.167 F 
ATOM     28  F   UNL A   1      33.530  25.114  24.346  1.00  0.00    -0.167 F 
ENDBRANCH  17  25
ENDBRANCH   5   8
ENDBRANCH   3   4
ENDBRANCH   2   3
ENDBRANCH   1   2
BRANCH   1  29
ATOM     29  C   UNL A   1      31.845  28.032  24.418  1.00  0.00     0.002 C 
BRANCH  29  30
ATOM     30  C   UNL A   1      31.677  29.089  25.513  1.00  0.00     0.021 C 
BRANCH  30  31
ATOM     31  C   UNL A   1      32.975  29.767  25.935  1.00  0.00     0.116 C 
BRANCH  31  32
ATOM     32  N   UNL A   1      32.767  31.166  26.268  1.00  0.00    -0.352 N 
ATOM     33  C   UNL A   1      33.394  31.934  27.215  1.00  0.00     0.251 C 
ATOM     34  H   UNL A   1      32.077  31.628  25.739  1.00  0.00     0.163 HD
ATOM     35  O   UNL A   1      32.943  33.035  27.514  1.00  0.00    -0.269 OA
BRANCH  33  36
ATOM     36  C   UNL A   1      34.617  31.437  27.881  1.00  0.00     0.039 A 
ATOM     37  C   UNL A   1      34.637  30.125  28.361  1.00  0.00     0.014 A 
ATOM     38  C   UNL A   1      35.720  32.274  28.077  1.00  0.00     0.014 A 
ATOM     39  C   UNL A   1      35.772  29.643  29.017  1.00  0.00     0.010 A 
ATOM     40  C   UNL A   1      36.875  31.773  28.670  1.00  0.00     0.010 A 
ATOM     41  C   UNL A   1      36.903  30.461  29.167  1.00  0.00    -0.014 A 
BRANCH  41  42
ATOM     42  C   UNL A   1      38.106  29.981  29.892  1.00  0.00     0.031 A 
ATOM     43  C   UNL A   1      38.386  30.482  31.283  1.00  0.00     0.074 A 
ATOM     44  C   UNL A   1      38.966  29.140  29.288  1.00  0.00     0.049 A 
ATOM     45  N   UNL A   1      39.412  30.246  32.059  1.00  0.00    -0.248 NA
ATOM     46  C   UNL A   1      37.390  31.395  31.868  1.00  0.00     0.031 C 
ATOM     47  C   UNL A   1      38.822  28.617  27.929  1.00  0.00     0.029 A 
ATOM     48  N   UNL A   1      40.138  28.586  29.738  1.00  0.00    -0.354 N 
ATOM     49  C   UNL A   1      39.197  30.996  33.208  1.00  0.00     0.074 A 
ATOM     50  C   UNL A   1      37.969  31.733  33.011  1.00  0.00     0.031 C 
ATOM     51  C   UNL A   1      39.858  27.803  27.662  1.00  0.00     0.029 A 
ATOM     52  C   UNL A   1      40.750  27.773  28.816  1.00  0.00     0.049 A 
ATOM     53  H   UNL A   1      40.504  28.755  30.636  1.00  0.00     0.167 HD
ATOM     54  C   UNL A   1      39.944  31.045  34.337  1.00  0.00     0.037 A 
ATOM     55  C   UNL A   1      41.905  27.085  28.897  1.00  0.00     0.037 A 
ATOM     56  C   UNL A   1      41.144  30.280  34.545  1.00  0.00     0.049 A 
ATOM     57  C   UNL A   1      42.705  27.141  30.171  1.00  0.00     0.074 A 
ATOM     58  C   UNL A   1      41.946  30.219  35.671  1.00  0.00     0.029 A 
ATOM     59  N   UNL A   1      41.712  29.434  33.603  1.00  0.00    -0.354 N 
ATOM     60  N   UNL A   1      42.462  27.808  31.272  1.00  0.00    -0.248 NA
ATOM     61  C   UNL A   1      43.934  26.336  30.218  1.00  0.00     0.031 C 
ATOM     62  C   UNL A   1      43.018  29.363  35.399  1.00  0.00     0.029 A 
ATOM     63  C   UNL A   1      42.859  28.854  34.120  1.00  0.00     0.049 A 
ATOM     64  H   UNL A   1      41.353  29.271  32.702  1.00  0.00     0.167 HD
ATOM     65  C   UNL A   1      43.483  27.476  32.153  1.00  0.00     0.074 A 
ATOM     66  C   UNL A   1      44.344  26.541  31.461  1.00  0.00     0.031 C 
ATOM     67  C   UNL A   1      43.688  27.907  33.422  1.00  0.00     0.037 A 
BRANCH  54  68
ATOM     68  C   UNL A   1      39.479  31.953  35.439  1.00  0.00     0.064 A 
ATOM     69  C   UNL A   1      38.604  31.506  36.441  1.00  0.00     0.173 A 
ATOM     70  C   UNL A   1      39.942  33.275  35.515  1.00  0.00     0.173 A 
ATOM     71  F   UNL A   1      38.122  30.254  36.407  1.00  0.00    -0.203 F 
ATOM     72  C   UNL A   1      38.188  32.357  37.462  1.00  0.00     0.198 A 
ATOM     73  C   UNL A   1      39.547  34.114  36.554  1.00  0.00     0.198 A 
ATOM     74  F   UNL A   1      40.783  33.753  34.586  1.00  0.00    -0.203 F 
ATOM     75  F   UNL A   1      37.313  31.922  38.379  1.00  0.00    -0.200 F 
ATOM     76  C   UNL A   1      38.665  33.658  37.522  1.00  0.00     0.200 A 
ATOM     77  F   UNL A   1      40.019  35.368  36.618  1.00  0.00    -0.200 F 
ATOM     78  F   UNL A   1      38.270  34.473  38.509  1.00  0.00    -0.200 F 
ENDBRANCH  54  68
BRANCH  55  79
ATOM     79  C   UNL A   1      42.359  26.256  27.751  1.00  0.00     0.064 A 
ATOM     80  C   UNL A   1      43.280  26.757  26.821  1.00  0.00     0.173 A 
ATOM     81  C   UNL A   1      41.876  24.954  27.554  1.00  0.00     0.173 A 
ATOM     82  F   UNL A   1      43.756  28.004  26.956  1.00  0.00    -0.203 F 
ATOM     83  C   UNL A   1      43.682  25.999  25.723  1.00  0.00     0.198 A 
ATOM     84  C   UNL A   1      42.300  24.186  26.471  1.00  0.00     0.198 A 
ATOM     85  F   UNL A   1      40.999  24.425  28.419  1.00  0.00    -0.203 F 
ATOM     86  F   UNL A   1      44.526  26.522  24.823  1.00  0.00    -0.200 F 
ATOM     87  C   UNL A   1      43.194  24.712  25.552  1.00  0.00     0.200 A 
ATOM     88  F   UNL A   1      41.837  22.937  26.316  1.00  0.00    -0.200 F 
ATOM     89  F   UNL A   1      43.581  23.982  24.496  1.00  0.00    -0.200 F 
ENDBRANCH  55  79
BRANCH  67  90
ATOM     90  C   UNL A   1      44.859  27.330  34.164  1.00  0.00     0.064 A 
ATOM     91  C   UNL A   1      46.107  27.968  34.186  1.00  0.00     0.173 A 
ATOM     92  C   UNL A   1      44.713  26.141  34.895  1.00  0.00     0.173 A 
ATOM     93  F   UNL A   1      46.299  29.100  33.492  1.00  0.00    -0.203 F 
ATOM     94  C   UNL A   1      47.175  27.423  34.893  1.00  0.00     0.198 A 
ATOM     95  C   UNL A   1      45.775  25.614  35.624  1.00  0.00     0.198 A 
ATOM     96  F   UNL A   1      43.536  25.496  34.911  1.00  0.00    -0.203 F 
ATOM     97  F   UNL A   1      48.373  28.024  34.863  1.00  0.00    -0.200 F 
ATOM     98  C   UNL A   1      47.006  26.252  35.616  1.00  0.00     0.200 A 
ATOM     99  F   UNL A   1      45.607  24.490  36.333  1.00  0.00    -0.200 F 
ATOM    100  F   UNL A   1      48.034  25.732  36.302  1.00  0.00    -0.200 F 
ENDBRANCH  67  90
ENDBRANCH  41  42
ENDBRANCH  33  36
ENDBRANCH  31  32
ENDBRANCH  30  31
ENDBRANCH  29  30
ENDBRANCH   1  29
TORSDOF 17
ENDMDL
MODEL 2
REMARK VINA RESULT:     -12.4      2.349      7.797
REMARK SMILES CCc1cc(OC(F)(F)F)cc2c1O[C@@H](C(F)(F)F)C(C(=O)NCCCCCCNC(=O)c1ccc(-c3c4nc(c(-c5c(F)c(F)c(F)c(F)c5F)c5ccc([nH]5)c(-c5c(F)c(F)c(F)c(F)c5F)c5nc(c(-c6c(F)c(F)c(F)c(F)c6F)c6ccc3[nH]6)C=C5)C=C4)cc1)=C2
REMARK SMILES IDX 26 1 25 2 24 3 23 4 21 5 22 6 20 8 3 9 4 10 13 11 5 12 12 13
REMARK SMILES IDX 14 14 11 15 96 16 15 17 2 18 1 19 6 20 7 21 8 22 9 23 10 24
REMARK SMILES IDX 16 25 17 26 18 27 19 28 27 29 28 30 29 31 30 32 31 33 32 35
REMARK SMILES IDX 33 36 34 37 95 38 35 39 94 40 36 41 37 42 38 43 88 44 39 45
REMARK SMILES IDX 93 46 87 47 89 48 40 49 92 50 86 51 85 52 41 54 73 55 53 56
REMARK SMILES IDX 72 57 54 58 57 59 71 60 90 61 55 62 56 63 70 65 91 66 58 67
REMARK SMILES IDX 42 68 43 69 51 70 44 71 45 72 49 73 52 74 46 75 47 76 50 77
REMARK SMILES IDX 48 78 74 79 75 80 83 81 76 82 77 83 81 84 84 85 78 86 79 87
REMARK SMILES IDX 82 88 80 89 59 90 60 91 68 92 61 93 62 94 66 95 69 96 63 97
REMARK SMILES IDX 64 98 67 99 65 100
REMARK H PARENT 23 7 30 34 89 53 57 64
REMARK Flexibility Score: inf
ROOT
ATOM      1  C   UNL A   1      32.188  30.098  27.235  1.00  0.00     0.002 C 
ENDROOT
BRANCH   1   2
ATOM      2  C   UNL A   1      33.723  30.098  27.192  1.00  0.00     0.021 C 
BRANCH   2   3
ATOM      3  C   UNL A   1      34.304  28.898  26.434  1.00  0.00     0.116 C 
BRANCH   3   4
ATOM      4  N   UNL A   1      33.931  28.988  25.034  1.00  0.00    -0.352 N 
ATOM      5  C   UNL A   1      33.677  28.051  24.085  1.00  0.00     0.251 C 
ATOM      6  O   UNL A   1      33.617  28.416  22.913  1.00  0.00    -0.270 OA
ATOM      7  H   UNL A   1      33.843  29.913  24.707  1.00  0.00     0.163 HD
BRANCH   5   8
ATOM      8  C   UNL A   1      33.385  26.631  24.413  1.00  0.00     0.067 C 
ATOM      9  C   UNL A   1      32.230  22.754  25.573  1.00  0.00    -0.002 A 
ATOM     10  C   UNL A   1      33.227  21.827  25.930  1.00  0.00     0.054 A 
ATOM     11  C   UNL A   1      32.607  24.042  25.161  1.00  0.00     0.131 A 
ATOM     12  C   UNL A   1      34.577  22.170  25.867  1.00  0.00     0.130 A 
ATOM     13  C   UNL A   1      33.955  24.383  25.068  1.00  0.00     0.021 A 
ATOM     14  O   UNL A   1      31.610  24.944  24.931  1.00  0.00    -0.475 OA
ATOM     15  C   UNL A   1      34.933  23.446  25.422  1.00  0.00     0.058 A 
ATOM     16  C   UNL A   1      34.341  25.733  24.685  1.00  0.00     0.025 C 
ATOM     17  C   UNL A   1      31.927  26.203  24.273  1.00  0.00     0.314 C 
BRANCH   9  18
ATOM     18  C   UNL A   1      30.776  22.345  25.667  1.00  0.00     0.036 C 
ATOM     19  C   UNL A   1      30.121  22.832  26.950  1.00  0.00     0.009 C 
ENDBRANCH   9  18
BRANCH  12  20
ATOM     20  O   UNL A   1      35.636  21.381  26.216  1.00  0.00    -0.406 OA
BRANCH  20  21
ATOM     21  C   UNL A   1      36.490  20.924  25.181  1.00  0.00     0.573 C 
ATOM     22  F   UNL A   1      36.463  19.578  25.082  1.00  0.00    -0.132 F 
ATOM     23  F   UNL A   1      36.151  21.473  23.996  1.00  0.00    -0.132 F 
ATOM     24  F   UNL A   1      37.757  21.298  25.472  1.00  0.00    -0.132 F 
ENDBRANCH  20  21
ENDBRANCH  12  20
BRANCH  17  25
ATOM     25  C   UNL A   1      30.863  27.230  24.726  1.00  0.00     0.429 C 
ATOM     26  F   UNL A   1      29.611  26.723  24.732  1.00  0.00    -0.167 F 
ATOM     27  F   UNL A   1      31.094  27.635  26.006  1.00  0.00    -0.167 F 
ATOM     28  F   UNL A   1      30.865  28.345  23.960  1.00  0.00    -0.167 F 
ENDBRANCH  17  25
ENDBRANCH   5   8
ENDBRANCH   3   4
ENDBRANCH   2   3
ENDBRANCH   1   2
BRANCH   1  29
ATOM     29  C   UNL A   1      31.516  31.004  26.197  1.00  0.00     0.002 C 
BRANCH  29  30
ATOM     30  C   UNL A   1      31.397  32.475  26.604  1.00  0.00     0.021 C 
BRANCH  30  31
ATOM     31  C   UNL A   1      32.651  33.049  27.254  1.00  0.00     0.116 C 
BRANCH  31  32
ATOM     32  N   UNL A   1      32.450  34.420  27.692  1.00  0.00    -0.352 N 
ATOM     33  C   UNL A   1      33.006  35.080  28.758  1.00  0.00     0.251 C 
ATOM     34  H   UNL A   1      31.824  34.950  27.147  1.00  0.00     0.163 HD
ATOM     35  O   UNL A   1      32.558  36.165  29.113  1.00  0.00    -0.269 OA
BRANCH  33  36
ATOM     36  C   UNL A   1      34.148  34.484  29.483  1.00  0.00     0.039 A 
ATOM     37  C   UNL A   1      35.433  34.626  28.951  1.00  0.00     0.014 A 
ATOM     38  C   UNL A   1      33.950  33.746  30.655  1.00  0.00     0.014 A 
ATOM     39  C   UNL A   1      36.523  34.049  29.606  1.00  0.00     0.010 A 
ATOM     40  C   UNL A   1      35.044  33.229  31.342  1.00  0.00     0.010 A 
ATOM     41  C   UNL A   1      36.337  33.355  30.812  1.00  0.00    -0.014 A 
BRANCH  41  42
ATOM     42  C   UNL A   1      37.477  32.703  31.505  1.00  0.00     0.031 A 
ATOM     43  C   UNL A   1      38.199  31.563  30.838  1.00  0.00     0.074 A 
ATOM     44  C   UNL A   1      37.828  33.098  32.742  1.00  0.00     0.049 A 
ATOM     45  N   UNL A   1      39.168  30.812  31.298  1.00  0.00    -0.248 NA
ATOM     46  C   UNL A   1      37.752  31.200  29.484  1.00  0.00     0.031 C 
ATOM     47  C   UNL A   1      37.178  34.163  33.505  1.00  0.00     0.029 A 
ATOM     48  N   UNL A   1      38.814  32.640  33.580  1.00  0.00    -0.354 N 
ATOM     49  C   UNL A   1      39.428  29.880  30.303  1.00  0.00     0.074 A 
ATOM     50  C   UNL A   1      38.484  30.125  29.234  1.00  0.00     0.031 C 
ATOM     51  C   UNL A   1      37.794  34.290  34.693  1.00  0.00     0.029 A 
ATOM     52  C   UNL A   1      38.859  33.296  34.786  1.00  0.00     0.049 A 
ATOM     53  H   UNL A   1      39.430  31.911  33.339  1.00  0.00     0.167 HD
ATOM     54  C   UNL A   1      40.384  28.922  30.271  1.00  0.00     0.037 A 
ATOM     55  C   UNL A   1      39.669  33.110  35.845  1.00  0.00     0.037 A 
ATOM     56  C   UNL A   1      41.346  28.707  31.320  1.00  0.00     0.049 A 
ATOM     57  C   UNL A   1      40.737  32.052  35.776  1.00  0.00     0.074 A 
ATOM     58  C   UNL A   1      42.388  27.797  31.363  1.00  0.00     0.029 A 
ATOM     59  N   UNL A   1      41.387  29.420  32.509  1.00  0.00    -0.354 N 
ATOM     60  N   UNL A   1      41.011  31.215  34.806  1.00  0.00    -0.248 NA
ATOM     61  C   UNL A   1      41.619  31.923  36.945  1.00  0.00     0.031 C 
ATOM     62  C   UNL A   1      43.039  27.936  32.594  1.00  0.00     0.029 A 
ATOM     63  C   UNL A   1      42.431  28.963  33.297  1.00  0.00     0.049 A 
ATOM     64  H   UNL A   1      40.766  30.142  32.756  1.00  0.00     0.167 HD
ATOM     65  C   UNL A   1      42.114  30.487  35.230  1.00  0.00     0.074 A 
ATOM     66  C   UNL A   1      42.466  30.988  36.542  1.00  0.00     0.031 C 
ATOM     67  C   UNL A   1      42.778  29.493  34.590  1.00  0.00     0.037 A 
BRANCH  54  68
ATOM     68  C   UNL A   1      40.442  28.036  29.060  1.00  0.00     0.064 A 
ATOM     69  C   UNL A   1      39.715  26.839  28.988  1.00  0.00     0.173 A 
ATOM     70  C   UNL A   1      41.206  28.408  27.943  1.00  0.00     0.173 A 
ATOM     71  F   UNL A   1      38.979  26.433  30.034  1.00  0.00    -0.203 F 
ATOM     72  C   UNL A   1      39.771  26.032  27.855  1.00  0.00     0.198 A 
ATOM     73  C   UNL A   1      41.236  27.613  26.800  1.00  0.00     0.198 A 
ATOM     74  F   UNL A   1      41.918  29.544  27.956  1.00  0.00    -0.203 F 
ATOM     75  F   UNL A   1      39.106  24.869  27.829  1.00  0.00    -0.200 F 
ATOM     76  C   UNL A   1      40.527  26.423  26.759  1.00  0.00     0.200 A 
ATOM     77  F   UNL A   1      41.957  27.998  25.736  1.00  0.00    -0.200 F 
ATOM     78  F   UNL A   1      40.573  25.649  25.666  1.00  0.00    -0.200 F 
ENDBRANCH  54  68
BRANCH  55  79
ATOM     79  C   UNL A   1      39.525  33.967  37.051  1.00  0.00     0.064 A 
ATOM     80  C   UNL A   1      40.123  35.233  37.109  1.00  0.00     0.173 A 
ATOM     81  C   UNL A   1      38.798  33.537  38.171  1.00  0.00     0.173 A 
ATOM     82  F   UNL A   1      40.844  35.681  36.070  1.00  0.00    -0.203 F 
ATOM     83  C   UNL A   1      40.023  36.026  38.250  1.00  0.00     0.198 A 
ATOM     84  C   UNL A   1      38.675  34.343  39.301  1.00  0.00     0.198 A 
ATOM     85  F   UNL A   1      38.200  32.337  38.163  1.00  0.00    -0.203 F 
ATOM     86  F   UNL A   1      40.647  37.211  38.296  1.00  0.00    -0.200 F 
ATOM     87  C   UNL A   1      39.295  35.582  39.343  1.00  0.00     0.200 A 
ATOM     88  F   UNL A   1      37.959  33.916  40.351  1.00  0.00    -0.200 F 
ATOM     89  F   UNL A   1      39.199  36.344  40.442  1.00  0.00    -0.200 F 
ENDBRANCH  55  79
BRANCH  67  90
ATOM     90  C   UNL A   1      43.985  28.919  35.274  1.00  0.00     0.064 A 
ATOM     91  C   UNL A   1      45.269  29.442  35.068  1.00  0.00     0.173 A 
ATOM     92  C   UNL A   1      43.844  27.857  36.179  1.00  0.00     0.173 A 
ATOM     93  F   UNL A   1      45.457  30.450  34.202  1.00  0.00    -0.203 F 
ATOM     94  C   UNL A   1      46.373  28.904  35.724  1.00  0.00     0.198 A 
ATOM     95  C   UNL A   1      44.945  27.340  36.855  1.00  0.00     0.198 A 
ATOM     96  F   UNL A   1      42.634  27.326  36.417  1.00  0.00    -0.203 F 
ATOM     97  F   UNL A   1      47.598  29.389  35.477  1.00  0.00    -0.200 F 
ATOM     98  C   UNL A   1      46.209  27.860  36.621  1.00  0.00     0.200 A 
ATOM     99  F   UNL A   1      44.783  26.340  37.732  1.00  0.00    -0.200 F 
ATOM    100  F   UNL A   1      47.272  27.349  37.257  1.00  0.00    -0.200 F 
ENDBRANCH  67  90
ENDBRANCH  41  42
ENDBRANCH  33  36
ENDBRANCH  31  32
ENDBRANCH  30  31
ENDBRANCH  29  30
ENDBRANCH   1  29
TORSDOF 17
ENDMDL
MODEL 3
REMARK VINA RESULT:     -12.2      0.768      7.263
REMARK SMILES CCc1cc(OC(F)(F)F)cc2c1O[C@@H](C(F)(F)F)C(C(=O)NCCCCCCNC(=O)c1ccc(-c3c4nc(c(-c5c(F)c(F)c(F)c(F)c5F)c5ccc([nH]5)c(-c5c(F)c(F)c(F)c(F)c5F)c5nc(c(-c6c(F)c(F)c(F)c(F)c6F)c6ccc3[nH]6)C=C5)C=C4)cc1)=C2
REMARK SMILES IDX 26 1 25 2 24 3 23 4 21 5 22 6 20 8 3 9 4 10 13 11 5 12 12 13
REMARK SMILES IDX 14 14 11 15 96 16 15 17 2 18 1 19 6 20 7 21 8 22 9 23 10 24
REMARK SMILES IDX 16 25 17 26 18 27 19 28 27 29 28 30 29 31 30 32 31 33 32 35
REMARK SMILES IDX 33 36 34 37 95 38 35 39 94 40 36 41 37 42 38 43 88 44 39 45
REMARK SMILES IDX 93 46 87 47 89 48 40 49 92 50 86 51 85 52 41 54 73 55 53 56
REMARK SMILES IDX 72 57 54 58 57 59 71 60 90 61 55 62 56 63 70 65 91 66 58 67
REMARK SMILES IDX 42 68 43 69 51 70 44 71 45 72 49 73 52 74 46 75 47 76 50 77
REMARK SMILES IDX 48 78 74 79 75 80 83 81 76 82 77 83 81 84 84 85 78 86 79 87
REMARK SMILES IDX 82 88 80 89 59 90 60 91 68 92 61 93 62 94 66 95 69 96 63 97
REMARK SMILES IDX 64 98 67 99 65 100
REMARK H PARENT 23 7 30 34 89 53 57 64
REMARK Flexibility Score: inf
ROOT
ATOM      1  C   UNL A   1      31.529  26.886  22.273  1.00  0.00     0.002 C 
ENDROOT
BRANCH   1   2
ATOM      2  C   UNL A   1      31.739  25.422  22.688  1.00  0.00     0.021 C 
BRANCH   2   3
ATOM      3  C   UNL A   1      30.470  24.766  23.246  1.00  0.00     0.116 C 
BRANCH   3   4
ATOM      4  N   UNL A   1      30.396  25.005  24.676  1.00  0.00    -0.352 N 
ATOM      5  C   UNL A   1      30.875  24.325  25.750  1.00  0.00     0.251 C 
ATOM      6  O   UNL A   1      30.454  24.633  26.863  1.00  0.00    -0.270 OA
ATOM      7  H   UNL A   1      29.902  25.822  24.916  1.00  0.00     0.163 HD
BRANCH   5   8
ATOM      8  C   UNL A   1      31.941  23.296  25.642  1.00  0.00     0.067 C 
ATOM      9  C   UNL A   1      35.200  20.679  25.151  1.00  0.00    -0.002 A 
ATOM     10  C   UNL A   1      34.953  19.357  24.737  1.00  0.00     0.054 A 
ATOM     11  C   UNL A   1      34.118  21.552  25.341  1.00  0.00     0.131 A 
ATOM     12  C   UNL A   1      33.650  18.906  24.526  1.00  0.00     0.130 A 
ATOM     13  C   UNL A   1      32.811  21.101  25.161  1.00  0.00     0.021 A 
ATOM     14  O   UNL A   1      34.405  22.852  25.635  1.00  0.00    -0.475 OA
ATOM     15  C   UNL A   1      32.585  19.781  24.754  1.00  0.00     0.058 A 
ATOM     16  C   UNL A   1      31.695  22.021  25.315  1.00  0.00     0.025 C 
ATOM     17  C   UNL A   1      33.336  23.735  26.080  1.00  0.00     0.314 C 
BRANCH   9  18
ATOM     18  C   UNL A   1      36.629  21.131  25.357  1.00  0.00     0.036 C 
ATOM     19  C   UNL A   1      37.159  21.926  24.174  1.00  0.00     0.009 C 
ENDBRANCH   9  18
BRANCH  12  20
ATOM     20  O   UNL A   1      33.276  17.666  24.093  1.00  0.00    -0.406 OA
BRANCH  20  21
ATOM     21  C   UNL A   1      33.297  16.603  25.030  1.00  0.00     0.573 C 
ATOM     22  F   UNL A   1      32.640  16.934  26.162  1.00  0.00    -0.132 F 
ATOM     23  F   UNL A   1      32.757  15.484  24.503  1.00  0.00    -0.132 F 
ATOM     24  F   UNL A   1      34.583  16.338  25.353  1.00  0.00    -0.132 F 
ENDBRANCH  20  21
ENDBRANCH  12  20
BRANCH  17  25
ATOM     25  C   UNL A   1      33.752  25.176  25.702  1.00  0.00     0.429 C 
ATOM     26  F   UNL A   1      33.060  26.118  26.378  1.00  0.00    -0.167 F 
ATOM     27  F   UNL A   1      35.060  25.399  26.008  1.00  0.00    -0.167 F 
ATOM     28  F   UNL A   1      33.617  25.420  24.377  1.00  0.00    -0.167 F 
ENDBRANCH  17  25
ENDBRANCH   5   8
ENDBRANCH   3   4
ENDBRANCH   2   3
ENDBRANCH   1   2
BRANCH   1  29
ATOM     29  C   UNL A   1      31.653  27.901  23.416  1.00  0.00     0.002 C 
BRANCH  29  30
ATOM     30  C   UNL A   1      32.993  28.638  23.483  1.00  0.00     0.021 C 
BRANCH  30  31
ATOM     31  C   UNL A   1      33.465  28.955  24.898  1.00  0.00     0.116 C 
BRANCH  31  32
ATOM     32  N   UNL A   1      32.823  30.148  25.423  1.00  0.00    -0.352 N 
ATOM     33  C   UNL A   1      33.107  30.854  26.563  1.00  0.00     0.251 C 
ATOM     34  H   UNL A   1      32.076  30.498  24.885  1.00  0.00     0.163 HD
ATOM     35  O   UNL A   1      32.326  31.707  26.972  1.00  0.00    -0.269 OA
BRANCH  33  36
ATOM     36  C   UNL A   1      34.359  30.590  27.305  1.00  0.00     0.039 A 
ATOM     37  C   UNL A   1      34.621  29.290  27.744  1.00  0.00     0.014 A 
ATOM     38  C   UNL A   1      35.246  31.628  27.611  1.00  0.00     0.014 A 
ATOM     39  C   UNL A   1      35.785  29.023  28.469  1.00  0.00     0.010 A 
ATOM     40  C   UNL A   1      36.437  31.349  28.274  1.00  0.00     0.010 A 
ATOM     41  C   UNL A   1      36.706  30.050  28.730  1.00  0.00    -0.014 A 
BRANCH  41  42
ATOM     42  C   UNL A   1      37.930  29.795  29.530  1.00  0.00     0.031 A 
ATOM     43  C   UNL A   1      38.984  28.859  29.002  1.00  0.00     0.074 A 
ATOM     44  C   UNL A   1      38.072  30.362  30.743  1.00  0.00     0.049 A 
ATOM     45  N   UNL A   1      40.087  28.446  29.572  1.00  0.00    -0.248 NA
ATOM     46  C   UNL A   1      38.749  28.288  27.666  1.00  0.00     0.031 C 
ATOM     47  C   UNL A   1      37.102  31.255  31.377  1.00  0.00     0.029 A 
ATOM     48  N   UNL A   1      39.085  30.261  31.663  1.00  0.00    -0.354 N 
ATOM     49  C   UNL A   1      40.663  27.554  28.677  1.00  0.00     0.074 A 
ATOM     50  C   UNL A   1      39.765  27.446  27.548  1.00  0.00     0.031 C 
ATOM     51  C   UNL A   1      37.575  31.635  32.576  1.00  0.00     0.029 A 
ATOM     52  C   UNL A   1      38.863  30.989  32.806  1.00  0.00     0.049 A 
ATOM     53  H   UNL A   1      39.894  29.719  31.517  1.00  0.00     0.167 HD
ATOM     54  C   UNL A   1      41.846  26.903  28.775  1.00  0.00     0.037 A 
ATOM     55  C   UNL A   1      39.617  31.114  33.915  1.00  0.00     0.037 A 
ATOM     56  C   UNL A   1      42.755  27.044  29.882  1.00  0.00     0.049 A 
ATOM     57  C   UNL A   1      40.938  30.397  33.990  1.00  0.00     0.074 A 
ATOM     58  C   UNL A   1      44.001  26.468  30.055  1.00  0.00     0.029 A 
ATOM     59  N   UNL A   1      42.514  27.823  31.004  1.00  0.00    -0.354 N 
ATOM     60  N   UNL A   1      41.499  29.602  33.112  1.00  0.00    -0.248 NA
ATOM     61  C   UNL A   1      41.737  30.605  35.205  1.00  0.00     0.031 C 
ATOM     62  C   UNL A   1      44.501  26.872  31.298  1.00  0.00     0.029 A 
ATOM     63  C   UNL A   1      43.586  27.736  31.877  1.00  0.00     0.049 A 
ATOM     64  H   UNL A   1      41.703  28.358  31.156  1.00  0.00     0.167 HD
ATOM     65  C   UNL A   1      42.728  29.245  33.650  1.00  0.00     0.074 A 
ATOM     66  C   UNL A   1      42.836  29.919  34.927  1.00  0.00     0.031 C 
ATOM     67  C   UNL A   1      43.683  28.434  33.133  1.00  0.00     0.037 A 
BRANCH  54  68
ATOM     68  C   UNL A   1      42.230  25.984  27.652  1.00  0.00     0.064 A 
ATOM     69  C   UNL A   1      43.151  26.371  26.667  1.00  0.00     0.173 A 
ATOM     70  C   UNL A   1      41.697  24.688  27.579  1.00  0.00     0.173 A 
ATOM     71  F   UNL A   1      43.680  27.604  26.684  1.00  0.00    -0.203 F 
ATOM     72  C   UNL A   1      43.504  25.505  25.635  1.00  0.00     0.198 A 
ATOM     73  C   UNL A   1      42.076  23.814  26.562  1.00  0.00     0.198 A 
ATOM     74  F   UNL A   1      40.815  24.265  28.496  1.00  0.00    -0.203 F 
ATOM     75  F   UNL A   1      44.349  25.914  24.678  1.00  0.00    -0.200 F 
ATOM     76  C   UNL A   1      42.972  24.224  25.587  1.00  0.00     0.200 A 
ATOM     77  F   UNL A   1      41.570  22.573  26.525  1.00  0.00    -0.200 F 
ATOM     78  F   UNL A   1      43.319  23.390  24.598  1.00  0.00    -0.200 F 
ENDBRANCH  54  68
BRANCH  55  79
ATOM     79  C   UNL A   1      39.159  31.981  35.031  1.00  0.00     0.064 A 
ATOM     80  C   UNL A   1      38.452  31.444  36.116  1.00  0.00     0.173 A 
ATOM     81  C   UNL A   1      39.407  33.362  35.034  1.00  0.00     0.173 A 
ATOM     82  F   UNL A   1      38.173  30.132  36.149  1.00  0.00    -0.203 F 
ATOM     83  C   UNL A   1      37.987  32.257  37.148  1.00  0.00     0.198 A 
ATOM     84  C   UNL A   1      38.966  34.169  36.081  1.00  0.00     0.198 A 
ATOM     85  F   UNL A   1      40.086  33.924  34.024  1.00  0.00    -0.203 F 
ATOM     86  F   UNL A   1      37.271  31.723  38.147  1.00  0.00    -0.200 F 
ATOM     87  C   UNL A   1      38.249  33.618  37.131  1.00  0.00     0.200 A 
ATOM     88  F   UNL A   1      39.234  35.483  36.068  1.00  0.00    -0.200 F 
ATOM     89  F   UNL A   1      37.802  34.401  38.124  1.00  0.00    -0.200 F 
ENDBRANCH  55  79
BRANCH  67  90
ATOM     90  C   UNL A   1      44.951  28.273  33.920  1.00  0.00     0.064 A 
ATOM     91  C   UNL A   1      45.121  27.229  34.841  1.00  0.00     0.173 A 
ATOM     92  C   UNL A   1      46.023  29.154  33.718  1.00  0.00     0.173 A 
ATOM     93  F   UNL A   1      44.119  26.369  35.079  1.00  0.00    -0.203 F 
ATOM     94  C   UNL A   1      46.311  27.090  35.550  1.00  0.00     0.198 A 
ATOM     95  C   UNL A   1      47.222  28.995  34.408  1.00  0.00     0.198 A 
ATOM     96  F   UNL A   1      45.913  30.165  32.842  1.00  0.00    -0.203 F 
ATOM     97  F   UNL A   1      46.436  26.113  36.460  1.00  0.00    -0.200 F 
ATOM     98  C   UNL A   1      47.361  27.967  35.328  1.00  0.00     0.200 A 
ATOM     99  F   UNL A   1      48.240  29.836  34.182  1.00  0.00    -0.200 F 
ATOM    100  F   UNL A   1      48.508  27.827  36.007  1.00  0.00    -0.200 F 
ENDBRANCH  67  90
ENDBRANCH  41  42
ENDBRANCH  33  36
ENDBRANCH  31  32
ENDBRANCH  30  31
ENDBRANCH  29  30
ENDBRANCH   1  29
TORSDOF 17
ENDMDL
