MODEL 1
REMARK VINA RESULT:     -12.4      0.000      0.000
REMARK SMILES O=C(NCCCCCCNC(=O)c1cc(-c2cncnc2)cc(S(=O)(=O)N2CCCC2)c1)c1ccc(-c2c3nc(c(-c4c(F)c(F)c(F)c(F)c4F)c4ccc([nH]4)c(-c4c(F)c(F)c(F)c(F)c4F)c4nc(c(-c5c(F)c(F)c(F)c(F)c5F)c5ccc2[nH]5)C=C4)C=C3)cc1
REMARK SMILES IDX 6 1 5 2 4 3 3 4 1 5 2 6 33 8 34 9 95 10 35 11 94 12 36 13
REMARK SMILES IDX 37 14 38 15 88 16 39 17 93 18 87 19 89 20 40 21 92 22 86 23
REMARK SMILES IDX 85 24 41 26 73 27 53 28 72 29 54 30 57 31 71 32 90 33 55 34
REMARK SMILES IDX 56 35 70 37 91 38 58 39 42 40 43 41 51 42 44 43 45 44 49 45
REMARK SMILES IDX 52 46 46 47 47 48 50 49 48 50 74 51 75 52 83 53 76 54 77 55
REMARK SMILES IDX 81 56 84 57 78 58 79 59 82 60 80 61 59 62 60 63 68 64 61 65
REMARK SMILES IDX 62 66 66 67 69 68 63 69 64 70 67 71 65 72 7 73 8 74 9 75
REMARK SMILES IDX 10 76 11 77 12 79 13 80 14 81 32 82 15 83 23 84 22 85 16 86
REMARK SMILES IDX 17 87 21 88 18 89 20 90 19 91 24 92 25 93 26 94 27 95 28 96
REMARK SMILES IDX 31 97 29 98 30 99
REMARK H PARENT 3 7 89 25 57 36 10 78
REMARK Flexibility Score: inf
ROOT
ATOM      1  C   UNL A   1      40.688  21.199  26.462  1.00  0.00     0.002 C 
ENDROOT
BRANCH   1   2
ATOM      2  C   UNL A   1      41.016  19.758  26.072  1.00  0.00     0.021 C 
BRANCH   2   3
ATOM      3  C   UNL A   1      42.431  19.287  26.383  1.00  0.00     0.116 C 
BRANCH   3   4
ATOM      4  N   UNL A   1      43.208  18.954  25.202  1.00  0.00    -0.352 N 
ATOM      5  O   UNL A   1      44.599  19.300  23.461  1.00  0.00    -0.269 OA
ATOM      6  C   UNL A   1      44.094  19.731  24.492  1.00  0.00     0.251 C 
ATOM      7  H   UNL A   1      43.083  18.039  24.861  1.00  0.00     0.163 HD
BRANCH   6   8
ATOM      8  C   UNL A   1      44.410  21.106  24.945  1.00  0.00     0.039 A 
ATOM      9  C   UNL A   1      45.275  21.335  26.017  1.00  0.00     0.014 A 
ATOM     10  C   UNL A   1      43.826  22.186  24.277  1.00  0.00     0.014 A 
ATOM     11  C   UNL A   1      45.434  22.626  26.514  1.00  0.00     0.010 A 
ATOM     12  C   UNL A   1      44.053  23.491  24.726  1.00  0.00     0.010 A 
ATOM     13  C   UNL A   1      44.827  23.719  25.874  1.00  0.00    -0.014 A 
BRANCH  13  14
ATOM     14  C   UNL A   1      45.054  25.090  26.402  1.00  0.00     0.031 A 
ATOM     15  C   UNL A   1      46.400  25.751  26.297  1.00  0.00     0.074 A 
ATOM     16  C   UNL A   1      44.018  25.754  26.948  1.00  0.00     0.049 A 
ATOM     17  N   UNL A   1      46.755  26.962  26.655  1.00  0.00    -0.248 NA
ATOM     18  C   UNL A   1      47.494  24.954  25.723  1.00  0.00     0.031 C 
ATOM     19  C   UNL A   1      42.669  25.210  27.121  1.00  0.00     0.029 A 
ATOM     20  N   UNL A   1      43.926  27.033  27.433  1.00  0.00    -0.354 N 
ATOM     21  C   UNL A   1      48.112  27.062  26.374  1.00  0.00     0.074 A 
ATOM     22  C   UNL A   1      48.524  25.782  25.834  1.00  0.00     0.031 C 
ATOM     23  C   UNL A   1      41.871  26.166  27.619  1.00  0.00     0.029 A 
ATOM     24  C   UNL A   1      42.662  27.370  27.851  1.00  0.00     0.049 A 
ATOM     25  H   UNL A   1      44.691  27.651  27.479  1.00  0.00     0.167 HD
ATOM     26  C   UNL A   1      48.934  28.126  26.543  1.00  0.00     0.037 A 
ATOM     27  C   UNL A   1      42.190  28.520  28.367  1.00  0.00     0.037 A 
ATOM     28  C   UNL A   1      48.515  29.405  27.056  1.00  0.00     0.049 A 
ATOM     29  C   UNL A   1      43.126  29.680  28.547  1.00  0.00     0.074 A 
ATOM     30  C   UNL A   1      49.263  30.560  27.213  1.00  0.00     0.029 A 
ATOM     31  N   UNL A   1      47.234  29.698  27.500  1.00  0.00    -0.354 N 
ATOM     32  N   UNL A   1      44.395  29.775  28.233  1.00  0.00    -0.248 NA
ATOM     33  C   UNL A   1      42.563  30.892  29.158  1.00  0.00     0.031 C 
ATOM     34  C   UNL A   1      48.445  31.537  27.793  1.00  0.00     0.029 A 
ATOM     35  C   UNL A   1      47.176  31.006  27.954  1.00  0.00     0.049 A 
ATOM     36  H   UNL A   1      46.476  29.068  27.493  1.00  0.00     0.167 HD
ATOM     37  C   UNL A   1      44.779  31.059  28.590  1.00  0.00     0.074 A 
ATOM     38  C   UNL A   1      43.602  31.713  29.126  1.00  0.00     0.031 C 
ATOM     39  C   UNL A   1      45.998  31.642  28.485  1.00  0.00     0.037 A 
BRANCH  26  40
ATOM     40  C   UNL A   1      50.383  27.950  26.186  1.00  0.00     0.064 A 
ATOM     41  C   UNL A   1      50.837  28.061  24.863  1.00  0.00     0.173 A 
ATOM     42  C   UNL A   1      51.335  27.711  27.188  1.00  0.00     0.173 A 
ATOM     43  F   UNL A   1      49.966  28.277  23.866  1.00  0.00    -0.203 F 
ATOM     44  C   UNL A   1      52.188  27.914  24.556  1.00  0.00     0.198 A 
ATOM     45  C   UNL A   1      52.688  27.590  26.881  1.00  0.00     0.198 A 
ATOM     46  F   UNL A   1      50.955  27.602  28.470  1.00  0.00    -0.203 F 
ATOM     47  F   UNL A   1      52.593  27.981  23.280  1.00  0.00    -0.200 F 
ATOM     48  C   UNL A   1      53.112  27.685  25.564  1.00  0.00     0.200 A 
ATOM     49  F   UNL A   1      53.580  27.379  27.857  1.00  0.00    -0.200 F 
ATOM     50  F   UNL A   1      54.411  27.549  25.265  1.00  0.00    -0.200 F 
ENDBRANCH  26  40
BRANCH  27  51
ATOM     51  C   UNL A   1      40.754  28.631  28.727  1.00  0.00     0.064 A 
ATOM     52  C   UNL A   1      40.307  28.289  30.011  1.00  0.00     0.173 A 
ATOM     53  C   UNL A   1      39.805  29.097  27.806  1.00  0.00     0.173 A 
ATOM     54  F   UNL A   1      41.177  27.820  30.918  1.00  0.00    -0.203 F 
ATOM     55  C   UNL A   1      38.963  28.401  30.357  1.00  0.00     0.198 A 
ATOM     56  C   UNL A   1      38.466  29.234  28.163  1.00  0.00     0.198 A 
ATOM     57  F   UNL A   1      40.184  29.443  26.567  1.00  0.00    -0.203 F 
ATOM     58  F   UNL A   1      38.556  28.035  31.580  1.00  0.00    -0.200 F 
ATOM     59  C   UNL A   1      38.044  28.880  29.435  1.00  0.00     0.200 A 
ATOM     60  F   UNL A   1      37.584  29.714  27.274  1.00  0.00    -0.200 F 
ATOM     61  F   UNL A   1      36.753  28.997  29.772  1.00  0.00    -0.200 F 
ENDBRANCH  27  51
BRANCH  39  62
ATOM     62  C   UNL A   1      46.109  33.068  28.936  1.00  0.00     0.064 A 
ATOM     63  C   UNL A   1      45.876  34.136  28.058  1.00  0.00     0.173 A 
ATOM     64  C   UNL A   1      46.439  33.369  30.266  1.00  0.00     0.173 A 
ATOM     65  F   UNL A   1      45.576  33.899  26.772  1.00  0.00    -0.203 F 
ATOM     66  C   UNL A   1      45.996  35.455  28.489  1.00  0.00     0.198 A 
ATOM     67  C   UNL A   1      46.532  34.688  30.700  1.00  0.00     0.198 A 
ATOM     68  F   UNL A   1      46.669  32.382  31.145  1.00  0.00    -0.203 F 
ATOM     69  F   UNL A   1      45.819  36.460  27.619  1.00  0.00    -0.200 F 
ATOM     70  C   UNL A   1      46.319  35.730  29.809  1.00  0.00     0.200 A 
ATOM     71  F   UNL A   1      46.835  34.952  31.979  1.00  0.00    -0.200 F 
ATOM     72  F   UNL A   1      46.435  36.999  30.222  1.00  0.00    -0.200 F 
ENDBRANCH  39  62
ENDBRANCH  13  14
ENDBRANCH   6   8
ENDBRANCH   3   4
ENDBRANCH   2   3
ENDBRANCH   1   2
BRANCH   1  73
ATOM     73  C   UNL A   1      39.287  21.699  26.098  1.00  0.00     0.002 C 
BRANCH  73  74
ATOM     74  C   UNL A   1      38.952  23.144  26.486  1.00  0.00     0.021 C 
BRANCH  74  75
ATOM     75  C   UNL A   1      37.563  23.637  26.087  1.00  0.00     0.116 C 
BRANCH  75  76
ATOM     76  N   UNL A   1      37.350  23.594  24.654  1.00  0.00    -0.352 N 
ATOM     77  C   UNL A   1      36.363  22.984  23.925  1.00  0.00     0.251 C 
ATOM     78  H   UNL A   1      38.019  24.081  24.121  1.00  0.00     0.163 HD
ATOM     79  O   UNL A   1      36.457  22.941  22.701  1.00  0.00    -0.269 OA
BRANCH  77  80
ATOM     80  C   UNL A   1      35.174  22.380  24.575  1.00  0.00     0.041 A 
ATOM     81  C   UNL A   1      35.045  20.986  24.561  1.00  0.00     0.022 A 
ATOM     82  C   UNL A   1      34.136  23.165  25.075  1.00  0.00     0.035 A 
ATOM     83  C   UNL A   1      33.892  20.357  25.062  1.00  0.00    -0.013 A 
ATOM     84  C   UNL A   1      32.986  22.563  25.579  1.00  0.00     0.084 A 
ATOM     85  C   UNL A   1      32.862  21.166  25.571  1.00  0.00     0.030 A 
BRANCH  83  86
ATOM     86  C   UNL A   1      33.771  18.898  25.019  1.00  0.00     0.018 A 
ATOM     87  C   UNL A   1      32.717  18.208  25.596  1.00  0.00     0.123 A 
ATOM     88  C   UNL A   1      34.682  18.084  24.365  1.00  0.00     0.123 A 
ATOM     89  N   UNL A   1      32.559  16.868  25.537  1.00  0.00    -0.244 NA
ATOM     90  N   UNL A   1      34.579  16.741  24.271  1.00  0.00    -0.244 NA
ATOM     91  C   UNL A   1      33.508  16.199  24.866  1.00  0.00     0.221 A 
ENDBRANCH  83  86
BRANCH  84  92
ATOM     92  S   UNL A   1      31.614  23.516  26.206  1.00  0.00     0.243 S 
ATOM     93  O   UNL A   1      30.419  22.860  25.712  1.00  0.00    -0.207 OA
ATOM     94  O   UNL A   1      31.865  23.689  27.618  1.00  0.00    -0.207 OA
BRANCH  92  95
ATOM     95  N   UNL A   1      31.688  25.025  25.480  1.00  0.00    -0.198 NA
ATOM     96  C   UNL A   1      32.286  26.180  26.160  1.00  0.00     0.102 C 
ATOM     97  C   UNL A   1      30.691  25.445  24.486  1.00  0.00     0.102 C 
ATOM     98  C   UNL A   1      31.320  27.322  25.879  1.00  0.00     0.018 C 
ATOM     99  C   UNL A   1      30.712  26.970  24.531  1.00  0.00     0.018 C 
ENDBRANCH  92  95
ENDBRANCH  84  92
ENDBRANCH  77  80
ENDBRANCH  75  76
ENDBRANCH  74  75
ENDBRANCH  73  74
ENDBRANCH   1  73
TORSDOF 16
ENDMDL
MODEL 2
REMARK VINA RESULT:     -12.4      1.058      2.008
REMARK SMILES O=C(NCCCCCCNC(=O)c1cc(-c2cncnc2)cc(S(=O)(=O)N2CCCC2)c1)c1ccc(-c2c3nc(c(-c4c(F)c(F)c(F)c(F)c4F)c4ccc([nH]4)c(-c4c(F)c(F)c(F)c(F)c4F)c4nc(c(-c5c(F)c(F)c(F)c(F)c5F)c5ccc2[nH]5)C=C4)C=C3)cc1
REMARK SMILES IDX 6 1 5 2 4 3 3 4 1 5 2 6 33 8 34 9 95 10 35 11 94 12 36 13
REMARK SMILES IDX 37 14 38 15 88 16 39 17 93 18 87 19 89 20 40 21 92 22 86 23
REMARK SMILES IDX 85 24 41 26 73 27 53 28 72 29 54 30 57 31 71 32 90 33 55 34
REMARK SMILES IDX 56 35 70 37 91 38 58 39 42 40 43 41 51 42 44 43 45 44 49 45
REMARK SMILES IDX 52 46 46 47 47 48 50 49 48 50 74 51 75 52 83 53 76 54 77 55
REMARK SMILES IDX 81 56 84 57 78 58 79 59 82 60 80 61 59 62 60 63 68 64 61 65
REMARK SMILES IDX 62 66 66 67 69 68 63 69 64 70 67 71 65 72 7 73 8 74 9 75
REMARK SMILES IDX 10 76 11 77 12 79 13 80 14 81 32 82 15 83 23 84 22 85 16 86
REMARK SMILES IDX 17 87 21 88 18 89 20 90 19 91 24 92 25 93 26 94 27 95 28 96
REMARK SMILES IDX 31 97 29 98 30 99
REMARK H PARENT 3 7 89 25 57 36 10 78
REMARK Flexibility Score: inf
ROOT
ATOM      1  C   UNL A   1      38.457  21.263  25.426  1.00  0.00     0.002 C 
ENDROOT
BRANCH   1   2
ATOM      2  C   UNL A   1      39.047  19.854  25.407  1.00  0.00     0.021 C 
BRANCH   2   3
ATOM      3  C   UNL A   1      40.101  19.557  26.467  1.00  0.00     0.116 C 
BRANCH   3   4
ATOM      4  N   UNL A   1      41.220  18.774  25.974  1.00  0.00    -0.352 N 
ATOM      5  O   UNL A   1      43.325  18.362  25.277  1.00  0.00    -0.269 OA
ATOM      6  C   UNL A   1      42.531  19.146  25.788  1.00  0.00     0.251 C 
ATOM      7  H   UNL A   1      41.010  17.841  25.740  1.00  0.00     0.163 HD
BRANCH   6   8
ATOM      8  C   UNL A   1      42.981  20.507  26.162  1.00  0.00     0.039 A 
ATOM      9  C   UNL A   1      42.915  20.955  27.483  1.00  0.00     0.014 A 
ATOM     10  C   UNL A   1      43.481  21.349  25.164  1.00  0.00     0.014 A 
ATOM     11  C   UNL A   1      43.201  22.285  27.778  1.00  0.00     0.010 A 
ATOM     12  C   UNL A   1      43.850  22.662  25.478  1.00  0.00     0.010 A 
ATOM     13  C   UNL A   1      43.674  23.153  26.780  1.00  0.00    -0.014 A 
BRANCH  13  14
ATOM     14  C   UNL A   1      44.016  24.555  27.137  1.00  0.00     0.031 A 
ATOM     15  C   UNL A   1      45.400  25.099  26.914  1.00  0.00     0.074 A 
ATOM     16  C   UNL A   1      43.051  25.351  27.633  1.00  0.00     0.049 A 
ATOM     17  N   UNL A   1      45.852  26.313  27.118  1.00  0.00    -0.248 NA
ATOM     18  C   UNL A   1      46.413  24.163  26.405  1.00  0.00     0.031 C 
ATOM     19  C   UNL A   1      41.676  24.932  27.910  1.00  0.00     0.029 A 
ATOM     20  N   UNL A   1      43.067  26.681  27.968  1.00  0.00    -0.354 N 
ATOM     21  C   UNL A   1      47.201  26.280  26.786  1.00  0.00     0.074 A 
ATOM     22  C   UNL A   1      47.501  24.921  26.387  1.00  0.00     0.031 C 
ATOM     23  C   UNL A   1      40.965  25.994  28.317  1.00  0.00     0.029 A 
ATOM     24  C   UNL A   1      41.846  27.155  28.382  1.00  0.00     0.049 A 
ATOM     25  H   UNL A   1      43.875  27.242  27.918  1.00  0.00     0.167 HD
ATOM     26  C   UNL A   1      48.101  27.293  26.804  1.00  0.00     0.037 A 
ATOM     27  C   UNL A   1      41.476  28.388  28.774  1.00  0.00     0.037 A 
ATOM     28  C   UNL A   1      47.792  28.650  27.177  1.00  0.00     0.049 A 
ATOM     29  C   UNL A   1      42.497  29.489  28.788  1.00  0.00     0.074 A 
ATOM     30  C   UNL A   1      48.624  29.757  27.176  1.00  0.00     0.029 A 
ATOM     31  N   UNL A   1      46.552  29.085  27.622  1.00  0.00    -0.354 N 
ATOM     32  N   UNL A   1      43.756  29.455  28.427  1.00  0.00    -0.248 NA
ATOM     33  C   UNL A   1      42.044  30.801  29.270  1.00  0.00     0.031 C 
ATOM     34  C   UNL A   1      47.899  30.852  27.662  1.00  0.00     0.029 A 
ATOM     35  C   UNL A   1      46.604  30.437  27.922  1.00  0.00     0.049 A 
ATOM     36  H   UNL A   1      45.753  28.516  27.712  1.00  0.00     0.167 HD
ATOM     37  C   UNL A   1      44.242  30.739  28.620  1.00  0.00     0.074 A 
ATOM     38  C   UNL A   1      43.135  31.535  29.112  1.00  0.00     0.031 C 
ATOM     39  C   UNL A   1      45.494  31.215  28.410  1.00  0.00     0.037 A 
BRANCH  26  40
ATOM     40  C   UNL A   1      49.519  26.972  26.427  1.00  0.00     0.064 A 
ATOM     41  C   UNL A   1      50.456  26.537  27.376  1.00  0.00     0.173 A 
ATOM     42  C   UNL A   1      49.933  27.059  25.089  1.00  0.00     0.173 A 
ATOM     43  F   UNL A   1      50.115  26.448  28.670  1.00  0.00    -0.203 F 
ATOM     44  C   UNL A   1      51.762  26.225  27.001  1.00  0.00     0.198 A 
ATOM     45  C   UNL A   1      51.231  26.722  24.714  1.00  0.00     0.198 A 
ATOM     46  F   UNL A   1      49.074  27.464  24.141  1.00  0.00    -0.203 F 
ATOM     47  F   UNL A   1      52.652  25.854  27.932  1.00  0.00    -0.200 F 
ATOM     48  C   UNL A   1      52.146  26.312  25.672  1.00  0.00     0.200 A 
ATOM     49  F   UNL A   1      51.598  26.797  23.428  1.00  0.00    -0.200 F 
ATOM     50  F   UNL A   1      53.401  26.007  25.315  1.00  0.00    -0.200 F 
ENDBRANCH  26  40
BRANCH  27  51
ATOM     51  C   UNL A   1      40.066  28.645  29.162  1.00  0.00     0.064 A 
ATOM     52  C   UNL A   1      39.134  29.105  28.222  1.00  0.00     0.173 A 
ATOM     53  C   UNL A   1      39.618  28.417  30.471  1.00  0.00     0.173 A 
ATOM     54  F   UNL A   1      39.523  29.355  26.963  1.00  0.00    -0.203 F 
ATOM     55  C   UNL A   1      37.809  29.339  28.580  1.00  0.00     0.198 A 
ATOM     56  C   UNL A   1      38.286  28.624  30.820  1.00  0.00     0.198 A 
ATOM     57  F   UNL A   1      40.470  27.970  31.406  1.00  0.00    -0.203 F 
ATOM     58  F   UNL A   1      36.946  29.812  27.671  1.00  0.00    -0.200 F 
ATOM     59  C   UNL A   1      37.383  29.091  29.876  1.00  0.00     0.200 A 
ATOM     60  F   UNL A   1      37.875  28.367  32.070  1.00  0.00    -0.200 F 
ATOM     61  F   UNL A   1      36.105  29.305  30.217  1.00  0.00    -0.200 F 
ENDBRANCH  27  51
BRANCH  39  62
ATOM     62  C   UNL A   1      45.721  32.671  28.689  1.00  0.00     0.064 A 
ATOM     63  C   UNL A   1      45.507  33.648  27.705  1.00  0.00     0.173 A 
ATOM     64  C   UNL A   1      46.145  33.095  29.957  1.00  0.00     0.173 A 
ATOM     65  F   UNL A   1      45.120  33.291  26.472  1.00  0.00    -0.203 F 
ATOM     66  C   UNL A   1      45.736  34.995  27.975  1.00  0.00     0.198 A 
ATOM     67  C   UNL A   1      46.346  34.444  30.231  1.00  0.00     0.198 A 
ATOM     68  F   UNL A   1      46.360  32.198  30.932  1.00  0.00    -0.203 F 
ATOM     69  F   UNL A   1      45.574  35.907  27.006  1.00  0.00    -0.200 F 
ATOM     70  C   UNL A   1      46.149  35.392  29.238  1.00  0.00     0.200 A 
ATOM     71  F   UNL A   1      46.737  34.828  31.454  1.00  0.00    -0.200 F 
ATOM     72  F   UNL A   1      46.370  36.689  29.495  1.00  0.00    -0.200 F 
ENDBRANCH  39  62
ENDBRANCH  13  14
ENDBRANCH   6   8
ENDBRANCH   3   4
ENDBRANCH   2   3
ENDBRANCH   1   2
BRANCH   1  73
ATOM     73  C   UNL A   1      39.232  22.314  26.227  1.00  0.00     0.002 C 
BRANCH  73  74
ATOM     74  C   UNL A   1      38.546  23.671  26.422  1.00  0.00     0.021 C 
BRANCH  74  75
ATOM     75  C   UNL A   1      37.061  23.724  26.074  1.00  0.00     0.116 C 
BRANCH  75  76
ATOM     76  N   UNL A   1      36.826  23.722  24.643  1.00  0.00    -0.352 N 
ATOM     77  C   UNL A   1      35.866  23.081  23.906  1.00  0.00     0.251 C 
ATOM     78  H   UNL A   1      37.456  24.268  24.119  1.00  0.00     0.163 HD
ATOM     79  O   UNL A   1      35.942  23.090  22.681  1.00  0.00    -0.269 OA
BRANCH  77  80
ATOM     80  C   UNL A   1      34.726  22.382  24.549  1.00  0.00     0.041 A 
ATOM     81  C   UNL A   1      34.719  20.982  24.550  1.00  0.00     0.022 A 
ATOM     82  C   UNL A   1      33.618  23.079  25.029  1.00  0.00     0.035 A 
ATOM     83  C   UNL A   1      33.620  20.260  25.046  1.00  0.00    -0.013 A 
ATOM     84  C   UNL A   1      32.519  22.383  25.528  1.00  0.00     0.084 A 
ATOM     85  C   UNL A   1      32.518  20.981  25.534  1.00  0.00     0.030 A 
BRANCH  83  86
ATOM     86  C   UNL A   1      33.627  18.796  25.017  1.00  0.00     0.018 A 
ATOM     87  C   UNL A   1      32.690  18.021  25.680  1.00  0.00     0.123 A 
ATOM     88  C   UNL A   1      34.551  18.059  24.294  1.00  0.00     0.123 A 
ATOM     89  N   UNL A   1      32.648  16.671  25.639  1.00  0.00    -0.244 NA
ATOM     90  N   UNL A   1      34.563  16.711  24.213  1.00  0.00    -0.244 NA
ATOM     91  C   UNL A   1      33.596  16.083  24.895  1.00  0.00     0.221 A 
ENDBRANCH  83  86
BRANCH  84  92
ATOM     92  S   UNL A   1      31.062  23.219  26.129  1.00  0.00     0.243 S 
ATOM     93  O   UNL A   1      30.034  22.201  26.225  1.00  0.00    -0.207 OA
ATOM     94  O   UNL A   1      31.490  23.986  27.276  1.00  0.00    -0.207 OA
BRANCH  92  95
ATOM     95  N   UNL A   1      30.583  24.297  24.939  1.00  0.00    -0.198 NA
ATOM     96  C   UNL A   1      30.588  23.929  23.517  1.00  0.00     0.102 C 
ATOM     97  C   UNL A   1      30.727  25.748  25.118  1.00  0.00     0.102 C 
ATOM     98  C   UNL A   1      31.184  25.143  22.818  1.00  0.00     0.018 C 
ATOM     99  C   UNL A   1      30.782  26.313  23.702  1.00  0.00     0.018 C 
ENDBRANCH  92  95
ENDBRANCH  84  92
ENDBRANCH  77  80
ENDBRANCH  75  76
ENDBRANCH  74  75
ENDBRANCH  73  74
ENDBRANCH   1  73
TORSDOF 16
ENDMDL
MODEL 3
REMARK VINA RESULT:     -12.3      0.973      7.172
REMARK SMILES O=C(NCCCCCCNC(=O)c1cc(-c2cncnc2)cc(S(=O)(=O)N2CCCC2)c1)c1ccc(-c2c3nc(c(-c4c(F)c(F)c(F)c(F)c4F)c4ccc([nH]4)c(-c4c(F)c(F)c(F)c(F)c4F)c4nc(c(-c5c(F)c(F)c(F)c(F)c5F)c5ccc2[nH]5)C=C4)C=C3)cc1
REMARK SMILES IDX 6 1 5 2 4 3 3 4 1 5 2 6 33 8 34 9 95 10 35 11 94 12 36 13
REMARK SMILES IDX 37 14 38 15 88 16 39 17 93 18 87 19 89 20 40 21 92 22 86 23
REMARK SMILES IDX 85 24 41 26 73 27 53 28 72 29 54 30 57 31 71 32 90 33 55 34
REMARK SMILES IDX 56 35 70 37 91 38 58 39 42 40 43 41 51 42 44 43 45 44 49 45
REMARK SMILES IDX 52 46 46 47 47 48 50 49 48 50 74 51 75 52 83 53 76 54 77 55
REMARK SMILES IDX 81 56 84 57 78 58 79 59 82 60 80 61 59 62 60 63 68 64 61 65
REMARK SMILES IDX 62 66 66 67 69 68 63 69 64 70 67 71 65 72 7 73 8 74 9 75
REMARK SMILES IDX 10 76 11 77 12 79 13 80 14 81 32 82 15 83 23 84 22 85 16 86
REMARK SMILES IDX 17 87 21 88 18 89 20 90 19 91 24 92 25 93 26 94 27 95 28 96
REMARK SMILES IDX 31 97 29 98 30 99
REMARK H PARENT 3 7 89 25 57 36 10 78
REMARK Flexibility Score: inf
ROOT
ATOM      1  C   UNL A   1      38.485  21.288  25.453  1.00  0.00     0.002 C 
ENDROOT
BRANCH   1   2
ATOM      2  C   UNL A   1      39.123  19.900  25.450  1.00  0.00     0.021 C 
BRANCH   2   3
ATOM      3  C   UNL A   1      40.218  19.665  26.483  1.00  0.00     0.116 C 
BRANCH   3   4
ATOM      4  N   UNL A   1      41.327  18.870  25.988  1.00  0.00    -0.352 N 
ATOM      5  O   UNL A   1      43.408  18.445  25.230  1.00  0.00    -0.269 OA
ATOM      6  C   UNL A   1      42.624  19.246  25.730  1.00  0.00     0.251 C 
ATOM      7  H   UNL A   1      41.121  17.923  25.812  1.00  0.00     0.163 HD
BRANCH   6   8
ATOM      8  C   UNL A   1      43.070  20.630  26.013  1.00  0.00     0.039 A 
ATOM      9  C   UNL A   1      43.113  21.125  27.318  1.00  0.00     0.014 A 
ATOM     10  C   UNL A   1      43.454  21.447  24.945  1.00  0.00     0.014 A 
ATOM     11  C   UNL A   1      43.390  22.472  27.539  1.00  0.00     0.010 A 
ATOM     12  C   UNL A   1      43.815  22.778  25.177  1.00  0.00     0.010 A 
ATOM     13  C   UNL A   1      43.746  23.313  26.472  1.00  0.00    -0.014 A 
BRANCH  13  14
ATOM     14  C   UNL A   1      44.081  24.735  26.746  1.00  0.00     0.031 A 
ATOM     15  C   UNL A   1      43.048  25.690  27.275  1.00  0.00     0.074 A 
ATOM     16  C   UNL A   1      45.346  25.152  26.549  1.00  0.00     0.049 A 
ATOM     17  N   UNL A   1      43.186  26.948  27.621  1.00  0.00    -0.248 NA
ATOM     18  C   UNL A   1      41.680  25.176  27.431  1.00  0.00     0.031 C 
ATOM     19  C   UNL A   1      46.432  24.323  26.023  1.00  0.00     0.029 A 
ATOM     20  N   UNL A   1      45.941  26.365  26.790  1.00  0.00    -0.354 N 
ATOM     21  C   UNL A   1      41.924  27.379  28.011  1.00  0.00     0.074 A 
ATOM     22  C   UNL A   1      41.026  26.256  27.839  1.00  0.00     0.031 C 
ATOM     23  C   UNL A   1      47.571  25.030  26.035  1.00  0.00     0.029 A 
ATOM     24  C   UNL A   1      47.286  26.378  26.517  1.00  0.00     0.049 A 
ATOM     25  H   UNL A   1      45.450  27.150  27.125  1.00  0.00     0.167 HD
ATOM     26  C   UNL A   1      41.553  28.597  28.476  1.00  0.00     0.037 A 
ATOM     27  C   UNL A   1      48.192  27.366  26.637  1.00  0.00     0.037 A 
ATOM     28  C   UNL A   1      42.454  29.703  28.669  1.00  0.00     0.049 A 
ATOM     29  C   UNL A   1      47.750  28.705  27.151  1.00  0.00     0.074 A 
ATOM     30  C   UNL A   1      42.182  30.959  29.186  1.00  0.00     0.029 A 
ATOM     31  N   UNL A   1      43.804  29.689  28.350  1.00  0.00    -0.354 N 
ATOM     32  N   UNL A   1      46.564  29.085  27.559  1.00  0.00    -0.248 NA
ATOM     33  C   UNL A   1      48.774  29.757  27.216  1.00  0.00     0.031 C 
ATOM     34  C   UNL A   1      43.358  31.718  29.137  1.00  0.00     0.029 A 
ATOM     35  C   UNL A   1      44.372  30.921  28.634  1.00  0.00     0.049 A 
ATOM     36  H   UNL A   1      44.288  28.917  27.975  1.00  0.00     0.167 HD
ATOM     37  C   UNL A   1      46.700  30.409  27.946  1.00  0.00     0.074 A 
ATOM     38  C   UNL A   1      48.091  30.762  27.742  1.00  0.00     0.031 C 
ATOM     39  C   UNL A   1      45.757  31.257  28.425  1.00  0.00     0.037 A 
BRANCH  26  40
ATOM     40  C   UNL A   1      40.100  28.807  28.794  1.00  0.00     0.064 A 
ATOM     41  C   UNL A   1      39.185  29.237  27.821  1.00  0.00     0.173 A 
ATOM     42  C   UNL A   1      39.609  28.533  30.079  1.00  0.00     0.173 A 
ATOM     43  F   UNL A   1      39.605  29.524  26.580  1.00  0.00    -0.203 F 
ATOM     44  C   UNL A   1      37.838  29.408  28.131  1.00  0.00     0.198 A 
ATOM     45  C   UNL A   1      38.258  28.681  30.379  1.00  0.00     0.198 A 
ATOM     46  F   UNL A   1      40.441  28.114  31.045  1.00  0.00    -0.203 F 
ATOM     47  F   UNL A   1      36.990  29.861  27.197  1.00  0.00    -0.200 F 
ATOM     48  C   UNL A   1      37.374  29.124  29.407  1.00  0.00     0.200 A 
ATOM     49  F   UNL A   1      37.810  28.397  31.610  1.00  0.00    -0.200 F 
ATOM     50  F   UNL A   1      36.077  29.285  29.701  1.00  0.00    -0.200 F 
ENDBRANCH  26  40
BRANCH  27  51
ATOM     51  C   UNL A   1      49.611  27.111  26.283  1.00  0.00     0.064 A 
ATOM     52  C   UNL A   1      50.065  27.278  24.968  1.00  0.00     0.173 A 
ATOM     53  C   UNL A   1      50.544  26.716  27.253  1.00  0.00     0.173 A 
ATOM     54  F   UNL A   1      49.203  27.636  24.005  1.00  0.00    -0.203 F 
ATOM     55  C   UNL A   1      51.397  27.049  24.633  1.00  0.00     0.198 A 
ATOM     56  C   UNL A   1      51.882  26.514  26.922  1.00  0.00     0.198 A 
ATOM     57  F   UNL A   1      50.160  26.548  28.527  1.00  0.00    -0.203 F 
ATOM     58  F   UNL A   1      51.797  27.182  23.362  1.00  0.00    -0.200 F 
ATOM     59  C   UNL A   1      52.306  26.675  25.611  1.00  0.00     0.200 A 
ATOM     60  F   UNL A   1      52.761  26.169  27.873  1.00  0.00    -0.200 F 
ATOM     61  F   UNL A   1      53.590  26.465  25.290  1.00  0.00    -0.200 F 
ENDBRANCH  27  51
BRANCH  39  62
ATOM     62  C   UNL A   1      46.209  32.641  28.785  1.00  0.00     0.064 A 
ATOM     63  C   UNL A   1      46.169  33.691  27.856  1.00  0.00     0.173 A 
ATOM     64  C   UNL A   1      46.674  32.924  30.078  1.00  0.00     0.173 A 
ATOM     65  F   UNL A   1      45.751  33.466  26.602  1.00  0.00    -0.203 F 
ATOM     66  C   UNL A   1      46.605  34.967  28.201  1.00  0.00     0.198 A 
ATOM     67  C   UNL A   1      47.083  34.207  30.427  1.00  0.00     0.198 A 
ATOM     68  F   UNL A   1      46.727  31.954  31.004  1.00  0.00    -0.203 F 
ATOM     69  F   UNL A   1      46.606  35.943  27.282  1.00  0.00    -0.200 F 
ATOM     70  C   UNL A   1      47.056  35.226  29.486  1.00  0.00     0.200 A 
ATOM     71  F   UNL A   1      47.510  34.457  31.673  1.00  0.00    -0.200 F 
ATOM     72  F   UNL A   1      47.476  36.455  29.817  1.00  0.00    -0.200 F 
ENDBRANCH  39  62
ENDBRANCH  13  14
ENDBRANCH   6   8
ENDBRANCH   3   4
ENDBRANCH   2   3
ENDBRANCH   1   2
BRANCH   1  73
ATOM     73  C   UNL A   1      39.197  22.361  26.282  1.00  0.00     0.002 C 
BRANCH  73  74
ATOM     74  C   UNL A   1      38.504  23.725  26.380  1.00  0.00     0.021 C 
BRANCH  74  75
ATOM     75  C   UNL A   1      37.013  23.740  26.052  1.00  0.00     0.116 C 
BRANCH  75  76
ATOM     76  N   UNL A   1      36.759  23.755  24.625  1.00  0.00    -0.352 N 
ATOM     77  C   UNL A   1      35.792  23.119  23.893  1.00  0.00     0.251 C 
ATOM     78  H   UNL A   1      37.379  24.311  24.099  1.00  0.00     0.163 HD
ATOM     79  O   UNL A   1      35.850  23.144  22.666  1.00  0.00    -0.269 OA
BRANCH  77  80
ATOM     80  C   UNL A   1      34.664  22.407  24.542  1.00  0.00     0.041 A 
ATOM     81  C   UNL A   1      34.664  21.007  24.525  1.00  0.00     0.022 A 
ATOM     82  C   UNL A   1      33.559  23.092  25.046  1.00  0.00     0.035 A 
ATOM     83  C   UNL A   1      33.575  20.273  25.027  1.00  0.00    -0.013 A 
ATOM     84  C   UNL A   1      32.471  22.385  25.550  1.00  0.00     0.084 A 
ATOM     85  C   UNL A   1      32.475  20.983  25.539  1.00  0.00     0.030 A 
BRANCH  83  86
ATOM     86  C   UNL A   1      33.588  18.810  24.979  1.00  0.00     0.018 A 
ATOM     87  C   UNL A   1      34.546  18.083  24.292  1.00  0.00     0.123 A 
ATOM     88  C   UNL A   1      32.663  18.024  25.648  1.00  0.00     0.123 A 
ATOM     89  N   UNL A   1      34.605  16.733  24.265  1.00  0.00    -0.244 NA
ATOM     90  N   UNL A   1      32.669  16.674  25.659  1.00  0.00    -0.244 NA
ATOM     91  C   UNL A   1      33.655  16.094  24.961  1.00  0.00     0.221 A 
ENDBRANCH  83  86
BRANCH  84  92
ATOM     92  S   UNL A   1      31.018  23.206  26.182  1.00  0.00     0.243 S 
ATOM     93  O   UNL A   1      30.004  22.177  26.304  1.00  0.00    -0.207 OA
ATOM     94  O   UNL A   1      31.463  23.981  27.316  1.00  0.00    -0.207 OA
BRANCH  92  95
ATOM     95  N   UNL A   1      30.500  24.274  24.999  1.00  0.00    -0.198 NA
ATOM     96  C   UNL A   1      30.627  23.964  23.569  1.00  0.00     0.102 C 
ATOM     97  C   UNL A   1      30.480  25.725  25.233  1.00  0.00     0.102 C 
ATOM     98  C   UNL A   1      31.132  25.259  22.949  1.00  0.00     0.018 C 
ATOM     99  C   UNL A   1      30.559  26.347  23.842  1.00  0.00     0.018 C 
ENDBRANCH  92  95
ENDBRANCH  84  92
ENDBRANCH  77  80
ENDBRANCH  75  76
ENDBRANCH  74  75
ENDBRANCH  73  74
ENDBRANCH   1  73
TORSDOF 16
ENDMDL
