MODEL 1
REMARK VINA RESULT:     -12.3      0.000      0.000
REMARK SMILES C[C@H](CC(=O)NCCCCCCNC(=O)c1ccc(-c2c3nc(c(-c4c(F)c(F)c(F)c(F)c4F)c4ccc([nH]4)c(-c4c(F)c(F)c(F)c(F)c4F)c4nc(c(-c5c(F)c(F)c(F)c(F)c5F)c5ccc2[nH]5)C=C4)C=C3)cc1)NC(=O)[C@H]1Cc2ccccc2O1
REMARK SMILES IDX 9 1 8 2 7 3 6 4 4 5 5 6 3 8 2 9 1 10 79 11 80 12 81 14 82 15
REMARK SMILES IDX 83 16 90 17 84 18 89 19 85 20 88 21 86 22 87 23 10 24 11 25
REMARK SMILES IDX 12 26 13 27 14 28 15 30 16 31 17 32 78 33 18 34 77 35 19 36
REMARK SMILES IDX 20 37 21 38 71 39 22 40 76 41 70 42 72 43 23 44 75 45 69 46
REMARK SMILES IDX 68 47 24 49 56 50 36 51 55 52 37 53 40 54 54 55 73 56 38 57
REMARK SMILES IDX 39 58 53 60 74 61 41 62 25 63 26 64 34 65 27 66 28 67 32 68
REMARK SMILES IDX 35 69 29 70 30 71 33 72 31 73 57 74 58 75 66 76 59 77 60 78
REMARK SMILES IDX 64 79 67 80 61 81 62 82 65 83 63 84 42 85 43 86 51 87 44 88
REMARK SMILES IDX 45 89 49 90 52 91 46 92 47 93 50 94 48 95
REMARK H PARENT 6 7 79 13 13 29 72 48 40 59
REMARK Flexibility Score: inf
ROOT
ATOM      1  C   UNL A   1      32.403  29.713  27.234  1.00  0.00     0.002 C 
ENDROOT
BRANCH   1   2
ATOM      2  C   UNL A   1      33.806  29.217  26.861  1.00  0.00     0.021 C 
BRANCH   2   3
ATOM      3  C   UNL A   1      33.807  28.016  25.912  1.00  0.00     0.116 C 
BRANCH   3   4
ATOM      4  N   UNL A   1      34.357  28.375  24.621  1.00  0.00    -0.356 N 
ATOM      5  C   UNL A   1      33.732  28.615  23.438  1.00  0.00     0.222 C 
ATOM      6  O   UNL A   1      34.426  28.803  22.439  1.00  0.00    -0.275 OA
ATOM      7  H   UNL A   1      35.337  28.459  24.596  1.00  0.00     0.163 HD
BRANCH   5   8
ATOM      8  C   UNL A   1      32.220  28.667  23.353  1.00  0.00     0.124 C 
BRANCH   8   9
ATOM      9  C   UNL A   1      31.492  27.379  22.936  1.00  0.00     0.088 C 
ATOM     10  C   UNL A   1      29.969  27.476  22.832  1.00  0.00     0.031 C 
BRANCH   9  11
ATOM     11  N   UNL A   1      32.030  26.845  21.685  1.00  0.00    -0.350 N 
ATOM     12  C   UNL A   1      32.662  25.686  21.363  1.00  0.00     0.261 C 
ATOM     13  H   UNL A   1      31.908  27.449  20.918  1.00  0.00     0.163 HD
ATOM     14  O   UNL A   1      33.025  25.615  20.182  1.00  0.00    -0.271 OA
BRANCH  12  15
ATOM     15  C   UNL A   1      32.989  24.579  22.382  1.00  0.00     0.266 C 
ATOM     16  C   UNL A   1      33.883  24.954  23.570  1.00  0.00     0.095 C 
ATOM     17  O   UNL A   1      31.707  24.119  22.909  1.00  0.00    -0.480 OA
ATOM     18  C   UNL A   1      33.183  24.250  24.668  1.00  0.00    -0.002 A 
ATOM     19  C   UNL A   1      31.928  23.872  24.233  1.00  0.00     0.123 A 
ATOM     20  C   UNL A   1      33.585  24.005  25.970  1.00  0.00     0.008 A 
ATOM     21  C   UNL A   1      30.999  23.304  25.080  1.00  0.00     0.047 A 
ATOM     22  C   UNL A   1      32.674  23.395  26.838  1.00  0.00     0.001 A 
ATOM     23  C   UNL A   1      31.380  23.065  26.401  1.00  0.00     0.004 A 
ENDBRANCH  12  15
ENDBRANCH   9  11
ENDBRANCH   8   9
ENDBRANCH   5   8
ENDBRANCH   3   4
ENDBRANCH   2   3
ENDBRANCH   1   2
BRANCH   1  24
ATOM     24  C   UNL A   1      31.793  30.708  26.242  1.00  0.00     0.002 C 
BRANCH  24  25
ATOM     25  C   UNL A   1      31.504  32.094  26.823  1.00  0.00     0.021 C 
BRANCH  25  26
ATOM     26  C   UNL A   1      32.732  32.810  27.377  1.00  0.00     0.116 C 
BRANCH  26  27
ATOM     27  N   UNL A   1      32.464  34.215  27.646  1.00  0.00    -0.352 N 
ATOM     28  C   UNL A   1      33.001  35.029  28.610  1.00  0.00     0.251 C 
ATOM     29  H   UNL A   1      31.804  34.641  27.052  1.00  0.00     0.163 HD
ATOM     30  O   UNL A   1      32.501  36.126  28.851  1.00  0.00    -0.269 OA
BRANCH  28  31
ATOM     31  C   UNL A   1      34.176  34.571  29.379  1.00  0.00     0.039 A 
ATOM     32  C   UNL A   1      33.989  34.054  30.663  1.00  0.00     0.014 A 
ATOM     33  C   UNL A   1      35.456  34.634  28.820  1.00  0.00     0.014 A 
ATOM     34  C   UNL A   1      35.079  33.530  31.358  1.00  0.00     0.010 A 
ATOM     35  C   UNL A   1      36.527  34.045  29.485  1.00  0.00     0.010 A 
ATOM     36  C   UNL A   1      36.348  33.480  30.756  1.00  0.00    -0.014 A 
BRANCH  36  37
ATOM     37  C   UNL A   1      37.490  32.806  31.423  1.00  0.00     0.031 A 
ATOM     38  C   UNL A   1      38.165  31.631  30.774  1.00  0.00     0.074 A 
ATOM     39  C   UNL A   1      37.868  33.208  32.653  1.00  0.00     0.049 A 
ATOM     40  N   UNL A   1      39.123  30.868  31.237  1.00  0.00    -0.248 NA
ATOM     41  C   UNL A   1      37.686  31.250  29.437  1.00  0.00     0.031 C 
ATOM     42  C   UNL A   1      37.259  34.307  33.405  1.00  0.00     0.029 A 
ATOM     43  N   UNL A   1      38.842  32.731  33.493  1.00  0.00    -0.354 N 
ATOM     44  C   UNL A   1      39.353  29.914  30.255  1.00  0.00     0.074 A 
ATOM     45  C   UNL A   1      38.401  30.161  29.194  1.00  0.00     0.031 C 
ATOM     46  C   UNL A   1      37.885  34.432  34.586  1.00  0.00     0.029 A 
ATOM     47  C   UNL A   1      38.906  33.394  34.695  1.00  0.00     0.049 A 
ATOM     48  H   UNL A   1      39.438  31.984  33.258  1.00  0.00     0.167 HD
ATOM     49  C   UNL A   1      40.288  28.935  30.233  1.00  0.00     0.037 A 
ATOM     50  C   UNL A   1      39.685  33.179  35.771  1.00  0.00     0.037 A 
ATOM     51  C   UNL A   1      41.240  28.701  31.288  1.00  0.00     0.049 A 
ATOM     52  C   UNL A   1      40.691  32.060  35.735  1.00  0.00     0.074 A 
ATOM     53  C   UNL A   1      42.268  27.776  31.332  1.00  0.00     0.029 A 
ATOM     54  N   UNL A   1      41.273  29.392  32.490  1.00  0.00    -0.354 N 
ATOM     55  N   UNL A   1      40.955  31.215  34.768  1.00  0.00    -0.248 NA
ATOM     56  C   UNL A   1      41.509  31.865  36.940  1.00  0.00     0.031 C 
ATOM     57  C   UNL A   1      42.883  27.864  32.585  1.00  0.00     0.029 A 
ATOM     58  C   UNL A   1      42.280  28.887  33.299  1.00  0.00     0.049 A 
ATOM     59  H   UNL A   1      40.670  30.131  32.734  1.00  0.00     0.167 HD
ATOM     60  C   UNL A   1      41.980  30.405  35.237  1.00  0.00     0.074 A 
ATOM     61  C   UNL A   1      42.307  30.874  36.568  1.00  0.00     0.031 C 
ATOM     62  C   UNL A   1      42.594  29.365  34.622  1.00  0.00     0.037 A 
BRANCH  49  63
ATOM     63  C   UNL A   1      40.328  28.035  29.030  1.00  0.00     0.064 A 
ATOM     64  C   UNL A   1      39.603  26.835  28.982  1.00  0.00     0.173 A 
ATOM     65  C   UNL A   1      41.066  28.400  27.894  1.00  0.00     0.173 A 
ATOM     66  F   UNL A   1      38.889  26.435  30.044  1.00  0.00    -0.203 F 
ATOM     67  C   UNL A   1      39.638  26.020  27.853  1.00  0.00     0.198 A 
ATOM     68  C   UNL A   1      41.072  27.600  26.754  1.00  0.00     0.198 A 
ATOM     69  F   UNL A   1      41.772  29.541  27.881  1.00  0.00    -0.203 F 
ATOM     70  F   UNL A   1      38.976  24.855  27.849  1.00  0.00    -0.200 F 
ATOM     71  C   UNL A   1      40.365  26.406  26.737  1.00  0.00     0.200 A 
ATOM     72  F   UNL A   1      41.762  27.983  25.671  1.00  0.00    -0.200 F 
ATOM     73  F   UNL A   1      40.389  25.627  25.648  1.00  0.00    -0.200 F 
ENDBRANCH  49  63
BRANCH  50  74
ATOM     74  C   UNL A   1      39.551  34.044  36.974  1.00  0.00     0.064 A 
ATOM     75  C   UNL A   1      38.774  33.641  38.069  1.00  0.00     0.173 A 
ATOM     76  C   UNL A   1      40.190  35.291  37.052  1.00  0.00     0.173 A 
ATOM     77  F   UNL A   1      38.127  32.467  38.033  1.00  0.00    -0.203 F 
ATOM     78  C   UNL A   1      38.621  34.461  39.184  1.00  0.00     0.198 A 
ATOM     79  C   UNL A   1      40.062  36.096  38.183  1.00  0.00     0.198 A 
ATOM     80  F   UNL A   1      40.950  35.722  36.036  1.00  0.00    -0.203 F 
ATOM     81  F   UNL A   1      37.830  34.072  40.194  1.00  0.00    -0.200 F 
ATOM     82  C   UNL A   1      39.271  35.684  39.243  1.00  0.00     0.200 A 
ATOM     83  F   UNL A   1      40.707  37.269  38.243  1.00  0.00    -0.200 F 
ATOM     84  F   UNL A   1      39.127  36.471  40.319  1.00  0.00    -0.200 F 
ENDBRANCH  50  74
BRANCH  62  85
ATOM     85  C   UNL A   1      43.697  28.674  35.371  1.00  0.00     0.064 A 
ATOM     86  C   UNL A   1      43.437  27.623  36.262  1.00  0.00     0.173 A 
ATOM     87  C   UNL A   1      45.036  29.037  35.158  1.00  0.00     0.173 A 
ATOM     88  F   UNL A   1      42.173  27.249  36.514  1.00  0.00    -0.203 F 
ATOM     89  C   UNL A   1      44.473  26.976  36.931  1.00  0.00     0.198 A 
ATOM     90  C   UNL A   1      46.073  28.367  35.803  1.00  0.00     0.198 A 
ATOM     91  F   UNL A   1      45.342  30.031  34.312  1.00  0.00    -0.203 F 
ATOM     92  F   UNL A   1      44.196  26.008  37.814  1.00  0.00    -0.200 F 
ATOM     93  C   UNL A   1      45.790  27.342  36.693  1.00  0.00     0.200 A 
ATOM     94  F   UNL A   1      47.345  28.710  35.559  1.00  0.00    -0.200 F 
ATOM     95  F   UNL A   1      46.787  26.710  37.328  1.00  0.00    -0.200 F 
ENDBRANCH  62  85
ENDBRANCH  36  37
ENDBRANCH  28  31
ENDBRANCH  26  27
ENDBRANCH  25  26
ENDBRANCH  24  25
ENDBRANCH   1  24
TORSDOF 16
ENDMDL
MODEL 2
REMARK VINA RESULT:     -12.3      1.128      3.153
REMARK SMILES C[C@H](CC(=O)NCCCCCCNC(=O)c1ccc(-c2c3nc(c(-c4c(F)c(F)c(F)c(F)c4F)c4ccc([nH]4)c(-c4c(F)c(F)c(F)c(F)c4F)c4nc(c(-c5c(F)c(F)c(F)c(F)c5F)c5ccc2[nH]5)C=C4)C=C3)cc1)NC(=O)[C@H]1Cc2ccccc2O1
REMARK SMILES IDX 9 1 8 2 7 3 6 4 4 5 5 6 3 8 2 9 1 10 79 11 80 12 81 14 82 15
REMARK SMILES IDX 83 16 90 17 84 18 89 19 85 20 88 21 86 22 87 23 10 24 11 25
REMARK SMILES IDX 12 26 13 27 14 28 15 30 16 31 17 32 78 33 18 34 77 35 19 36
REMARK SMILES IDX 20 37 21 38 71 39 22 40 76 41 70 42 72 43 23 44 75 45 69 46
REMARK SMILES IDX 68 47 24 49 56 50 36 51 55 52 37 53 40 54 54 55 73 56 38 57
REMARK SMILES IDX 39 58 53 60 74 61 41 62 25 63 26 64 34 65 27 66 28 67 32 68
REMARK SMILES IDX 35 69 29 70 30 71 33 72 31 73 57 74 58 75 66 76 59 77 60 78
REMARK SMILES IDX 64 79 67 80 61 81 62 82 65 83 63 84 42 85 43 86 51 87 44 88
REMARK SMILES IDX 45 89 49 90 52 91 46 92 47 93 50 94 48 95
REMARK H PARENT 6 7 79 13 13 29 72 48 40 59
REMARK Flexibility Score: inf
ROOT
ATOM      1  C   UNL A   1      32.449  29.596  27.191  1.00  0.00     0.002 C 
ENDROOT
BRANCH   1   2
ATOM      2  C   UNL A   1      33.751  28.965  26.679  1.00  0.00     0.021 C 
BRANCH   2   3
ATOM      3  C   UNL A   1      33.572  27.562  26.095  1.00  0.00     0.116 C 
BRANCH   3   4
ATOM      4  N   UNL A   1      33.542  27.602  24.648  1.00  0.00    -0.356 N 
ATOM      5  C   UNL A   1      33.678  26.600  23.740  1.00  0.00     0.222 C 
ATOM      6  O   UNL A   1      33.721  26.896  22.545  1.00  0.00    -0.275 OA
ATOM      7  H   UNL A   1      33.399  28.496  24.260  1.00  0.00     0.163 HD
BRANCH   5   8
ATOM      8  C   UNL A   1      33.758  25.154  24.182  1.00  0.00     0.124 C 
BRANCH   8   9
ATOM      9  C   UNL A   1      32.472  24.316  24.095  1.00  0.00     0.088 C 
ATOM     10  C   UNL A   1      32.664  22.799  24.071  1.00  0.00     0.031 C 
BRANCH   9  11
ATOM     11  N   UNL A   1      31.534  24.669  25.160  1.00  0.00    -0.350 N 
ATOM     12  C   UNL A   1      30.417  25.441  25.199  1.00  0.00     0.261 C 
ATOM     13  H   UNL A   1      31.758  24.262  26.028  1.00  0.00     0.163 HD
ATOM     14  O   UNL A   1      29.909  25.546  26.323  1.00  0.00    -0.271 OA
BRANCH  12  15
ATOM     15  C   UNL A   1      29.861  26.200  23.982  1.00  0.00     0.266 C 
ATOM     16  C   UNL A   1      28.363  26.529  23.978  1.00  0.00     0.095 C 
ATOM     17  O   UNL A   1      30.600  27.458  23.914  1.00  0.00    -0.480 OA
ATOM     18  C   UNL A   1      28.391  27.915  23.458  1.00  0.00    -0.002 A 
ATOM     19  C   UNL A   1      29.685  28.394  23.523  1.00  0.00     0.123 A 
ATOM     20  C   UNL A   1      27.358  28.723  23.015  1.00  0.00     0.008 A 
ATOM     21  C   UNL A   1      29.998  29.703  23.222  1.00  0.00     0.047 A 
ATOM     22  C   UNL A   1      27.657  30.044  22.666  1.00  0.00     0.001 A 
ATOM     23  C   UNL A   1      28.967  30.537  22.789  1.00  0.00     0.004 A 
ENDBRANCH  12  15
ENDBRANCH   9  11
ENDBRANCH   8   9
ENDBRANCH   5   8
ENDBRANCH   3   4
ENDBRANCH   2   3
ENDBRANCH   1   2
BRANCH   1  24
ATOM     24  C   UNL A   1      31.770  30.549  26.202  1.00  0.00     0.002 C 
BRANCH  24  25
ATOM     25  C   UNL A   1      31.486  31.947  26.755  1.00  0.00     0.021 C 
BRANCH  25  26
ATOM     26  C   UNL A   1      32.721  32.684  27.263  1.00  0.00     0.116 C 
BRANCH  26  27
ATOM     27  N   UNL A   1      32.440  34.085  27.542  1.00  0.00    -0.352 N 
ATOM     28  C   UNL A   1      32.969  34.897  28.511  1.00  0.00     0.251 C 
ATOM     29  H   UNL A   1      31.776  34.509  26.951  1.00  0.00     0.163 HD
ATOM     30  O   UNL A   1      32.459  35.987  28.760  1.00  0.00    -0.269 OA
BRANCH  28  31
ATOM     31  C   UNL A   1      34.149  34.445  29.276  1.00  0.00     0.039 A 
ATOM     32  C   UNL A   1      33.963  33.867  30.534  1.00  0.00     0.014 A 
ATOM     33  C   UNL A   1      35.434  34.575  28.739  1.00  0.00     0.014 A 
ATOM     34  C   UNL A   1      35.062  33.349  31.221  1.00  0.00     0.010 A 
ATOM     35  C   UNL A   1      36.515  33.993  29.393  1.00  0.00     0.010 A 
ATOM     36  C   UNL A   1      36.338  33.367  30.636  1.00  0.00    -0.014 A 
BRANCH  36  37
ATOM     37  C   UNL A   1      37.494  32.703  31.290  1.00  0.00     0.031 A 
ATOM     38  C   UNL A   1      38.184  31.547  30.623  1.00  0.00     0.074 A 
ATOM     39  C   UNL A   1      37.872  33.096  32.522  1.00  0.00     0.049 A 
ATOM     40  N   UNL A   1      39.156  30.792  31.072  1.00  0.00    -0.248 NA
ATOM     41  C   UNL A   1      37.704  31.174  29.284  1.00  0.00     0.031 C 
ATOM     42  C   UNL A   1      37.250  34.176  33.290  1.00  0.00     0.029 A 
ATOM     43  N   UNL A   1      38.858  32.624  33.352  1.00  0.00    -0.354 N 
ATOM     44  C   UNL A   1      39.395  29.854  30.078  1.00  0.00     0.074 A 
ATOM     45  C   UNL A   1      38.434  30.099  29.024  1.00  0.00     0.031 C 
ATOM     46  C   UNL A   1      37.880  34.297  34.469  1.00  0.00     0.029 A 
ATOM     47  C   UNL A   1      38.917  33.274  34.562  1.00  0.00     0.049 A 
ATOM     48  H   UNL A   1      39.464  31.889  33.105  1.00  0.00     0.167 HD
ATOM     49  C   UNL A   1      40.345  28.889  30.040  1.00  0.00     0.037 A 
ATOM     50  C   UNL A   1      39.705  33.058  35.631  1.00  0.00     0.037 A 
ATOM     51  C   UNL A   1      41.306  28.657  31.087  1.00  0.00     0.049 A 
ATOM     52  C   UNL A   1      40.727  31.955  35.577  1.00  0.00     0.074 A 
ATOM     53  C   UNL A   1      42.348  27.748  31.116  1.00  0.00     0.029 A 
ATOM     54  N   UNL A   1      41.334  29.335  32.298  1.00  0.00    -0.354 N 
ATOM     55  N   UNL A   1      40.999  31.126  34.599  1.00  0.00    -0.248 NA
ATOM     56  C   UNL A   1      41.554  31.758  36.776  1.00  0.00     0.031 C 
ATOM     57  C   UNL A   1      42.968  27.831  32.367  1.00  0.00     0.029 A 
ATOM     58  C   UNL A   1      42.352  28.836  33.095  1.00  0.00     0.049 A 
ATOM     59  H   UNL A   1      40.721  30.062  32.553  1.00  0.00     0.167 HD
ATOM     60  C   UNL A   1      42.039  30.326  35.053  1.00  0.00     0.074 A 
ATOM     61  C   UNL A   1      42.365  30.784  36.388  1.00  0.00     0.031 C 
ATOM     62  C   UNL A   1      42.666  29.303  34.423  1.00  0.00     0.037 A 
BRANCH  49  63
ATOM     63  C   UNL A   1      40.393  28.005  28.826  1.00  0.00     0.064 A 
ATOM     64  C   UNL A   1      41.159  28.340  27.699  1.00  0.00     0.173 A 
ATOM     65  C   UNL A   1      39.701  26.784  28.807  1.00  0.00     0.173 A 
ATOM     66  F   UNL A   1      41.833  29.500  27.662  1.00  0.00    -0.203 F 
ATOM     67  C   UNL A   1      41.207  27.502  26.588  1.00  0.00     0.198 A 
ATOM     68  C   UNL A   1      39.777  25.932  27.708  1.00  0.00     0.198 A 
ATOM     69  F   UNL A   1      38.960  26.409  29.861  1.00  0.00    -0.203 F 
ATOM     70  F   UNL A   1      41.905  27.867  25.505  1.00  0.00    -0.200 F 
ATOM     71  C   UNL A   1      40.523  26.296  26.596  1.00  0.00     0.200 A 
ATOM     72  F   UNL A   1      39.130  24.759  27.725  1.00  0.00    -0.200 F 
ATOM     73  F   UNL A   1      40.579  25.484  25.531  1.00  0.00    -0.200 F 
ENDBRANCH  49  63
BRANCH  50  74
ATOM     74  C   UNL A   1      39.563  33.907  36.845  1.00  0.00     0.064 A 
ATOM     75  C   UNL A   1      40.235  35.132  36.950  1.00  0.00     0.173 A 
ATOM     76  C   UNL A   1      38.761  33.509  37.925  1.00  0.00     0.173 A 
ATOM     77  F   UNL A   1      41.031  35.546  35.953  1.00  0.00    -0.203 F 
ATOM     78  C   UNL A   1      40.131  35.916  38.097  1.00  0.00     0.198 A 
ATOM     79  C   UNL A   1      38.631  34.309  39.058  1.00  0.00     0.198 A 
ATOM     80  F   UNL A   1      38.092  32.349  37.874  1.00  0.00    -0.203 F 
ATOM     81  F   UNL A   1      40.825  37.058  38.191  1.00  0.00    -0.200 F 
ATOM     82  C   UNL A   1      39.322  35.507  39.147  1.00  0.00     0.200 A 
ATOM     83  F   UNL A   1      37.835  33.919  40.064  1.00  0.00    -0.200 F 
ATOM     84  F   UNL A   1      39.218  36.263  40.249  1.00  0.00    -0.200 F 
ENDBRANCH  50  74
BRANCH  62  85
ATOM     85  C   UNL A   1      43.783  28.620  35.159  1.00  0.00     0.064 A 
ATOM     86  C   UNL A   1      45.108  29.068  35.067  1.00  0.00     0.173 A 
ATOM     87  C   UNL A   1      43.515  27.531  36.004  1.00  0.00     0.173 A 
ATOM     88  F   UNL A   1      45.420  30.095  34.261  1.00  0.00    -0.203 F 
ATOM     89  C   UNL A   1      46.128  28.439  35.776  1.00  0.00     0.198 A 
ATOM     90  C   UNL A   1      44.532  26.924  36.736  1.00  0.00     0.198 A 
ATOM     91  F   UNL A   1      42.264  27.065  36.132  1.00  0.00    -0.203 F 
ATOM     92  F   UNL A   1      47.394  28.855  35.634  1.00  0.00    -0.200 F 
ATOM     93  C   UNL A   1      45.838  27.374  36.616  1.00  0.00     0.200 A 
ATOM     94  F   UNL A   1      44.248  25.907  37.560  1.00  0.00    -0.200 F 
ATOM     95  F   UNL A   1      46.820  26.777  37.306  1.00  0.00    -0.200 F 
ENDBRANCH  62  85
ENDBRANCH  36  37
ENDBRANCH  28  31
ENDBRANCH  26  27
ENDBRANCH  25  26
ENDBRANCH  24  25
ENDBRANCH   1  24
TORSDOF 16
ENDMDL
MODEL 3
REMARK VINA RESULT:     -12.3      2.134      2.658
REMARK SMILES C[C@H](CC(=O)NCCCCCCNC(=O)c1ccc(-c2c3nc(c(-c4c(F)c(F)c(F)c(F)c4F)c4ccc([nH]4)c(-c4c(F)c(F)c(F)c(F)c4F)c4nc(c(-c5c(F)c(F)c(F)c(F)c5F)c5ccc2[nH]5)C=C4)C=C3)cc1)NC(=O)[C@H]1Cc2ccccc2O1
REMARK SMILES IDX 9 1 8 2 7 3 6 4 4 5 5 6 3 8 2 9 1 10 79 11 80 12 81 14 82 15
REMARK SMILES IDX 83 16 90 17 84 18 89 19 85 20 88 21 86 22 87 23 10 24 11 25
REMARK SMILES IDX 12 26 13 27 14 28 15 30 16 31 17 32 78 33 18 34 77 35 19 36
REMARK SMILES IDX 20 37 21 38 71 39 22 40 76 41 70 42 72 43 23 44 75 45 69 46
REMARK SMILES IDX 68 47 24 49 56 50 36 51 55 52 37 53 40 54 54 55 73 56 38 57
REMARK SMILES IDX 39 58 53 60 74 61 41 62 25 63 26 64 34 65 27 66 28 67 32 68
REMARK SMILES IDX 35 69 29 70 30 71 33 72 31 73 57 74 58 75 66 76 59 77 60 78
REMARK SMILES IDX 64 79 67 80 61 81 62 82 65 83 63 84 42 85 43 86 51 87 44 88
REMARK SMILES IDX 45 89 49 90 52 91 46 92 47 93 50 94 48 95
REMARK H PARENT 6 7 79 13 13 29 72 48 40 59
REMARK Flexibility Score: inf
ROOT
ATOM      1  C   UNL A   1      32.387  29.655  27.189  1.00  0.00     0.002 C 
ENDROOT
BRANCH   1   2
ATOM      2  C   UNL A   1      31.524  28.420  27.478  1.00  0.00     0.021 C 
BRANCH   2   3
ATOM      3  C   UNL A   1      31.672  27.304  26.441  1.00  0.00     0.116 C 
BRANCH   3   4
ATOM      4  N   UNL A   1      30.996  26.099  26.875  1.00  0.00    -0.356 N 
ATOM      5  C   UNL A   1      30.668  24.978  26.180  1.00  0.00     0.222 C 
ATOM      6  O   UNL A   1      29.993  24.117  26.745  1.00  0.00    -0.275 OA
ATOM      7  H   UNL A   1      30.733  26.090  27.824  1.00  0.00     0.163 HD
BRANCH   5   8
ATOM      8  C   UNL A   1      31.133  24.784  24.751  1.00  0.00     0.124 C 
BRANCH   8   9
ATOM      9  C   UNL A   1      32.356  23.883  24.523  1.00  0.00     0.088 C 
ATOM     10  C   UNL A   1      33.584  24.564  23.917  1.00  0.00     0.031 C 
BRANCH   9  11
ATOM     11  N   UNL A   1      32.743  23.189  25.751  1.00  0.00    -0.350 N 
ATOM     12  C   UNL A   1      33.136  21.916  26.016  1.00  0.00     0.261 C 
ATOM     13  H   UNL A   1      32.713  23.763  26.549  1.00  0.00     0.163 HD
ATOM     14  O   UNL A   1      33.331  21.683  27.216  1.00  0.00    -0.271 OA
BRANCH  12  15
ATOM     15  C   UNL A   1      33.251  20.816  24.946  1.00  0.00     0.266 C 
ATOM     16  C   UNL A   1      34.605  20.113  24.797  1.00  0.00     0.095 C 
ATOM     17  O   UNL A   1      32.253  19.806  25.291  1.00  0.00    -0.480 OA
ATOM     18  C   UNL A   1      34.166  18.710  24.633  1.00  0.00    -0.002 A 
ATOM     19  C   UNL A   1      32.839  18.607  25.002  1.00  0.00     0.123 A 
ATOM     20  C   UNL A   1      34.881  17.590  24.246  1.00  0.00     0.008 A 
ATOM     21  C   UNL A   1      32.189  17.392  25.072  1.00  0.00     0.047 A 
ATOM     22  C   UNL A   1      34.233  16.351  24.270  1.00  0.00     0.001 A 
ATOM     23  C   UNL A   1      32.899  16.250  24.702  1.00  0.00     0.004 A 
ENDBRANCH  12  15
ENDBRANCH   9  11
ENDBRANCH   8   9
ENDBRANCH   5   8
ENDBRANCH   3   4
ENDBRANCH   2   3
ENDBRANCH   1   2
BRANCH   1  24
ATOM     24  C   UNL A   1      31.790  30.625  26.164  1.00  0.00     0.002 C 
BRANCH  24  25
ATOM     25  C   UNL A   1      31.491  32.024  26.707  1.00  0.00     0.021 C 
BRANCH  25  26
ATOM     26  C   UNL A   1      32.668  32.688  27.413  1.00  0.00     0.116 C 
BRANCH  26  27
ATOM     27  N   UNL A   1      32.441  34.110  27.626  1.00  0.00    -0.352 N 
ATOM     28  C   UNL A   1      33.011  34.948  28.549  1.00  0.00     0.251 C 
ATOM     29  H   UNL A   1      31.784  34.528  27.023  1.00  0.00     0.163 HD
ATOM     30  O   UNL A   1      32.543  36.067  28.751  1.00  0.00    -0.269 OA
BRANCH  28  31
ATOM     31  C   UNL A   1      34.184  34.491  29.322  1.00  0.00     0.039 A 
ATOM     32  C   UNL A   1      33.994  33.979  30.607  1.00  0.00     0.014 A 
ATOM     33  C   UNL A   1      35.465  34.552  28.766  1.00  0.00     0.014 A 
ATOM     34  C   UNL A   1      35.082  33.455  31.306  1.00  0.00     0.010 A 
ATOM     35  C   UNL A   1      36.535  33.964  29.434  1.00  0.00     0.010 A 
ATOM     36  C   UNL A   1      36.352  33.403  30.707  1.00  0.00    -0.014 A 
BRANCH  36  37
ATOM     37  C   UNL A   1      37.492  32.730  31.379  1.00  0.00     0.031 A 
ATOM     38  C   UNL A   1      38.174  31.558  30.730  1.00  0.00     0.074 A 
ATOM     39  C   UNL A   1      37.863  33.130  32.611  1.00  0.00     0.049 A 
ATOM     40  N   UNL A   1      39.131  30.796  31.196  1.00  0.00    -0.248 NA
ATOM     41  C   UNL A   1      37.702  31.179  29.390  1.00  0.00     0.031 C 
ATOM     42  C   UNL A   1      37.247  34.226  33.363  1.00  0.00     0.029 A 
ATOM     43  N   UNL A   1      38.834  32.653  33.455  1.00  0.00    -0.354 N 
ATOM     44  C   UNL A   1      39.368  29.845  30.213  1.00  0.00     0.074 A 
ATOM     45  C   UNL A   1      38.420  30.092  29.148  1.00  0.00     0.031 C 
ATOM     46  C   UNL A   1      37.867  34.350  34.547  1.00  0.00     0.029 A 
ATOM     47  C   UNL A   1      38.890  33.314  34.659  1.00  0.00     0.049 A 
ATOM     48  H   UNL A   1      39.433  31.908  33.222  1.00  0.00     0.167 HD
ATOM     49  C   UNL A   1      40.305  28.867  30.194  1.00  0.00     0.037 A 
ATOM     50  C   UNL A   1      39.664  33.099  35.738  1.00  0.00     0.037 A 
ATOM     51  C   UNL A   1      41.252  28.633  31.253  1.00  0.00     0.049 A 
ATOM     52  C   UNL A   1      40.673  31.981  35.705  1.00  0.00     0.074 A 
ATOM     53  C   UNL A   1      42.282  27.711  31.301  1.00  0.00     0.029 A 
ATOM     54  N   UNL A   1      41.277  29.322  32.458  1.00  0.00    -0.354 N 
ATOM     55  N   UNL A   1      40.944  31.139  34.737  1.00  0.00    -0.248 NA
ATOM     56  C   UNL A   1      41.485  31.786  36.914  1.00  0.00     0.031 C 
ATOM     57  C   UNL A   1      42.891  27.798  32.558  1.00  0.00     0.029 A 
ATOM     58  C   UNL A   1      42.281  28.817  33.270  1.00  0.00     0.049 A 
ATOM     59  H   UNL A   1      40.672  30.059  32.700  1.00  0.00     0.167 HD
ATOM     60  C   UNL A   1      41.968  30.330  35.210  1.00  0.00     0.074 A 
ATOM     61  C   UNL A   1      42.287  30.798  36.544  1.00  0.00     0.031 C 
ATOM     62  C   UNL A   1      42.587  29.293  34.596  1.00  0.00     0.037 A 
BRANCH  49  63
ATOM     63  C   UNL A   1      40.354  27.970  28.989  1.00  0.00     0.064 A 
ATOM     64  C   UNL A   1      39.626  26.772  28.933  1.00  0.00     0.173 A 
ATOM     65  C   UNL A   1      41.101  28.337  27.860  1.00  0.00     0.173 A 
ATOM     66  F   UNL A   1      38.902  26.371  29.988  1.00  0.00    -0.203 F 
ATOM     67  C   UNL A   1      39.669  25.960  27.802  1.00  0.00     0.198 A 
ATOM     68  C   UNL A   1      41.115  27.539  26.718  1.00  0.00     0.198 A 
ATOM     69  F   UNL A   1      41.809  29.476  27.856  1.00  0.00    -0.203 F 
ATOM     70  F   UNL A   1      39.005  24.796  27.790  1.00  0.00    -0.200 F 
ATOM     71  C   UNL A   1      40.406  26.347  26.694  1.00  0.00     0.200 A 
ATOM     72  F   UNL A   1      41.815  27.923  25.642  1.00  0.00    -0.200 F 
ATOM     73  F   UNL A   1      40.437  25.570  25.602  1.00  0.00    -0.200 F 
ENDBRANCH  49  63
BRANCH  50  74
ATOM     74  C   UNL A   1      39.522  33.960  36.942  1.00  0.00     0.064 A 
ATOM     75  C   UNL A   1      38.753  33.546  38.039  1.00  0.00     0.173 A 
ATOM     76  C   UNL A   1      40.145  35.215  37.021  1.00  0.00     0.173 A 
ATOM     77  F   UNL A   1      38.121  32.364  38.004  1.00  0.00    -0.203 F 
ATOM     78  C   UNL A   1      38.592  34.363  39.156  1.00  0.00     0.198 A 
ATOM     79  C   UNL A   1      40.010  36.018  38.152  1.00  0.00     0.198 A 
ATOM     80  F   UNL A   1      40.897  35.657  36.002  1.00  0.00    -0.203 F 
ATOM     81  F   UNL A   1      37.809  33.963  40.167  1.00  0.00    -0.200 F 
ATOM     82  C   UNL A   1      39.227  35.594  39.214  1.00  0.00     0.200 A 
ATOM     83  F   UNL A   1      40.639  37.199  38.212  1.00  0.00    -0.200 F 
ATOM     84  F   UNL A   1      39.075  36.378  40.291  1.00  0.00    -0.200 F 
ENDBRANCH  50  74
BRANCH  62  85
ATOM     85  C   UNL A   1      43.688  28.603  35.349  1.00  0.00     0.064 A 
ATOM     86  C   UNL A   1      43.425  27.553  36.241  1.00  0.00     0.173 A 
ATOM     87  C   UNL A   1      45.028  28.966  35.141  1.00  0.00     0.173 A 
ATOM     88  F   UNL A   1      42.160  27.178  36.488  1.00  0.00    -0.203 F 
ATOM     89  C   UNL A   1      44.459  26.907  36.913  1.00  0.00     0.198 A 
ATOM     90  C   UNL A   1      46.062  28.296  35.789  1.00  0.00     0.198 A 
ATOM     91  F   UNL A   1      45.336  29.960  34.295  1.00  0.00    -0.203 F 
ATOM     92  F   UNL A   1      44.180  25.939  37.796  1.00  0.00    -0.200 F 
ATOM     93  C   UNL A   1      45.777  27.273  36.680  1.00  0.00     0.200 A 
ATOM     94  F   UNL A   1      47.335  28.639  35.549  1.00  0.00    -0.200 F 
ATOM     95  F   UNL A   1      46.772  26.641  37.318  1.00  0.00    -0.200 F 
ENDBRANCH  62  85
ENDBRANCH  36  37
ENDBRANCH  28  31
ENDBRANCH  26  27
ENDBRANCH  25  26
ENDBRANCH  24  25
ENDBRANCH   1  24
TORSDOF 16
ENDMDL
