MODEL 1
REMARK VINA RESULT:     -12.0      0.000      0.000
REMARK SMILES Cc1cc2n(n1)[C@H](C(F)(F)F)CCN2C(=O)c1cnn([C@@H](C)C(=O)NCCCCCCNC(=O)c2ccc(-c3c4nc(c(-c5c(F)c(F)c(F)c(F)c5F)c5ccc([nH]5)c(-c5c(F)c(F)c(F)c(F)c5F)c5nc(c(-c6c(F)c(F)c(F)c(F)c6F)c6ccc3[nH]6)C=C5)C=C4)cc2)c1
REMARK SMILES IDX 27 1 26 2 25 3 23 4 24 5 21 7 22 8 20 9 17 10 18 11 98 12
REMARK SMILES IDX 19 13 15 14 16 15 14 16 1 17 2 18 3 19 6 20 4 21 5 22 7 23
REMARK SMILES IDX 13 24 12 25 8 26 9 27 10 28 11 29 28 30 29 31 30 32 31 33
REMARK SMILES IDX 32 34 33 35 34 37 35 38 36 39 97 40 37 41 96 42 38 43 39 44
REMARK SMILES IDX 40 45 90 46 41 47 95 48 89 49 91 50 42 51 94 52 88 53 87 54
REMARK SMILES IDX 43 56 75 57 55 58 74 59 56 60 59 61 73 62 92 63 57 64 58 65
REMARK SMILES IDX 72 67 93 68 60 69 44 70 45 71 53 72 46 73 47 74 51 75 54 76
REMARK SMILES IDX 48 77 49 78 52 79 50 80 76 81 77 82 85 83 78 84 79 85 83 86
REMARK SMILES IDX 86 87 80 88 81 89 84 90 82 91 61 92 62 93 70 94 63 95 64 96
REMARK SMILES IDX 68 97 71 98 65 99 66 100 69 101 67 102
REMARK H PARENT 25 6 32 36 91 55 59 66
REMARK Flexibility Score: inf
ROOT
ATOM      1  C   UNL A   1      39.594  23.397  26.584  1.00  0.00     0.021 C 
ENDROOT
BRANCH   1   2
ATOM      2  C   UNL A   1      38.115  23.720  26.356  1.00  0.00     0.116 C 
BRANCH   2   3
ATOM      3  N   UNL A   1      37.725  23.527  24.971  1.00  0.00    -0.354 N 
ATOM      4  C   UNL A   1      37.006  22.535  24.379  1.00  0.00     0.244 C 
ATOM      5  O   UNL A   1      36.937  22.562  23.144  1.00  0.00    -0.273 OA
ATOM      6  H   UNL A   1      38.033  24.232  24.358  1.00  0.00     0.163 HD
BRANCH   4   7
ATOM      7  C   UNL A   1      36.266  21.443  25.146  1.00  0.00     0.193 C 
ATOM      8  C   UNL A   1      36.785  20.029  24.902  1.00  0.00     0.044 C 
BRANCH   7   9
ATOM      9  N   UNL A   1      34.815  21.577  25.061  1.00  0.00    -0.260 N 
ATOM     10  C   UNL A   1      32.761  22.391  25.052  1.00  0.00     0.078 A 
ATOM     11  C   UNL A   1      32.797  21.017  24.758  1.00  0.00     0.149 A 
ATOM     12  C   UNL A   1      34.094  22.736  25.191  1.00  0.00     0.123 A 
ATOM     13  N   UNL A   1      34.015  20.503  24.908  1.00  0.00    -0.180 NA
BRANCH  10  14
ATOM     14  C   UNL A   1      31.636  23.281  25.098  1.00  0.00     0.262 C 
ATOM     15  O   UNL A   1      30.561  22.981  25.614  1.00  0.00    -0.269 OA
BRANCH  14  16
ATOM     16  N   UNL A   1      31.844  24.553  24.416  1.00  0.00    -0.293 N 
ATOM     17  C   UNL A   1      31.566  28.166  27.893  1.00  0.00     0.069 C 
ATOM     18  C   UNL A   1      31.753  27.384  26.647  1.00  0.00     0.062 A 
ATOM     19  C   UNL A   1      31.746  25.973  26.508  1.00  0.00     0.072 A 
ATOM     20  N   UNL A   1      31.938  27.993  25.470  1.00  0.00    -0.176 NA
ATOM     21  C   UNL A   1      31.847  25.742  25.155  1.00  0.00     0.134 A 
ATOM     22  N   UNL A   1      31.937  26.986  24.591  1.00  0.00    -0.237 N 
ATOM     23  C   UNL A   1      32.032  27.233  23.168  1.00  0.00     0.216 C 
ATOM     24  C   UNL A   1      31.789  24.680  22.933  1.00  0.00     0.130 C 
ATOM     25  C   UNL A   1      32.482  25.956  22.444  1.00  0.00     0.059 C 
BRANCH  23  26
ATOM     26  C   UNL A   1      30.712  27.754  22.644  1.00  0.00     0.410 C 
ATOM     27  F   UNL A   1      30.686  29.107  22.737  1.00  0.00    -0.169 F 
ATOM     28  F   UNL A   1      30.548  27.451  21.335  1.00  0.00    -0.169 F 
ATOM     29  F   UNL A   1      29.649  27.293  23.326  1.00  0.00    -0.169 F 
ENDBRANCH  23  26
ENDBRANCH  14  16
ENDBRANCH  10  14
ENDBRANCH   7   9
ENDBRANCH   4   7
ENDBRANCH   2   3
ENDBRANCH   1   2
BRANCH   1  30
ATOM     30  C   UNL A   1      39.877  21.945  26.981  1.00  0.00     0.002 C 
BRANCH  30  31
ATOM     31  C   UNL A   1      40.296  21.004  25.843  1.00  0.00     0.002 C 
BRANCH  31  32
ATOM     32  C   UNL A   1      41.035  19.718  26.243  1.00  0.00     0.021 C 
BRANCH  32  33
ATOM     33  C   UNL A   1      42.433  19.948  26.796  1.00  0.00     0.116 C 
BRANCH  33  34
ATOM     34  N   UNL A   1      43.469  19.871  25.764  1.00  0.00    -0.352 N 
ATOM     35  C   UNL A   1      44.065  20.900  25.063  1.00  0.00     0.251 C 
ATOM     36  H   UNL A   1      43.781  18.965  25.541  1.00  0.00     0.163 HD
ATOM     37  O   UNL A   1      44.669  20.694  24.017  1.00  0.00    -0.269 OA
BRANCH  35  38
ATOM     38  C   UNL A   1      43.959  22.265  25.602  1.00  0.00     0.039 A 
ATOM     39  C   UNL A   1      43.074  23.208  25.069  1.00  0.00     0.014 A 
ATOM     40  C   UNL A   1      44.742  22.570  26.706  1.00  0.00     0.014 A 
ATOM     41  C   UNL A   1      42.932  24.439  25.709  1.00  0.00     0.010 A 
ATOM     42  C   UNL A   1      44.454  23.688  27.441  1.00  0.00     0.010 A 
ATOM     43  C   UNL A   1      43.622  24.669  26.904  1.00  0.00    -0.014 A 
BRANCH  43  44
ATOM     44  C   UNL A   1      43.536  25.938  27.624  1.00  0.00     0.031 A 
ATOM     45  C   UNL A   1      44.502  27.021  27.267  1.00  0.00     0.074 A 
ATOM     46  C   UNL A   1      42.439  26.214  28.364  1.00  0.00     0.049 A 
ATOM     47  N   UNL A   1      45.231  27.743  28.059  1.00  0.00    -0.248 NA
ATOM     48  C   UNL A   1      44.683  27.345  25.843  1.00  0.00     0.031 C 
ATOM     49  C   UNL A   1      41.230  25.394  28.551  1.00  0.00     0.029 A 
ATOM     50  N   UNL A   1      42.109  27.373  28.991  1.00  0.00    -0.354 N 
ATOM     51  C   UNL A   1      45.880  28.686  27.260  1.00  0.00     0.074 A 
ATOM     52  C   UNL A   1      45.566  28.345  25.897  1.00  0.00     0.031 C 
ATOM     53  C   UNL A   1      40.225  26.167  29.010  1.00  0.00     0.029 A 
ATOM     54  C   UNL A   1      40.773  27.467  29.340  1.00  0.00     0.049 A 
ATOM     55  H   UNL A   1      42.763  28.084  29.180  1.00  0.00     0.167 HD
ATOM     56  C   UNL A   1      46.519  29.772  27.783  1.00  0.00     0.037 A 
ATOM     57  C   UNL A   1      40.141  28.550  29.840  1.00  0.00     0.037 A 
ATOM     58  C   UNL A   1      46.775  29.611  29.187  1.00  0.00     0.049 A 
ATOM     59  C   UNL A   1      41.178  29.454  30.392  1.00  0.00     0.074 A 
ATOM     60  C   UNL A   1      47.543  28.742  29.937  1.00  0.00     0.029 A 
ATOM     61  N   UNL A   1      45.937  30.222  30.085  1.00  0.00    -0.354 N 
ATOM     62  N   UNL A   1      41.925  29.162  31.421  1.00  0.00    -0.248 NA
ATOM     63  C   UNL A   1      41.693  30.502  29.526  1.00  0.00     0.031 C 
ATOM     64  C   UNL A   1      46.783  28.508  31.121  1.00  0.00     0.029 A 
ATOM     65  C   UNL A   1      45.624  29.281  31.033  1.00  0.00     0.049 A 
ATOM     66  H   UNL A   1      45.622  31.155  30.056  1.00  0.00     0.167 HD
ATOM     67  C   UNL A   1      43.172  29.687  31.121  1.00  0.00     0.074 A 
ATOM     68  C   UNL A   1      42.941  30.586  29.993  1.00  0.00     0.031 C 
ATOM     69  C   UNL A   1      44.315  29.139  31.628  1.00  0.00     0.037 A 
BRANCH  56  70
ATOM     70  C   UNL A   1      46.710  31.098  27.090  1.00  0.00     0.064 A 
ATOM     71  C   UNL A   1      47.998  31.667  26.997  1.00  0.00     0.173 A 
ATOM     72  C   UNL A   1      45.641  31.956  26.759  1.00  0.00     0.173 A 
ATOM     73  F   UNL A   1      49.087  30.952  27.314  1.00  0.00    -0.203 F 
ATOM     74  C   UNL A   1      48.193  33.010  26.653  1.00  0.00     0.198 A 
ATOM     75  C   UNL A   1      45.842  33.279  26.366  1.00  0.00     0.198 A 
ATOM     76  F   UNL A   1      44.364  31.581  26.909  1.00  0.00    -0.203 F 
ATOM     77  F   UNL A   1      49.424  33.536  26.687  1.00  0.00    -0.200 F 
ATOM     78  C   UNL A   1      47.114  33.815  26.340  1.00  0.00     0.200 A 
ATOM     79  F   UNL A   1      44.781  34.051  26.087  1.00  0.00    -0.200 F 
ATOM     80  F   UNL A   1      47.290  35.114  26.062  1.00  0.00    -0.200 F 
ENDBRANCH  56  70
BRANCH  57  81
ATOM     81  C   UNL A   1      38.742  28.945  29.586  1.00  0.00     0.064 A 
ATOM     82  C   UNL A   1      37.859  29.239  30.632  1.00  0.00     0.173 A 
ATOM     83  C   UNL A   1      38.311  29.265  28.282  1.00  0.00     0.173 A 
ATOM     84  F   UNL A   1      38.223  29.009  31.902  1.00  0.00    -0.203 F 
ATOM     85  C   UNL A   1      36.613  29.825  30.388  1.00  0.00     0.198 A 
ATOM     86  C   UNL A   1      37.068  29.847  28.039  1.00  0.00     0.198 A 
ATOM     87  F   UNL A   1      39.128  29.106  27.229  1.00  0.00    -0.203 F 
ATOM     88  F   UNL A   1      35.811  30.141  31.414  1.00  0.00    -0.200 F 
ATOM     89  C   UNL A   1      36.222  30.135  29.093  1.00  0.00     0.200 A 
ATOM     90  F   UNL A   1      36.728  30.188  26.787  1.00  0.00    -0.200 F 
ATOM     91  F   UNL A   1      35.054  30.752  28.864  1.00  0.00    -0.200 F 
ENDBRANCH  57  81
BRANCH  69  92
ATOM     92  C   UNL A   1      44.181  28.094  32.702  1.00  0.00     0.064 A 
ATOM     93  C   UNL A   1      44.091  26.716  32.434  1.00  0.00     0.173 A 
ATOM     94  C   UNL A   1      44.328  28.475  34.040  1.00  0.00     0.173 A 
ATOM     95  F   UNL A   1      44.059  26.261  31.179  1.00  0.00    -0.203 F 
ATOM     96  C   UNL A   1      44.105  25.771  33.457  1.00  0.00     0.198 A 
ATOM     97  C   UNL A   1      44.379  27.527  35.061  1.00  0.00     0.198 A 
ATOM     98  F   UNL A   1      44.487  29.770  34.355  1.00  0.00    -0.203 F 
ATOM     99  F   UNL A   1      44.014  24.465  33.167  1.00  0.00    -0.200 F 
ATOM    100  C   UNL A   1      44.258  26.178  34.772  1.00  0.00     0.200 A 
ATOM    101  F   UNL A   1      44.582  27.922  36.326  1.00  0.00    -0.200 F 
ATOM    102  F   UNL A   1      44.322  25.268  35.753  1.00  0.00    -0.200 F 
ENDBRANCH  69  92
ENDBRANCH  43  44
ENDBRANCH  35  38
ENDBRANCH  33  34
ENDBRANCH  32  33
ENDBRANCH  31  32
ENDBRANCH  30  31
ENDBRANCH   1  30
TORSDOF 17
ENDMDL
MODEL 2
REMARK VINA RESULT:     -11.7      1.808      2.525
REMARK SMILES Cc1cc2n(n1)[C@H](C(F)(F)F)CCN2C(=O)c1cnn([C@@H](C)C(=O)NCCCCCCNC(=O)c2ccc(-c3c4nc(c(-c5c(F)c(F)c(F)c(F)c5F)c5ccc([nH]5)c(-c5c(F)c(F)c(F)c(F)c5F)c5nc(c(-c6c(F)c(F)c(F)c(F)c6F)c6ccc3[nH]6)C=C5)C=C4)cc2)c1
REMARK SMILES IDX 27 1 26 2 25 3 23 4 24 5 21 7 22 8 20 9 17 10 18 11 98 12
REMARK SMILES IDX 19 13 15 14 16 15 14 16 1 17 2 18 3 19 6 20 4 21 5 22 7 23
REMARK SMILES IDX 13 24 12 25 8 26 9 27 10 28 11 29 28 30 29 31 30 32 31 33
REMARK SMILES IDX 32 34 33 35 34 37 35 38 36 39 97 40 37 41 96 42 38 43 39 44
REMARK SMILES IDX 40 45 90 46 41 47 95 48 89 49 91 50 42 51 94 52 88 53 87 54
REMARK SMILES IDX 43 56 75 57 55 58 74 59 56 60 59 61 73 62 92 63 57 64 58 65
REMARK SMILES IDX 72 67 93 68 60 69 44 70 45 71 53 72 46 73 47 74 51 75 54 76
REMARK SMILES IDX 48 77 49 78 52 79 50 80 76 81 77 82 85 83 78 84 79 85 83 86
REMARK SMILES IDX 86 87 80 88 81 89 84 90 82 91 61 92 62 93 70 94 63 95 64 96
REMARK SMILES IDX 68 97 71 98 65 99 66 100 69 101 67 102
REMARK H PARENT 25 6 32 36 91 55 59 66
REMARK Flexibility Score: inf
ROOT
ATOM      1  C   UNL A   1      37.394  23.592  25.310  1.00  0.00     0.021 C 
ENDROOT
BRANCH   1   2
ATOM      2  C   UNL A   1      35.943  24.081  25.344  1.00  0.00     0.116 C 
BRANCH   2   3
ATOM      3  N   UNL A   1      35.303  23.973  24.047  1.00  0.00    -0.354 N 
ATOM      4  C   UNL A   1      34.336  23.127  23.598  1.00  0.00     0.244 C 
ATOM      5  O   UNL A   1      34.070  23.178  22.391  1.00  0.00    -0.273 OA
ATOM      6  H   UNL A   1      35.623  24.621  23.378  1.00  0.00     0.163 HD
BRANCH   4   7
ATOM      7  C   UNL A   1      33.556  22.171  24.496  1.00  0.00     0.193 C 
ATOM      8  C   UNL A   1      33.267  20.808  23.876  1.00  0.00     0.044 C 
BRANCH   7   9
ATOM      9  N   UNL A   1      32.403  22.805  25.127  1.00  0.00    -0.260 N 
ATOM     10  C   UNL A   1      30.859  24.263  25.738  1.00  0.00     0.078 A 
ATOM     11  C   UNL A   1      30.659  22.994  26.311  1.00  0.00     0.149 A 
ATOM     12  C   UNL A   1      31.971  24.092  24.932  1.00  0.00     0.123 A 
ATOM     13  N   UNL A   1      31.667  22.165  26.058  1.00  0.00    -0.180 NA
BRANCH  10  14
ATOM     14  C   UNL A   1      30.059  25.448  25.854  1.00  0.00     0.262 C 
ATOM     15  O   UNL A   1      29.154  25.573  26.678  1.00  0.00    -0.269 OA
BRANCH  14  16
ATOM     16  N   UNL A   1      30.355  26.477  24.862  1.00  0.00    -0.293 N 
ATOM     17  C   UNL A   1      32.730  30.202  27.250  1.00  0.00     0.069 C 
ATOM     18  C   UNL A   1      32.117  29.303  26.242  1.00  0.00     0.062 A 
ATOM     19  C   UNL A   1      31.603  27.999  26.452  1.00  0.00     0.072 A 
ATOM     20  N   UNL A   1      31.975  29.689  24.968  1.00  0.00    -0.176 NA
ATOM     21  C   UNL A   1      31.047  27.631  25.248  1.00  0.00     0.134 A 
ATOM     22  N   UNL A   1      31.284  28.688  24.412  1.00  0.00    -0.237 N 
ATOM     23  C   UNL A   1      30.846  28.754  23.035  1.00  0.00     0.216 C 
ATOM     24  C   UNL A   1      29.727  26.485  23.512  1.00  0.00     0.130 C 
ATOM     25  C   UNL A   1      30.517  27.345  22.521  1.00  0.00     0.059 C 
BRANCH  23  26
ATOM     26  C   UNL A   1      29.671  29.698  22.909  1.00  0.00     0.410 C 
ATOM     27  F   UNL A   1      29.918  30.609  21.933  1.00  0.00    -0.169 F 
ATOM     28  F   UNL A   1      28.546  29.040  22.549  1.00  0.00    -0.169 F 
ATOM     29  F   UNL A   1      29.420  30.389  24.036  1.00  0.00    -0.169 F 
ENDBRANCH  23  26
ENDBRANCH  14  16
ENDBRANCH  10  14
ENDBRANCH   7   9
ENDBRANCH   4   7
ENDBRANCH   2   3
ENDBRANCH   1   2
BRANCH   1  30
ATOM     30  C   UNL A   1      37.554  22.073  25.205  1.00  0.00     0.002 C 
BRANCH  30  31
ATOM     31  C   UNL A   1      38.866  21.494  25.753  1.00  0.00     0.002 C 
BRANCH  31  32
ATOM     32  C   UNL A   1      39.543  22.268  26.894  1.00  0.00     0.021 C 
BRANCH  32  33
ATOM     33  C   UNL A   1      40.827  21.632  27.404  1.00  0.00     0.116 C 
BRANCH  33  34
ATOM     34  N   UNL A   1      41.858  21.532  26.369  1.00  0.00    -0.352 N 
ATOM     35  C   UNL A   1      42.501  22.548  25.692  1.00  0.00     0.251 C 
ATOM     36  H   UNL A   1      42.128  20.618  26.124  1.00  0.00     0.163 HD
ATOM     37  O   UNL A   1      43.095  22.339  24.641  1.00  0.00    -0.269 OA
BRANCH  35  38
ATOM     38  C   UNL A   1      42.459  23.904  26.263  1.00  0.00     0.039 A 
ATOM     39  C   UNL A   1      41.597  24.890  25.773  1.00  0.00     0.014 A 
ATOM     40  C   UNL A   1      43.280  24.154  27.353  1.00  0.00     0.014 A 
ATOM     41  C   UNL A   1      41.516  26.111  26.443  1.00  0.00     0.010 A 
ATOM     42  C   UNL A   1      43.052  25.265  28.120  1.00  0.00     0.010 A 
ATOM     43  C   UNL A   1      42.244  26.288  27.625  1.00  0.00    -0.014 A 
BRANCH  43  44
ATOM     44  C   UNL A   1      42.222  27.543  28.375  1.00  0.00     0.031 A 
ATOM     45  C   UNL A   1      43.252  28.577  28.052  1.00  0.00     0.074 A 
ATOM     46  C   UNL A   1      41.135  27.863  29.111  1.00  0.00     0.049 A 
ATOM     47  N   UNL A   1      44.013  29.237  28.868  1.00  0.00    -0.248 NA
ATOM     48  C   UNL A   1      43.466  28.923  26.638  1.00  0.00     0.031 C 
ATOM     49  C   UNL A   1      39.880  27.109  29.268  1.00  0.00     0.029 A 
ATOM     50  N   UNL A   1      40.865  29.024  29.763  1.00  0.00    -0.354 N 
ATOM     51  C   UNL A   1      44.722  30.161  28.098  1.00  0.00     0.074 A 
ATOM     52  C   UNL A   1      44.404  29.870  26.723  1.00  0.00     0.031 C 
ATOM     53  C   UNL A   1      38.916  27.927  29.737  1.00  0.00     0.029 A 
ATOM     54  C   UNL A   1      39.533  29.186  30.103  1.00  0.00     0.049 A 
ATOM     55  H   UNL A   1      41.557  29.691  29.975  1.00  0.00     0.167 HD
ATOM     56  C   UNL A   1      45.416  31.196  28.652  1.00  0.00     0.037 A 
ATOM     57  C   UNL A   1      38.959  30.291  30.623  1.00  0.00     0.037 A 
ATOM     58  C   UNL A   1      45.648  30.987  30.054  1.00  0.00     0.049 A 
ATOM     59  C   UNL A   1      40.040  31.121  31.205  1.00  0.00     0.074 A 
ATOM     60  C   UNL A   1      46.358  30.058  30.790  1.00  0.00     0.029 A 
ATOM     61  N   UNL A   1      44.837  31.624  30.959  1.00  0.00    -0.354 N 
ATOM     62  N   UNL A   1      40.758  30.762  32.234  1.00  0.00    -0.248 NA
ATOM     63  C   UNL A   1      40.622  32.158  30.370  1.00  0.00     0.031 C 
ATOM     64  C   UNL A   1      45.575  29.841  31.961  1.00  0.00     0.029 A 
ATOM     65  C   UNL A   1      44.462  30.680  31.881  1.00  0.00     0.049 A 
ATOM     66  H   UNL A   1      44.577  32.573  30.950  1.00  0.00     0.167 HD
ATOM     67  C   UNL A   1      42.036  31.223  31.957  1.00  0.00     0.074 A 
ATOM     68  C   UNL A   1      41.869  32.160  30.850  1.00  0.00     0.031 C 
ATOM     69  C   UNL A   1      43.142  30.599  32.461  1.00  0.00     0.037 A 
BRANCH  56  70
ATOM     70  C   UNL A   1      45.689  32.524  27.993  1.00  0.00     0.064 A 
ATOM     71  C   UNL A   1      44.633  33.431  27.765  1.00  0.00     0.173 A 
ATOM     72  C   UNL A   1      46.898  32.821  27.329  1.00  0.00     0.173 A 
ATOM     73  F   UNL A   1      43.428  33.233  28.323  1.00  0.00    -0.203 F 
ATOM     74  C   UNL A   1      44.762  34.519  26.895  1.00  0.00     0.198 A 
ATOM     75  C   UNL A   1      47.040  33.937  26.504  1.00  0.00     0.198 A 
ATOM     76  F   UNL A   1      47.946  31.989  27.369  1.00  0.00    -0.203 F 
ATOM     77  F   UNL A   1      43.699  35.287  26.623  1.00  0.00    -0.200 F 
ATOM     78  C   UNL A   1      45.965  34.770  26.263  1.00  0.00     0.200 A 
ATOM     79  F   UNL A   1      48.209  34.151  25.883  1.00  0.00    -0.200 F 
ATOM     80  F   UNL A   1      46.080  35.778  25.389  1.00  0.00    -0.200 F 
ENDBRANCH  56  70
BRANCH  57  81
ATOM     81  C   UNL A   1      37.587  30.771  30.366  1.00  0.00     0.064 A 
ATOM     82  C   UNL A   1      36.749  31.191  31.405  1.00  0.00     0.173 A 
ATOM     83  C   UNL A   1      37.155  31.041  29.051  1.00  0.00     0.173 A 
ATOM     84  F   UNL A   1      37.120  31.014  32.681  1.00  0.00    -0.203 F 
ATOM     85  C   UNL A   1      35.543  31.851  31.144  1.00  0.00     0.198 A 
ATOM     86  C   UNL A   1      35.952  31.697  28.792  1.00  0.00     0.198 A 
ATOM     87  F   UNL A   1      37.937  30.758  27.998  1.00  0.00    -0.203 F 
ATOM     88  F   UNL A   1      34.787  32.287  32.160  1.00  0.00    -0.200 F 
ATOM     89  C   UNL A   1      35.150  32.109  29.839  1.00  0.00     0.200 A 
ATOM     90  F   UNL A   1      35.613  31.984  27.526  1.00  0.00    -0.200 F 
ATOM     91  F   UNL A   1      34.026  32.795  29.589  1.00  0.00    -0.200 F 
ENDBRANCH  57  81
BRANCH  69  92
ATOM     92  C   UNL A   1      42.937  29.538  33.508  1.00  0.00     0.064 A 
ATOM     93  C   UNL A   1      42.819  28.169  33.210  1.00  0.00     0.173 A 
ATOM     94  C   UNL A   1      43.044  29.890  34.859  1.00  0.00     0.173 A 
ATOM     95  F   UNL A   1      42.823  27.739  31.946  1.00  0.00    -0.203 F 
ATOM     96  C   UNL A   1      42.768  27.205  34.214  1.00  0.00     0.198 A 
ATOM     97  C   UNL A   1      43.029  28.922  35.862  1.00  0.00     0.198 A 
ATOM     98  F   UNL A   1      43.226  31.174  35.205  1.00  0.00    -0.203 F 
ATOM     99  F   UNL A   1      42.651  25.908  33.895  1.00  0.00    -0.200 F 
ATOM    100  C   UNL A   1      42.882  27.582  35.541  1.00  0.00     0.200 A 
ATOM    101  F   UNL A   1      43.194  29.287  37.141  1.00  0.00    -0.200 F 
ATOM    102  F   UNL A   1      42.883  26.653  36.506  1.00  0.00    -0.200 F 
ENDBRANCH  69  92
ENDBRANCH  43  44
ENDBRANCH  35  38
ENDBRANCH  33  34
ENDBRANCH  32  33
ENDBRANCH  31  32
ENDBRANCH  30  31
ENDBRANCH   1  30
TORSDOF 17
ENDMDL
MODEL 3
REMARK VINA RESULT:     -11.6      3.722      9.212
REMARK SMILES Cc1cc2n(n1)[C@H](C(F)(F)F)CCN2C(=O)c1cnn([C@@H](C)C(=O)NCCCCCCNC(=O)c2ccc(-c3c4nc(c(-c5c(F)c(F)c(F)c(F)c5F)c5ccc([nH]5)c(-c5c(F)c(F)c(F)c(F)c5F)c5nc(c(-c6c(F)c(F)c(F)c(F)c6F)c6ccc3[nH]6)C=C5)C=C4)cc2)c1
REMARK SMILES IDX 27 1 26 2 25 3 23 4 24 5 21 7 22 8 20 9 17 10 18 11 98 12
REMARK SMILES IDX 19 13 15 14 16 15 14 16 1 17 2 18 3 19 6 20 4 21 5 22 7 23
REMARK SMILES IDX 13 24 12 25 8 26 9 27 10 28 11 29 28 30 29 31 30 32 31 33
REMARK SMILES IDX 32 34 33 35 34 37 35 38 36 39 97 40 37 41 96 42 38 43 39 44
REMARK SMILES IDX 40 45 90 46 41 47 95 48 89 49 91 50 42 51 94 52 88 53 87 54
REMARK SMILES IDX 43 56 75 57 55 58 74 59 56 60 59 61 73 62 92 63 57 64 58 65
REMARK SMILES IDX 72 67 93 68 60 69 44 70 45 71 53 72 46 73 47 74 51 75 54 76
REMARK SMILES IDX 48 77 49 78 52 79 50 80 76 81 77 82 85 83 78 84 79 85 83 86
REMARK SMILES IDX 86 87 80 88 81 89 84 90 82 91 61 92 62 93 70 94 63 95 64 96
REMARK SMILES IDX 68 97 71 98 65 99 66 100 69 101 67 102
REMARK H PARENT 25 6 32 36 91 55 59 66
REMARK Flexibility Score: inf
ROOT
ATOM      1  C   UNL A   1      34.736  31.340  28.402  1.00  0.00     0.021 C 
ENDROOT
BRANCH   1   2
ATOM      2  C   UNL A   1      34.917  30.038  27.616  1.00  0.00     0.116 C 
BRANCH   2   3
ATOM      3  N   UNL A   1      33.830  29.106  27.851  1.00  0.00    -0.354 N 
ATOM      4  C   UNL A   1      32.674  28.894  27.165  1.00  0.00     0.244 C 
ATOM      5  O   UNL A   1      31.860  28.114  27.675  1.00  0.00    -0.273 OA
ATOM      6  H   UNL A   1      33.949  28.530  28.641  1.00  0.00     0.163 HD
BRANCH   4   7
ATOM      7  C   UNL A   1      32.358  29.525  25.812  1.00  0.00     0.193 C 
ATOM      8  C   UNL A   1      31.520  30.798  25.883  1.00  0.00     0.044 C 
BRANCH   7   9
ATOM      9  N   UNL A   1      31.896  28.551  24.829  1.00  0.00    -0.260 N 
ATOM     10  C   UNL A   1      31.801  26.878  23.387  1.00  0.00     0.078 A 
ATOM     11  C   UNL A   1      30.559  27.517  23.555  1.00  0.00     0.149 A 
ATOM     12  C   UNL A   1      32.636  27.541  24.270  1.00  0.00     0.123 A 
ATOM     13  N   UNL A   1      30.654  28.608  24.309  1.00  0.00    -0.180 NA
BRANCH  10  14
ATOM     14  C   UNL A   1      32.136  25.739  22.583  1.00  0.00     0.262 C 
ATOM     15  O   UNL A   1      31.778  25.611  21.413  1.00  0.00    -0.269 OA
BRANCH  14  16
ATOM     16  N   UNL A   1      32.877  24.698  23.288  1.00  0.00    -0.293 N 
ATOM     17  C   UNL A   1      29.861  22.896  26.876  1.00  0.00     0.069 C 
ATOM     18  C   UNL A   1      30.971  23.145  25.924  1.00  0.00     0.062 A 
ATOM     19  C   UNL A   1      30.981  24.047  24.831  1.00  0.00     0.072 A 
ATOM     20  N   UNL A   1      32.140  22.504  26.044  1.00  0.00    -0.176 NA
ATOM     21  C   UNL A   1      32.262  23.996  24.331  1.00  0.00     0.134 A 
ATOM     22  N   UNL A   1      32.908  23.074  25.109  1.00  0.00    -0.237 N 
ATOM     23  C   UNL A   1      34.301  22.713  24.962  1.00  0.00     0.216 C 
ATOM     24  C   UNL A   1      34.348  24.523  23.130  1.00  0.00     0.130 C 
ATOM     25  C   UNL A   1      34.806  23.129  23.573  1.00  0.00     0.059 C 
BRANCH  23  26
ATOM     26  C   UNL A   1      35.117  23.330  26.076  1.00  0.00     0.410 C 
ATOM     27  F   UNL A   1      34.851  22.693  27.245  1.00  0.00    -0.169 F 
ATOM     28  F   UNL A   1      36.444  23.191  25.851  1.00  0.00    -0.169 F 
ATOM     29  F   UNL A   1      34.851  24.635  26.271  1.00  0.00    -0.169 F 
ENDBRANCH  23  26
ENDBRANCH  14  16
ENDBRANCH  10  14
ENDBRANCH   7   9
ENDBRANCH   4   7
ENDBRANCH   2   3
ENDBRANCH   1   2
BRANCH   1  30
ATOM     30  C   UNL A   1      35.092  32.610  27.626  1.00  0.00     0.002 C 
BRANCH  30  31
ATOM     31  C   UNL A   1      35.570  33.803  28.466  1.00  0.00     0.002 C 
BRANCH  31  32
ATOM     32  C   UNL A   1      34.531  34.891  28.779  1.00  0.00     0.021 C 
BRANCH  32  33
ATOM     33  C   UNL A   1      33.314  34.391  29.540  1.00  0.00     0.116 C 
BRANCH  33  34
ATOM     34  N   UNL A   1      33.139  35.060  30.830  1.00  0.00    -0.352 N 
ATOM     35  C   UNL A   1      33.739  34.771  32.040  1.00  0.00     0.251 C 
ATOM     36  H   UNL A   1      32.510  35.817  30.836  1.00  0.00     0.163 HD
ATOM     37  O   UNL A   1      33.277  35.183  33.097  1.00  0.00    -0.269 OA
BRANCH  35  38
ATOM     38  C   UNL A   1      34.959  33.948  32.034  1.00  0.00     0.039 A 
ATOM     39  C   UNL A   1      34.915  32.554  31.936  1.00  0.00     0.014 A 
ATOM     40  C   UNL A   1      36.173  34.620  32.079  1.00  0.00     0.014 A 
ATOM     41  C   UNL A   1      36.110  31.847  31.807  1.00  0.00     0.010 A 
ATOM     42  C   UNL A   1      37.320  33.949  31.751  1.00  0.00     0.010 A 
ATOM     43  C   UNL A   1      37.313  32.555  31.706  1.00  0.00    -0.014 A 
BRANCH  43  44
ATOM     44  C   UNL A   1      38.606  31.885  31.583  1.00  0.00     0.031 A 
ATOM     45  C   UNL A   1      39.372  31.594  32.833  1.00  0.00     0.074 A 
ATOM     46  C   UNL A   1      38.944  31.292  30.417  1.00  0.00     0.049 A 
ATOM     47  N   UNL A   1      40.621  31.833  33.086  1.00  0.00    -0.248 NA
ATOM     48  C   UNL A   1      38.659  30.953  33.949  1.00  0.00     0.031 C 
ATOM     49  C   UNL A   1      38.153  31.188  29.179  1.00  0.00     0.029 A 
ATOM     50  N   UNL A   1      40.023  30.514  30.144  1.00  0.00    -0.354 N 
ATOM     51  C   UNL A   1      40.891  31.280  34.338  1.00  0.00     0.074 A 
ATOM     52  C   UNL A   1      39.628  30.820  34.858  1.00  0.00     0.031 C 
ATOM     53  C   UNL A   1      38.650  30.201  28.405  1.00  0.00     0.029 A 
ATOM     54  C   UNL A   1      39.897  29.756  28.992  1.00  0.00     0.049 A 
ATOM     55  H   UNL A   1      40.825  30.492  30.714  1.00  0.00     0.167 HD
ATOM     56  C   UNL A   1      42.162  31.110  34.805  1.00  0.00     0.037 A 
ATOM     57  C   UNL A   1      40.743  28.799  28.557  1.00  0.00     0.037 A 
ATOM     58  C   UNL A   1      43.107  31.900  34.066  1.00  0.00     0.049 A 
ATOM     59  C   UNL A   1      42.043  29.011  29.237  1.00  0.00     0.074 A 
ATOM     60  C   UNL A   1      43.305  33.254  33.887  1.00  0.00     0.029 A 
ATOM     61  N   UNL A   1      43.855  31.291  33.091  1.00  0.00    -0.354 N 
ATOM     62  N   UNL A   1      42.802  30.055  29.045  1.00  0.00    -0.248 NA
ATOM     63  C   UNL A   1      42.292  28.278  30.468  1.00  0.00     0.031 C 
ATOM     64  C   UNL A   1      43.727  33.388  32.532  1.00  0.00     0.029 A 
ATOM     65  C   UNL A   1      43.797  32.104  31.988  1.00  0.00     0.049 A 
ATOM     66  H   UNL A   1      44.340  30.437  33.167  1.00  0.00     0.167 HD
ATOM     67  C   UNL A   1      43.336  30.345  30.291  1.00  0.00     0.074 A 
ATOM     68  C   UNL A   1      43.068  29.160  31.101  1.00  0.00     0.031 C 
ATOM     69  C   UNL A   1      43.696  31.618  30.631  1.00  0.00     0.037 A 
BRANCH  56  70
ATOM     70  C   UNL A   1      42.606  30.049  35.780  1.00  0.00     0.064 A 
ATOM     71  C   UNL A   1      43.469  30.384  36.845  1.00  0.00     0.173 A 
ATOM     72  C   UNL A   1      42.438  28.668  35.546  1.00  0.00     0.173 A 
ATOM     73  F   UNL A   1      43.725  31.667  37.141  1.00  0.00    -0.203 F 
ATOM     74  C   UNL A   1      44.153  29.410  37.581  1.00  0.00     0.198 A 
ATOM     75  C   UNL A   1      43.081  27.698  36.315  1.00  0.00     0.198 A 
ATOM     76  F   UNL A   1      41.735  28.212  34.501  1.00  0.00    -0.203 F 
ATOM     77  F   UNL A   1      45.047  29.779  38.508  1.00  0.00    -0.200 F 
ATOM     78  C   UNL A   1      43.960  28.068  37.314  1.00  0.00     0.200 A 
ATOM     79  F   UNL A   1      42.897  26.401  36.027  1.00  0.00    -0.200 F 
ATOM     80  F   UNL A   1      44.652  27.133  37.978  1.00  0.00    -0.200 F 
ENDBRANCH  56  70
BRANCH  57  81
ATOM     81  C   UNL A   1      40.377  27.569  27.828  1.00  0.00     0.064 A 
ATOM     82  C   UNL A   1      41.037  27.184  26.656  1.00  0.00     0.173 A 
ATOM     83  C   UNL A   1      39.510  26.620  28.409  1.00  0.00     0.173 A 
ATOM     84  F   UNL A   1      41.916  28.015  26.077  1.00  0.00    -0.203 F 
ATOM     85  C   UNL A   1      40.844  25.917  26.095  1.00  0.00     0.198 A 
ATOM     86  C   UNL A   1      39.316  25.359  27.849  1.00  0.00     0.198 A 
ATOM     87  F   UNL A   1      38.907  26.867  29.583  1.00  0.00    -0.203 F 
ATOM     88  F   UNL A   1      41.530  25.559  25.001  1.00  0.00    -0.200 F 
ATOM     89  C   UNL A   1      39.990  25.003  26.696  1.00  0.00     0.200 A 
ATOM     90  F   UNL A   1      38.527  24.470  28.471  1.00  0.00    -0.200 F 
ATOM     91  F   UNL A   1      39.852  23.769  26.194  1.00  0.00    -0.200 F 
ENDBRANCH  57  81
BRANCH  69  92
ATOM     92  C   UNL A   1      43.714  32.660  29.546  1.00  0.00     0.064 A 
ATOM     93  C   UNL A   1      42.644  33.538  29.297  1.00  0.00     0.173 A 
ATOM     94  C   UNL A   1      44.909  32.900  28.858  1.00  0.00     0.173 A 
ATOM     95  F   UNL A   1      41.506  33.447  29.992  1.00  0.00    -0.203 F 
ATOM     96  C   UNL A   1      42.751  34.578  28.377  1.00  0.00     0.198 A 
ATOM     97  C   UNL A   1      45.027  33.963  27.963  1.00  0.00     0.198 A 
ATOM     98  F   UNL A   1      45.987  32.139  29.101  1.00  0.00    -0.203 F 
ATOM     99  F   UNL A   1      41.710  35.394  28.161  1.00  0.00    -0.200 F 
ATOM    100  C   UNL A   1      43.947  34.795  27.715  1.00  0.00     0.200 A 
ATOM    101  F   UNL A   1      46.203  34.202  27.367  1.00  0.00    -0.200 F 
ATOM    102  F   UNL A   1      44.069  35.824  26.866  1.00  0.00    -0.200 F 
ENDBRANCH  69  92
ENDBRANCH  43  44
ENDBRANCH  35  38
ENDBRANCH  33  34
ENDBRANCH  32  33
ENDBRANCH  31  32
ENDBRANCH  30  31
ENDBRANCH   1  30
TORSDOF 17
ENDMDL
