MODEL 1
REMARK VINA RESULT:     -12.5      0.000      0.000
REMARK SMILES C[C@@H](C(=O)NCCCCCCNC(=O)c1ccc(-c2c3nc(c(-c4c(F)c(F)c(F)c(F)c4F)c4ccc([nH]4)c(-c4c(F)c(F)c(F)c(F)c4F)c4nc(c(-c5c(F)c(F)c(F)c(F)c5F)c5ccc2[nH]5)C=C4)C=C3)cc1)c1ccccc1-c1ccn(C(F)F)c(=O)c1
REMARK SMILES IDX 8 1 7 2 6 3 5 4 3 5 4 6 2 8 1 9 78 10 79 11 83 12 80 13
REMARK SMILES IDX 82 14 81 15 84 16 85 17 93 18 86 19 91 20 87 21 92 22 88 23
REMARK SMILES IDX 89 24 90 25 9 26 10 27 11 28 12 29 13 30 14 32 15 33 16 34
REMARK SMILES IDX 77 35 17 36 76 37 18 38 19 39 20 40 70 41 21 42 75 43 69 44
REMARK SMILES IDX 71 45 22 46 74 47 68 48 67 49 23 51 55 52 35 53 54 54 36 55
REMARK SMILES IDX 39 56 53 57 72 58 37 59 38 60 52 62 73 63 40 64 24 65 25 66
REMARK SMILES IDX 33 67 26 68 27 69 31 70 34 71 28 72 29 73 32 74 30 75 56 76
REMARK SMILES IDX 57 77 65 78 58 79 59 80 63 81 66 82 60 83 61 84 64 85 62 86
REMARK SMILES IDX 41 87 42 88 50 89 43 90 44 91 48 92 51 93 45 94 46 95 49 96
REMARK SMILES IDX 47 97
REMARK H PARENT 5 7 12 31 71 50 39 61
REMARK Flexibility Score: inf
ROOT
ATOM      1  C   UNL A   1      37.140  22.294  24.361  1.00  0.00     0.002 C 
ENDROOT
BRANCH   1   2
ATOM      2  C   UNL A   1      35.901  23.137  24.025  1.00  0.00     0.021 C 
BRANCH   2   3
ATOM      3  C   UNL A   1      35.455  24.071  25.151  1.00  0.00     0.116 C 
BRANCH   3   4
ATOM      4  N   UNL A   1      35.141  23.312  26.343  1.00  0.00    -0.356 N 
ATOM      5  C   UNL A   1      33.936  22.978  26.885  1.00  0.00     0.227 C 
ATOM      6  O   UNL A   1      33.970  22.465  28.005  1.00  0.00    -0.274 OA
ATOM      7  H   UNL A   1      35.925  22.986  26.843  1.00  0.00     0.163 HD
BRANCH   5   8
ATOM      8  C   UNL A   1      32.642  23.207  26.084  1.00  0.00     0.106 C 
ATOM      9  C   UNL A   1      31.383  23.158  26.952  1.00  0.00     0.023 C 
BRANCH   8  10
ATOM     10  C   UNL A   1      32.495  22.241  24.901  1.00  0.00    -0.028 A 
ATOM     11  C   UNL A   1      32.684  20.861  25.120  1.00  0.00     0.005 A 
ATOM     12  C   UNL A   1      32.141  22.673  23.601  1.00  0.00    -0.014 A 
ATOM     13  C   UNL A   1      32.562  19.935  24.085  1.00  0.00     0.000 A 
ATOM     14  C   UNL A   1      32.028  21.727  22.565  1.00  0.00     0.009 A 
ATOM     15  C   UNL A   1      32.239  20.369  22.806  1.00  0.00     0.001 A 
BRANCH  12  16
ATOM     16  C   UNL A   1      31.827  24.085  23.295  1.00  0.00    -0.011 A 
ATOM     17  C   UNL A   1      32.791  25.014  22.734  1.00  0.00     0.027 A 
ATOM     18  C   UNL A   1      30.601  24.530  23.621  1.00  0.00     0.080 A 
ATOM     19  C   UNL A   1      32.495  26.316  22.634  1.00  0.00     0.095 A 
ATOM     20  C   UNL A   1      30.241  25.965  23.465  1.00  0.00     0.255 A 
ATOM     21  N   UNL A   1      31.254  26.795  23.011  1.00  0.00    -0.258 N 
ATOM     22  O   UNL A   1      29.108  26.321  23.771  1.00  0.00    -0.269 OA
BRANCH  21  23
ATOM     23  C   UNL A   1      30.959  28.204  22.950  1.00  0.00     0.451 C 
ATOM     24  F   UNL A   1      32.073  28.932  22.699  1.00  0.00    -0.185 F 
ATOM     25  F   UNL A   1      30.054  28.464  21.973  1.00  0.00    -0.185 F 
ENDBRANCH  21  23
ENDBRANCH  12  16
ENDBRANCH   8  10
ENDBRANCH   5   8
ENDBRANCH   3   4
ENDBRANCH   2   3
ENDBRANCH   1   2
BRANCH   1  26
ATOM     26  C   UNL A   1      36.847  20.932  24.998  1.00  0.00     0.002 C 
BRANCH  26  27
ATOM     27  C   UNL A   1      37.991  19.920  24.906  1.00  0.00     0.021 C 
BRANCH  27  28
ATOM     28  C   UNL A   1      39.208  20.261  25.761  1.00  0.00     0.116 C 
BRANCH  28  29
ATOM     29  N   UNL A   1      40.136  19.146  25.865  1.00  0.00    -0.352 N 
ATOM     30  C   UNL A   1      41.493  19.157  26.076  1.00  0.00     0.251 C 
ATOM     31  H   UNL A   1      39.734  18.253  25.767  1.00  0.00     0.163 HD
ATOM     32  O   UNL A   1      42.152  18.131  25.934  1.00  0.00    -0.269 OA
BRANCH  30  33
ATOM     33  C   UNL A   1      42.167  20.419  26.447  1.00  0.00     0.039 A 
ATOM     34  C   UNL A   1      42.729  21.205  25.438  1.00  0.00     0.014 A 
ATOM     35  C   UNL A   1      42.226  20.837  27.779  1.00  0.00     0.014 A 
ATOM     36  C   UNL A   1      43.270  22.452  25.755  1.00  0.00     0.010 A 
ATOM     37  C   UNL A   1      42.704  22.109  28.085  1.00  0.00     0.010 A 
ATOM     38  C   UNL A   1      43.212  22.937  27.072  1.00  0.00    -0.014 A 
BRANCH  38  39
ATOM     39  C   UNL A   1      43.612  24.332  27.394  1.00  0.00     0.031 A 
ATOM     40  C   UNL A   1      42.592  25.333  27.859  1.00  0.00     0.074 A 
ATOM     41  C   UNL A   1      44.887  24.714  27.178  1.00  0.00     0.049 A 
ATOM     42  N   UNL A   1      42.741  26.611  28.097  1.00  0.00    -0.248 NA
ATOM     43  C   UNL A   1      41.221  24.841  28.067  1.00  0.00     0.031 C 
ATOM     44  C   UNL A   1      45.956  23.846  26.679  1.00  0.00     0.029 A 
ATOM     45  N   UNL A   1      45.498  25.935  27.327  1.00  0.00    -0.354 N 
ATOM     46  C   UNL A   1      41.486  27.077  28.464  1.00  0.00     0.074 A 
ATOM     47  C   UNL A   1      40.577  25.954  28.387  1.00  0.00     0.031 C 
ATOM     48  C   UNL A   1      47.088  24.557  26.571  1.00  0.00     0.029 A 
ATOM     49  C   UNL A   1      46.818  25.941  26.944  1.00  0.00     0.049 A 
ATOM     50  H   UNL A   1      45.035  26.730  27.676  1.00  0.00     0.167 HD
ATOM     51  C   UNL A   1      41.133  28.329  28.843  1.00  0.00     0.037 A 
ATOM     52  C   UNL A   1      47.704  26.954  26.872  1.00  0.00     0.037 A 
ATOM     53  C   UNL A   1      42.049  29.435  28.948  1.00  0.00     0.049 A 
ATOM     54  C   UNL A   1      47.270  28.337  27.280  1.00  0.00     0.074 A 
ATOM     55  C   UNL A   1      41.803  30.712  29.422  1.00  0.00     0.029 A 
ATOM     56  N   UNL A   1      43.379  29.401  28.560  1.00  0.00    -0.354 N 
ATOM     57  N   UNL A   1      46.107  28.740  27.729  1.00  0.00    -0.248 NA
ATOM     58  C   UNL A   1      48.271  29.407  27.169  1.00  0.00     0.031 C 
ATOM     59  C   UNL A   1      42.965  31.471  29.256  1.00  0.00     0.029 A 
ATOM     60  C   UNL A   1      43.952  30.651  28.737  1.00  0.00     0.049 A 
ATOM     61  H   UNL A   1      43.847  28.608  28.212  1.00  0.00     0.167 HD
ATOM     62  C   UNL A   1      46.242  30.100  27.971  1.00  0.00     0.074 A 
ATOM     63  C   UNL A   1      47.608  30.449  27.648  1.00  0.00     0.031 C 
ATOM     64  C   UNL A   1      45.314  30.984  28.411  1.00  0.00     0.037 A 
BRANCH  51  65
ATOM     65  C   UNL A   1      39.693  28.592  29.176  1.00  0.00     0.064 A 
ATOM     66  C   UNL A   1      39.194  28.420  30.474  1.00  0.00     0.173 A 
ATOM     67  C   UNL A   1      38.831  29.128  28.206  1.00  0.00     0.173 A 
ATOM     68  F   UNL A   1      39.975  27.905  31.436  1.00  0.00    -0.203 F 
ATOM     69  C   UNL A   1      37.882  28.768  30.788  1.00  0.00     0.198 A 
ATOM     70  C   UNL A   1      37.531  29.500  28.530  1.00  0.00     0.198 A 
ATOM     71  F   UNL A   1      39.264  29.320  26.950  1.00  0.00    -0.203 F 
ATOM     72  F   UNL A   1      37.419  28.575  32.031  1.00  0.00    -0.200 F 
ATOM     73  C   UNL A   1      37.056  29.319  29.819  1.00  0.00     0.200 A 
ATOM     74  F   UNL A   1      36.740  30.048  27.595  1.00  0.00    -0.200 F 
ATOM     75  F   UNL A   1      35.803  29.679  30.130  1.00  0.00    -0.200 F 
ENDBRANCH  51  65
BRANCH  52  76
ATOM     76  C   UNL A   1      49.084  26.714  26.365  1.00  0.00     0.064 A 
ATOM     77  C   UNL A   1      49.409  26.932  25.019  1.00  0.00     0.173 A 
ATOM     78  C   UNL A   1      50.092  26.216  27.205  1.00  0.00     0.173 A 
ATOM     79  F   UNL A   1      48.477  27.388  24.170  1.00  0.00    -0.203 F 
ATOM     80  C   UNL A   1      50.676  26.624  24.526  1.00  0.00     0.198 A 
ATOM     81  C   UNL A   1      51.368  25.945  26.718  1.00  0.00     0.198 A 
ATOM     82  F   UNL A   1      49.837  25.995  28.504  1.00  0.00    -0.203 F 
ATOM     83  F   UNL A   1      50.939  26.777  23.220  1.00  0.00    -0.200 F 
ATOM     84  C   UNL A   1      51.656  26.135  25.377  1.00  0.00     0.200 A 
ATOM     85  F   UNL A   1      52.316  25.490  27.549  1.00  0.00    -0.200 F 
ATOM     86  F   UNL A   1      52.871  25.834  24.900  1.00  0.00    -0.200 F 
ENDBRANCH  52  76
BRANCH  64  87
ATOM     87  C   UNL A   1      45.747  32.412  28.581  1.00  0.00     0.064 A 
ATOM     88  C   UNL A   1      45.598  33.349  27.548  1.00  0.00     0.173 A 
ATOM     89  C   UNL A   1      46.269  32.859  29.804  1.00  0.00     0.173 A 
ATOM     90  F   UNL A   1      45.119  32.967  26.354  1.00  0.00    -0.203 F 
ATOM     91  C   UNL A   1      45.975  34.676  27.727  1.00  0.00     0.198 A 
ATOM     92  C   UNL A   1      46.615  34.195  29.990  1.00  0.00     0.198 A 
ATOM     93  F   UNL A   1      46.426  32.005  30.826  1.00  0.00    -0.203 F 
ATOM     94  F   UNL A   1      45.867  35.544  26.711  1.00  0.00    -0.200 F 
ATOM     95  C   UNL A   1      46.474  35.100  28.949  1.00  0.00     0.200 A 
ATOM     96  F   UNL A   1      47.080  34.606  31.177  1.00  0.00    -0.200 F 
ATOM     97  F   UNL A   1      46.825  36.382  29.123  1.00  0.00    -0.200 F 
ENDBRANCH  64  87
ENDBRANCH  38  39
ENDBRANCH  30  33
ENDBRANCH  28  29
ENDBRANCH  27  28
ENDBRANCH  26  27
ENDBRANCH   1  26
TORSDOF 16
ENDMDL
MODEL 2
REMARK VINA RESULT:     -12.5      5.521      9.886
REMARK SMILES C[C@@H](C(=O)NCCCCCCNC(=O)c1ccc(-c2c3nc(c(-c4c(F)c(F)c(F)c(F)c4F)c4ccc([nH]4)c(-c4c(F)c(F)c(F)c(F)c4F)c4nc(c(-c5c(F)c(F)c(F)c(F)c5F)c5ccc2[nH]5)C=C4)C=C3)cc1)c1ccccc1-c1ccn(C(F)F)c(=O)c1
REMARK SMILES IDX 8 1 7 2 6 3 5 4 3 5 4 6 2 8 1 9 78 10 79 11 83 12 80 13
REMARK SMILES IDX 82 14 81 15 84 16 85 17 93 18 86 19 91 20 87 21 92 22 88 23
REMARK SMILES IDX 89 24 90 25 9 26 10 27 11 28 12 29 13 30 14 32 15 33 16 34
REMARK SMILES IDX 77 35 17 36 76 37 18 38 19 39 20 40 70 41 21 42 75 43 69 44
REMARK SMILES IDX 71 45 22 46 74 47 68 48 67 49 23 51 55 52 35 53 54 54 36 55
REMARK SMILES IDX 39 56 53 57 72 58 37 59 38 60 52 62 73 63 40 64 24 65 25 66
REMARK SMILES IDX 33 67 26 68 27 69 31 70 34 71 28 72 29 73 32 74 30 75 56 76
REMARK SMILES IDX 57 77 65 78 58 79 59 80 63 81 66 82 60 83 61 84 64 85 62 86
REMARK SMILES IDX 41 87 42 88 50 89 43 90 44 91 48 92 51 93 45 94 46 95 49 96
REMARK SMILES IDX 47 97
REMARK H PARENT 5 7 12 31 71 50 39 61
REMARK Flexibility Score: inf
ROOT
ATOM      1  C   UNL A   1      32.377  29.829  27.098  1.00  0.00     0.002 C 
ENDROOT
BRANCH   1   2
ATOM      2  C   UNL A   1      32.341  28.333  26.751  1.00  0.00     0.021 C 
BRANCH   2   3
ATOM      3  C   UNL A   1      33.629  27.808  26.114  1.00  0.00     0.116 C 
BRANCH   3   4
ATOM      4  N   UNL A   1      33.943  28.555  24.915  1.00  0.00    -0.356 N 
ATOM      5  C   UNL A   1      33.815  28.212  23.602  1.00  0.00     0.227 C 
ATOM      6  O   UNL A   1      34.321  28.988  22.788  1.00  0.00    -0.274 OA
ATOM      7  H   UNL A   1      34.307  29.456  25.074  1.00  0.00     0.163 HD
BRANCH   5   8
ATOM      8  C   UNL A   1      33.035  26.945  23.210  1.00  0.00     0.106 C 
ATOM      9  C   UNL A   1      33.383  26.436  21.810  1.00  0.00     0.023 C 
BRANCH   8  10
ATOM     10  C   UNL A   1      31.516  27.116  23.338  1.00  0.00    -0.028 A 
ATOM     11  C   UNL A   1      30.921  28.301  22.859  1.00  0.00     0.005 A 
ATOM     12  C   UNL A   1      30.678  26.117  23.885  1.00  0.00    -0.014 A 
ATOM     13  C   UNL A   1      29.546  28.514  22.946  1.00  0.00     0.000 A 
ATOM     14  C   UNL A   1      29.292  26.348  23.972  1.00  0.00     0.009 A 
ATOM     15  C   UNL A   1      28.732  27.539  23.507  1.00  0.00     0.001 A 
BRANCH  12  16
ATOM     16  C   UNL A   1      31.194  24.803  24.323  1.00  0.00    -0.011 A 
ATOM     17  C   UNL A   1      31.700  24.548  25.659  1.00  0.00     0.027 A 
ATOM     18  C   UNL A   1      31.253  23.824  23.403  1.00  0.00     0.080 A 
ATOM     19  C   UNL A   1      32.304  23.388  25.943  1.00  0.00     0.095 A 
ATOM     20  C   UNL A   1      31.874  22.510  23.721  1.00  0.00     0.255 A 
ATOM     21  N   UNL A   1      32.414  22.391  24.992  1.00  0.00    -0.258 N 
ATOM     22  O   UNL A   1      31.898  21.648  22.850  1.00  0.00    -0.269 OA
BRANCH  21  23
ATOM     23  C   UNL A   1      33.111  21.165  25.287  1.00  0.00     0.451 C 
ATOM     24  F   UNL A   1      34.301  21.105  24.643  1.00  0.00    -0.185 F 
ATOM     25  F   UNL A   1      33.345  21.053  26.619  1.00  0.00    -0.185 F 
ENDBRANCH  21  23
ENDBRANCH  12  16
ENDBRANCH   8  10
ENDBRANCH   5   8
ENDBRANCH   3   4
ENDBRANCH   2   3
ENDBRANCH   1   2
BRANCH   1  26
ATOM     26  C   UNL A   1      31.603  30.737  26.138  1.00  0.00     0.002 C 
BRANCH  26  27
ATOM     27  C   UNL A   1      31.387  32.167  26.640  1.00  0.00     0.021 C 
BRANCH  27  28
ATOM     28  C   UNL A   1      32.617  32.807  27.276  1.00  0.00     0.116 C 
BRANCH  28  29
ATOM     29  N   UNL A   1      32.401  34.208  27.603  1.00  0.00    -0.352 N 
ATOM     30  C   UNL A   1      32.986  34.976  28.579  1.00  0.00     0.251 C 
ATOM     31  H   UNL A   1      31.738  34.672  27.044  1.00  0.00     0.163 HD
ATOM     32  O   UNL A   1      32.539  36.088  28.845  1.00  0.00    -0.269 OA
BRANCH  30  33
ATOM     33  C   UNL A   1      34.142  34.448  29.333  1.00  0.00     0.039 A 
ATOM     34  C   UNL A   1      33.921  33.857  30.580  1.00  0.00     0.014 A 
ATOM     35  C   UNL A   1      35.435  34.515  28.805  1.00  0.00     0.014 A 
ATOM     36  C   UNL A   1      34.983  33.253  31.255  1.00  0.00     0.010 A 
ATOM     37  C   UNL A   1      36.479  33.854  29.447  1.00  0.00     0.010 A 
ATOM     38  C   UNL A   1      36.259  33.200  30.669  1.00  0.00    -0.014 A 
BRANCH  38  39
ATOM     39  C   UNL A   1      37.352  32.403  31.284  1.00  0.00     0.031 A 
ATOM     40  C   UNL A   1      37.895  32.765  32.638  1.00  0.00     0.074 A 
ATOM     41  C   UNL A   1      37.915  31.405  30.574  1.00  0.00     0.049 A 
ATOM     42  N   UNL A   1      38.903  32.243  33.288  1.00  0.00    -0.248 NA
ATOM     43  C   UNL A   1      37.231  33.870  33.349  1.00  0.00     0.031 C 
ATOM     44  C   UNL A   1      37.510  30.993  29.228  1.00  0.00     0.029 A 
ATOM     45  N   UNL A   1      38.963  30.567  30.871  1.00  0.00    -0.354 N 
ATOM     46  C   UNL A   1      39.006  32.963  34.471  1.00  0.00     0.074 A 
ATOM     47  C   UNL A   1      37.979  33.981  34.438  1.00  0.00     0.031 C 
ATOM     48  C   UNL A   1      38.291  29.981  28.821  1.00  0.00     0.029 A 
ATOM     49  C   UNL A   1      39.285  29.703  29.853  1.00  0.00     0.049 A 
ATOM     50  H   UNL A   1      39.438  30.584  31.734  1.00  0.00     0.167 HD
ATOM     51  C   UNL A   1      39.873  32.777  35.495  1.00  0.00     0.037 A 
ATOM     52  C   UNL A   1      40.286  28.808  29.747  1.00  0.00     0.037 A 
ATOM     53  C   UNL A   1      40.872  31.741  35.535  1.00  0.00     0.049 A 
ATOM     54  C   UNL A   1      41.245  28.644  30.897  1.00  0.00     0.074 A 
ATOM     55  C   UNL A   1      41.726  31.411  36.574  1.00  0.00     0.029 A 
ATOM     56  N   UNL A   1      41.163  30.879  34.489  1.00  0.00    -0.354 N 
ATOM     57  N   UNL A   1      41.262  29.258  32.054  1.00  0.00    -0.248 NA
ATOM     58  C   UNL A   1      42.327  27.664  30.725  1.00  0.00     0.031 C 
ATOM     59  C   UNL A   1      42.580  30.396  36.132  1.00  0.00     0.029 A 
ATOM     60  C   UNL A   1      42.218  30.052  34.841  1.00  0.00     0.049 A 
ATOM     61  H   UNL A   1      40.690  30.857  33.626  1.00  0.00     0.167 HD
ATOM     62  C   UNL A   1      42.338  28.727  32.752  1.00  0.00     0.074 A 
ATOM     63  C   UNL A   1      42.933  27.720  31.901  1.00  0.00     0.031 C 
ATOM     64  C   UNL A   1      42.800  29.053  33.983  1.00  0.00     0.037 A 
BRANCH  51  65
ATOM     65  C   UNL A   1      39.797  33.708  36.670  1.00  0.00     0.064 A 
ATOM     66  C   UNL A   1      40.457  34.945  36.674  1.00  0.00     0.173 A 
ATOM     67  C   UNL A   1      38.964  33.403  37.758  1.00  0.00     0.173 A 
ATOM     68  F   UNL A   1      41.269  35.281  35.660  1.00  0.00    -0.203 F 
ATOM     69  C   UNL A   1      40.291  35.840  37.728  1.00  0.00     0.198 A 
ATOM     70  C   UNL A   1      38.779  34.311  38.796  1.00  0.00     0.198 A 
ATOM     71  F   UNL A   1      38.305  32.235  37.798  1.00  0.00    -0.203 F 
ATOM     72  F   UNL A   1      40.947  37.008  37.722  1.00  0.00    -0.200 F 
ATOM     73  C   UNL A   1      39.443  35.529  38.781  1.00  0.00     0.200 A 
ATOM     74  F   UNL A   1      37.946  34.014  39.804  1.00  0.00    -0.200 F 
ATOM     75  F   UNL A   1      39.263  36.403  39.781  1.00  0.00    -0.200 F 
ENDBRANCH  51  65
BRANCH  52  76
ATOM     76  C   UNL A   1      40.460  28.014  28.499  1.00  0.00     0.064 A 
ATOM     77  C   UNL A   1      39.893  26.739  28.366  1.00  0.00     0.173 A 
ATOM     78  C   UNL A   1      41.237  28.494  27.434  1.00  0.00     0.173 A 
ATOM     79  F   UNL A   1      39.158  26.226  29.363  1.00  0.00    -0.203 F 
ATOM     80  C   UNL A   1      40.128  25.961  27.234  1.00  0.00     0.198 A 
ATOM     81  C   UNL A   1      41.441  27.730  26.287  1.00  0.00     0.198 A 
ATOM     82  F   UNL A   1      41.799  29.711  27.505  1.00  0.00    -0.203 F 
ATOM     83  F   UNL A   1      39.631  24.718  27.164  1.00  0.00    -0.200 F 
ATOM     84  C   UNL A   1      40.899  26.458  26.194  1.00  0.00     0.200 A 
ATOM     85  F   UNL A   1      42.169  28.223  25.277  1.00  0.00    -0.200 F 
ATOM     86  F   UNL A   1      41.129  25.707  25.109  1.00  0.00    -0.200 F 
ENDBRANCH  52  76
BRANCH  64  87
ATOM     87  C   UNL A   1      43.999  28.306  34.491  1.00  0.00     0.064 A 
ATOM     88  C   UNL A   1      43.868  27.080  35.161  1.00  0.00     0.173 A 
ATOM     89  C   UNL A   1      45.295  28.794  34.263  1.00  0.00     0.173 A 
ATOM     90  F   UNL A   1      42.650  26.579  35.418  1.00  0.00    -0.203 F 
ATOM     91  C   UNL A   1      44.988  26.383  35.602  1.00  0.00     0.198 A 
ATOM     92  C   UNL A   1      46.414  28.077  34.676  1.00  0.00     0.198 A 
ATOM     93  F   UNL A   1      45.476  29.958  33.621  1.00  0.00    -0.203 F 
ATOM     94  F   UNL A   1      44.837  25.236  36.280  1.00  0.00    -0.200 F 
ATOM     95  C   UNL A   1      46.259  26.876  35.351  1.00  0.00     0.200 A 
ATOM     96  F   UNL A   1      47.642  28.548  34.417  1.00  0.00    -0.200 F 
ATOM     97  F   UNL A   1      47.337  26.196  35.765  1.00  0.00    -0.200 F 
ENDBRANCH  64  87
ENDBRANCH  38  39
ENDBRANCH  30  33
ENDBRANCH  28  29
ENDBRANCH  27  28
ENDBRANCH  26  27
ENDBRANCH   1  26
TORSDOF 16
ENDMDL
MODEL 3
REMARK VINA RESULT:     -12.5      0.899      7.257
REMARK SMILES C[C@@H](C(=O)NCCCCCCNC(=O)c1ccc(-c2c3nc(c(-c4c(F)c(F)c(F)c(F)c4F)c4ccc([nH]4)c(-c4c(F)c(F)c(F)c(F)c4F)c4nc(c(-c5c(F)c(F)c(F)c(F)c5F)c5ccc2[nH]5)C=C4)C=C3)cc1)c1ccccc1-c1ccn(C(F)F)c(=O)c1
REMARK SMILES IDX 8 1 7 2 6 3 5 4 3 5 4 6 2 8 1 9 78 10 79 11 83 12 80 13
REMARK SMILES IDX 82 14 81 15 84 16 85 17 93 18 86 19 91 20 87 21 92 22 88 23
REMARK SMILES IDX 89 24 90 25 9 26 10 27 11 28 12 29 13 30 14 32 15 33 16 34
REMARK SMILES IDX 77 35 17 36 76 37 18 38 19 39 20 40 70 41 21 42 75 43 69 44
REMARK SMILES IDX 71 45 22 46 74 47 68 48 67 49 23 51 55 52 35 53 54 54 36 55
REMARK SMILES IDX 39 56 53 57 72 58 37 59 38 60 52 62 73 63 40 64 24 65 25 66
REMARK SMILES IDX 33 67 26 68 27 69 31 70 34 71 28 72 29 73 32 74 30 75 56 76
REMARK SMILES IDX 57 77 65 78 58 79 59 80 63 81 66 82 60 83 61 84 64 85 62 86
REMARK SMILES IDX 41 87 42 88 50 89 43 90 44 91 48 92 51 93 45 94 46 95 49 96
REMARK SMILES IDX 47 97
REMARK H PARENT 5 7 12 31 71 50 39 61
REMARK Flexibility Score: inf
ROOT
ATOM      1  C   UNL A   1      36.382  21.838  24.203  1.00  0.00     0.002 C 
ENDROOT
BRANCH   1   2
ATOM      2  C   UNL A   1      37.007  23.155  24.685  1.00  0.00     0.021 C 
BRANCH   2   3
ATOM      3  C   UNL A   1      36.097  23.985  25.592  1.00  0.00     0.116 C 
BRANCH   3   4
ATOM      4  N   UNL A   1      35.537  23.159  26.640  1.00  0.00    -0.356 N 
ATOM      5  C   UNL A   1      34.239  22.948  27.000  1.00  0.00     0.227 C 
ATOM      6  O   UNL A   1      34.063  22.320  28.046  1.00  0.00    -0.274 OA
ATOM      7  H   UNL A   1      36.201  22.673  27.181  1.00  0.00     0.163 HD
BRANCH   5   8
ATOM      8  C   UNL A   1      33.099  23.443  26.092  1.00  0.00     0.106 C 
ATOM      9  C   UNL A   1      31.807  23.733  26.858  1.00  0.00     0.023 C 
BRANCH   8  10
ATOM     10  C   UNL A   1      32.809  22.491  24.925  1.00  0.00    -0.028 A 
ATOM     11  C   UNL A   1      32.735  21.106  25.178  1.00  0.00     0.005 A 
ATOM     12  C   UNL A   1      32.577  22.947  23.606  1.00  0.00    -0.014 A 
ATOM     13  C   UNL A   1      32.473  20.192  24.158  1.00  0.00     0.000 A 
ATOM     14  C   UNL A   1      32.320  22.012  22.587  1.00  0.00     0.009 A 
ATOM     15  C   UNL A   1      32.271  20.644  22.862  1.00  0.00     0.001 A 
BRANCH  12  16
ATOM     16  C   UNL A   1      32.537  24.384  23.262  1.00  0.00    -0.011 A 
ATOM     17  C   UNL A   1      33.724  25.176  22.999  1.00  0.00     0.027 A 
ATOM     18  C   UNL A   1      31.335  24.987  23.262  1.00  0.00     0.080 A 
ATOM     19  C   UNL A   1      33.632  26.504  22.855  1.00  0.00     0.095 A 
ATOM     20  C   UNL A   1      31.213  26.454  23.051  1.00  0.00     0.255 A 
ATOM     21  N   UNL A   1      32.407  27.143  22.901  1.00  0.00    -0.258 N 
ATOM     22  O   UNL A   1      30.094  26.955  23.054  1.00  0.00    -0.269 OA
BRANCH  21  23
ATOM     23  C   UNL A   1      32.319  28.576  22.798  1.00  0.00     0.451 C 
ATOM     24  F   UNL A   1      31.911  29.132  23.963  1.00  0.00    -0.185 F 
ATOM     25  F   UNL A   1      33.524  29.110  22.474  1.00  0.00    -0.185 F 
ENDBRANCH  21  23
ENDBRANCH  12  16
ENDBRANCH   8  10
ENDBRANCH   5   8
ENDBRANCH   3   4
ENDBRANCH   2   3
ENDBRANCH   1   2
BRANCH   1  26
ATOM     26  C   UNL A   1      36.692  20.614  25.070  1.00  0.00     0.002 C 
BRANCH  26  27
ATOM     27  C   UNL A   1      38.028  19.932  24.765  1.00  0.00     0.021 C 
BRANCH  27  28
ATOM     28  C   UNL A   1      39.147  20.263  25.749  1.00  0.00     0.116 C 
BRANCH  28  29
ATOM     29  N   UNL A   1      40.107  19.177  25.875  1.00  0.00    -0.352 N 
ATOM     30  C   UNL A   1      41.463  19.231  26.083  1.00  0.00     0.251 C 
ATOM     31  H   UNL A   1      39.730  18.272  25.796  1.00  0.00     0.163 HD
ATOM     32  O   UNL A   1      42.150  18.221  25.962  1.00  0.00    -0.269 OA
BRANCH  30  33
ATOM     33  C   UNL A   1      42.100  20.519  26.427  1.00  0.00     0.039 A 
ATOM     34  C   UNL A   1      42.628  21.306  25.399  1.00  0.00     0.014 A 
ATOM     35  C   UNL A   1      42.160  20.960  27.752  1.00  0.00     0.014 A 
ATOM     36  C   UNL A   1      43.132  22.574  25.691  1.00  0.00     0.010 A 
ATOM     37  C   UNL A   1      42.601  22.251  28.032  1.00  0.00     0.010 A 
ATOM     38  C   UNL A   1      43.073  23.078  27.001  1.00  0.00    -0.014 A 
BRANCH  38  39
ATOM     39  C   UNL A   1      43.433  24.490  27.296  1.00  0.00     0.031 A 
ATOM     40  C   UNL A   1      44.872  24.916  27.363  1.00  0.00     0.074 A 
ATOM     41  C   UNL A   1      42.452  25.367  27.594  1.00  0.00     0.049 A 
ATOM     42  N   UNL A   1      45.373  26.078  27.696  1.00  0.00    -0.248 NA
ATOM     43  C   UNL A   1      45.884  23.900  27.031  1.00  0.00     0.031 C 
ATOM     44  C   UNL A   1      41.021  25.058  27.613  1.00  0.00     0.029 A 
ATOM     45  N   UNL A   1      42.508  26.690  27.958  1.00  0.00    -0.354 N 
ATOM     46  C   UNL A   1      46.752  25.930  27.630  1.00  0.00     0.074 A 
ATOM     47  C   UNL A   1      47.013  24.556  27.257  1.00  0.00     0.031 C 
ATOM     48  C   UNL A   1      40.336  26.158  27.962  1.00  0.00     0.029 A 
ATOM     49  C   UNL A   1      41.279  27.236  28.241  1.00  0.00     0.049 A 
ATOM     50  H   UNL A   1      43.349  27.199  28.012  1.00  0.00     0.167 HD
ATOM     51  C   UNL A   1      47.708  26.863  27.849  1.00  0.00     0.037 A 
ATOM     52  C   UNL A   1      40.949  28.459  28.700  1.00  0.00     0.037 A 
ATOM     53  C   UNL A   1      47.440  28.236  28.189  1.00  0.00     0.049 A 
ATOM     54  C   UNL A   1      42.041  29.465  28.955  1.00  0.00     0.074 A 
ATOM     55  C   UNL A   1      48.341  29.278  28.328  1.00  0.00     0.029 A 
ATOM     56  N   UNL A   1      46.184  28.756  28.458  1.00  0.00    -0.354 N 
ATOM     57  N   UNL A   1      43.334  29.343  28.783  1.00  0.00    -0.248 NA
ATOM     58  C   UNL A   1      41.628  30.778  29.469  1.00  0.00     0.031 C 
ATOM     59  C   UNL A   1      47.638  30.411  28.749  1.00  0.00     0.029 A 
ATOM     60  C   UNL A   1      46.292  30.091  28.812  1.00  0.00     0.049 A 
ATOM     61  H   UNL A   1      45.340  28.251  28.403  1.00  0.00     0.167 HD
ATOM     62  C   UNL A   1      43.884  30.563  29.148  1.00  0.00     0.074 A 
ATOM     63  C   UNL A   1      42.783  31.424  29.522  1.00  0.00     0.031 C 
ATOM     64  C   UNL A   1      45.187  30.936  29.182  1.00  0.00     0.037 A 
BRANCH  51  65
ATOM     65  C   UNL A   1      49.147  26.449  27.735  1.00  0.00     0.064 A 
ATOM     66  C   UNL A   1      49.788  26.346  26.492  1.00  0.00     0.173 A 
ATOM     67  C   UNL A   1      49.920  26.260  28.891  1.00  0.00     0.173 A 
ATOM     68  F   UNL A   1      49.092  26.512  25.357  1.00  0.00    -0.203 F 
ATOM     69  C   UNL A   1      51.149  26.062  26.411  1.00  0.00     0.198 A 
ATOM     70  C   UNL A   1      51.285  26.004  28.807  1.00  0.00     0.198 A 
ATOM     71  F   UNL A   1      49.355  26.356  30.104  1.00  0.00    -0.203 F 
ATOM     72  F   UNL A   1      51.737  25.948  25.213  1.00  0.00    -0.200 F 
ATOM     73  C   UNL A   1      51.899  25.904  27.568  1.00  0.00     0.200 A 
ATOM     74  F   UNL A   1      52.010  25.869  29.927  1.00  0.00    -0.200 F 
ATOM     75  F   UNL A   1      53.214  25.658  27.488  1.00  0.00    -0.200 F 
ENDBRANCH  51  65
BRANCH  52  76
ATOM     76  C   UNL A   1      39.527  28.800  28.984  1.00  0.00     0.064 A 
ATOM     77  C   UNL A   1      38.702  29.346  27.991  1.00  0.00     0.173 A 
ATOM     78  C   UNL A   1      38.980  28.632  30.265  1.00  0.00     0.173 A 
ATOM     79  F   UNL A   1      39.183  29.546  26.755  1.00  0.00    -0.203 F 
ATOM     80  C   UNL A   1      37.398  29.747  28.278  1.00  0.00     0.198 A 
ATOM     81  C   UNL A   1      37.664  28.998  30.541  1.00  0.00     0.198 A 
ATOM     82  F   UNL A   1      39.723  28.108  31.251  1.00  0.00    -0.203 F 
ATOM     83  F   UNL A   1      36.654  30.330  27.328  1.00  0.00    -0.200 F 
ATOM     84  C   UNL A   1      36.879  29.569  29.552  1.00  0.00     0.200 A 
ATOM     85  F   UNL A   1      37.162  28.806  31.768  1.00  0.00    -0.200 F 
ATOM     86  F   UNL A   1      35.628  29.959  29.829  1.00  0.00    -0.200 F 
ENDBRANCH  52  76
BRANCH  64  87
ATOM     87  C   UNL A   1      45.493  32.337  29.627  1.00  0.00     0.064 A 
ATOM     88  C   UNL A   1      45.801  32.629  30.964  1.00  0.00     0.173 A 
ATOM     89  C   UNL A   1      45.528  33.389  28.699  1.00  0.00     0.173 A 
ATOM     90  F   UNL A   1      45.764  31.661  31.892  1.00  0.00    -0.203 F 
ATOM     91  C   UNL A   1      46.111  33.926  31.359  1.00  0.00     0.198 A 
ATOM     92  C   UNL A   1      45.873  34.680  29.093  1.00  0.00     0.198 A 
ATOM     93  F   UNL A   1      45.249  33.162  27.407  1.00  0.00    -0.203 F 
ATOM     94  F   UNL A   1      46.356  34.191  32.650  1.00  0.00    -0.200 F 
ATOM     95  C   UNL A   1      46.157  34.948  30.423  1.00  0.00     0.200 A 
ATOM     96  F   UNL A   1      45.932  35.662  28.183  1.00  0.00    -0.200 F 
ATOM     97  F   UNL A   1      46.469  36.194  30.804  1.00  0.00    -0.200 F 
ENDBRANCH  64  87
ENDBRANCH  38  39
ENDBRANCH  30  33
ENDBRANCH  28  29
ENDBRANCH  27  28
ENDBRANCH  26  27
ENDBRANCH   1  26
TORSDOF 16
ENDMDL
