MODEL 1
REMARK VINA RESULT:     -11.6      0.000      0.000
REMARK SMILES CCc1nc(COC)cc(N2CCCC[C@H]2C(=O)NCCCCCCNC(=O)c2ccc(-c3c4nc(c(-c5c(F)c(F)c(F)c(F)c5F)c5ccc([nH]5)c(-c5c(F)c(F)c(F)c(F)c5F)c5nc(c(-c6c(F)c(F)c(F)c(F)c6F)c6ccc3[nH]6)C=C5)C=C4)cc2)n1
REMARK SMILES IDX 22 1 21 2 20 3 19 4 17 5 18 6 16 8 11 9 12 10 13 11 15 12
REMARK SMILES IDX 14 13 10 14 3 15 4 16 92 17 5 18 9 19 2 20 1 21 6 22 7 23
REMARK SMILES IDX 8 24 23 25 24 26 25 27 26 28 27 29 28 31 29 32 30 33 91 34
REMARK SMILES IDX 31 35 90 36 32 37 33 38 34 39 84 40 35 41 89 42 83 43 85 44
REMARK SMILES IDX 36 45 88 46 82 47 81 48 37 50 69 51 49 52 68 53 50 54 53 55
REMARK SMILES IDX 67 56 86 57 51 58 52 59 66 61 87 62 54 63 38 64 39 65 47 66
REMARK SMILES IDX 40 67 41 68 45 69 48 70 42 71 43 72 46 73 44 74 70 75 71 76
REMARK SMILES IDX 79 77 72 78 73 79 77 80 80 81 74 82 75 83 78 84 76 85 55 86
REMARK SMILES IDX 56 87 64 88 57 89 58 90 62 91 65 92 59 93 60 94 63 95 61 96
REMARK H PARENT 19 7 26 30 85 49 53 60
REMARK Flexibility Score: inf
ROOT
ATOM      1  C   UNL A   1      32.484  29.969  27.089  1.00  0.00     0.002 C 
ENDROOT
BRANCH   1   2
ATOM      2  C   UNL A   1      33.670  29.382  26.323  1.00  0.00     0.021 C 
BRANCH   2   3
ATOM      3  C   UNL A   1      33.840  27.873  26.448  1.00  0.00     0.116 C 
BRANCH   3   4
ATOM      4  N   UNL A   1      32.595  27.185  26.708  1.00  0.00    -0.354 N 
ATOM      5  C   UNL A   1      32.127  25.981  26.283  1.00  0.00     0.242 C 
ATOM      6  O   UNL A   1      31.115  25.581  26.876  1.00  0.00    -0.273 OA
ATOM      7  H   UNL A   1      31.978  27.675  27.297  1.00  0.00     0.163 HD
BRANCH   5   8
ATOM      8  C   UNL A   1      32.679  25.187  25.068  1.00  0.00     0.173 C 
ATOM      9  N   UNL A   1      32.087  23.864  24.811  1.00  0.00    -0.344 N 
ATOM     10  C   UNL A   1      30.770  23.786  24.176  1.00  0.00     0.119 C 
ATOM     11  C   UNL A   1      30.695  24.652  22.926  1.00  0.00     0.022 C 
ATOM     12  C   UNL A   1      32.590  26.036  23.782  1.00  0.00     0.035 C 
ATOM     13  C   UNL A   1      31.171  26.070  23.217  1.00  0.00     0.004 C 
BRANCH   9  14
ATOM     14  C   UNL A   1      32.842  22.709  24.957  1.00  0.00     0.133 A 
ATOM     15  C   UNL A   1      34.877  21.694  25.350  1.00  0.00     0.130 A 
ATOM     16  N   UNL A   1      34.424  20.463  25.067  1.00  0.00    -0.235 NA
ATOM     17  N   UNL A   1      34.145  22.820  25.252  1.00  0.00    -0.216 NA
ATOM     18  C   UNL A   1      33.129  20.361  24.719  1.00  0.00     0.072 A 
ATOM     19  C   UNL A   1      32.290  21.460  24.711  1.00  0.00     0.073 A 
BRANCH  15  20
ATOM     20  C   UNL A   1      36.322  21.815  25.752  1.00  0.00     0.074 C 
ATOM     21  C   UNL A   1      37.278  21.624  24.583  1.00  0.00     0.012 C 
ENDBRANCH  15  20
BRANCH  18  22
ATOM     22  C   UNL A   1      32.613  19.008  24.274  1.00  0.00     0.216 C 
BRANCH  22  23
ATOM     23  O   UNL A   1      32.153  18.182  25.352  1.00  0.00    -0.378 OA
ATOM     24  C   UNL A   1      32.886  16.975  25.494  1.00  0.00     0.195 C 
ENDBRANCH  22  23
ENDBRANCH  18  22
ENDBRANCH   9  14
ENDBRANCH   5   8
ENDBRANCH   3   4
ENDBRANCH   2   3
ENDBRANCH   1   2
BRANCH   1  25
ATOM     25  C   UNL A   1      31.468  30.754  26.256  1.00  0.00     0.002 C 
BRANCH  25  26
ATOM     26  C   UNL A   1      31.372  32.256  26.539  1.00  0.00     0.021 C 
BRANCH  26  27
ATOM     27  C   UNL A   1      32.662  32.931  26.985  1.00  0.00     0.116 C 
BRANCH  27  28
ATOM     28  N   UNL A   1      32.439  34.212  27.626  1.00  0.00    -0.352 N 
ATOM     29  C   UNL A   1      33.059  34.761  28.719  1.00  0.00     0.251 C 
ATOM     30  H   UNL A   1      31.739  34.770  27.217  1.00  0.00     0.163 HD
ATOM     31  O   UNL A   1      32.649  35.819  29.186  1.00  0.00    -0.269 OA
BRANCH  29  32
ATOM     32  C   UNL A   1      34.206  34.076  29.357  1.00  0.00     0.039 A 
ATOM     33  C   UNL A   1      35.497  34.455  28.976  1.00  0.00     0.014 A 
ATOM     34  C   UNL A   1      34.028  33.044  30.283  1.00  0.00     0.014 A 
ATOM     35  C   UNL A   1      36.605  33.819  29.539  1.00  0.00     0.010 A 
ATOM     36  C   UNL A   1      35.133  32.459  30.897  1.00  0.00     0.010 A 
ATOM     37  C   UNL A   1      36.433  32.824  30.513  1.00  0.00    -0.014 A 
BRANCH  37  38
ATOM     38  C   UNL A   1      37.603  32.121  31.096  1.00  0.00     0.031 A 
ATOM     39  C   UNL A   1      38.064  32.457  32.488  1.00  0.00     0.074 A 
ATOM     40  C   UNL A   1      38.267  31.204  30.366  1.00  0.00     0.049 A 
ATOM     41  N   UNL A   1      39.072  31.972  33.168  1.00  0.00    -0.248 NA
ATOM     42  C   UNL A   1      37.307  33.496  33.202  1.00  0.00     0.031 C 
ATOM     43  C   UNL A   1      37.947  30.826  28.990  1.00  0.00     0.029 A 
ATOM     44  N   UNL A   1      39.351  30.425  30.683  1.00  0.00    -0.354 N 
ATOM     45  C   UNL A   1      39.078  32.656  34.376  1.00  0.00     0.074 A 
ATOM     46  C   UNL A   1      38.010  33.629  34.316  1.00  0.00     0.031 C 
ATOM     47  C   UNL A   1      38.799  29.870  28.588  1.00  0.00     0.029 A 
ATOM     48  C   UNL A   1      39.740  29.586  29.669  1.00  0.00     0.049 A 
ATOM     49  H   UNL A   1      39.807  30.464  31.555  1.00  0.00     0.167 HD
ATOM     50  C   UNL A   1      39.885  32.474  35.449  1.00  0.00     0.037 A 
ATOM     51  C   UNL A   1      40.738  28.684  29.621  1.00  0.00     0.037 A 
ATOM     52  C   UNL A   1      40.926  31.484  35.519  1.00  0.00     0.049 A 
ATOM     53  C   UNL A   1      41.600  28.478  30.838  1.00  0.00     0.074 A 
ATOM     54  C   UNL A   1      41.770  31.188  36.575  1.00  0.00     0.029 A 
ATOM     55  N   UNL A   1      41.263  30.623  34.485  1.00  0.00    -0.354 N 
ATOM     56  N   UNL A   1      41.556  29.087  31.998  1.00  0.00    -0.248 NA
ATOM     57  C   UNL A   1      42.638  27.442  30.744  1.00  0.00     0.031 C 
ATOM     58  C   UNL A   1      42.639  30.168  36.169  1.00  0.00     0.029 A 
ATOM     59  C   UNL A   1      42.306  29.799  34.876  1.00  0.00     0.049 A 
ATOM     60  H   UNL A   1      40.826  30.600  33.603  1.00  0.00     0.167 HD
ATOM     61  C   UNL A   1      42.532  28.488  32.782  1.00  0.00     0.074 A 
ATOM     62  C   UNL A   1      43.144  27.456  31.969  1.00  0.00     0.031 C 
ATOM     63  C   UNL A   1      42.890  28.765  34.060  1.00  0.00     0.037 A 
BRANCH  50  64
ATOM     64  C   UNL A   1      39.663  33.363  36.639  1.00  0.00     0.064 A 
ATOM     65  C   UNL A   1      38.779  33.007  37.669  1.00  0.00     0.173 A 
ATOM     66  C   UNL A   1      40.359  34.576  36.763  1.00  0.00     0.173 A 
ATOM     67  F   UNL A   1      38.079  31.865  37.593  1.00  0.00    -0.203 F 
ATOM     68  C   UNL A   1      38.575  33.845  38.762  1.00  0.00     0.198 A 
ATOM     69  C   UNL A   1      40.175  35.397  37.873  1.00  0.00     0.198 A 
ATOM     70  F   UNL A   1      41.220  34.962  35.810  1.00  0.00    -0.203 F 
ATOM     71  F   UNL A   1      37.684  33.509  39.705  1.00  0.00    -0.200 F 
ATOM     72  C   UNL A   1      39.278  35.036  38.866  1.00  0.00     0.200 A 
ATOM     73  F   UNL A   1      40.864  36.542  37.978  1.00  0.00    -0.200 F 
ATOM     74  F   UNL A   1      39.083  35.840  39.920  1.00  0.00    -0.200 F 
ENDBRANCH  50  64
BRANCH  51  75
ATOM     75  C   UNL A   1      40.948  27.872  28.395  1.00  0.00     0.064 A 
ATOM     76  C   UNL A   1      40.278  26.653  28.216  1.00  0.00     0.173 A 
ATOM     77  C   UNL A   1      41.822  28.291  27.383  1.00  0.00     0.173 A 
ATOM     78  F   UNL A   1      39.446  26.201  29.166  1.00  0.00    -0.203 F 
ATOM     79  C   UNL A   1      40.493  25.872  27.083  1.00  0.00     0.198 A 
ATOM     80  C   UNL A   1      42.017  27.523  26.237  1.00  0.00     0.198 A 
ATOM     81  F   UNL A   1      42.481  29.452  27.502  1.00  0.00    -0.203 F 
ATOM     82  F   UNL A   1      39.877  24.689  26.960  1.00  0.00    -0.200 F 
ATOM     83  C   UNL A   1      41.359  26.309  26.092  1.00  0.00     0.200 A 
ATOM     84  F   UNL A   1      42.843  27.955  25.274  1.00  0.00    -0.200 F 
ATOM     85  F   UNL A   1      41.566  25.559  25.001  1.00  0.00    -0.200 F 
ENDBRANCH  51  75
BRANCH  63  86
ATOM     86  C   UNL A   1      43.955  27.905  34.675  1.00  0.00     0.064 A 
ATOM     87  C   UNL A   1      45.306  28.280  34.664  1.00  0.00     0.173 A 
ATOM     88  C   UNL A   1      43.612  26.697  35.302  1.00  0.00     0.173 A 
ATOM     89  F   UNL A   1      45.686  29.418  34.064  1.00  0.00    -0.203 F 
ATOM     90  C   UNL A   1      46.280  27.460  35.228  1.00  0.00     0.198 A 
ATOM     91  C   UNL A   1      44.584  25.894  35.891  1.00  0.00     0.198 A 
ATOM     92  F   UNL A   1      42.332  26.297  35.346  1.00  0.00    -0.203 F 
ATOM     93  F   UNL A   1      47.571  27.810  35.157  1.00  0.00    -0.200 F 
ATOM     94  C   UNL A   1      45.918  26.271  35.846  1.00  0.00     0.200 A 
ATOM     95  F   UNL A   1      44.231  24.753  36.499  1.00  0.00    -0.200 F 
ATOM     96  F   UNL A   1      46.857  25.483  36.389  1.00  0.00    -0.200 F 
ENDBRANCH  63  86
ENDBRANCH  37  38
ENDBRANCH  29  32
ENDBRANCH  27  28
ENDBRANCH  26  27
ENDBRANCH  25  26
ENDBRANCH   1  25
TORSDOF 17
ENDMDL
MODEL 2
REMARK VINA RESULT:     -11.5      0.896      7.326
REMARK SMILES CCc1nc(COC)cc(N2CCCC[C@H]2C(=O)NCCCCCCNC(=O)c2ccc(-c3c4nc(c(-c5c(F)c(F)c(F)c(F)c5F)c5ccc([nH]5)c(-c5c(F)c(F)c(F)c(F)c5F)c5nc(c(-c6c(F)c(F)c(F)c(F)c6F)c6ccc3[nH]6)C=C5)C=C4)cc2)n1
REMARK SMILES IDX 22 1 21 2 20 3 19 4 17 5 18 6 16 8 11 9 12 10 13 11 15 12
REMARK SMILES IDX 14 13 10 14 3 15 4 16 92 17 5 18 9 19 2 20 1 21 6 22 7 23
REMARK SMILES IDX 8 24 23 25 24 26 25 27 26 28 27 29 28 31 29 32 30 33 91 34
REMARK SMILES IDX 31 35 90 36 32 37 33 38 34 39 84 40 35 41 89 42 83 43 85 44
REMARK SMILES IDX 36 45 88 46 82 47 81 48 37 50 69 51 49 52 68 53 50 54 53 55
REMARK SMILES IDX 67 56 86 57 51 58 52 59 66 61 87 62 54 63 38 64 39 65 47 66
REMARK SMILES IDX 40 67 41 68 45 69 48 70 42 71 43 72 46 73 44 74 70 75 71 76
REMARK SMILES IDX 79 77 72 78 73 79 77 80 80 81 74 82 75 83 78 84 76 85 55 86
REMARK SMILES IDX 56 87 64 88 57 89 58 90 62 91 65 92 59 93 60 94 63 95 61 96
REMARK H PARENT 19 7 26 30 85 49 53 60
REMARK Flexibility Score: inf
ROOT
ATOM      1  C   UNL A   1      32.799  30.201  26.187  1.00  0.00     0.002 C 
ENDROOT
BRANCH   1   2
ATOM      2  C   UNL A   1      33.196  29.153  25.147  1.00  0.00     0.021 C 
BRANCH   2   3
ATOM      3  C   UNL A   1      33.715  27.838  25.716  1.00  0.00     0.116 C 
BRANCH   3   4
ATOM      4  N   UNL A   1      32.669  27.020  26.288  1.00  0.00    -0.354 N 
ATOM      5  C   UNL A   1      32.347  25.711  26.102  1.00  0.00     0.242 C 
ATOM      6  O   UNL A   1      31.535  25.256  26.920  1.00  0.00    -0.273 OA
ATOM      7  H   UNL A   1      32.088  27.494  26.925  1.00  0.00     0.163 HD
BRANCH   5   8
ATOM      8  C   UNL A   1      32.811  24.840  24.903  1.00  0.00     0.173 C 
ATOM      9  N   UNL A   1      32.422  23.420  24.920  1.00  0.00    -0.344 N 
ATOM     10  C   UNL A   1      31.049  23.055  24.566  1.00  0.00     0.119 C 
ATOM     11  C   UNL A   1      30.610  23.709  23.264  1.00  0.00     0.022 C 
ATOM     12  C   UNL A   1      32.355  25.470  23.569  1.00  0.00     0.035 C 
ATOM     13  C   UNL A   1      30.876  25.209  23.291  1.00  0.00     0.004 C 
BRANCH   9  14
ATOM     14  C   UNL A   1      33.380  22.425  25.048  1.00  0.00     0.133 A 
ATOM     15  C   UNL A   1      35.583  21.804  25.340  1.00  0.00     0.130 A 
ATOM     16  N   UNL A   1      35.344  20.502  25.118  1.00  0.00    -0.235 NA
ATOM     17  N   UNL A   1      34.656  22.777  25.257  1.00  0.00    -0.216 NA
ATOM     18  C   UNL A   1      34.071  20.158  24.856  1.00  0.00     0.072 A 
ATOM     19  C   UNL A   1      33.049  21.089  24.871  1.00  0.00     0.073 A 
BRANCH  15  20
ATOM     20  C   UNL A   1      37.003  22.195  25.646  1.00  0.00     0.074 C 
ATOM     21  C   UNL A   1      37.323  23.626  25.236  1.00  0.00     0.012 C 
ENDBRANCH  15  20
BRANCH  18  22
ATOM     22  C   UNL A   1      33.782  18.719  24.481  1.00  0.00     0.216 C 
BRANCH  22  23
ATOM     23  O   UNL A   1      32.449  18.503  23.999  1.00  0.00    -0.378 OA
ATOM     24  C   UNL A   1      32.394  18.129  22.631  1.00  0.00     0.195 C 
ENDBRANCH  22  23
ENDBRANCH  18  22
ENDBRANCH   9  14
ENDBRANCH   5   8
ENDBRANCH   3   4
ENDBRANCH   2   3
ENDBRANCH   1   2
BRANCH   1  25
ATOM     25  C   UNL A   1      31.455  30.897  25.959  1.00  0.00     0.002 C 
BRANCH  25  26
ATOM     26  C   UNL A   1      31.306  32.300  26.554  1.00  0.00     0.021 C 
BRANCH  26  27
ATOM     27  C   UNL A   1      32.555  32.881  27.204  1.00  0.00     0.116 C 
BRANCH  27  28
ATOM     28  N   UNL A   1      32.377  34.247  27.654  1.00  0.00    -0.352 N 
ATOM     29  C   UNL A   1      33.011  34.924  28.664  1.00  0.00     0.251 C 
ATOM     30  H   UNL A   1      31.700  34.765  27.163  1.00  0.00     0.163 HD
ATOM     31  O   UNL A   1      32.639  36.052  28.971  1.00  0.00    -0.269 OA
BRANCH  29  32
ATOM     32  C   UNL A   1      34.130  34.296  29.404  1.00  0.00     0.039 A 
ATOM     33  C   UNL A   1      35.432  34.517  28.945  1.00  0.00     0.014 A 
ATOM     34  C   UNL A   1      33.911  33.464  30.506  1.00  0.00     0.014 A 
ATOM     35  C   UNL A   1      36.512  33.925  29.602  1.00  0.00     0.010 A 
ATOM     36  C   UNL A   1      34.993  32.933  31.204  1.00  0.00     0.010 A 
ATOM     37  C   UNL A   1      36.303  33.138  30.745  1.00  0.00    -0.014 A 
BRANCH  37  38
ATOM     38  C   UNL A   1      37.442  32.482  31.434  1.00  0.00     0.031 A 
ATOM     39  C   UNL A   1      38.158  31.335  30.773  1.00  0.00     0.074 A 
ATOM     40  C   UNL A   1      37.816  32.896  32.659  1.00  0.00     0.049 A 
ATOM     41  N   UNL A   1      39.161  30.618  31.214  1.00  0.00    -0.248 NA
ATOM     42  C   UNL A   1      37.664  30.921  29.451  1.00  0.00     0.031 C 
ATOM     43  C   UNL A   1      37.171  33.965  33.422  1.00  0.00     0.029 A 
ATOM     44  N   UNL A   1      38.828  32.464  33.479  1.00  0.00    -0.354 N 
ATOM     45  C   UNL A   1      39.403  29.663  30.236  1.00  0.00     0.074 A 
ATOM     46  C   UNL A   1      38.409  29.855  29.203  1.00  0.00     0.031 C 
ATOM     47  C   UNL A   1      37.818  34.123  34.589  1.00  0.00     0.029 A 
ATOM     48  C   UNL A   1      38.906  33.151  34.665  1.00  0.00     0.049 A 
ATOM     49  H   UNL A   1      39.440  31.731  33.238  1.00  0.00     0.167 HD
ATOM     50  C   UNL A   1      40.382  28.728  30.189  1.00  0.00     0.037 A 
ATOM     51  C   UNL A   1      39.765  33.016  35.692  1.00  0.00     0.037 A 
ATOM     52  C   UNL A   1      41.389  28.559  31.202  1.00  0.00     0.049 A 
ATOM     53  C   UNL A   1      40.863  31.990  35.601  1.00  0.00     0.074 A 
ATOM     54  C   UNL A   1      42.450  27.672  31.229  1.00  0.00     0.029 A 
ATOM     55  N   UNL A   1      41.460  29.303  32.371  1.00  0.00    -0.354 N 
ATOM     56  N   UNL A   1      41.121  31.134  34.643  1.00  0.00    -0.248 NA
ATOM     57  C   UNL A   1      41.802  31.926  36.730  1.00  0.00     0.031 C 
ATOM     58  C   UNL A   1      43.146  27.856  32.430  1.00  0.00     0.029 A 
ATOM     59  C   UNL A   1      42.545  28.891  33.129  1.00  0.00     0.049 A 
ATOM     60  H   UNL A   1      40.834  30.018  32.625  1.00  0.00     0.167 HD
ATOM     61  C   UNL A   1      42.267  30.457  35.033  1.00  0.00     0.074 A 
ATOM     62  C   UNL A   1      42.663  31.011  36.312  1.00  0.00     0.031 C 
ATOM     63  C   UNL A   1      42.934  29.466  34.391  1.00  0.00     0.037 A 
BRANCH  50  64
ATOM     64  C   UNL A   1      40.411  27.818  28.994  1.00  0.00     0.064 A 
ATOM     65  C   UNL A   1      41.176  28.121  27.857  1.00  0.00     0.173 A 
ATOM     66  C   UNL A   1      39.684  26.617  28.994  1.00  0.00     0.173 A 
ATOM     67  F   UNL A   1      41.878  29.263  27.801  1.00  0.00    -0.203 F 
ATOM     68  C   UNL A   1      41.186  27.274  26.752  1.00  0.00     0.198 A 
ATOM     69  C   UNL A   1      39.722  25.757  27.898  1.00  0.00     0.198 A 
ATOM     70  F   UNL A   1      38.941  26.275  30.057  1.00  0.00    -0.203 F 
ATOM     71  F   UNL A   1      41.879  27.613  25.656  1.00  0.00    -0.200 F 
ATOM     72  C   UNL A   1      40.464  26.090  26.776  1.00  0.00     0.200 A 
ATOM     73  F   UNL A   1      39.034  24.607  27.928  1.00  0.00    -0.200 F 
ATOM     74  F   UNL A   1      40.478  25.274  25.714  1.00  0.00    -0.200 F 
ENDBRANCH  50  64
BRANCH  51  75
ATOM     75  C   UNL A   1      39.652  33.906  36.876  1.00  0.00     0.064 A 
ATOM     76  C   UNL A   1      40.317  35.140  36.914  1.00  0.00     0.173 A 
ATOM     77  C   UNL A   1      38.887  33.542  37.993  1.00  0.00     0.173 A 
ATOM     78  F   UNL A   1      41.077  35.522  35.877  1.00  0.00    -0.203 F 
ATOM     79  C   UNL A   1      40.241  35.966  38.033  1.00  0.00     0.198 A 
ATOM     80  C   UNL A   1      38.789  34.381  39.101  1.00  0.00     0.198 A 
ATOM     81  F   UNL A   1      38.226  32.376  38.004  1.00  0.00    -0.203 F 
ATOM     82  F   UNL A   1      40.924  37.117  38.062  1.00  0.00    -0.200 F 
ATOM     83  C   UNL A   1      39.473  35.588  39.124  1.00  0.00     0.200 A 
ATOM     84  F   UNL A   1      38.034  34.019  40.148  1.00  0.00    -0.200 F 
ATOM     85  F   UNL A   1      39.398  36.382  40.201  1.00  0.00    -0.200 F 
ENDBRANCH  51  75
BRANCH  63  86
ATOM     86  C   UNL A   1      44.190  28.956  35.036  1.00  0.00     0.064 A 
ATOM     87  C   UNL A   1      45.445  29.516  34.755  1.00  0.00     0.173 A 
ATOM     88  C   UNL A   1      44.130  27.906  35.964  1.00  0.00     0.173 A 
ATOM     89  F   UNL A   1      45.556  30.512  33.864  1.00  0.00    -0.203 F 
ATOM     90  C   UNL A   1      46.599  29.018  35.354  1.00  0.00     0.198 A 
ATOM     91  C   UNL A   1      45.282  27.431  36.584  1.00  0.00     0.198 A 
ATOM     92  F   UNL A   1      42.952  27.342  36.274  1.00  0.00    -0.203 F 
ATOM     93  F   UNL A   1      47.794  29.529  35.030  1.00  0.00    -0.200 F 
ATOM     94  C   UNL A   1      46.516  27.981  36.272  1.00  0.00     0.200 A 
ATOM     95  F   UNL A   1      45.198  26.438  37.480  1.00  0.00    -0.200 F 
ATOM     96  F   UNL A   1      47.628  27.503  36.848  1.00  0.00    -0.200 F 
ENDBRANCH  63  86
ENDBRANCH  37  38
ENDBRANCH  29  32
ENDBRANCH  27  28
ENDBRANCH  26  27
ENDBRANCH  25  26
ENDBRANCH   1  25
TORSDOF 17
ENDMDL
MODEL 3
REMARK VINA RESULT:     -11.4      5.771     11.594
REMARK SMILES CCc1nc(COC)cc(N2CCCC[C@H]2C(=O)NCCCCCCNC(=O)c2ccc(-c3c4nc(c(-c5c(F)c(F)c(F)c(F)c5F)c5ccc([nH]5)c(-c5c(F)c(F)c(F)c(F)c5F)c5nc(c(-c6c(F)c(F)c(F)c(F)c6F)c6ccc3[nH]6)C=C5)C=C4)cc2)n1
REMARK SMILES IDX 22 1 21 2 20 3 19 4 17 5 18 6 16 8 11 9 12 10 13 11 15 12
REMARK SMILES IDX 14 13 10 14 3 15 4 16 92 17 5 18 9 19 2 20 1 21 6 22 7 23
REMARK SMILES IDX 8 24 23 25 24 26 25 27 26 28 27 29 28 31 29 32 30 33 91 34
REMARK SMILES IDX 31 35 90 36 32 37 33 38 34 39 84 40 35 41 89 42 83 43 85 44
REMARK SMILES IDX 36 45 88 46 82 47 81 48 37 50 69 51 49 52 68 53 50 54 53 55
REMARK SMILES IDX 67 56 86 57 51 58 52 59 66 61 87 62 54 63 38 64 39 65 47 66
REMARK SMILES IDX 40 67 41 68 45 69 48 70 42 71 43 72 46 73 44 74 70 75 71 76
REMARK SMILES IDX 79 77 72 78 73 79 77 80 80 81 74 82 75 83 78 84 76 85 55 86
REMARK SMILES IDX 56 87 64 88 57 89 58 90 62 91 65 92 59 93 60 94 63 95 61 96
REMARK H PARENT 19 7 26 30 85 49 53 60
REMARK Flexibility Score: inf
ROOT
ATOM      1  C   UNL A   1      39.657  21.637  26.168  1.00  0.00     0.002 C 
ENDROOT
BRANCH   1   2
ATOM      2  C   UNL A   1      39.412  23.072  26.633  1.00  0.00     0.021 C 
BRANCH   2   3
ATOM      3  C   UNL A   1      38.123  23.707  26.126  1.00  0.00     0.116 C 
BRANCH   3   4
ATOM      4  N   UNL A   1      37.749  23.246  24.808  1.00  0.00    -0.354 N 
ATOM      5  C   UNL A   1      36.574  23.326  24.126  1.00  0.00     0.242 C 
ATOM      6  O   UNL A   1      36.653  23.037  22.923  1.00  0.00    -0.273 OA
ATOM      7  H   UNL A   1      38.473  22.796  24.317  1.00  0.00     0.163 HD
BRANCH   5   8
ATOM      8  C   UNL A   1      35.189  23.611  24.766  1.00  0.00     0.173 C 
ATOM      9  N   UNL A   1      34.142  24.147  23.880  1.00  0.00    -0.344 N 
ATOM     10  C   UNL A   1      33.454  23.238  22.961  1.00  0.00     0.119 C 
ATOM     11  C   UNL A   1      32.957  21.987  23.672  1.00  0.00     0.022 C 
ATOM     12  C   UNL A   1      34.651  22.348  25.473  1.00  0.00     0.035 C 
ATOM     13  C   UNL A   1      34.075  21.340  24.481  1.00  0.00     0.004 C 
BRANCH   9  14
ATOM     14  C   UNL A   1      33.654  25.433  24.058  1.00  0.00     0.133 A 
ATOM     15  C   UNL A   1      33.521  27.358  25.324  1.00  0.00     0.130 A 
ATOM     16  N   UNL A   1      32.568  27.909  24.558  1.00  0.00    -0.235 NA
ATOM     17  N   UNL A   1      34.034  26.126  25.141  1.00  0.00    -0.216 NA
ATOM     18  C   UNL A   1      32.149  27.188  23.502  1.00  0.00     0.072 A 
ATOM     19  C   UNL A   1      32.715  25.967  23.187  1.00  0.00     0.073 A 
BRANCH  15  20
ATOM     20  C   UNL A   1      34.003  28.163  26.500  1.00  0.00     0.074 C 
ATOM     21  C   UNL A   1      32.871  28.848  27.251  1.00  0.00     0.012 C 
ENDBRANCH  15  20
BRANCH  18  22
ATOM     22  C   UNL A   1      30.990  27.722  22.687  1.00  0.00     0.216 C 
BRANCH  22  23
ATOM     23  O   UNL A   1      30.112  28.583  23.424  1.00  0.00    -0.378 OA
ATOM     24  C   UNL A   1      28.894  28.862  22.751  1.00  0.00     0.195 C 
ENDBRANCH  22  23
ENDBRANCH  18  22
ENDBRANCH   9  14
ENDBRANCH   5   8
ENDBRANCH   3   4
ENDBRANCH   2   3
ENDBRANCH   1   2
BRANCH   1  25
ATOM     25  C   UNL A   1      40.986  21.010  26.599  1.00  0.00     0.002 C 
BRANCH  25  26
ATOM     26  C   UNL A   1      41.246  19.577  26.126  1.00  0.00     0.021 C 
BRANCH  26  27
ATOM     27  C   UNL A   1      42.595  18.985  26.515  1.00  0.00     0.116 C 
BRANCH  27  28
ATOM     28  N   UNL A   1      43.425  18.666  25.370  1.00  0.00    -0.352 N 
ATOM     29  C   UNL A   1      44.226  19.486  24.618  1.00  0.00     0.251 C 
ATOM     30  H   UNL A   1      43.411  17.723  25.092  1.00  0.00     0.163 HD
ATOM     31  O   UNL A   1      44.769  19.049  23.608  1.00  0.00    -0.269 OA
BRANCH  29  32
ATOM     32  C   UNL A   1      44.427  20.902  25.003  1.00  0.00     0.039 A 
ATOM     33  C   UNL A   1      45.255  21.180  26.094  1.00  0.00     0.014 A 
ATOM     34  C   UNL A   1      43.778  21.946  24.336  1.00  0.00     0.014 A 
ATOM     35  C   UNL A   1      45.452  22.501  26.501  1.00  0.00     0.010 A 
ATOM     36  C   UNL A   1      44.032  23.268  24.696  1.00  0.00     0.010 A 
ATOM     37  C   UNL A   1      44.852  23.557  25.797  1.00  0.00    -0.014 A 
BRANCH  37  38
ATOM     38  C   UNL A   1      45.032  24.962  26.240  1.00  0.00     0.031 A 
ATOM     39  C   UNL A   1      46.381  25.620  26.121  1.00  0.00     0.074 A 
ATOM     40  C   UNL A   1      43.995  25.637  26.771  1.00  0.00     0.049 A 
ATOM     41  N   UNL A   1      46.748  26.828  26.467  1.00  0.00    -0.248 NA
ATOM     42  C   UNL A   1      47.468  24.801  25.565  1.00  0.00     0.031 C 
ATOM     43  C   UNL A   1      42.653  25.095  26.981  1.00  0.00     0.029 A 
ATOM     44  N   UNL A   1      43.910  26.926  27.232  1.00  0.00    -0.354 N 
ATOM     45  C   UNL A   1      48.105  26.906  26.187  1.00  0.00     0.074 A 
ATOM     46  C   UNL A   1      48.510  25.608  25.694  1.00  0.00     0.031 C 
ATOM     47  C   UNL A   1      41.871  26.051  27.508  1.00  0.00     0.029 A 
ATOM     48  C   UNL A   1      42.662  27.264  27.694  1.00  0.00     0.049 A 
ATOM     49  H   UNL A   1      44.673  27.550  27.233  1.00  0.00     0.167 HD
ATOM     50  C   UNL A   1      48.935  27.970  26.304  1.00  0.00     0.037 A 
ATOM     51  C   UNL A   1      42.209  28.425  28.202  1.00  0.00     0.037 A 
ATOM     52  C   UNL A   1      48.523  29.270  26.763  1.00  0.00     0.049 A 
ATOM     53  C   UNL A   1      43.142  29.602  28.291  1.00  0.00     0.074 A 
ATOM     54  C   UNL A   1      49.274  30.426  26.876  1.00  0.00     0.029 A 
ATOM     55  N   UNL A   1      47.239  29.585  27.183  1.00  0.00    -0.354 N 
ATOM     56  N   UNL A   1      44.409  29.683  27.964  1.00  0.00    -0.248 NA
ATOM     57  C   UNL A   1      42.575  30.858  28.804  1.00  0.00     0.031 C 
ATOM     58  C   UNL A   1      48.453  31.434  27.395  1.00  0.00     0.029 A 
ATOM     59  C   UNL A   1      47.178  30.917  27.560  1.00  0.00     0.049 A 
ATOM     60  H   UNL A   1      46.483  28.956  27.208  1.00  0.00     0.167 HD
ATOM     61  C   UNL A   1      44.781  31.000  28.196  1.00  0.00     0.074 A 
ATOM     62  C   UNL A   1      43.601  31.687  28.679  1.00  0.00     0.031 C 
ATOM     63  C   UNL A   1      45.990  31.588  28.022  1.00  0.00     0.037 A 
BRANCH  50  64
ATOM     64  C   UNL A   1      50.373  27.771  25.919  1.00  0.00     0.064 A 
ATOM     65  C   UNL A   1      50.792  27.828  24.581  1.00  0.00     0.173 A 
ATOM     66  C   UNL A   1      51.349  27.542  26.902  1.00  0.00     0.173 A 
ATOM     67  F   UNL A   1      49.897  28.030  23.602  1.00  0.00    -0.203 F 
ATOM     68  C   UNL A   1      52.127  27.631  24.237  1.00  0.00     0.198 A 
ATOM     69  C   UNL A   1      52.689  27.377  26.557  1.00  0.00     0.198 A 
ATOM     70  F   UNL A   1      51.005  27.483  28.197  1.00  0.00    -0.203 F 
ATOM     71  F   UNL A   1      52.493  27.635  22.948  1.00  0.00    -0.200 F 
ATOM     72  C   UNL A   1      53.075  27.412  25.226  1.00  0.00     0.200 A 
ATOM     73  F   UNL A   1      53.605  27.177  27.514  1.00  0.00    -0.200 F 
ATOM     74  F   UNL A   1      54.359  27.226  24.894  1.00  0.00    -0.200 F 
ENDBRANCH  50  64
BRANCH  51  75
ATOM     75  C   UNL A   1      40.789  28.547  28.621  1.00  0.00     0.064 A 
ATOM     76  C   UNL A   1      39.809  28.994  27.721  1.00  0.00     0.173 A 
ATOM     77  C   UNL A   1      40.382  28.230  29.924  1.00  0.00     0.173 A 
ATOM     78  F   UNL A   1      40.154  29.328  26.469  1.00  0.00    -0.203 F 
ATOM     79  C   UNL A   1      38.481  29.140  28.116  1.00  0.00     0.198 A 
ATOM     80  C   UNL A   1      39.049  28.351  30.311  1.00  0.00     0.198 A 
ATOM     81  F   UNL A   1      41.278  27.793  30.820  1.00  0.00    -0.203 F 
ATOM     82  F   UNL A   1      37.576  29.613  27.250  1.00  0.00    -0.200 F 
ATOM     83  C   UNL A   1      38.101  28.815  29.409  1.00  0.00     0.200 A 
ATOM     84  F   UNL A   1      38.682  28.022  31.557  1.00  0.00    -0.200 F 
ATOM     85  F   UNL A   1      36.824  28.954  29.789  1.00  0.00    -0.200 F 
ENDBRANCH  51  75
BRANCH  63  86
ATOM     86  C   UNL A   1      46.083  33.059  28.307  1.00  0.00     0.064 A 
ATOM     87  C   UNL A   1      46.399  33.548  29.583  1.00  0.00     0.173 A 
ATOM     88  C   UNL A   1      45.872  33.991  27.278  1.00  0.00     0.173 A 
ATOM     89  F   UNL A   1      46.595  32.697  30.601  1.00  0.00    -0.203 F 
ATOM     90  C   UNL A   1      46.466  34.916  29.827  1.00  0.00     0.198 A 
ATOM     91  C   UNL A   1      45.969  35.358  27.520  1.00  0.00     0.198 A 
ATOM     92  F   UNL A   1      45.575  33.575  26.038  1.00  0.00    -0.203 F 
ATOM     93  F   UNL A   1      46.713  35.362  31.066  1.00  0.00    -0.200 F 
ATOM     94  C   UNL A   1      46.257  35.820  28.795  1.00  0.00     0.200 A 
ATOM     95  F   UNL A   1      45.780  36.229  26.519  1.00  0.00    -0.200 F 
ATOM     96  F   UNL A   1      46.322  37.138  29.033  1.00  0.00    -0.200 F 
ENDBRANCH  63  86
ENDBRANCH  37  38
ENDBRANCH  29  32
ENDBRANCH  27  28
ENDBRANCH  26  27
ENDBRANCH  25  26
ENDBRANCH   1  25
TORSDOF 17
ENDMDL
