MODEL 1
REMARK VINA RESULT:     -12.4      0.000      0.000
REMARK SMILES O=C(Cc1ccn[nH]1)Nc1sc2c(c1C(=O)NCCCCCCNC(=O)c1ccc(-c3c4nc(c(-c5c(F)c(F)c(F)c(F)c5F)c5ccc([nH]5)c(-c5c(F)c(F)c(F)c(F)c5F)c5nc(c(-c6c(F)c(F)c(F)c(F)c6F)c6ccc3[nH]6)C=C5)C=C4)cc1)CCC2
REMARK SMILES IDX 20 1 19 2 18 3 17 4 15 5 16 6 14 8 10 9 11 10 12 11 13 12
REMARK SMILES IDX 92 13 90 14 91 15 9 16 1 17 2 18 3 20 4 21 5 22 8 23 6 24
REMARK SMILES IDX 7 25 21 27 22 28 23 29 24 30 25 31 26 33 27 34 28 35 89 36
REMARK SMILES IDX 29 37 88 38 30 39 31 40 32 41 82 42 33 43 87 44 81 45 83 46
REMARK SMILES IDX 34 47 86 48 80 49 79 50 35 52 67 53 47 54 66 55 48 56 51 57
REMARK SMILES IDX 65 58 84 59 49 60 50 61 64 63 85 64 52 65 36 66 37 67 45 68
REMARK SMILES IDX 38 69 39 70 43 71 46 72 40 73 41 74 44 75 42 76 68 77 69 78
REMARK SMILES IDX 77 79 70 80 71 81 75 82 78 83 72 84 73 85 76 86 74 87 53 88
REMARK SMILES IDX 54 89 62 90 55 91 56 92 60 93 63 94 57 95 58 96 61 97 59 98
REMARK H PARENT 17 7 9 19 8 26 24 32 83 51 51 62
REMARK Flexibility Score: inf
ROOT
ATOM      1  C   UNL A   1      39.576  21.594  25.895  1.00  0.00     0.002 C 
ENDROOT
BRANCH   1   2
ATOM      2  C   UNL A   1      39.051  22.899  26.504  1.00  0.00     0.021 C 
BRANCH   2   3
ATOM      3  C   UNL A   1      37.656  23.259  26.006  1.00  0.00     0.116 C 
BRANCH   3   4
ATOM      4  N   UNL A   1      37.540  23.067  24.593  1.00  0.00    -0.352 N 
ATOM      5  C   UNL A   1      36.495  22.733  23.781  1.00  0.00     0.254 C 
ATOM      6  O   UNL A   1      36.721  22.990  22.591  1.00  0.00    -0.269 OA
ATOM      7  H   UNL A   1      38.385  23.205  24.108  1.00  0.00     0.163 HD
BRANCH   5   8
ATOM      8  C   UNL A   1      35.180  22.224  24.235  1.00  0.00     0.078 A 
ATOM      9  C   UNL A   1      34.150  23.145  24.462  1.00  0.00     0.108 A 
ATOM     10  S   UNL A   1      32.826  22.558  25.363  1.00  0.00    -0.122 S 
ATOM     11  C   UNL A   1      33.405  21.011  25.178  1.00  0.00     0.011 A 
ATOM     12  C   UNL A   1      34.642  20.924  24.579  1.00  0.00    -0.019 A 
ATOM     13  C   UNL A   1      32.801  19.725  25.596  1.00  0.00     0.047 C 
ATOM     14  C   UNL A   1      35.025  19.479  24.539  1.00  0.00     0.038 C 
ATOM     15  C   UNL A   1      33.696  18.725  24.831  1.00  0.00     0.010 C 
BRANCH   9  16
ATOM     16  N   UNL A   1      33.987  24.471  24.145  1.00  0.00    -0.317 N 
ATOM     17  O   UNL A   1      33.201  24.125  21.982  1.00  0.00    -0.274 OA
ATOM     18  C   UNL A   1      33.576  24.874  22.882  1.00  0.00     0.230 C 
ATOM     19  H   UNL A   1      34.168  25.153  24.830  1.00  0.00     0.170 HD
BRANCH  18  20
ATOM     20  C   UNL A   1      33.563  26.389  22.727  1.00  0.00     0.155 C 
BRANCH  20  21
ATOM     21  C   UNL A   1      32.175  26.939  22.817  1.00  0.00     0.044 A 
ATOM     22  C   UNL A   1      31.235  26.871  23.823  1.00  0.00     0.045 A 
ATOM     23  N   UNL A   1      31.564  27.628  21.803  1.00  0.00    -0.282 N 
ATOM     24  C   UNL A   1      30.118  27.567  23.327  1.00  0.00     0.135 A 
ATOM     25  N   UNL A   1      30.321  28.031  22.094  1.00  0.00    -0.184 NA
ATOM     26  H   UNL A   1      32.000  27.810  20.939  1.00  0.00     0.190 HD
ENDBRANCH  20  21
ENDBRANCH  18  20
ENDBRANCH   9  16
ENDBRANCH   5   8
ENDBRANCH   3   4
ENDBRANCH   2   3
ENDBRANCH   1   2
BRANCH   1  27
ATOM     27  C   UNL A   1      40.502  20.775  26.813  1.00  0.00     0.002 C 
BRANCH  27  28
ATOM     28  C   UNL A   1      41.293  19.652  26.124  1.00  0.00     0.021 C 
BRANCH  28  29
ATOM     29  C   UNL A   1      42.701  19.512  26.678  1.00  0.00     0.116 C 
BRANCH  29  30
ATOM     30  N   UNL A   1      43.689  19.454  25.603  1.00  0.00    -0.352 N 
ATOM     31  C   UNL A   1      44.208  20.485  24.863  1.00  0.00     0.251 C 
ATOM     32  H   UNL A   1      44.027  18.557  25.381  1.00  0.00     0.163 HD
ATOM     33  O   UNL A   1      44.761  20.272  23.780  1.00  0.00    -0.269 OA
BRANCH  31  34
ATOM     34  C   UNL A   1      44.097  21.855  25.375  1.00  0.00     0.039 A 
ATOM     35  C   UNL A   1      43.084  22.706  24.929  1.00  0.00     0.014 A 
ATOM     36  C   UNL A   1      45.025  22.280  26.326  1.00  0.00     0.014 A 
ATOM     37  C   UNL A   1      42.972  23.968  25.499  1.00  0.00     0.010 A 
ATOM     38  C   UNL A   1      44.832  23.466  26.985  1.00  0.00     0.010 A 
ATOM     39  C   UNL A   1      43.841  24.333  26.539  1.00  0.00    -0.014 A 
BRANCH  39  40
ATOM     40  C   UNL A   1      43.639  25.582  27.263  1.00  0.00     0.031 A 
ATOM     41  C   UNL A   1      44.594  26.662  26.886  1.00  0.00     0.074 A 
ATOM     42  C   UNL A   1      42.556  25.809  28.035  1.00  0.00     0.049 A 
ATOM     43  N   UNL A   1      45.475  27.234  27.638  1.00  0.00    -0.248 NA
ATOM     44  C   UNL A   1      44.676  27.060  25.470  1.00  0.00     0.031 C 
ATOM     45  C   UNL A   1      41.380  24.954  28.237  1.00  0.00     0.029 A 
ATOM     46  N   UNL A   1      42.227  26.927  28.737  1.00  0.00    -0.354 N 
ATOM     47  C   UNL A   1      46.094  28.198  26.846  1.00  0.00     0.074 A 
ATOM     48  C   UNL A   1      45.688  27.929  25.492  1.00  0.00     0.031 C 
ATOM     49  C   UNL A   1      40.384  25.674  28.799  1.00  0.00     0.029 A 
ATOM     50  C   UNL A   1      40.901  26.983  29.151  1.00  0.00     0.049 A 
ATOM     51  H   UNL A   1      42.877  27.640  28.936  1.00  0.00     0.167 HD
ATOM     52  C   UNL A   1      46.694  29.282  27.413  1.00  0.00     0.037 A 
ATOM     53  C   UNL A   1      40.274  28.052  29.705  1.00  0.00     0.037 A 
ATOM     54  C   UNL A   1      46.965  29.043  28.810  1.00  0.00     0.049 A 
ATOM     55  C   UNL A   1      41.332  28.959  30.220  1.00  0.00     0.074 A 
ATOM     56  C   UNL A   1      47.710  28.109  29.504  1.00  0.00     0.029 A 
ATOM     57  N   UNL A   1      46.111  29.592  29.736  1.00  0.00    -0.354 N 
ATOM     58  N   UNL A   1      42.115  28.662  31.219  1.00  0.00    -0.248 NA
ATOM     59  C   UNL A   1      41.833  29.979  29.311  1.00  0.00     0.031 C 
ATOM     60  C   UNL A   1      46.921  27.788  30.649  1.00  0.00     0.029 A 
ATOM     61  C   UNL A   1      45.790  28.605  30.630  1.00  0.00     0.049 A 
ATOM     62  H   UNL A   1      45.791  30.522  29.753  1.00  0.00     0.167 HD
ATOM     63  C   UNL A   1      43.367  29.112  30.828  1.00  0.00     0.074 A 
ATOM     64  C   UNL A   1      43.119  29.973  29.672  1.00  0.00     0.031 C 
ATOM     65  C   UNL A   1      44.506  28.514  31.284  1.00  0.00     0.037 A 
BRANCH  52  66
ATOM     66  C   UNL A   1      46.674  30.678  26.830  1.00  0.00     0.064 A 
ATOM     67  C   UNL A   1      47.861  31.439  26.852  1.00  0.00     0.173 A 
ATOM     68  C   UNL A   1      45.496  31.406  26.555  1.00  0.00     0.173 A 
ATOM     69  F   UNL A   1      49.044  30.857  27.104  1.00  0.00    -0.203 F 
ATOM     70  C   UNL A   1      47.853  32.831  26.723  1.00  0.00     0.198 A 
ATOM     71  C   UNL A   1      45.499  32.789  26.374  1.00  0.00     0.198 A 
ATOM     72  F   UNL A   1      44.284  30.843  26.558  1.00  0.00    -0.203 F 
ATOM     73  F   UNL A   1      48.987  33.522  26.895  1.00  0.00    -0.200 F 
ATOM     74  C   UNL A   1      46.669  33.506  26.495  1.00  0.00     0.200 A 
ATOM     75  F   UNL A   1      44.337  33.425  26.168  1.00  0.00    -0.200 F 
ATOM     76  F   UNL A   1      46.645  34.844  26.443  1.00  0.00    -0.200 F 
ENDBRANCH  52  66
BRANCH  53  77
ATOM     77  C   UNL A   1      38.872  28.499  29.513  1.00  0.00     0.064 A 
ATOM     78  C   UNL A   1      38.031  28.741  30.614  1.00  0.00     0.173 A 
ATOM     79  C   UNL A   1      38.421  28.976  28.267  1.00  0.00     0.173 A 
ATOM     80  F   UNL A   1      38.407  28.363  31.844  1.00  0.00    -0.203 F 
ATOM     81  C   UNL A   1      36.828  29.444  30.479  1.00  0.00     0.198 A 
ATOM     82  C   UNL A   1      37.217  29.673  28.134  1.00  0.00     0.198 A 
ATOM     83  F   UNL A   1      39.185  28.866  27.172  1.00  0.00    -0.203 F 
ATOM     84  F   UNL A   1      36.086  29.713  31.563  1.00  0.00    -0.200 F 
ATOM     85  C   UNL A   1      36.428  29.918  29.242  1.00  0.00     0.200 A 
ATOM     86  F   UNL A   1      36.863  30.162  26.937  1.00  0.00    -0.200 F 
ATOM     87  F   UNL A   1      35.310  30.649  29.123  1.00  0.00    -0.200 F 
ENDBRANCH  53  77
BRANCH  65  88
ATOM     88  C   UNL A   1      44.388  27.519  32.406  1.00  0.00     0.064 A 
ATOM     89  C   UNL A   1      44.235  27.864  33.760  1.00  0.00     0.173 A 
ATOM     90  C   UNL A   1      44.270  26.164  32.072  1.00  0.00     0.173 A 
ATOM     91  F   UNL A   1      44.235  29.143  34.153  1.00  0.00    -0.203 F 
ATOM     92  C   UNL A   1      44.015  26.890  34.735  1.00  0.00     0.198 A 
ATOM     93  C   UNL A   1      44.012  25.198  33.041  1.00  0.00     0.198 A 
ATOM     94  F   UNL A   1      44.354  25.779  30.788  1.00  0.00    -0.203 F 
ATOM     95  F   UNL A   1      43.881  27.245  36.022  1.00  0.00    -0.200 F 
ATOM     96  C   UNL A   1      43.895  25.559  34.372  1.00  0.00     0.200 A 
ATOM     97  F   UNL A   1      43.847  23.919  32.676  1.00  0.00    -0.200 F 
ATOM     98  F   UNL A   1      43.639  24.627  35.301  1.00  0.00    -0.200 F 
ENDBRANCH  65  88
ENDBRANCH  39  40
ENDBRANCH  31  34
ENDBRANCH  29  30
ENDBRANCH  28  29
ENDBRANCH  27  28
ENDBRANCH   1  27
TORSDOF 16
ENDMDL
MODEL 2
REMARK VINA RESULT:     -12.2      3.295      8.564
REMARK SMILES O=C(Cc1ccn[nH]1)Nc1sc2c(c1C(=O)NCCCCCCNC(=O)c1ccc(-c3c4nc(c(-c5c(F)c(F)c(F)c(F)c5F)c5ccc([nH]5)c(-c5c(F)c(F)c(F)c(F)c5F)c5nc(c(-c6c(F)c(F)c(F)c(F)c6F)c6ccc3[nH]6)C=C5)C=C4)cc1)CCC2
REMARK SMILES IDX 20 1 19 2 18 3 17 4 15 5 16 6 14 8 10 9 11 10 12 11 13 12
REMARK SMILES IDX 92 13 90 14 91 15 9 16 1 17 2 18 3 20 4 21 5 22 8 23 6 24
REMARK SMILES IDX 7 25 21 27 22 28 23 29 24 30 25 31 26 33 27 34 28 35 89 36
REMARK SMILES IDX 29 37 88 38 30 39 31 40 32 41 82 42 33 43 87 44 81 45 83 46
REMARK SMILES IDX 34 47 86 48 80 49 79 50 35 52 67 53 47 54 66 55 48 56 51 57
REMARK SMILES IDX 65 58 84 59 49 60 50 61 64 63 85 64 52 65 36 66 37 67 45 68
REMARK SMILES IDX 38 69 39 70 43 71 46 72 40 73 41 74 44 75 42 76 68 77 69 78
REMARK SMILES IDX 77 79 70 80 71 81 75 82 78 83 72 84 73 85 76 86 74 87 53 88
REMARK SMILES IDX 54 89 62 90 55 91 56 92 60 93 63 94 57 95 58 96 61 97 59 98
REMARK H PARENT 17 7 9 19 8 26 24 32 83 51 51 62
REMARK Flexibility Score: inf
ROOT
ATOM      1  C   UNL A   1      33.865  28.215  25.403  1.00  0.00     0.002 C 
ENDROOT
BRANCH   1   2
ATOM      2  C   UNL A   1      33.390  28.711  24.032  1.00  0.00     0.021 C 
BRANCH   2   3
ATOM      3  C   UNL A   1      34.113  28.025  22.879  1.00  0.00     0.116 C 
BRANCH   3   4
ATOM      4  N   UNL A   1      33.191  27.406  21.977  1.00  0.00    -0.352 N 
ATOM      5  C   UNL A   1      32.061  26.666  22.162  1.00  0.00     0.254 C 
ATOM      6  O   UNL A   1      31.369  26.594  21.139  1.00  0.00    -0.269 OA
ATOM      7  H   UNL A   1      33.419  27.544  21.029  1.00  0.00     0.163 HD
BRANCH   5   8
ATOM      8  C   UNL A   1      31.613  26.086  23.451  1.00  0.00     0.078 A 
ATOM      9  C   UNL A   1      30.355  26.450  23.945  1.00  0.00     0.108 A 
ATOM     10  S   UNL A   1      30.080  26.092  25.590  1.00  0.00    -0.122 S 
ATOM     11  C   UNL A   1      31.450  25.150  25.597  1.00  0.00     0.011 A 
ATOM     12  C   UNL A   1      32.195  25.203  24.440  1.00  0.00    -0.019 A 
ATOM     13  C   UNL A   1      31.998  24.297  26.677  1.00  0.00     0.047 C 
ATOM     14  C   UNL A   1      33.403  24.345  24.640  1.00  0.00     0.038 C 
ATOM     15  C   UNL A   1      33.061  23.493  25.896  1.00  0.00     0.010 C 
BRANCH   9  16
ATOM     16  N   UNL A   1      29.277  27.094  23.390  1.00  0.00    -0.317 N 
ATOM     17  O   UNL A   1      30.105  29.254  23.646  1.00  0.00    -0.274 OA
ATOM     18  C   UNL A   1      29.202  28.480  23.336  1.00  0.00     0.230 C 
ATOM     19  H   UNL A   1      28.538  26.560  23.020  1.00  0.00     0.170 HD
BRANCH  18  20
ATOM     20  C   UNL A   1      27.877  28.972  22.772  1.00  0.00     0.155 C 
BRANCH  20  21
ATOM     21  C   UNL A   1      27.947  30.414  22.382  1.00  0.00     0.044 A 
ATOM     22  C   UNL A   1      27.974  31.021  21.144  1.00  0.00     0.045 A 
ATOM     23  N   UNL A   1      28.036  31.441  23.285  1.00  0.00    -0.282 N 
ATOM     24  C   UNL A   1      28.052  32.399  21.414  1.00  0.00     0.135 A 
ATOM     25  N   UNL A   1      28.087  32.655  22.722  1.00  0.00    -0.184 NA
ATOM     26  H   UNL A   1      28.060  31.299  24.259  1.00  0.00     0.190 HD
ENDBRANCH  20  21
ENDBRANCH  18  20
ENDBRANCH   9  16
ENDBRANCH   5   8
ENDBRANCH   3   4
ENDBRANCH   2   3
ENDBRANCH   1   2
BRANCH   1  27
ATOM     27  C   UNL A   1      33.055  28.742  26.601  1.00  0.00     0.002 C 
BRANCH  27  28
ATOM     28  C   UNL A   1      33.213  30.242  26.900  1.00  0.00     0.021 C 
BRANCH  28  29
ATOM     29  C   UNL A   1      34.536  30.563  27.573  1.00  0.00     0.116 C 
BRANCH  29  30
ATOM     30  N   UNL A   1      34.397  31.673  28.514  1.00  0.00    -0.352 N 
ATOM     31  C   UNL A   1      35.088  31.900  29.675  1.00  0.00     0.251 C 
ATOM     32  H   UNL A   1      33.717  32.345  28.282  1.00  0.00     0.163 HD
ATOM     33  O   UNL A   1      34.647  32.669  30.534  1.00  0.00    -0.269 OA
BRANCH  31  34
ATOM     34  C   UNL A   1      36.367  31.215  29.889  1.00  0.00     0.039 A 
ATOM     35  C   UNL A   1      36.404  29.868  30.253  1.00  0.00     0.014 A 
ATOM     36  C   UNL A   1      37.544  31.943  29.708  1.00  0.00     0.014 A 
ATOM     37  C   UNL A   1      37.639  29.241  30.368  1.00  0.00     0.010 A 
ATOM     38  C   UNL A   1      38.750  31.294  29.685  1.00  0.00     0.010 A 
ATOM     39  C   UNL A   1      38.807  29.959  30.066  1.00  0.00    -0.014 A 
BRANCH  39  40
ATOM     40  C   UNL A   1      40.096  29.281  30.019  1.00  0.00     0.031 A 
ATOM     41  C   UNL A   1      40.723  29.078  31.355  1.00  0.00     0.074 A 
ATOM     42  C   UNL A   1      40.571  28.696  28.899  1.00  0.00     0.049 A 
ATOM     43  N   UNL A   1      41.836  29.571  31.787  1.00  0.00    -0.248 NA
ATOM     44  C   UNL A   1      39.957  28.353  32.384  1.00  0.00     0.031 C 
ATOM     45  C   UNL A   1      39.912  28.542  27.597  1.00  0.00     0.029 A 
ATOM     46  N   UNL A   1      41.733  28.011  28.721  1.00  0.00    -0.354 N 
ATOM     47  C   UNL A   1      42.010  29.066  33.075  1.00  0.00     0.074 A 
ATOM     48  C   UNL A   1      40.754  28.472  33.448  1.00  0.00     0.031 C 
ATOM     49  C   UNL A   1      40.569  27.619  26.861  1.00  0.00     0.029 A 
ATOM     50  C   UNL A   1      41.781  27.243  27.562  1.00  0.00     0.049 A 
ATOM     51  H   UNL A   1      42.479  28.055  29.361  1.00  0.00     0.167 HD
ATOM     52  C   UNL A   1      43.254  28.973  33.621  1.00  0.00     0.037 A 
ATOM     53  C   UNL A   1      42.738  26.337  27.235  1.00  0.00     0.037 A 
ATOM     54  C   UNL A   1      44.186  29.822  32.919  1.00  0.00     0.049 A 
ATOM     55  C   UNL A   1      43.931  26.643  28.066  1.00  0.00     0.074 A 
ATOM     56  C   UNL A   1      44.259  31.180  32.673  1.00  0.00     0.029 A 
ATOM     57  N   UNL A   1      45.031  29.238  32.008  1.00  0.00    -0.354 N 
ATOM     58  N   UNL A   1      44.645  27.726  27.933  1.00  0.00    -0.248 NA
ATOM     59  C   UNL A   1      44.028  25.981  29.358  1.00  0.00     0.031 C 
ATOM     60  C   UNL A   1      44.720  31.284  31.327  1.00  0.00     0.029 A 
ATOM     61  C   UNL A   1      44.983  29.994  30.865  1.00  0.00     0.049 A 
ATOM     62  H   UNL A   1      45.571  28.428  32.149  1.00  0.00     0.167 HD
ATOM     63  C   UNL A   1      44.922  28.123  29.233  1.00  0.00     0.074 A 
ATOM     64  C   UNL A   1      44.572  26.975  30.067  1.00  0.00     0.031 C 
ATOM     65  C   UNL A   1      45.122  29.438  29.540  1.00  0.00     0.037 A 
BRANCH  52  66
ATOM     66  C   UNL A   1      43.719  27.839  34.510  1.00  0.00     0.064 A 
ATOM     67  C   UNL A   1      43.646  26.519  34.018  1.00  0.00     0.173 A 
ATOM     68  C   UNL A   1      43.919  27.953  35.902  1.00  0.00     0.173 A 
ATOM     69  F   UNL A   1      43.458  26.284  32.710  1.00  0.00    -0.203 F 
ATOM     70  C   UNL A   1      43.659  25.409  34.867  1.00  0.00     0.198 A 
ATOM     71  C   UNL A   1      43.984  26.840  36.741  1.00  0.00     0.198 A 
ATOM     72  F   UNL A   1      43.949  29.132  36.531  1.00  0.00    -0.203 F 
ATOM     73  F   UNL A   1      43.442  24.186  34.366  1.00  0.00    -0.200 F 
ATOM     74  C   UNL A   1      43.816  25.572  36.230  1.00  0.00     0.200 A 
ATOM     75  F   UNL A   1      44.123  27.022  38.062  1.00  0.00    -0.200 F 
ATOM     76  F   UNL A   1      43.756  24.519  37.054  1.00  0.00    -0.200 F 
ENDBRANCH  52  66
BRANCH  53  77
ATOM     77  C   UNL A   1      42.576  25.042  26.529  1.00  0.00     0.064 A 
ATOM     78  C   UNL A   1      43.356  24.730  25.402  1.00  0.00     0.173 A 
ATOM     79  C   UNL A   1      41.867  23.973  27.112  1.00  0.00     0.173 A 
ATOM     80  F   UNL A   1      44.101  25.677  24.815  1.00  0.00    -0.203 F 
ATOM     81  C   UNL A   1      43.445  23.423  24.909  1.00  0.00     0.198 A 
ATOM     82  C   UNL A   1      41.953  22.671  26.615  1.00  0.00     0.198 A 
ATOM     83  F   UNL A   1      41.159  24.151  28.235  1.00  0.00    -0.203 F 
ATOM     84  F   UNL A   1      44.252  23.152  23.873  1.00  0.00    -0.200 F 
ATOM     85  C   UNL A   1      42.752  22.393  25.522  1.00  0.00     0.200 A 
ATOM     86  F   UNL A   1      41.310  21.678  27.245  1.00  0.00    -0.200 F 
ATOM     87  F   UNL A   1      42.888  21.131  25.092  1.00  0.00    -0.200 F 
ENDBRANCH  53  77
BRANCH  65  88
ATOM     88  C   UNL A   1      45.281  30.418  28.410  1.00  0.00     0.064 A 
ATOM     89  C   UNL A   1      44.215  31.091  27.787  1.00  0.00     0.173 A 
ATOM     90  C   UNL A   1      46.579  30.803  28.051  1.00  0.00     0.173 A 
ATOM     91  F   UNL A   1      42.946  30.855  28.142  1.00  0.00    -0.203 F 
ATOM     92  C   UNL A   1      44.443  32.073  26.823  1.00  0.00     0.198 A 
ATOM     93  C   UNL A   1      46.804  31.810  27.117  1.00  0.00     0.198 A 
ATOM     94  F   UNL A   1      47.637  30.234  28.650  1.00  0.00    -0.203 F 
ATOM     95  F   UNL A   1      43.408  32.694  26.237  1.00  0.00    -0.200 F 
ATOM     96  C   UNL A   1      45.738  32.437  26.496  1.00  0.00     0.200 A 
ATOM     97  F   UNL A   1      48.060  32.192  26.843  1.00  0.00    -0.200 F 
ATOM     98  F   UNL A   1      45.959  33.412  25.602  1.00  0.00    -0.200 F 
ENDBRANCH  65  88
ENDBRANCH  39  40
ENDBRANCH  31  34
ENDBRANCH  29  30
ENDBRANCH  28  29
ENDBRANCH  27  28
ENDBRANCH   1  27
TORSDOF 16
ENDMDL
MODEL 3
REMARK VINA RESULT:     -12.0      3.148      8.794
REMARK SMILES O=C(Cc1ccn[nH]1)Nc1sc2c(c1C(=O)NCCCCCCNC(=O)c1ccc(-c3c4nc(c(-c5c(F)c(F)c(F)c(F)c5F)c5ccc([nH]5)c(-c5c(F)c(F)c(F)c(F)c5F)c5nc(c(-c6c(F)c(F)c(F)c(F)c6F)c6ccc3[nH]6)C=C5)C=C4)cc1)CCC2
REMARK SMILES IDX 20 1 19 2 18 3 17 4 15 5 16 6 14 8 10 9 11 10 12 11 13 12
REMARK SMILES IDX 92 13 90 14 91 15 9 16 1 17 2 18 3 20 4 21 5 22 8 23 6 24
REMARK SMILES IDX 7 25 21 27 22 28 23 29 24 30 25 31 26 33 27 34 28 35 89 36
REMARK SMILES IDX 29 37 88 38 30 39 31 40 32 41 82 42 33 43 87 44 81 45 83 46
REMARK SMILES IDX 34 47 86 48 80 49 79 50 35 52 67 53 47 54 66 55 48 56 51 57
REMARK SMILES IDX 65 58 84 59 49 60 50 61 64 63 85 64 52 65 36 66 37 67 45 68
REMARK SMILES IDX 38 69 39 70 43 71 46 72 40 73 41 74 44 75 42 76 68 77 69 78
REMARK SMILES IDX 77 79 70 80 71 81 75 82 78 83 72 84 73 85 76 86 74 87 53 88
REMARK SMILES IDX 54 89 62 90 55 91 56 92 60 93 63 94 57 95 58 96 61 97 59 98
REMARK H PARENT 17 7 9 19 8 26 24 32 83 51 51 62
REMARK Flexibility Score: inf
ROOT
ATOM      1  C   UNL A   1      32.521  29.194  25.686  1.00  0.00     0.002 C 
ENDROOT
BRANCH   1   2
ATOM      2  C   UNL A   1      33.733  28.348  25.279  1.00  0.00     0.021 C 
BRANCH   2   3
ATOM      3  C   UNL A   1      33.850  28.179  23.769  1.00  0.00     0.116 C 
BRANCH   3   4
ATOM      4  N   UNL A   1      33.523  26.847  23.364  1.00  0.00    -0.352 N 
ATOM      5  C   UNL A   1      32.347  26.229  23.052  1.00  0.00     0.254 C 
ATOM      6  O   UNL A   1      32.518  25.171  22.435  1.00  0.00    -0.269 OA
ATOM      7  H   UNL A   1      34.306  26.255  23.295  1.00  0.00     0.163 HD
BRANCH   5   8
ATOM      8  C   UNL A   1      30.994  26.779  23.303  1.00  0.00     0.078 A 
ATOM      9  C   UNL A   1      30.070  25.986  23.996  1.00  0.00     0.108 A 
ATOM     10  S   UNL A   1      28.445  26.490  23.889  1.00  0.00    -0.122 S 
ATOM     11  C   UNL A   1      28.950  27.931  23.234  1.00  0.00     0.011 A 
ATOM     12  C   UNL A   1      30.298  28.001  22.958  1.00  0.00    -0.019 A 
ATOM     13  C   UNL A   1      28.158  29.129  22.874  1.00  0.00     0.047 C 
ATOM     14  C   UNL A   1      30.565  29.333  22.334  1.00  0.00     0.038 C 
ATOM     15  C   UNL A   1      29.284  30.161  22.644  1.00  0.00     0.010 C 
BRANCH   9  16
ATOM     16  N   UNL A   1      30.186  24.831  24.730  1.00  0.00    -0.317 N 
ATOM     17  O   UNL A   1      30.702  25.861  26.753  1.00  0.00    -0.274 OA
ATOM     18  C   UNL A   1      30.562  24.851  26.067  1.00  0.00     0.230 C 
ATOM     19  H   UNL A   1      29.999  23.968  24.298  1.00  0.00     0.170 HD
BRANCH  18  20
ATOM     20  C   UNL A   1      30.724  23.453  26.649  1.00  0.00     0.155 C 
BRANCH  20  21
ATOM     21  C   UNL A   1      32.162  23.122  26.891  1.00  0.00     0.044 A 
ATOM     22  C   UNL A   1      33.319  23.666  26.375  1.00  0.00     0.045 A 
ATOM     23  N   UNL A   1      32.580  22.110  27.715  1.00  0.00    -0.282 N 
ATOM     24  C   UNL A   1      34.363  22.934  26.967  1.00  0.00     0.135 A 
ATOM     25  N   UNL A   1      33.911  21.985  27.788  1.00  0.00    -0.184 NA
ATOM     26  H   UNL A   1      31.958  21.527  28.207  1.00  0.00     0.190 HD
ENDBRANCH  20  21
ENDBRANCH  18  20
ENDBRANCH   9  16
ENDBRANCH   5   8
ENDBRANCH   3   4
ENDBRANCH   2   3
ENDBRANCH   1   2
BRANCH   1  27
ATOM     27  C   UNL A   1      32.828  30.341  26.665  1.00  0.00     0.002 C 
BRANCH  27  28
ATOM     28  C   UNL A   1      34.078  30.151  27.538  1.00  0.00     0.021 C 
BRANCH  28  29
ATOM     29  C   UNL A   1      34.928  31.409  27.614  1.00  0.00     0.116 C 
BRANCH  29  30
ATOM     30  N   UNL A   1      34.626  32.179  28.819  1.00  0.00    -0.352 N 
ATOM     31  C   UNL A   1      35.146  32.034  30.079  1.00  0.00     0.251 C 
ATOM     32  H   UNL A   1      33.962  32.897  28.712  1.00  0.00     0.163 HD
ATOM     33  O   UNL A   1      34.568  32.507  31.061  1.00  0.00    -0.269 OA
BRANCH  31  34
ATOM     34  C   UNL A   1      36.407  31.304  30.249  1.00  0.00     0.039 A 
ATOM     35  C   UNL A   1      36.409  29.932  30.507  1.00  0.00     0.014 A 
ATOM     36  C   UNL A   1      37.602  32.015  30.135  1.00  0.00     0.014 A 
ATOM     37  C   UNL A   1      37.628  29.268  30.583  1.00  0.00     0.010 A 
ATOM     38  C   UNL A   1      38.793  31.342  30.072  1.00  0.00     0.010 A 
ATOM     39  C   UNL A   1      38.815  29.980  30.347  1.00  0.00    -0.014 A 
BRANCH  39  40
ATOM     40  C   UNL A   1      40.089  29.278  30.258  1.00  0.00     0.031 A 
ATOM     41  C   UNL A   1      40.764  29.078  31.572  1.00  0.00     0.074 A 
ATOM     42  C   UNL A   1      40.509  28.671  29.128  1.00  0.00     0.049 A 
ATOM     43  N   UNL A   1      41.902  29.554  31.954  1.00  0.00    -0.248 NA
ATOM     44  C   UNL A   1      40.025  28.379  32.638  1.00  0.00     0.031 C 
ATOM     45  C   UNL A   1      39.796  28.515  27.854  1.00  0.00     0.029 A 
ATOM     46  N   UNL A   1      41.650  27.962  28.913  1.00  0.00    -0.354 N 
ATOM     47  C   UNL A   1      42.117  29.061  33.240  1.00  0.00     0.074 A 
ATOM     48  C   UNL A   1      40.865  28.495  33.668  1.00  0.00     0.031 C 
ATOM     49  C   UNL A   1      40.407  27.571  27.104  1.00  0.00     0.029 A 
ATOM     50  C   UNL A   1      41.639  27.181  27.763  1.00  0.00     0.049 A 
ATOM     51  H   UNL A   1      42.421  27.999  29.523  1.00  0.00     0.167 HD
ATOM     52  C   UNL A   1      43.380  28.950  33.739  1.00  0.00     0.037 A 
ATOM     53  C   UNL A   1      42.565  26.253  27.410  1.00  0.00     0.037 A 
ATOM     54  C   UNL A   1      44.298  29.774  32.991  1.00  0.00     0.049 A 
ATOM     55  C   UNL A   1      43.795  26.546  28.190  1.00  0.00     0.074 A 
ATOM     56  C   UNL A   1      44.387  31.128  32.726  1.00  0.00     0.029 A 
ATOM     57  N   UNL A   1      45.096  29.164  32.054  1.00  0.00    -0.354 N 
ATOM     58  N   UNL A   1      44.523  27.613  28.016  1.00  0.00    -0.248 NA
ATOM     59  C   UNL A   1      43.931  25.897  29.485  1.00  0.00     0.031 C 
ATOM     60  C   UNL A   1      44.797  31.208  31.361  1.00  0.00     0.029 A 
ATOM     61  C   UNL A   1      45.018  29.908  30.905  1.00  0.00     0.049 A 
ATOM     62  H   UNL A   1      45.626  28.346  32.184  1.00  0.00     0.167 HD
ATOM     63  C   UNL A   1      44.858  28.020  29.299  1.00  0.00     0.074 A 
ATOM     64  C   UNL A   1      44.520  26.888  30.160  1.00  0.00     0.031 C 
ATOM     65  C   UNL A   1      45.095  29.334  29.583  1.00  0.00     0.037 A 
BRANCH  52  66
ATOM     66  C   UNL A   1      43.857  27.818  34.621  1.00  0.00     0.064 A 
ATOM     67  C   UNL A   1      44.499  28.132  35.838  1.00  0.00     0.173 A 
ATOM     68  C   UNL A   1      44.006  26.483  34.189  1.00  0.00     0.173 A 
ATOM     69  F   UNL A   1      44.429  29.371  36.350  1.00  0.00    -0.203 F 
ATOM     70  C   UNL A   1      45.314  27.214  36.505  1.00  0.00     0.198 A 
ATOM     71  C   UNL A   1      44.778  25.554  34.886  1.00  0.00     0.198 A 
ATOM     72  F   UNL A   1      43.511  26.043  33.028  1.00  0.00    -0.203 F 
ATOM     73  F   UNL A   1      46.015  27.603  37.578  1.00  0.00    -0.200 F 
ATOM     74  C   UNL A   1      45.462  25.928  36.022  1.00  0.00     0.200 A 
ATOM     75  F   UNL A   1      44.919  24.316  34.391  1.00  0.00    -0.200 F 
ATOM     76  F   UNL A   1      46.298  25.067  36.616  1.00  0.00    -0.200 F 
ENDBRANCH  52  66
BRANCH  53  77
ATOM     77  C   UNL A   1      42.352  24.954  26.725  1.00  0.00     0.064 A 
ATOM     78  C   UNL A   1      43.096  24.605  25.585  1.00  0.00     0.173 A 
ATOM     79  C   UNL A   1      41.630  23.912  27.341  1.00  0.00     0.173 A 
ATOM     80  F   UNL A   1      43.850  25.525  24.966  1.00  0.00    -0.203 F 
ATOM     81  C   UNL A   1      43.138  23.290  25.108  1.00  0.00     0.198 A 
ATOM     82  C   UNL A   1      41.669  22.601  26.860  1.00  0.00     0.198 A 
ATOM     83  F   UNL A   1      40.954  24.124  28.478  1.00  0.00    -0.203 F 
ATOM     84  F   UNL A   1      43.911  22.984  24.056  1.00  0.00    -0.200 F 
ATOM     85  C   UNL A   1      42.433  22.288  25.752  1.00  0.00     0.200 A 
ATOM     86  F   UNL A   1      41.015  21.634  27.519  1.00  0.00    -0.200 F 
ATOM     87  F   UNL A   1      42.526  21.016  25.336  1.00  0.00    -0.200 F 
ENDBRANCH  53  77
BRANCH  65  88
ATOM     88  C   UNL A   1      45.227  30.298  28.435  1.00  0.00     0.064 A 
ATOM     89  C   UNL A   1      44.151  30.993  27.854  1.00  0.00     0.173 A 
ATOM     90  C   UNL A   1      46.517  30.644  28.013  1.00  0.00     0.173 A 
ATOM     91  F   UNL A   1      42.895  30.795  28.269  1.00  0.00    -0.203 F 
ATOM     92  C   UNL A   1      44.360  31.959  26.869  1.00  0.00     0.198 A 
ATOM     93  C   UNL A   1      46.725  31.636  27.059  1.00  0.00     0.198 A 
ATOM     94  F   UNL A   1      47.586  30.053  28.570  1.00  0.00    -0.203 F 
ATOM     95  F   UNL A   1      43.317  32.602  26.325  1.00  0.00    -0.200 F 
ATOM     96  C   UNL A   1      45.648  32.285  26.479  1.00  0.00     0.200 A 
ATOM     97  F   UNL A   1      47.976  31.981  26.722  1.00  0.00    -0.200 F 
ATOM     98  F   UNL A   1      45.854  33.244  25.566  1.00  0.00    -0.200 F 
ENDBRANCH  65  88
ENDBRANCH  39  40
ENDBRANCH  31  34
ENDBRANCH  29  30
ENDBRANCH  28  29
ENDBRANCH  27  28
ENDBRANCH   1  27
TORSDOF 16
ENDMDL
