MODEL 1
REMARK VINA RESULT:     -12.0      0.000      0.000
REMARK SMILES CC(C)[NH2+][C@@]1(C(=O)NCCCCCCNC(=O)c2ccc(-c3c4nc(c(-c5c(F)c(F)c(F)c(F)c5F)c5ccc([nH]5)c(-c5c(F)c(F)c(F)c(F)c5F)c5nc(c(-c6c(F)c(F)c(F)c(F)c6F)c6ccc3[nH]6)C=C5)C=C4)cc2)CC[C@@H](Sc2ccncc2)C1
REMARK SMILES IDX 11 1 10 2 9 3 8 4 6 5 7 6 5 8 81 9 91 10 82 11 83 12 4 13
REMARK SMILES IDX 2 16 1 17 3 18 84 19 85 20 86 21 90 22 87 23 89 24 88 25
REMARK SMILES IDX 12 26 13 27 14 28 15 29 16 30 17 32 18 33 19 34 80 35 20 36
REMARK SMILES IDX 79 37 21 38 22 39 23 40 73 41 24 42 78 43 72 44 74 45 25 46
REMARK SMILES IDX 77 47 71 48 70 49 26 51 58 52 38 53 57 54 39 55 42 56 56 57
REMARK SMILES IDX 75 58 40 59 41 60 55 62 76 63 43 64 27 65 28 66 36 67 29 68
REMARK SMILES IDX 30 69 34 70 37 71 31 72 32 73 35 74 33 75 59 76 60 77 68 78
REMARK SMILES IDX 61 79 62 80 66 81 69 82 63 83 64 84 67 85 65 86 44 87 45 88
REMARK SMILES IDX 53 89 46 90 47 91 51 92 54 93 48 94 49 95 52 96 50 97
REMARK H PARENT 8 7 4 14 4 15 15 31 74 50 42 61
REMARK Flexibility Score: inf
ROOT
ATOM      1  C   UNL A   1      33.123  30.259  26.648  1.00  0.00     0.002 C 
ENDROOT
BRANCH   1   2
ATOM      2  C   UNL A   1      33.148  29.043  27.575  1.00  0.00     0.021 C 
BRANCH   2   3
ATOM      3  C   UNL A   1      33.585  27.758  26.880  1.00  0.00     0.116 C 
BRANCH   3   4
ATOM      4  N   UNL A   1      34.000  27.980  25.523  1.00  0.00    -0.351 N 
ATOM      5  C   UNL A   1      33.399  27.742  24.327  1.00  0.00     0.281 C 
ATOM      6  O   UNL A   1      34.102  28.049  23.354  1.00  0.00    -0.268 OA
ATOM      7  H   UNL A   1      34.895  28.382  25.443  1.00  0.00     0.163 HD
BRANCH   5   8
ATOM      8  C   UNL A   1      31.962  27.078  24.162  1.00  0.00     0.176 C 
ATOM      9  C   UNL A   1      31.679  26.348  22.840  1.00  0.00     0.080 C 
ATOM     10  C   UNL A   1      30.869  28.174  24.253  1.00  0.00     0.094 C 
ATOM     11  C   UNL A   1      30.699  27.159  22.000  1.00  0.00     0.022 C 
ATOM     12  C   UNL A   1      30.241  28.332  22.863  1.00  0.00     0.058 C 
BRANCH   8  13
ATOM     13  N   UNL A   1      31.739  26.145  25.310  1.00  0.00    -0.332 N 
ATOM     14  H   UNL A   1      32.423  26.379  26.030  1.00  0.00     0.347 HD
ATOM     15  H   UNL A   1      30.763  26.284  25.569  1.00  0.00     0.347 HD
BRANCH  13  16
ATOM     16  C   UNL A   1      31.852  24.698  25.052  1.00  0.00     0.176 C 
ATOM     17  C   UNL A   1      33.256  24.268  25.491  1.00  0.00     0.075 C 
ATOM     18  C   UNL A   1      30.824  23.863  25.823  1.00  0.00     0.075 C 
ENDBRANCH  13  16
ENDBRANCH   8  13
BRANCH  12  19
ATOM     19  S   UNL A   1      28.427  28.634  22.869  1.00  0.00    -0.122 SA
BRANCH  19  20
ATOM     20  C   UNL A   1      28.338  30.372  22.485  1.00  0.00     0.011 A 
ATOM     21  C   UNL A   1      28.510  31.336  23.473  1.00  0.00     0.035 A 
ATOM     22  C   UNL A   1      28.106  30.778  21.171  1.00  0.00     0.035 A 
ATOM     23  C   UNL A   1      28.390  32.667  23.115  1.00  0.00     0.112 A 
ATOM     24  C   UNL A   1      28.001  32.133  20.913  1.00  0.00     0.112 A 
ATOM     25  N   UNL A   1      28.126  33.086  21.860  1.00  0.00    -0.265 NA
ENDBRANCH  19  20
ENDBRANCH  12  19
ENDBRANCH   5   8
ENDBRANCH   3   4
ENDBRANCH   2   3
ENDBRANCH   1   2
BRANCH   1  26
ATOM     26  C   UNL A   1      31.724  30.824  26.365  1.00  0.00     0.002 C 
BRANCH  26  27
ATOM     27  C   UNL A   1      31.546  32.311  26.685  1.00  0.00     0.021 C 
BRANCH  27  28
ATOM     28  C   UNL A   1      32.767  32.970  27.319  1.00  0.00     0.116 C 
BRANCH  28  29
ATOM     29  N   UNL A   1      32.513  34.362  27.656  1.00  0.00    -0.352 N 
ATOM     30  C   UNL A   1      33.033  35.128  28.666  1.00  0.00     0.251 C 
ATOM     31  H   UNL A   1      31.871  34.824  27.069  1.00  0.00     0.163 HD
ATOM     32  O   UNL A   1      32.519  36.206  28.957  1.00  0.00    -0.269 OA
BRANCH  30  33
ATOM     33  C   UNL A   1      34.208  34.648  29.416  1.00  0.00     0.039 A 
ATOM     34  C   UNL A   1      34.035  34.166  30.716  1.00  0.00     0.014 A 
ATOM     35  C   UNL A   1      35.480  34.675  28.834  1.00  0.00     0.014 A 
ATOM     36  C   UNL A   1      35.127  33.638  31.405  1.00  0.00     0.010 A 
ATOM     37  C   UNL A   1      36.552  34.087  29.496  1.00  0.00     0.010 A 
ATOM     38  C   UNL A   1      36.383  33.553  30.783  1.00  0.00    -0.014 A 
BRANCH  38  39
ATOM     39  C   UNL A   1      37.525  32.872  31.441  1.00  0.00     0.031 A 
ATOM     40  C   UNL A   1      38.189  31.698  30.784  1.00  0.00     0.074 A 
ATOM     41  C   UNL A   1      37.905  33.268  32.671  1.00  0.00     0.049 A 
ATOM     42  N   UNL A   1      39.128  30.914  31.247  1.00  0.00    -0.248 NA
ATOM     43  C   UNL A   1      37.717  31.342  29.436  1.00  0.00     0.031 C 
ATOM     44  C   UNL A   1      37.310  34.372  33.424  1.00  0.00     0.029 A 
ATOM     45  N   UNL A   1      38.869  32.773  33.514  1.00  0.00    -0.354 N 
ATOM     46  C   UNL A   1      39.354  29.969  30.254  1.00  0.00     0.074 A 
ATOM     47  C   UNL A   1      38.420  30.246  29.186  1.00  0.00     0.031 C 
ATOM     48  C   UNL A   1      37.930  34.482  34.609  1.00  0.00     0.029 A 
ATOM     49  C   UNL A   1      38.930  33.425  34.722  1.00  0.00     0.049 A 
ATOM     50  H   UNL A   1      39.460  32.022  33.276  1.00  0.00     0.167 HD
ATOM     51  C   UNL A   1      40.273  28.974  30.233  1.00  0.00     0.037 A 
ATOM     52  C   UNL A   1      39.690  33.184  35.806  1.00  0.00     0.037 A 
ATOM     53  C   UNL A   1      41.206  28.711  31.298  1.00  0.00     0.049 A 
ATOM     54  C   UNL A   1      40.669  32.041  35.772  1.00  0.00     0.074 A 
ATOM     55  C   UNL A   1      42.217  27.767  31.347  1.00  0.00     0.029 A 
ATOM     56  N   UNL A   1      41.234  29.389  32.509  1.00  0.00    -0.354 N 
ATOM     57  N   UNL A   1      40.927  31.201  34.801  1.00  0.00    -0.248 NA
ATOM     58  C   UNL A   1      41.461  31.812  36.989  1.00  0.00     0.031 C 
ATOM     59  C   UNL A   1      42.813  27.830  32.609  1.00  0.00     0.029 A 
ATOM     60  C   UNL A   1      42.218  28.854  33.327  1.00  0.00     0.049 A 
ATOM     61  H   UNL A   1      40.643  30.138  32.752  1.00  0.00     0.167 HD
ATOM     62  C   UNL A   1      41.922  30.357  35.278  1.00  0.00     0.074 A 
ATOM     63  C   UNL A   1      42.238  30.804  36.619  1.00  0.00     0.031 C 
ATOM     64  C   UNL A   1      42.517  29.306  34.663  1.00  0.00     0.037 A 
BRANCH  51  65
ATOM     65  C   UNL A   1      40.312  28.087  29.022  1.00  0.00     0.064 A 
ATOM     66  C   UNL A   1      41.064  28.421  27.885  1.00  0.00     0.173 A 
ATOM     67  C   UNL A   1      39.624  26.863  29.014  1.00  0.00     0.173 A 
ATOM     68  F   UNL A   1      41.734  29.583  27.837  1.00  0.00    -0.203 F 
ATOM     69  C   UNL A   1      41.102  27.580  26.776  1.00  0.00     0.198 A 
ATOM     70  C   UNL A   1      39.690  26.010  27.916  1.00  0.00     0.198 A 
ATOM     71  F   UNL A   1      38.894  26.490  30.076  1.00  0.00    -0.203 F 
ATOM     72  F   UNL A   1      41.787  27.944  25.684  1.00  0.00    -0.200 F 
ATOM     73  C   UNL A   1      40.422  26.372  26.796  1.00  0.00     0.200 A 
ATOM     74  F   UNL A   1      39.045  24.835  27.943  1.00  0.00    -0.200 F 
ATOM     75  F   UNL A   1      40.468  25.558  25.732  1.00  0.00    -0.200 F 
ENDBRANCH  51  65
BRANCH  52  76
ATOM     76  C   UNL A   1      39.553  34.037  37.017  1.00  0.00     0.064 A 
ATOM     77  C   UNL A   1      40.224  35.263  37.113  1.00  0.00     0.173 A 
ATOM     78  C   UNL A   1      38.757  33.642  38.102  1.00  0.00     0.173 A 
ATOM     79  F   UNL A   1      41.015  35.674  36.110  1.00  0.00    -0.203 F 
ATOM     80  C   UNL A   1      40.123  36.052  38.257  1.00  0.00     0.198 A 
ATOM     81  C   UNL A   1      38.629  34.448  39.232  1.00  0.00     0.198 A 
ATOM     82  F   UNL A   1      38.088  32.480  38.059  1.00  0.00    -0.203 F 
ATOM     83  F   UNL A   1      40.815  37.196  38.342  1.00  0.00    -0.200 F 
ATOM     84  C   UNL A   1      39.320  35.647  39.313  1.00  0.00     0.200 A 
ATOM     85  F   UNL A   1      37.839  34.060  40.242  1.00  0.00    -0.200 F 
ATOM     86  F   UNL A   1      39.218  36.408  40.411  1.00  0.00    -0.200 F 
ENDBRANCH  52  76
BRANCH  64  87
ATOM     87  C   UNL A   1      43.581  28.573  35.428  1.00  0.00     0.064 A 
ATOM     88  C   UNL A   1      44.926  28.970  35.380  1.00  0.00     0.173 A 
ATOM     89  C   UNL A   1      43.245  27.491  36.256  1.00  0.00     0.173 A 
ATOM     90  F   UNL A   1      45.301  29.987  34.590  1.00  0.00    -0.203 F 
ATOM     91  C   UNL A   1      45.897  28.298  36.117  1.00  0.00     0.198 A 
ATOM     92  C   UNL A   1      44.214  26.843  37.017  1.00  0.00     0.198 A 
ATOM     93  F   UNL A   1      41.973  27.074  36.343  1.00  0.00    -0.203 F 
ATOM     94  F   UNL A   1      47.183  28.665  36.019  1.00  0.00    -0.200 F 
ATOM     95  C   UNL A   1      45.539  27.241  36.941  1.00  0.00     0.200 A 
ATOM     96  F   UNL A   1      43.863  25.833  37.825  1.00  0.00    -0.200 F 
ATOM     97  F   UNL A   1      46.474  26.604  37.660  1.00  0.00    -0.200 F 
ENDBRANCH  64  87
ENDBRANCH  38  39
ENDBRANCH  30  33
ENDBRANCH  28  29
ENDBRANCH  27  28
ENDBRANCH  26  27
ENDBRANCH   1  26
TORSDOF 17
ENDMDL
MODEL 2
REMARK VINA RESULT:     -11.9      2.012      3.863
REMARK SMILES CC(C)[NH2+][C@@]1(C(=O)NCCCCCCNC(=O)c2ccc(-c3c4nc(c(-c5c(F)c(F)c(F)c(F)c5F)c5ccc([nH]5)c(-c5c(F)c(F)c(F)c(F)c5F)c5nc(c(-c6c(F)c(F)c(F)c(F)c6F)c6ccc3[nH]6)C=C5)C=C4)cc2)CC[C@@H](Sc2ccncc2)C1
REMARK SMILES IDX 11 1 10 2 9 3 8 4 6 5 7 6 5 8 81 9 91 10 82 11 83 12 4 13
REMARK SMILES IDX 2 16 1 17 3 18 84 19 85 20 86 21 90 22 87 23 89 24 88 25
REMARK SMILES IDX 12 26 13 27 14 28 15 29 16 30 17 32 18 33 19 34 80 35 20 36
REMARK SMILES IDX 79 37 21 38 22 39 23 40 73 41 24 42 78 43 72 44 74 45 25 46
REMARK SMILES IDX 77 47 71 48 70 49 26 51 58 52 38 53 57 54 39 55 42 56 56 57
REMARK SMILES IDX 75 58 40 59 41 60 55 62 76 63 43 64 27 65 28 66 36 67 29 68
REMARK SMILES IDX 30 69 34 70 37 71 31 72 32 73 35 74 33 75 59 76 60 77 68 78
REMARK SMILES IDX 61 79 62 80 66 81 69 82 63 83 64 84 67 85 65 86 44 87 45 88
REMARK SMILES IDX 53 89 46 90 47 91 51 92 54 93 48 94 49 95 52 96 50 97
REMARK H PARENT 8 7 4 14 4 15 15 31 74 50 42 61
REMARK Flexibility Score: inf
ROOT
ATOM      1  C   UNL A   1      32.901  29.987  26.878  1.00  0.00     0.002 C 
ENDROOT
BRANCH   1   2
ATOM      2  C   UNL A   1      32.929  28.459  26.840  1.00  0.00     0.021 C 
BRANCH   2   3
ATOM      3  C   UNL A   1      32.180  27.867  25.650  1.00  0.00     0.116 C 
BRANCH   3   4
ATOM      4  N   UNL A   1      31.038  27.093  26.049  1.00  0.00    -0.351 N 
ATOM      5  C   UNL A   1      30.757  25.765  25.979  1.00  0.00     0.281 C 
ATOM      6  O   UNL A   1      29.631  25.478  26.408  1.00  0.00    -0.268 OA
ATOM      7  H   UNL A   1      30.317  27.630  26.450  1.00  0.00     0.163 HD
BRANCH   5   8
ATOM      8  C   UNL A   1      31.734  24.673  25.356  1.00  0.00     0.176 C 
ATOM      9  C   UNL A   1      31.108  23.330  24.949  1.00  0.00     0.080 C 
ATOM     10  C   UNL A   1      32.829  24.305  26.389  1.00  0.00     0.094 C 
ATOM     11  C   UNL A   1      31.544  22.240  25.922  1.00  0.00     0.022 C 
ATOM     12  C   UNL A   1      32.573  22.868  26.858  1.00  0.00     0.058 C 
BRANCH   8  13
ATOM     13  N   UNL A   1      32.431  25.281  24.180  1.00  0.00    -0.332 N 
ATOM     14  H   UNL A   1      32.371  26.295  24.281  1.00  0.00     0.347 HD
ATOM     15  H   UNL A   1      33.372  24.892  24.209  1.00  0.00     0.347 HD
BRANCH  13  16
ATOM     16  C   UNL A   1      31.931  24.944  22.835  1.00  0.00     0.176 C 
ATOM     17  C   UNL A   1      31.566  26.262  22.144  1.00  0.00     0.075 C 
ATOM     18  C   UNL A   1      32.964  24.212  21.971  1.00  0.00     0.075 C 
ENDBRANCH  13  16
ENDBRANCH   8  13
BRANCH  12  19
ATOM     19  S   UNL A   1      34.092  21.867  27.131  1.00  0.00    -0.122 SA
BRANCH  19  20
ATOM     20  C   UNL A   1      35.160  22.447  25.828  1.00  0.00     0.011 A 
ATOM     21  C   UNL A   1      34.943  22.079  24.504  1.00  0.00     0.035 A 
ATOM     22  C   UNL A   1      36.224  23.295  26.134  1.00  0.00     0.035 A 
ATOM     23  C   UNL A   1      35.832  22.533  23.547  1.00  0.00     0.112 A 
ATOM     24  C   UNL A   1      37.060  23.694  25.105  1.00  0.00     0.112 A 
ATOM     25  N   UNL A   1      36.893  23.320  23.820  1.00  0.00    -0.265 NA
ENDBRANCH  19  20
ENDBRANCH  12  19
ENDBRANCH   5   8
ENDBRANCH   3   4
ENDBRANCH   2   3
ENDBRANCH   1   2
BRANCH   1  26
ATOM     26  C   UNL A   1      31.575  30.618  26.429  1.00  0.00     0.002 C 
BRANCH  26  27
ATOM     27  C   UNL A   1      31.482  32.136  26.609  1.00  0.00     0.021 C 
BRANCH  27  28
ATOM     28  C   UNL A   1      32.652  32.753  27.368  1.00  0.00     0.116 C 
BRANCH  28  29
ATOM     29  N   UNL A   1      32.427  34.163  27.650  1.00  0.00    -0.352 N 
ATOM     30  C   UNL A   1      32.984  34.963  28.612  1.00  0.00     0.251 C 
ATOM     31  H   UNL A   1      31.778  34.609  27.060  1.00  0.00     0.163 HD
ATOM     32  O   UNL A   1      32.493  36.061  28.869  1.00  0.00    -0.269 OA
BRANCH  30  33
ATOM     33  C   UNL A   1      34.171  34.498  29.353  1.00  0.00     0.039 A 
ATOM     34  C   UNL A   1      34.005  33.950  30.628  1.00  0.00     0.014 A 
ATOM     35  C   UNL A   1      35.445  34.603  28.789  1.00  0.00     0.014 A 
ATOM     36  C   UNL A   1      35.110  33.436  31.306  1.00  0.00     0.010 A 
ATOM     37  C   UNL A   1      36.535  34.030  29.436  1.00  0.00     0.010 A 
ATOM     38  C   UNL A   1      36.375  33.431  30.695  1.00  0.00    -0.014 A 
BRANCH  38  39
ATOM     39  C   UNL A   1      37.537  32.768  31.335  1.00  0.00     0.031 A 
ATOM     40  C   UNL A   1      38.193  31.587  30.680  1.00  0.00     0.074 A 
ATOM     41  C   UNL A   1      37.945  33.185  32.549  1.00  0.00     0.049 A 
ATOM     42  N   UNL A   1      39.149  30.817  31.132  1.00  0.00    -0.248 NA
ATOM     43  C   UNL A   1      37.690  31.207  29.351  1.00  0.00     0.031 C 
ATOM     44  C   UNL A   1      37.362  34.298  33.299  1.00  0.00     0.029 A 
ATOM     45  N   UNL A   1      38.933  32.710  33.375  1.00  0.00    -0.354 N 
ATOM     46  C   UNL A   1      39.356  29.858  30.149  1.00  0.00     0.074 A 
ATOM     47  C   UNL A   1      38.393  30.112  29.099  1.00  0.00     0.031 C 
ATOM     48  C   UNL A   1      38.011  34.431  34.466  1.00  0.00     0.029 A 
ATOM     49  C   UNL A   1      39.020  33.382  34.570  1.00  0.00     0.049 A 
ATOM     50  H   UNL A   1      39.523  31.960  33.134  1.00  0.00     0.167 HD
ATOM     51  C   UNL A   1      40.281  28.868  30.120  1.00  0.00     0.037 A 
ATOM     52  C   UNL A   1      39.809  33.163  35.639  1.00  0.00     0.037 A 
ATOM     53  C   UNL A   1      41.242  28.629  31.166  1.00  0.00     0.049 A 
ATOM     54  C   UNL A   1      40.794  32.026  35.599  1.00  0.00     0.074 A 
ATOM     55  C   UNL A   1      42.260  27.692  31.204  1.00  0.00     0.029 A 
ATOM     56  N   UNL A   1      41.296  29.325  32.365  1.00  0.00    -0.354 N 
ATOM     57  N   UNL A   1      41.034  31.172  34.634  1.00  0.00    -0.248 NA
ATOM     58  C   UNL A   1      41.618  31.822  36.799  1.00  0.00     0.031 C 
ATOM     59  C   UNL A   1      42.887  27.779  32.449  1.00  0.00     0.029 A 
ATOM     60  C   UNL A   1      42.303  28.810  33.166  1.00  0.00     0.049 A 
ATOM     61  H   UNL A   1      40.706  30.074  32.611  1.00  0.00     0.167 HD
ATOM     62  C   UNL A   1      42.046  30.342  35.100  1.00  0.00     0.074 A 
ATOM     63  C   UNL A   1      42.392  30.812  36.425  1.00  0.00     0.031 C 
ATOM     64  C   UNL A   1      42.632  29.286  34.486  1.00  0.00     0.037 A 
BRANCH  51  65
ATOM     65  C   UNL A   1      40.295  27.962  28.923  1.00  0.00     0.064 A 
ATOM     66  C   UNL A   1      41.041  28.269  27.773  1.00  0.00     0.173 A 
ATOM     67  C   UNL A   1      39.590  26.749  28.940  1.00  0.00     0.173 A 
ATOM     68  F   UNL A   1      41.727  29.420  27.701  1.00  0.00    -0.203 F 
ATOM     69  C   UNL A   1      41.056  27.410  26.678  1.00  0.00     0.198 A 
ATOM     70  C   UNL A   1      39.634  25.877  27.855  1.00  0.00     0.198 A 
ATOM     71  F   UNL A   1      38.866  26.402  30.015  1.00  0.00    -0.203 F 
ATOM     72  F   UNL A   1      41.735  27.748  25.573  1.00  0.00    -0.200 F 
ATOM     73  C   UNL A   1      40.359  26.212  26.722  1.00  0.00     0.200 A 
ATOM     74  F   UNL A   1      38.973  24.713  27.907  1.00  0.00    -0.200 F 
ATOM     75  F   UNL A   1      40.384  25.382  25.671  1.00  0.00    -0.200 F 
ENDBRANCH  51  65
BRANCH  52  76
ATOM     76  C   UNL A   1      39.697  34.034  36.839  1.00  0.00     0.064 A 
ATOM     77  C   UNL A   1      40.409  35.238  36.924  1.00  0.00     0.173 A 
ATOM     78  C   UNL A   1      38.883  33.680  37.925  1.00  0.00     0.173 A 
ATOM     79  F   UNL A   1      41.217  35.610  35.919  1.00  0.00    -0.203 F 
ATOM     80  C   UNL A   1      40.330  36.043  38.058  1.00  0.00     0.198 A 
ATOM     81  C   UNL A   1      38.779  34.502  39.045  1.00  0.00     0.198 A 
ATOM     82  F   UNL A   1      38.176  32.541  37.893  1.00  0.00    -0.203 F 
ATOM     83  F   UNL A   1      41.061  37.164  38.133  1.00  0.00    -0.200 F 
ATOM     84  C   UNL A   1      39.510  35.679  39.115  1.00  0.00     0.200 A 
ATOM     85  F   UNL A   1      37.972  34.154  40.056  1.00  0.00    -0.200 F 
ATOM     86  F   UNL A   1      39.430  36.455  40.204  1.00  0.00    -0.200 F 
ENDBRANCH  52  76
BRANCH  64  87
ATOM     87  C   UNL A   1      43.720  28.571  35.236  1.00  0.00     0.064 A 
ATOM     88  C   UNL A   1      43.437  27.491  36.087  1.00  0.00     0.173 A 
ATOM     89  C   UNL A   1      45.063  28.937  35.064  1.00  0.00     0.173 A 
ATOM     90  F   UNL A   1      42.167  27.114  36.299  1.00  0.00    -0.203 F 
ATOM     91  C   UNL A   1      44.458  26.820  36.754  1.00  0.00     0.198 A 
ATOM     92  C   UNL A   1      46.084  28.242  35.707  1.00  0.00     0.198 A 
ATOM     93  F   UNL A   1      45.389  29.958  34.258  1.00  0.00    -0.203 F 
ATOM     94  F   UNL A   1      44.160  25.822  37.599  1.00  0.00    -0.200 F 
ATOM     95  C   UNL A   1      45.780  27.189  36.557  1.00  0.00     0.200 A 
ATOM     96  F   UNL A   1      47.361  28.590  35.502  1.00  0.00    -0.200 F 
ATOM     97  F   UNL A   1      46.762  26.533  37.190  1.00  0.00    -0.200 F 
ENDBRANCH  64  87
ENDBRANCH  38  39
ENDBRANCH  30  33
ENDBRANCH  28  29
ENDBRANCH  27  28
ENDBRANCH  26  27
ENDBRANCH   1  26
TORSDOF 17
ENDMDL
MODEL 3
REMARK VINA RESULT:     -11.8      1.322      3.645
REMARK SMILES CC(C)[NH2+][C@@]1(C(=O)NCCCCCCNC(=O)c2ccc(-c3c4nc(c(-c5c(F)c(F)c(F)c(F)c5F)c5ccc([nH]5)c(-c5c(F)c(F)c(F)c(F)c5F)c5nc(c(-c6c(F)c(F)c(F)c(F)c6F)c6ccc3[nH]6)C=C5)C=C4)cc2)CC[C@@H](Sc2ccncc2)C1
REMARK SMILES IDX 11 1 10 2 9 3 8 4 6 5 7 6 5 8 81 9 91 10 82 11 83 12 4 13
REMARK SMILES IDX 2 16 1 17 3 18 84 19 85 20 86 21 90 22 87 23 89 24 88 25
REMARK SMILES IDX 12 26 13 27 14 28 15 29 16 30 17 32 18 33 19 34 80 35 20 36
REMARK SMILES IDX 79 37 21 38 22 39 23 40 73 41 24 42 78 43 72 44 74 45 25 46
REMARK SMILES IDX 77 47 71 48 70 49 26 51 58 52 38 53 57 54 39 55 42 56 56 57
REMARK SMILES IDX 75 58 40 59 41 60 55 62 76 63 43 64 27 65 28 66 36 67 29 68
REMARK SMILES IDX 30 69 34 70 37 71 31 72 32 73 35 74 33 75 59 76 60 77 68 78
REMARK SMILES IDX 61 79 62 80 66 81 69 82 63 83 64 84 67 85 65 86 44 87 45 88
REMARK SMILES IDX 53 89 46 90 47 91 51 92 54 93 48 94 49 95 52 96 50 97
REMARK H PARENT 8 7 4 14 4 15 15 31 74 50 42 61
REMARK Flexibility Score: inf
ROOT
ATOM      1  C   UNL A   1      33.081  30.095  26.639  1.00  0.00     0.002 C 
ENDROOT
BRANCH   1   2
ATOM      2  C   UNL A   1      33.165  28.608  26.987  1.00  0.00     0.021 C 
BRANCH   2   3
ATOM      3  C   UNL A   1      33.673  27.743  25.838  1.00  0.00     0.116 C 
BRANCH   3   4
ATOM      4  N   UNL A   1      33.610  28.418  24.571  1.00  0.00    -0.351 N 
ATOM      5  C   UNL A   1      32.743  28.338  23.528  1.00  0.00     0.281 C 
ATOM      6  O   UNL A   1      33.046  29.074  22.579  1.00  0.00    -0.268 OA
ATOM      7  H   UNL A   1      34.339  29.066  24.432  1.00  0.00     0.163 HD
BRANCH   5   8
ATOM      8  C   UNL A   1      31.489  27.358  23.477  1.00  0.00     0.176 C 
ATOM      9  C   UNL A   1      30.779  27.065  24.808  1.00  0.00     0.080 C 
ATOM     10  C   UNL A   1      31.933  25.971  22.948  1.00  0.00     0.094 C 
ATOM     11  C   UNL A   1      31.073  25.635  25.247  1.00  0.00     0.022 C 
ATOM     12  C   UNL A   1      31.846  24.973  24.109  1.00  0.00     0.058 C 
BRANCH   8  13
ATOM     13  N   UNL A   1      30.505  27.905  22.491  1.00  0.00    -0.332 N 
ATOM     14  H   UNL A   1      31.037  28.307  21.719  1.00  0.00     0.347 HD
ATOM     15  H   UNL A   1      29.913  27.110  22.251  1.00  0.00     0.347 HD
BRANCH  13  16
ATOM     16  C   UNL A   1      29.565  28.939  22.960  1.00  0.00     0.176 C 
ATOM     17  C   UNL A   1      29.668  30.119  21.987  1.00  0.00     0.075 C 
ATOM     18  C   UNL A   1      28.108  28.463  22.994  1.00  0.00     0.075 C 
ENDBRANCH  13  16
ENDBRANCH   8  13
BRANCH  12  19
ATOM     19  S   UNL A   1      31.256  23.296  23.638  1.00  0.00    -0.122 SA
BRANCH  19  20
ATOM     20  C   UNL A   1      32.638  22.271  24.101  1.00  0.00     0.011 A 
ATOM     21  C   UNL A   1      32.448  20.970  24.556  1.00  0.00     0.035 A 
ATOM     22  C   UNL A   1      33.936  22.772  23.995  1.00  0.00     0.035 A 
ATOM     23  C   UNL A   1      33.561  20.242  24.935  1.00  0.00     0.112 A 
ATOM     24  C   UNL A   1      34.984  21.966  24.402  1.00  0.00     0.112 A 
ATOM     25  N   UNL A   1      34.823  20.716  24.882  1.00  0.00    -0.265 NA
ENDBRANCH  19  20
ENDBRANCH  12  19
ENDBRANCH   5   8
ENDBRANCH   3   4
ENDBRANCH   2   3
ENDBRANCH   1   2
BRANCH   1  26
ATOM     26  C   UNL A   1      31.654  30.635  26.464  1.00  0.00     0.002 C 
BRANCH  26  27
ATOM     27  C   UNL A   1      31.490  32.136  26.720  1.00  0.00     0.021 C 
BRANCH  27  28
ATOM     28  C   UNL A   1      32.724  32.813  27.308  1.00  0.00     0.116 C 
BRANCH  28  29
ATOM     29  N   UNL A   1      32.472  34.211  27.621  1.00  0.00    -0.352 N 
ATOM     30  C   UNL A   1      33.002  34.995  28.612  1.00  0.00     0.251 C 
ATOM     31  H   UNL A   1      31.825  34.662  27.032  1.00  0.00     0.163 HD
ATOM     32  O   UNL A   1      32.489  36.078  28.888  1.00  0.00    -0.269 OA
BRANCH  30  33
ATOM     33  C   UNL A   1      34.183  34.530  29.360  1.00  0.00     0.039 A 
ATOM     34  C   UNL A   1      34.014  34.011  30.647  1.00  0.00     0.014 A 
ATOM     35  C   UNL A   1      35.458  34.606  28.791  1.00  0.00     0.014 A 
ATOM     36  C   UNL A   1      35.114  33.497  31.332  1.00  0.00     0.010 A 
ATOM     37  C   UNL A   1      36.541  34.032  29.447  1.00  0.00     0.010 A 
ATOM     38  C   UNL A   1      36.377  33.462  30.719  1.00  0.00    -0.014 A 
BRANCH  38  39
ATOM     39  C   UNL A   1      37.532  32.797  31.370  1.00  0.00     0.031 A 
ATOM     40  C   UNL A   1      38.197  31.621  30.717  1.00  0.00     0.074 A 
ATOM     41  C   UNL A   1      37.923  33.207  32.592  1.00  0.00     0.049 A 
ATOM     42  N   UNL A   1      39.149  30.849  31.176  1.00  0.00    -0.248 NA
ATOM     43  C   UNL A   1      37.713  31.248  29.378  1.00  0.00     0.031 C 
ATOM     44  C   UNL A   1      37.328  34.314  33.341  1.00  0.00     0.029 A 
ATOM     45  N   UNL A   1      38.901  32.728  33.428  1.00  0.00    -0.354 N 
ATOM     46  C   UNL A   1      39.371  29.897  30.190  1.00  0.00     0.074 A 
ATOM     47  C   UNL A   1      38.421  30.156  29.130  1.00  0.00     0.031 C 
ATOM     48  C   UNL A   1      37.962  34.441  34.517  1.00  0.00     0.029 A 
ATOM     49  C   UNL A   1      38.971  33.393  34.628  1.00  0.00     0.049 A 
ATOM     50  H   UNL A   1      39.495  31.980  33.190  1.00  0.00     0.167 HD
ATOM     51  C   UNL A   1      40.298  28.908  30.168  1.00  0.00     0.037 A 
ATOM     52  C   UNL A   1      39.746  33.168  35.706  1.00  0.00     0.037 A 
ATOM     53  C   UNL A   1      41.245  28.664  31.224  1.00  0.00     0.049 A 
ATOM     54  C   UNL A   1      40.734  32.033  35.672  1.00  0.00     0.074 A 
ATOM     55  C   UNL A   1      42.264  27.729  31.270  1.00  0.00     0.029 A 
ATOM     56  N   UNL A   1      41.282  29.354  32.428  1.00  0.00    -0.354 N 
ATOM     57  N   UNL A   1      40.987  31.186  34.705  1.00  0.00    -0.248 NA
ATOM     58  C   UNL A   1      41.542  31.823  36.881  1.00  0.00     0.031 C 
ATOM     59  C   UNL A   1      42.875  27.809  32.524  1.00  0.00     0.029 A 
ATOM     60  C   UNL A   1      42.279  28.835  33.240  1.00  0.00     0.049 A 
ATOM     61  H   UNL A   1      40.687  30.100  32.671  1.00  0.00     0.167 HD
ATOM     62  C   UNL A   1      41.994  30.355  35.179  1.00  0.00     0.074 A 
ATOM     63  C   UNL A   1      42.322  30.817  36.512  1.00  0.00     0.031 C 
ATOM     64  C   UNL A   1      42.591  29.303  34.567  1.00  0.00     0.037 A 
BRANCH  51  65
ATOM     65  C   UNL A   1      40.329  28.010  28.965  1.00  0.00     0.064 A 
ATOM     66  C   UNL A   1      41.091  28.324  27.828  1.00  0.00     0.173 A 
ATOM     67  C   UNL A   1      39.624  26.796  28.965  1.00  0.00     0.173 A 
ATOM     68  F   UNL A   1      41.777  29.475  27.772  1.00  0.00    -0.203 F 
ATOM     69  C   UNL A   1      41.122  27.472  26.727  1.00  0.00     0.198 A 
ATOM     70  C   UNL A   1      39.683  25.931  27.876  1.00  0.00     0.198 A 
ATOM     71  F   UNL A   1      38.885  26.443  30.028  1.00  0.00    -0.203 F 
ATOM     72  F   UNL A   1      41.816  27.817  25.635  1.00  0.00    -0.200 F 
ATOM     73  C   UNL A   1      40.425  26.274  26.755  1.00  0.00     0.200 A 
ATOM     74  F   UNL A   1      39.022  24.766  27.910  1.00  0.00    -0.200 F 
ATOM     75  F   UNL A   1      40.464  25.449  25.699  1.00  0.00    -0.200 F 
ENDBRANCH  51  65
BRANCH  52  76
ATOM     76  C   UNL A   1      39.616  34.032  36.910  1.00  0.00     0.064 A 
ATOM     77  C   UNL A   1      38.829  33.636  37.999  1.00  0.00     0.173 A 
ATOM     78  C   UNL A   1      40.270  35.270  36.994  1.00  0.00     0.173 A 
ATOM     79  F   UNL A   1      38.167  32.470  37.957  1.00  0.00    -0.203 F 
ATOM     80  C   UNL A   1      38.681  34.455  39.116  1.00  0.00     0.198 A 
ATOM     81  C   UNL A   1      40.148  36.073  38.126  1.00  0.00     0.198 A 
ATOM     82  F   UNL A   1      41.040  35.695  35.981  1.00  0.00    -0.203 F 
ATOM     83  F   UNL A   1      37.881  34.074  40.122  1.00  0.00    -0.200 F 
ATOM     84  C   UNL A   1      39.346  35.670  39.182  1.00  0.00     0.200 A 
ATOM     85  F   UNL A   1      40.806  37.239  38.191  1.00  0.00    -0.200 F 
ATOM     86  F   UNL A   1      39.208  36.456  40.259  1.00  0.00    -0.200 F 
ENDBRANCH  52  76
BRANCH  64  87
ATOM     87  C   UNL A   1      43.669  28.585  35.326  1.00  0.00     0.064 A 
ATOM     88  C   UNL A   1      45.022  28.931  35.184  1.00  0.00     0.173 A 
ATOM     89  C   UNL A   1      43.343  27.575  36.243  1.00  0.00     0.173 A 
ATOM     90  F   UNL A   1      45.388  29.878  34.307  1.00  0.00    -0.203 F 
ATOM     91  C   UNL A   1      46.009  28.276  35.915  1.00  0.00     0.198 A 
ATOM     92  C   UNL A   1      44.330  26.945  36.998  1.00  0.00     0.198 A 
ATOM     93  F   UNL A   1      42.065  27.210  36.422  1.00  0.00    -0.203 F 
ATOM     94  F   UNL A   1      47.299  28.590  35.727  1.00  0.00    -0.200 F 
ATOM     95  C   UNL A   1      45.662  27.291  36.828  1.00  0.00     0.200 A 
ATOM     96  F   UNL A   1      43.990  26.005  37.890  1.00  0.00    -0.200 F 
ATOM     97  F   UNL A   1      46.612  26.671  37.540  1.00  0.00    -0.200 F 
ENDBRANCH  64  87
ENDBRANCH  38  39
ENDBRANCH  30  33
ENDBRANCH  28  29
ENDBRANCH  27  28
ENDBRANCH  26  27
ENDBRANCH   1  26
TORSDOF 17
ENDMDL
