MODEL 1
REMARK VINA RESULT:     -11.9      0.000      0.000
REMARK SMILES CCOc1cnc(C(=O)c2[nH]c3cc(Cl)ccc3c2CC(=O)NCCCCCCNC(=O)c2ccc(-c3c4nc(c(-c5c(F)c(F)c(F)c(F)c5F)c5ccc([nH]5)c(-c5c(F)c(F)c(F)c(F)c5F)c5nc(c(-c6c(F)c(F)c(F)c(F)c6F)c6ccc3[nH]6)C=C5)C=C4)cc2)cc1CC
REMARK SMILES IDX 25 1 24 2 23 3 21 4 22 5 20 7 19 8 10 9 11 10 12 11 18 13
REMARK SMILES IDX 13 14 17 15 14 16 16 17 15 18 8 19 9 20 7 21 4 22 5 23 97 24
REMARK SMILES IDX 6 25 96 26 3 27 2 28 1 29 98 30 99 31 26 32 27 33 28 34
REMARK SMILES IDX 29 35 30 36 31 37 32 39 33 40 34 41 95 42 35 43 94 44 36 45
REMARK SMILES IDX 37 46 38 47 88 48 39 49 93 50 87 51 89 52 40 53 92 54 86 55
REMARK SMILES IDX 85 56 41 58 73 59 53 60 72 61 54 62 57 63 71 64 90 65 55 66
REMARK SMILES IDX 56 67 70 69 91 70 58 71 42 72 43 73 51 74 44 75 45 76 49 77
REMARK SMILES IDX 52 78 46 79 47 80 50 81 48 82 74 83 75 84 83 85 76 86 77 87
REMARK SMILES IDX 81 88 84 89 78 90 79 91 82 92 80 93 59 94 60 95 68 96 61 97
REMARK SMILES IDX 62 98 66 99 69 100 63 101 64 102 67 103 65 104
REMARK H PARENT 23 6 11 12 30 38 89 57 57 68
REMARK Flexibility Score: inf
ROOT
ATOM      1  C   UNL A   1      38.910  22.107  26.075  1.00  0.00     0.021 C 
ENDROOT
BRANCH   1   2
ATOM      2  C   UNL A   1      38.205  23.462  26.150  1.00  0.00     0.116 C 
BRANCH   2   3
ATOM      3  N   UNL A   1      37.341  23.697  25.013  1.00  0.00    -0.356 N 
ATOM      4  C   UNL A   1      35.984  23.571  24.909  1.00  0.00     0.224 C 
ATOM      5  O   UNL A   1      35.449  23.967  23.870  1.00  0.00    -0.275 OA
ATOM      6  H   UNL A   1      37.797  23.991  24.192  1.00  0.00     0.163 HD
BRANCH   4   7
ATOM      7  C   UNL A   1      35.145  23.094  26.086  1.00  0.00     0.138 C 
BRANCH   7   8
ATOM      8  C   UNL A   1      34.029  22.149  25.740  1.00  0.00    -0.002 A 
ATOM      9  C   UNL A   1      32.665  22.353  25.919  1.00  0.00     0.093 A 
ATOM     10  N   UNL A   1      32.015  21.291  25.329  1.00  0.00    -0.351 N 
ATOM     11  C   UNL A   1      32.908  20.300  25.007  1.00  0.00     0.048 A 
ATOM     12  H   UNL A   1      31.046  21.250  25.162  1.00  0.00     0.167 HD
ATOM     13  C   UNL A   1      34.183  20.804  25.258  1.00  0.00     0.004 A 
ATOM     14  C   UNL A   1      32.683  19.009  24.512  1.00  0.00     0.047 A 
ATOM     15  C   UNL A   1      35.294  19.971  25.006  1.00  0.00     0.012 A 
ATOM     16  C   UNL A   1      33.804  18.207  24.279  1.00  0.00     0.043 A 
ATOM     17  C   UNL A   1      35.093  18.674  24.520  1.00  0.00     0.021 A 
ATOM     18  Cl  UNL A   1      33.582  16.608  23.680  1.00  0.00    -0.084 Cl
BRANCH   9  19
ATOM     19  C   UNL A   1      31.976  23.466  26.557  1.00  0.00     0.227 C 
ATOM     20  O   UNL A   1      31.394  23.327  27.625  1.00  0.00    -0.285 OA
BRANCH  19  21
ATOM     21  C   UNL A   1      32.015  24.812  25.861  1.00  0.00     0.113 A 
ATOM     22  C   UNL A   1      31.954  27.235  24.557  1.00  0.00     0.140 A 
ATOM     23  C   UNL A   1      31.566  26.043  23.955  1.00  0.00     0.158 A 
ATOM     24  C   UNL A   1      32.350  27.214  25.894  1.00  0.00    -0.002 A 
ATOM     25  N   UNL A   1      31.571  24.841  24.579  1.00  0.00    -0.249 NA
ATOM     26  C   UNL A   1      32.446  25.966  26.522  1.00  0.00     0.040 A 
BRANCH  22  27
ATOM     27  O   UNL A   1      31.863  28.414  23.877  1.00  0.00    -0.492 OA
BRANCH  27  28
ATOM     28  C   UNL A   1      32.560  28.363  22.623  1.00  0.00     0.226 C 
ATOM     29  C   UNL A   1      34.044  28.585  22.860  1.00  0.00     0.049 C 
ENDBRANCH  27  28
ENDBRANCH  22  27
BRANCH  24  30
ATOM     30  C   UNL A   1      32.670  28.470  26.667  1.00  0.00     0.036 C 
ATOM     31  C   UNL A   1      34.167  28.763  26.731  1.00  0.00     0.009 C 
ENDBRANCH  24  30
ENDBRANCH  19  21
ENDBRANCH   9  19
ENDBRANCH   7   8
ENDBRANCH   4   7
ENDBRANCH   2   3
ENDBRANCH   1   2
BRANCH   1  32
ATOM     32  C   UNL A   1      40.414  22.153  26.373  1.00  0.00     0.002 C 
BRANCH  32  33
ATOM     33  C   UNL A   1      40.994  20.911  27.058  1.00  0.00     0.002 C 
BRANCH  33  34
ATOM     34  C   UNL A   1      41.378  19.759  26.125  1.00  0.00     0.021 C 
BRANCH  34  35
ATOM     35  C   UNL A   1      42.632  18.987  26.529  1.00  0.00     0.116 C 
BRANCH  35  36
ATOM     36  N   UNL A   1      43.466  18.650  25.388  1.00  0.00    -0.352 N 
ATOM     37  C   UNL A   1      44.251  19.459  24.605  1.00  0.00     0.251 C 
ATOM     38  H   UNL A   1      43.468  17.697  25.138  1.00  0.00     0.163 HD
ATOM     39  O   UNL A   1      44.754  19.019  23.576  1.00  0.00    -0.269 OA
BRANCH  37  40
ATOM     40  C   UNL A   1      44.484  20.871  24.982  1.00  0.00     0.039 A 
ATOM     41  C   UNL A   1      43.991  21.879  24.146  1.00  0.00     0.014 A 
ATOM     42  C   UNL A   1      45.217  21.207  26.124  1.00  0.00     0.014 A 
ATOM     43  C   UNL A   1      44.188  23.221  24.481  1.00  0.00     0.010 A 
ATOM     44  C   UNL A   1      45.366  22.545  26.487  1.00  0.00     0.010 A 
ATOM     45  C   UNL A   1      44.856  23.563  25.668  1.00  0.00    -0.014 A 
BRANCH  45  46
ATOM     46  C   UNL A   1      45.042  24.983  26.062  1.00  0.00     0.031 A 
ATOM     47  C   UNL A   1      46.396  25.625  25.956  1.00  0.00     0.074 A 
ATOM     48  C   UNL A   1      44.007  25.672  26.577  1.00  0.00     0.049 A 
ATOM     49  N   UNL A   1      46.778  26.821  26.330  1.00  0.00    -0.248 NA
ATOM     50  C   UNL A   1      47.469  24.806  25.372  1.00  0.00     0.031 C 
ATOM     51  C   UNL A   1      42.654  25.150  26.767  1.00  0.00     0.029 A 
ATOM     52  N   UNL A   1      43.937  26.960  27.049  1.00  0.00    -0.354 N 
ATOM     53  C   UNL A   1      48.135  26.888  26.049  1.00  0.00     0.074 A 
ATOM     54  C   UNL A   1      48.519  25.603  25.505  1.00  0.00     0.031 C 
ATOM     55  C   UNL A   1      41.884  26.111  27.305  1.00  0.00     0.029 A 
ATOM     56  C   UNL A   1      42.696  27.305  27.523  1.00  0.00     0.049 A 
ATOM     57  H   UNL A   1      44.704  27.577  27.046  1.00  0.00     0.167 HD
ATOM     58  C   UNL A   1      48.982  27.933  26.215  1.00  0.00     0.037 A 
ATOM     59  C   UNL A   1      42.263  28.454  28.076  1.00  0.00     0.037 A 
ATOM     60  C   UNL A   1      48.593  29.222  26.723  1.00  0.00     0.049 A 
ATOM     61  C   UNL A   1      43.217  29.605  28.230  1.00  0.00     0.074 A 
ATOM     62  C   UNL A   1      49.364  30.362  26.871  1.00  0.00     0.029 A 
ATOM     63  N   UNL A   1      47.316  29.544  27.161  1.00  0.00    -0.354 N 
ATOM     64  N   UNL A   1      44.487  29.674  27.914  1.00  0.00    -0.248 NA
ATOM     65  C   UNL A   1      42.676  30.841  28.814  1.00  0.00     0.031 C 
ATOM     66  C   UNL A   1      48.562  31.365  27.426  1.00  0.00     0.029 A 
ATOM     67  C   UNL A   1      47.282  30.860  27.591  1.00  0.00     0.049 A 
ATOM     68  H   UNL A   1      46.548  28.927  27.166  1.00  0.00     0.167 HD
ATOM     69  C   UNL A   1      44.891  30.962  28.235  1.00  0.00     0.074 A 
ATOM     70  C   UNL A   1      43.727  31.646  28.763  1.00  0.00     0.031 C 
ATOM     71  C   UNL A   1      46.115  31.527  28.104  1.00  0.00     0.037 A 
BRANCH  58  72
ATOM     72  C   UNL A   1      50.418  27.724  25.840  1.00  0.00     0.064 A 
ATOM     73  C   UNL A   1      50.845  27.799  24.506  1.00  0.00     0.173 A 
ATOM     74  C   UNL A   1      51.383  27.477  26.827  1.00  0.00     0.173 A 
ATOM     75  F   UNL A   1      49.958  28.021  23.525  1.00  0.00    -0.203 F 
ATOM     76  C   UNL A   1      52.184  27.609  24.171  1.00  0.00     0.198 A 
ATOM     77  C   UNL A   1      52.724  27.312  26.493  1.00  0.00     0.198 A 
ATOM     78  F   UNL A   1      51.026  27.400  28.118  1.00  0.00    -0.203 F 
ATOM     79  F   UNL A   1      52.562  27.642  22.887  1.00  0.00    -0.200 F 
ATOM     80  C   UNL A   1      53.122  27.371  25.165  1.00  0.00     0.200 A 
ATOM     81  F   UNL A   1      53.631  27.091  27.453  1.00  0.00    -0.200 F 
ATOM     82  F   UNL A   1      54.410  27.191  24.841  1.00  0.00    -0.200 F 
ENDBRANCH  58  72
BRANCH  59  83
ATOM     83  C   UNL A   1      40.846  28.579  28.501  1.00  0.00     0.064 A 
ATOM     84  C   UNL A   1      39.866  29.019  27.600  1.00  0.00     0.173 A 
ATOM     85  C   UNL A   1      40.443  28.259  29.805  1.00  0.00     0.173 A 
ATOM     86  F   UNL A   1      40.211  29.357  26.349  1.00  0.00    -0.203 F 
ATOM     87  C   UNL A   1      38.536  29.148  27.993  1.00  0.00     0.198 A 
ATOM     88  C   UNL A   1      39.109  28.367  30.190  1.00  0.00     0.198 A 
ATOM     89  F   UNL A   1      41.344  27.830  30.701  1.00  0.00    -0.203 F 
ATOM     90  F   UNL A   1      37.624  29.605  27.124  1.00  0.00    -0.200 F 
ATOM     91  C   UNL A   1      38.157  28.817  29.285  1.00  0.00     0.200 A 
ATOM     92  F   UNL A   1      38.745  28.036  31.436  1.00  0.00    -0.200 F 
ATOM     93  F   UNL A   1      36.877  28.937  29.662  1.00  0.00    -0.200 F 
ENDBRANCH  59  83
BRANCH  71  94
ATOM     94  C   UNL A   1      46.253  32.964  28.509  1.00  0.00     0.064 A 
ATOM     95  C   UNL A   1      46.027  34.006  27.600  1.00  0.00     0.173 A 
ATOM     96  C   UNL A   1      46.576  33.300  29.832  1.00  0.00     0.173 A 
ATOM     97  F   UNL A   1      45.732  33.733  26.320  1.00  0.00    -0.203 F 
ATOM     98  C   UNL A   1      46.138  35.337  27.996  1.00  0.00     0.198 A 
ATOM     99  C   UNL A   1      46.663  34.630  30.230  1.00  0.00     0.198 A 
ATOM    100  F   UNL A   1      46.798  32.337  30.739  1.00  0.00    -0.203 F 
ATOM    101  F   UNL A   1      45.953  36.318  27.102  1.00  0.00    -0.200 F 
ATOM    102  C   UNL A   1      46.450  35.647  29.312  1.00  0.00     0.200 A 
ATOM    103  F   UNL A   1      46.957  34.929  31.504  1.00  0.00    -0.200 F 
ATOM    104  F   UNL A   1      46.550  36.928  29.693  1.00  0.00    -0.200 F 
ENDBRANCH  71  94
ENDBRANCH  45  46
ENDBRANCH  37  40
ENDBRANCH  35  36
ENDBRANCH  34  35
ENDBRANCH  33  34
ENDBRANCH  32  33
ENDBRANCH   1  32
TORSDOF 19
ENDMDL
MODEL 2
REMARK VINA RESULT:     -11.9      5.852     10.633
REMARK SMILES CCOc1cnc(C(=O)c2[nH]c3cc(Cl)ccc3c2CC(=O)NCCCCCCNC(=O)c2ccc(-c3c4nc(c(-c5c(F)c(F)c(F)c(F)c5F)c5ccc([nH]5)c(-c5c(F)c(F)c(F)c(F)c5F)c5nc(c(-c6c(F)c(F)c(F)c(F)c6F)c6ccc3[nH]6)C=C5)C=C4)cc2)cc1CC
REMARK SMILES IDX 25 1 24 2 23 3 21 4 22 5 20 7 19 8 10 9 11 10 12 11 18 13
REMARK SMILES IDX 13 14 17 15 14 16 16 17 15 18 8 19 9 20 7 21 4 22 5 23 97 24
REMARK SMILES IDX 6 25 96 26 3 27 2 28 1 29 98 30 99 31 26 32 27 33 28 34
REMARK SMILES IDX 29 35 30 36 31 37 32 39 33 40 34 41 95 42 35 43 94 44 36 45
REMARK SMILES IDX 37 46 38 47 88 48 39 49 93 50 87 51 89 52 40 53 92 54 86 55
REMARK SMILES IDX 85 56 41 58 73 59 53 60 72 61 54 62 57 63 71 64 90 65 55 66
REMARK SMILES IDX 56 67 70 69 91 70 58 71 42 72 43 73 51 74 44 75 45 76 49 77
REMARK SMILES IDX 52 78 46 79 47 80 50 81 48 82 74 83 75 84 83 85 76 86 77 87
REMARK SMILES IDX 81 88 84 89 78 90 79 91 82 92 80 93 59 94 60 95 68 96 61 97
REMARK SMILES IDX 62 98 66 99 69 100 63 101 64 102 67 103 65 104
REMARK H PARENT 23 6 11 12 30 38 89 57 57 68
REMARK Flexibility Score: inf
ROOT
ATOM      1  C   UNL A   1      32.010  28.813  27.197  1.00  0.00     0.021 C 
ENDROOT
BRANCH   1   2
ATOM      2  C   UNL A   1      32.070  27.321  26.870  1.00  0.00     0.116 C 
BRANCH   2   3
ATOM      3  N   UNL A   1      30.765  26.696  26.908  1.00  0.00    -0.356 N 
ATOM      4  C   UNL A   1      30.130  25.946  25.958  1.00  0.00     0.224 C 
ATOM      5  O   UNL A   1      29.072  25.396  26.274  1.00  0.00    -0.275 OA
ATOM      6  H   UNL A   1      30.259  26.831  27.741  1.00  0.00     0.163 HD
BRANCH   4   7
ATOM      7  C   UNL A   1      30.775  25.679  24.604  1.00  0.00     0.138 C 
BRANCH   7   8
ATOM      8  C   UNL A   1      31.011  26.894  23.753  1.00  0.00    -0.002 A 
ATOM      9  C   UNL A   1      32.236  27.416  23.350  1.00  0.00     0.093 A 
ATOM     10  N   UNL A   1      31.970  28.440  22.468  1.00  0.00    -0.351 N 
ATOM     11  C   UNL A   1      30.635  28.755  22.486  1.00  0.00     0.048 A 
ATOM     12  H   UNL A   1      32.644  28.882  21.904  1.00  0.00     0.167 HD
ATOM     13  C   UNL A   1      30.004  27.807  23.289  1.00  0.00     0.004 A 
ATOM     14  C   UNL A   1      29.946  29.798  21.854  1.00  0.00     0.047 A 
ATOM     15  C   UNL A   1      28.608  27.908  23.474  1.00  0.00     0.012 A 
ATOM     16  C   UNL A   1      28.565  29.874  22.062  1.00  0.00     0.043 A 
ATOM     17  C   UNL A   1      27.900  28.947  22.859  1.00  0.00     0.021 A 
ATOM     18  Cl  UNL A   1      27.673  31.143  21.316  1.00  0.00    -0.084 Cl
BRANCH   9  19
ATOM     19  C   UNL A   1      33.582  26.992  23.713  1.00  0.00     0.227 C 
ATOM     20  O   UNL A   1      34.495  27.801  23.827  1.00  0.00    -0.285 OA
BRANCH  19  21
ATOM     21  C   UNL A   1      33.813  25.515  23.958  1.00  0.00     0.113 A 
ATOM     22  C   UNL A   1      34.315  22.830  24.291  1.00  0.00     0.140 A 
ATOM     23  C   UNL A   1      33.873  23.373  23.089  1.00  0.00     0.158 A 
ATOM     24  C   UNL A   1      34.560  23.685  25.364  1.00  0.00    -0.002 A 
ATOM     25  N   UNL A   1      33.634  24.691  22.895  1.00  0.00    -0.249 NA
ATOM     26  C   UNL A   1      34.231  25.037  25.204  1.00  0.00     0.040 A 
BRANCH  22  27
ATOM     27  O   UNL A   1      34.589  21.496  24.387  1.00  0.00    -0.492 OA
BRANCH  27  28
ATOM     28  C   UNL A   1      33.392  20.706  24.427  1.00  0.00     0.226 C 
ATOM     29  C   UNL A   1      33.759  19.231  24.423  1.00  0.00     0.049 C 
ENDBRANCH  27  28
ENDBRANCH  22  27
BRANCH  24  30
ATOM     30  C   UNL A   1      35.157  23.207  26.665  1.00  0.00     0.036 C 
ATOM     31  C   UNL A   1      34.132  22.546  27.583  1.00  0.00     0.009 C 
ENDBRANCH  24  30
ENDBRANCH  19  21
ENDBRANCH   9  19
ENDBRANCH   7   8
ENDBRANCH   4   7
ENDBRANCH   2   3
ENDBRANCH   1   2
BRANCH   1  32
ATOM     32  C   UNL A   1      32.370  29.737  26.027  1.00  0.00     0.002 C 
BRANCH  32  33
ATOM     33  C   UNL A   1      31.258  30.684  25.561  1.00  0.00     0.002 C 
BRANCH  33  34
ATOM     34  C   UNL A   1      31.122  31.987  26.354  1.00  0.00     0.021 C 
BRANCH  34  35
ATOM     35  C   UNL A   1      32.420  32.516  26.960  1.00  0.00     0.116 C 
BRANCH  35  36
ATOM     36  N   UNL A   1      32.302  33.894  27.404  1.00  0.00    -0.352 N 
ATOM     37  C   UNL A   1      33.003  34.568  28.372  1.00  0.00     0.251 C 
ATOM     38  H   UNL A   1      31.613  34.426  26.942  1.00  0.00     0.163 HD
ATOM     39  O   UNL A   1      32.645  35.688  28.724  1.00  0.00    -0.269 OA
BRANCH  37  40
ATOM     40  C   UNL A   1      34.186  33.948  29.011  1.00  0.00     0.039 A 
ATOM     41  C   UNL A   1      35.427  34.581  28.883  1.00  0.00     0.014 A 
ATOM     42  C   UNL A   1      34.088  32.733  29.696  1.00  0.00     0.014 A 
ATOM     43  C   UNL A   1      36.559  34.024  29.484  1.00  0.00     0.010 A 
ATOM     44  C   UNL A   1      35.206  32.207  30.341  1.00  0.00     0.010 A 
ATOM     45  C   UNL A   1      36.452  32.845  30.238  1.00  0.00    -0.014 A 
BRANCH  45  46
ATOM     46  C   UNL A   1      37.634  32.258  30.917  1.00  0.00     0.031 A 
ATOM     47  C   UNL A   1      38.431  31.175  30.245  1.00  0.00     0.074 A 
ATOM     48  C   UNL A   1      37.951  32.653  32.165  1.00  0.00     0.049 A 
ATOM     49  N   UNL A   1      39.439  30.479  30.708  1.00  0.00    -0.248 NA
ATOM     50  C   UNL A   1      38.024  30.810  28.879  1.00  0.00     0.031 C 
ATOM     51  C   UNL A   1      37.235  33.666  32.938  1.00  0.00     0.029 A 
ATOM     52  N   UNL A   1      38.953  32.236  33.006  1.00  0.00    -0.354 N 
ATOM     53  C   UNL A   1      39.770  29.582  29.702  1.00  0.00     0.074 A 
ATOM     54  C   UNL A   1      38.836  29.797  28.618  1.00  0.00     0.031 C 
ATOM     55  C   UNL A   1      37.826  33.803  34.137  1.00  0.00     0.029 A 
ATOM     56  C   UNL A   1      38.943  32.867  34.226  1.00  0.00     0.049 A 
ATOM     57  H   UNL A   1      39.616  31.552  32.758  1.00  0.00     0.167 HD
ATOM     58  C   UNL A   1      40.774  28.672  29.679  1.00  0.00     0.037 A 
ATOM     59  C   UNL A   1      39.742  32.703  35.297  1.00  0.00     0.037 A 
ATOM     60  C   UNL A   1      41.725  28.482  30.743  1.00  0.00     0.049 A 
ATOM     61  C   UNL A   1      40.861  31.701  35.238  1.00  0.00     0.074 A 
ATOM     62  C   UNL A   1      42.813  27.628  30.788  1.00  0.00     0.029 A 
ATOM     63  N   UNL A   1      41.703  29.165  31.950  1.00  0.00    -0.354 N 
ATOM     64  N   UNL A   1      41.197  30.894  34.262  1.00  0.00    -0.248 NA
ATOM     65  C   UNL A   1      41.716  31.591  36.429  1.00  0.00     0.031 C 
ATOM     66  C   UNL A   1      43.432  27.772  32.034  1.00  0.00     0.029 A 
ATOM     67  C   UNL A   1      42.750  28.741  32.751  1.00  0.00     0.049 A 
ATOM     68  H   UNL A   1      41.039  29.848  32.201  1.00  0.00     0.167 HD
ATOM     69  C   UNL A   1      42.313  30.200  34.708  1.00  0.00     0.074 A 
ATOM     70  C   UNL A   1      42.605  30.688  36.041  1.00  0.00     0.031 C 
ATOM     71  C   UNL A   1      43.032  29.244  34.070  1.00  0.00     0.037 A 
BRANCH  58  72
ATOM     72  C   UNL A   1      40.896  27.810  28.459  1.00  0.00     0.064 A 
ATOM     73  C   UNL A   1      40.199  26.598  28.345  1.00  0.00     0.173 A 
ATOM     74  C   UNL A   1      41.693  28.215  27.378  1.00  0.00     0.173 A 
ATOM     75  F   UNL A   1      39.434  26.162  29.357  1.00  0.00    -0.203 F 
ATOM     76  C   UNL A   1      40.317  25.809  27.203  1.00  0.00     0.198 A 
ATOM     77  C   UNL A   1      41.789  27.436  26.228  1.00  0.00     0.198 A 
ATOM     78  F   UNL A   1      42.376  29.368  27.436  1.00  0.00    -0.203 F 
ATOM     79  F   UNL A   1      39.676  24.634  27.134  1.00  0.00    -0.200 F 
ATOM     80  C   UNL A   1      41.106  26.231  26.144  1.00  0.00     0.200 A 
ATOM     81  F   UNL A   1      42.545  27.849  25.202  1.00  0.00    -0.200 F 
ATOM     82  F   UNL A   1      41.216  25.473  25.045  1.00  0.00    -0.200 F 
ENDBRANCH  58  72
BRANCH  59  83
ATOM     83  C   UNL A   1      39.528  33.531  36.510  1.00  0.00     0.064 A 
ATOM     84  C   UNL A   1      38.726  33.067  37.562  1.00  0.00     0.173 A 
ATOM     85  C   UNL A   1      40.119  34.795  36.645  1.00  0.00     0.173 A 
ATOM     86  F   UNL A   1      38.123  31.873  37.465  1.00  0.00    -0.203 F 
ATOM     87  C   UNL A   1      38.513  33.841  38.699  1.00  0.00     0.198 A 
ATOM     88  C   UNL A   1      39.924  35.560  37.793  1.00  0.00     0.198 A 
ATOM     89  F   UNL A   1      40.898  35.281  35.667  1.00  0.00    -0.203 F 
ATOM     90  F   UNL A   1      37.714  33.389  39.675  1.00  0.00    -0.200 F 
ATOM     91  C   UNL A   1      39.116  35.085  38.816  1.00  0.00     0.200 A 
ATOM     92  F   UNL A   1      40.516  36.756  37.907  1.00  0.00    -0.200 F 
ATOM     93  F   UNL A   1      38.914  35.829  39.913  1.00  0.00    -0.200 F 
ENDBRANCH  59  83
BRANCH  71  94
ATOM     94  C   UNL A   1      44.220  28.685  34.792  1.00  0.00     0.064 A 
ATOM     95  C   UNL A   1      44.115  27.551  35.608  1.00  0.00     0.173 A 
ATOM     96  C   UNL A   1      45.487  29.269  34.632  1.00  0.00     0.173 A 
ATOM     97  F   UNL A   1      42.922  26.969  35.804  1.00  0.00    -0.203 F 
ATOM     98  C   UNL A   1      45.232  27.030  36.255  1.00  0.00     0.198 A 
ATOM     99  C   UNL A   1      46.605  28.732  35.262  1.00  0.00     0.198 A 
ATOM    100  F   UNL A   1      45.638  30.354  33.858  1.00  0.00    -0.203 F 
ATOM    101  F   UNL A   1      45.103  25.967  37.060  1.00  0.00    -0.200 F 
ATOM    102  C   UNL A   1      46.476  27.618  36.076  1.00  0.00     0.200 A 
ATOM    103  F   UNL A   1      47.808  29.296  35.083  1.00  0.00    -0.200 F 
ATOM    104  F   UNL A   1      47.552  27.111  36.696  1.00  0.00    -0.200 F 
ENDBRANCH  71  94
ENDBRANCH  45  46
ENDBRANCH  37  40
ENDBRANCH  35  36
ENDBRANCH  34  35
ENDBRANCH  33  34
ENDBRANCH  32  33
ENDBRANCH   1  32
TORSDOF 19
ENDMDL
MODEL 3
REMARK VINA RESULT:     -11.8      5.784      9.988
REMARK SMILES CCOc1cnc(C(=O)c2[nH]c3cc(Cl)ccc3c2CC(=O)NCCCCCCNC(=O)c2ccc(-c3c4nc(c(-c5c(F)c(F)c(F)c(F)c5F)c5ccc([nH]5)c(-c5c(F)c(F)c(F)c(F)c5F)c5nc(c(-c6c(F)c(F)c(F)c(F)c6F)c6ccc3[nH]6)C=C5)C=C4)cc2)cc1CC
REMARK SMILES IDX 25 1 24 2 23 3 21 4 22 5 20 7 19 8 10 9 11 10 12 11 18 13
REMARK SMILES IDX 13 14 17 15 14 16 16 17 15 18 8 19 9 20 7 21 4 22 5 23 97 24
REMARK SMILES IDX 6 25 96 26 3 27 2 28 1 29 98 30 99 31 26 32 27 33 28 34
REMARK SMILES IDX 29 35 30 36 31 37 32 39 33 40 34 41 95 42 35 43 94 44 36 45
REMARK SMILES IDX 37 46 38 47 88 48 39 49 93 50 87 51 89 52 40 53 92 54 86 55
REMARK SMILES IDX 85 56 41 58 73 59 53 60 72 61 54 62 57 63 71 64 90 65 55 66
REMARK SMILES IDX 56 67 70 69 91 70 58 71 42 72 43 73 51 74 44 75 45 76 49 77
REMARK SMILES IDX 52 78 46 79 47 80 50 81 48 82 74 83 75 84 83 85 76 86 77 87
REMARK SMILES IDX 81 88 84 89 78 90 79 91 82 92 80 93 59 94 60 95 68 96 61 97
REMARK SMILES IDX 62 98 66 99 69 100 63 101 64 102 67 103 65 104
REMARK H PARENT 23 6 11 12 30 38 89 57 57 68
REMARK Flexibility Score: inf
ROOT
ATOM      1  C   UNL A   1      34.326  28.894  27.281  1.00  0.00     0.021 C 
ENDROOT
BRANCH   1   2
ATOM      2  C   UNL A   1      34.035  28.087  26.015  1.00  0.00     0.116 C 
BRANCH   2   3
ATOM      3  N   UNL A   1      32.969  27.127  26.207  1.00  0.00    -0.356 N 
ATOM      4  C   UNL A   1      32.836  25.862  25.708  1.00  0.00     0.224 C 
ATOM      5  O   UNL A   1      31.902  25.174  26.128  1.00  0.00    -0.275 OA
ATOM      6  H   UNL A   1      32.231  27.429  26.783  1.00  0.00     0.163 HD
BRANCH   4   7
ATOM      7  C   UNL A   1      33.883  25.268  24.775  1.00  0.00     0.138 C 
BRANCH   7   8
ATOM      8  C   UNL A   1      33.372  24.242  23.803  1.00  0.00    -0.002 A 
ATOM      9  C   UNL A   1      32.954  24.455  22.494  1.00  0.00     0.093 A 
ATOM     10  N   UNL A   1      32.709  23.219  21.940  1.00  0.00    -0.351 N 
ATOM     11  C   UNL A   1      32.711  22.249  22.910  1.00  0.00     0.048 A 
ATOM     12  H   UNL A   1      32.556  23.055  20.982  1.00  0.00     0.167 HD
ATOM     13  C   UNL A   1      33.117  22.859  24.095  1.00  0.00     0.004 A 
ATOM     14  C   UNL A   1      32.389  20.887  22.825  1.00  0.00     0.047 A 
ATOM     15  C   UNL A   1      33.202  22.068  25.261  1.00  0.00     0.012 A 
ATOM     16  C   UNL A   1      32.478  20.133  23.999  1.00  0.00     0.043 A 
ATOM     17  C   UNL A   1      32.877  20.708  25.202  1.00  0.00     0.021 A 
ATOM     18  Cl  UNL A   1      32.084  18.458  23.951  1.00  0.00    -0.084 Cl
BRANCH   9  19
ATOM     19  C   UNL A   1      32.815  25.709  21.764  1.00  0.00     0.227 C 
ATOM     20  O   UNL A   1      33.320  25.861  20.659  1.00  0.00    -0.285 OA
BRANCH  19  21
ATOM     21  C   UNL A   1      32.010  26.817  22.413  1.00  0.00     0.113 A 
ATOM     22  C   UNL A   1      30.592  28.915  23.489  1.00  0.00     0.140 A 
ATOM     23  C   UNL A   1      31.940  29.006  23.157  1.00  0.00     0.158 A 
ATOM     24  C   UNL A   1      29.914  27.726  23.227  1.00  0.00    -0.002 A 
ATOM     25  N   UNL A   1      32.656  27.994  22.611  1.00  0.00    -0.249 NA
ATOM     26  C   UNL A   1      30.664  26.644  22.747  1.00  0.00     0.040 A 
BRANCH  22  27
ATOM     27  O   UNL A   1      29.928  30.001  23.982  1.00  0.00    -0.492 OA
BRANCH  27  28
ATOM     28  C   UNL A   1      29.257  30.733  22.946  1.00  0.00     0.226 C 
ATOM     29  C   UNL A   1      28.079  31.487  23.542  1.00  0.00     0.049 C 
ENDBRANCH  27  28
ENDBRANCH  22  27
BRANCH  24  30
ATOM     30  C   UNL A   1      28.428  27.574  23.438  1.00  0.00     0.036 C 
ATOM     31  C   UNL A   1      28.057  26.264  24.130  1.00  0.00     0.009 C 
ENDBRANCH  24  30
ENDBRANCH  19  21
ENDBRANCH   9  19
ENDBRANCH   7   8
ENDBRANCH   4   7
ENDBRANCH   2   3
ENDBRANCH   1   2
BRANCH   1  32
ATOM     32  C   UNL A   1      33.788  30.330  27.261  1.00  0.00     0.002 C 
BRANCH  32  33
ATOM     33  C   UNL A   1      32.265  30.467  27.148  1.00  0.00     0.002 C 
BRANCH  33  34
ATOM     34  C   UNL A   1      31.742  31.894  26.955  1.00  0.00     0.021 C 
BRANCH  34  35
ATOM     35  C   UNL A   1      32.820  32.965  26.805  1.00  0.00     0.116 C 
BRANCH  35  36
ATOM     36  N   UNL A   1      32.506  34.173  27.550  1.00  0.00    -0.352 N 
ATOM     37  C   UNL A   1      33.036  34.642  28.726  1.00  0.00     0.251 C 
ATOM     38  H   UNL A   1      31.806  34.741  27.152  1.00  0.00     0.163 HD
ATOM     39  O   UNL A   1      32.523  35.602  29.293  1.00  0.00    -0.269 OA
BRANCH  37  40
ATOM     40  C   UNL A   1      34.219  33.988  29.330  1.00  0.00     0.039 A 
ATOM     41  C   UNL A   1      35.492  34.464  28.998  1.00  0.00     0.014 A 
ATOM     42  C   UNL A   1      34.084  32.889  30.184  1.00  0.00     0.014 A 
ATOM     43  C   UNL A   1      36.626  33.872  29.560  1.00  0.00     0.010 A 
ATOM     44  C   UNL A   1      35.212  32.334  30.787  1.00  0.00     0.010 A 
ATOM     45  C   UNL A   1      36.493  32.818  30.478  1.00  0.00    -0.014 A 
BRANCH  45  46
ATOM     46  C   UNL A   1      37.683  32.202  31.117  1.00  0.00     0.031 A 
ATOM     47  C   UNL A   1      38.463  31.140  30.394  1.00  0.00     0.074 A 
ATOM     48  C   UNL A   1      38.021  32.550  32.373  1.00  0.00     0.049 A 
ATOM     49  N   UNL A   1      39.475  30.423  30.815  1.00  0.00    -0.248 NA
ATOM     50  C   UNL A   1      38.033  30.827  29.022  1.00  0.00     0.031 C 
ATOM     51  C   UNL A   1      37.322  33.538  33.193  1.00  0.00     0.029 A 
ATOM     52  N   UNL A   1      39.033  32.098  33.183  1.00  0.00    -0.354 N 
ATOM     53  C   UNL A   1      39.786  29.562  29.772  1.00  0.00     0.074 A 
ATOM     54  C   UNL A   1      38.837  29.820  28.711  1.00  0.00     0.031 C 
ATOM     55  C   UNL A   1      37.932  33.627  34.387  1.00  0.00     0.029 A 
ATOM     56  C   UNL A   1      39.045  32.684  34.425  1.00  0.00     0.049 A 
ATOM     57  H   UNL A   1      39.689  31.421  32.900  1.00  0.00     0.167 HD
ATOM     58  C   UNL A   1      40.785  28.649  29.701  1.00  0.00     0.037 A 
ATOM     59  C   UNL A   1      39.860  32.478  35.477  1.00  0.00     0.037 A 
ATOM     60  C   UNL A   1      41.751  28.416  30.742  1.00  0.00     0.049 A 
ATOM     61  C   UNL A   1      40.973  31.474  35.364  1.00  0.00     0.074 A 
ATOM     62  C   UNL A   1      42.835  27.556  30.739  1.00  0.00     0.029 A 
ATOM     63  N   UNL A   1      41.751  29.055  31.974  1.00  0.00    -0.354 N 
ATOM     64  N   UNL A   1      41.290  30.701  34.354  1.00  0.00    -0.248 NA
ATOM     65  C   UNL A   1      41.846  31.317  36.536  1.00  0.00     0.031 C 
ATOM     66  C   UNL A   1      43.474  27.652  31.980  1.00  0.00     0.029 A 
ATOM     67  C   UNL A   1      42.808  28.598  32.742  1.00  0.00     0.049 A 
ATOM     68  H   UNL A   1      41.095  29.731  32.259  1.00  0.00     0.167 HD
ATOM     69  C   UNL A   1      42.409  29.986  34.757  1.00  0.00     0.074 A 
ATOM     70  C   UNL A   1      42.723  30.424  36.102  1.00  0.00     0.031 C 
ATOM     71  C   UNL A   1      43.113  29.051  34.074  1.00  0.00     0.037 A 
BRANCH  58  72
ATOM     72  C   UNL A   1      40.884  27.831  28.448  1.00  0.00     0.064 A 
ATOM     73  C   UNL A   1      40.221  26.602  28.322  1.00  0.00     0.173 A 
ATOM     74  C   UNL A   1      41.623  28.297  27.351  1.00  0.00     0.173 A 
ATOM     75  F   UNL A   1      39.511  26.109  29.348  1.00  0.00    -0.203 F 
ATOM     76  C   UNL A   1      40.316  25.854  27.150  1.00  0.00     0.198 A 
ATOM     77  C   UNL A   1      41.696  27.559  26.172  1.00  0.00     0.198 A 
ATOM     78  F   UNL A   1      42.272  29.469  27.420  1.00  0.00    -0.203 F 
ATOM     79  F   UNL A   1      39.710  24.663  27.067  1.00  0.00    -0.200 F 
ATOM     80  C   UNL A   1      41.048  26.336  26.075  1.00  0.00     0.200 A 
ATOM     81  F   UNL A   1      42.396  28.029  25.131  1.00  0.00    -0.200 F 
ATOM     82  F   UNL A   1      41.136  25.618  24.948  1.00  0.00    -0.200 F 
ENDBRANCH  58  72
BRANCH  59  83
ATOM     83  C   UNL A   1      39.668  33.263  36.722  1.00  0.00     0.064 A 
ATOM     84  C   UNL A   1      40.369  34.459  36.929  1.00  0.00     0.173 A 
ATOM     85  C   UNL A   1      38.783  32.839  37.723  1.00  0.00     0.173 A 
ATOM     86  F   UNL A   1      41.243  34.890  36.007  1.00  0.00    -0.203 F 
ATOM     87  C   UNL A   1      40.201  35.196  38.098  1.00  0.00     0.198 A 
ATOM     88  C   UNL A   1      38.599  33.590  38.882  1.00  0.00     0.198 A 
ATOM     89  F   UNL A   1      38.087  31.703  37.568  1.00  0.00    -0.203 F 
ATOM     90  F   UNL A   1      40.909  36.318  38.287  1.00  0.00    -0.200 F 
ATOM     91  C   UNL A   1      39.312  34.765  39.071  1.00  0.00     0.200 A 
ATOM     92  F   UNL A   1      37.732  33.175  39.815  1.00  0.00    -0.200 F 
ATOM     93  F   UNL A   1      39.148  35.477  40.194  1.00  0.00    -0.200 F 
ENDBRANCH  59  83
BRANCH  71  94
ATOM     94  C   UNL A   1      44.309  28.461  34.756  1.00  0.00     0.064 A 
ATOM     95  C   UNL A   1      45.576  29.054  34.657  1.00  0.00     0.173 A 
ATOM     96  C   UNL A   1      44.179  27.312  35.551  1.00  0.00     0.173 A 
ATOM     97  F   UNL A   1      45.753  30.144  33.896  1.00  0.00    -0.203 F 
ATOM     98  C   UNL A   1      46.674  28.506  35.315  1.00  0.00     0.198 A 
ATOM     99  C   UNL A   1      45.274  26.781  36.224  1.00  0.00     0.198 A 
ATOM    100  F   UNL A   1      42.986  26.711  35.678  1.00  0.00    -0.203 F 
ATOM    101  F   UNL A   1      47.883  29.068  35.178  1.00  0.00    -0.200 F 
ATOM    102  C   UNL A   1      46.520  27.374  36.102  1.00  0.00     0.200 A 
ATOM    103  F   UNL A   1      45.123  25.691  36.991  1.00  0.00    -0.200 F 
ATOM    104  F   UNL A   1      47.578  26.852  36.739  1.00  0.00    -0.200 F 
ENDBRANCH  71  94
ENDBRANCH  45  46
ENDBRANCH  37  40
ENDBRANCH  35  36
ENDBRANCH  34  35
ENDBRANCH  33  34
ENDBRANCH  32  33
ENDBRANCH   1  32
TORSDOF 19
ENDMDL
