MODEL 1
REMARK VINA RESULT:     -12.0      0.000      0.000
REMARK SMILES O=C(C[N@@H+]1CCC[C@H]1C(=O)NCCCCCCNC(=O)c1ccc(-c2c3nc(c(-c4c(F)c(F)c(F)c(F)c4F)c4ccc([nH]4)c(-c4c(F)c(F)c(F)c(F)c4F)c4nc(c(-c5c(F)c(F)c(F)c(F)c5F)c5ccc2[nH]5)C=C4)C=C3)cc1)Nc1ccc(F)c(F)c1F
REMARK SMILES IDX 14 1 13 2 12 3 11 4 9 5 10 6 8 8 4 9 5 10 6 12 7 13 3 14
REMARK SMILES IDX 2 15 1 16 84 17 85 19 86 20 92 21 87 22 90 23 93 24 88 25
REMARK SMILES IDX 91 26 89 27 15 28 16 29 17 30 18 31 19 32 20 34 21 35 22 36
REMARK SMILES IDX 83 37 23 38 82 39 24 40 25 41 26 42 76 43 27 44 81 45 75 46
REMARK SMILES IDX 77 47 28 48 80 49 74 50 73 51 29 53 61 54 41 55 60 56 42 57
REMARK SMILES IDX 45 58 59 59 78 60 43 61 44 62 58 64 79 65 46 66 30 67 31 68
REMARK SMILES IDX 39 69 32 70 33 71 37 72 40 73 34 74 35 75 38 76 36 77 62 78
REMARK SMILES IDX 63 79 71 80 64 81 65 82 69 83 72 84 66 85 67 86 70 87 68 88
REMARK SMILES IDX 47 89 48 90 56 91 49 92 50 93 54 94 57 95 51 96 52 97 55 98
REMARK SMILES IDX 53 99
REMARK H PARENT 11 7 4 11 84 18 18 33 77 52 45 63
REMARK Flexibility Score: inf
ROOT
ATOM      1  C   UNL A   1      36.979  21.785  24.959  1.00  0.00     0.002 C 
ENDROOT
BRANCH   1   2
ATOM      2  C   UNL A   1      35.707  22.629  24.848  1.00  0.00     0.021 C 
BRANCH   2   3
ATOM      3  C   UNL A   1      35.944  24.120  25.092  1.00  0.00     0.116 C 
BRANCH   3   4
ATOM      4  N   UNL A   1      34.842  24.725  25.809  1.00  0.00    -0.351 N 
ATOM      5  C   UNL A   1      33.859  25.585  25.418  1.00  0.00     0.278 C 
ATOM      6  O   UNL A   1      33.105  25.987  26.313  1.00  0.00    -0.268 OA
ATOM      7  H   UNL A   1      34.793  24.468  26.757  1.00  0.00     0.163 HD
BRANCH   5   8
ATOM      8  C   UNL A   1      33.640  26.052  23.957  1.00  0.00     0.274 C 
ATOM      9  N   UNL A   1      32.247  25.789  23.502  1.00  0.00    -0.317 N 
ATOM     10  C   UNL A   1      31.597  27.083  23.329  1.00  0.00     0.263 C 
ATOM     11  H   UNL A   1      31.723  25.262  24.201  1.00  0.00     0.349 HD
ATOM     12  C   UNL A   1      32.695  28.092  23.053  1.00  0.00     0.068 C 
ATOM     13  C   UNL A   1      33.942  27.526  23.710  1.00  0.00     0.081 C 
BRANCH   9  14
ATOM     14  C   UNL A   1      32.198  24.891  22.318  1.00  0.00     0.364 C 
BRANCH  14  15
ATOM     15  C   UNL A   1      32.808  23.492  22.541  1.00  0.00     0.279 C 
ATOM     16  O   UNL A   1      33.853  23.134  22.005  1.00  0.00    -0.268 OA
ATOM     17  N   UNL A   1      31.985  22.661  23.296  1.00  0.00    -0.319 N 
ATOM     18  H   UNL A   1      31.208  23.055  23.754  1.00  0.00     0.170 HD
BRANCH  17  19
ATOM     19  C   UNL A   1      32.220  21.282  23.428  1.00  0.00     0.080 A 
ATOM     20  C   UNL A   1      32.658  20.808  24.671  1.00  0.00     0.032 A 
ATOM     21  C   UNL A   1      32.080  20.399  22.354  1.00  0.00     0.185 A 
ATOM     22  C   UNL A   1      32.897  19.446  24.852  1.00  0.00     0.045 A 
ATOM     23  C   UNL A   1      32.378  19.052  22.523  1.00  0.00     0.196 A 
ATOM     24  F   UNL A   1      31.767  20.862  21.135  1.00  0.00    -0.201 F 
ATOM     25  C   UNL A   1      32.768  18.579  23.772  1.00  0.00     0.162 A 
ATOM     26  F   UNL A   1      32.327  18.214  21.478  1.00  0.00    -0.200 F 
ATOM     27  F   UNL A   1      33.043  17.279  23.946  1.00  0.00    -0.204 F 
ENDBRANCH  17  19
ENDBRANCH  14  15
ENDBRANCH   9  14
ENDBRANCH   5   8
ENDBRANCH   3   4
ENDBRANCH   2   3
ENDBRANCH   1   2
BRANCH   1  28
ATOM     28  C   UNL A   1      36.743  20.267  24.944  1.00  0.00     0.002 C 
BRANCH  28  29
ATOM     29  C   UNL A   1      38.010  19.405  24.937  1.00  0.00     0.021 C 
BRANCH  29  30
ATOM     30  C   UNL A   1      39.182  19.992  25.717  1.00  0.00     0.116 C 
BRANCH  30  31
ATOM     31  N   UNL A   1      40.249  19.019  25.898  1.00  0.00    -0.352 N 
ATOM     32  C   UNL A   1      41.590  19.220  26.073  1.00  0.00     0.251 C 
ATOM     33  H   UNL A   1      39.963  18.076  25.893  1.00  0.00     0.163 HD
ATOM     34  O   UNL A   1      42.379  18.277  25.960  1.00  0.00    -0.269 OA
BRANCH  32  35
ATOM     35  C   UNL A   1      42.105  20.565  26.396  1.00  0.00     0.039 A 
ATOM     36  C   UNL A   1      42.504  21.409  25.354  1.00  0.00     0.014 A 
ATOM     37  C   UNL A   1      42.229  20.980  27.725  1.00  0.00     0.014 A 
ATOM     38  C   UNL A   1      42.979  22.688  25.645  1.00  0.00     0.010 A 
ATOM     39  C   UNL A   1      42.640  22.280  28.009  1.00  0.00     0.010 A 
ATOM     40  C   UNL A   1      43.026  23.143  26.972  1.00  0.00    -0.014 A 
BRANCH  40  41
ATOM     41  C   UNL A   1      43.484  24.517  27.300  1.00  0.00     0.031 A 
ATOM     42  C   UNL A   1      42.512  25.528  27.836  1.00  0.00     0.074 A 
ATOM     43  C   UNL A   1      44.760  24.868  27.051  1.00  0.00     0.049 A 
ATOM     44  N   UNL A   1      42.699  26.795  28.110  1.00  0.00    -0.248 NA
ATOM     45  C   UNL A   1      41.135  25.064  28.069  1.00  0.00     0.031 C 
ATOM     46  C   UNL A   1      45.784  23.986  26.490  1.00  0.00     0.029 A 
ATOM     47  N   UNL A   1      45.410  26.064  27.227  1.00  0.00    -0.354 N 
ATOM     48  C   UNL A   1      41.468  27.278  28.532  1.00  0.00     0.074 A 
ATOM     49  C   UNL A   1      40.527  26.185  28.427  1.00  0.00     0.031 C 
ATOM     50  C   UNL A   1      46.938  24.665  26.385  1.00  0.00     0.029 A 
ATOM     51  C   UNL A   1      46.726  26.037  26.836  1.00  0.00     0.049 A 
ATOM     52  H   UNL A   1      44.974  26.865  27.599  1.00  0.00     0.167 HD
ATOM     53  C   UNL A   1      41.156  28.516  28.985  1.00  0.00     0.037 A 
ATOM     54  C   UNL A   1      47.655  27.012  26.835  1.00  0.00     0.037 A 
ATOM     55  C   UNL A   1      42.104  29.591  29.113  1.00  0.00     0.049 A 
ATOM     56  C   UNL A   1      47.282  28.379  27.344  1.00  0.00     0.074 A 
ATOM     57  C   UNL A   1      41.903  30.863  29.622  1.00  0.00     0.029 A 
ATOM     58  N   UNL A   1      43.435  29.521  28.727  1.00  0.00    -0.354 N 
ATOM     59  N   UNL A   1      46.130  28.805  27.803  1.00  0.00    -0.248 NA
ATOM     60  C   UNL A   1      48.341  29.398  27.340  1.00  0.00     0.031 C 
ATOM     61  C   UNL A   1      43.100  31.577  29.499  1.00  0.00     0.029 A 
ATOM     62  C   UNL A   1      44.061  30.735  28.964  1.00  0.00     0.049 A 
ATOM     63  H   UNL A   1      43.870  28.726  28.342  1.00  0.00     0.167 HD
ATOM     64  C   UNL A   1      46.332  30.129  28.170  1.00  0.00     0.074 A 
ATOM     65  C   UNL A   1      47.722  30.431  27.893  1.00  0.00     0.031 C 
ATOM     66  C   UNL A   1      45.447  31.015  28.688  1.00  0.00     0.037 A 
BRANCH  53  67
ATOM     67  C   UNL A   1      39.731  28.773  29.381  1.00  0.00     0.064 A 
ATOM     68  C   UNL A   1      39.273  28.530  30.684  1.00  0.00     0.173 A 
ATOM     69  C   UNL A   1      38.820  29.305  28.455  1.00  0.00     0.173 A 
ATOM     70  F   UNL A   1      40.100  28.011  31.604  1.00  0.00    -0.203 F 
ATOM     71  C   UNL A   1      37.949  28.781  31.039  1.00  0.00     0.198 A 
ATOM     72  C   UNL A   1      37.506  29.585  28.822  1.00  0.00     0.198 A 
ATOM     73  F   UNL A   1      39.207  29.563  27.197  1.00  0.00    -0.203 F 
ATOM     74  F   UNL A   1      37.522  28.492  32.276  1.00  0.00    -0.200 F 
ATOM     75  C   UNL A   1      37.070  29.315  30.109  1.00  0.00     0.200 A 
ATOM     76  F   UNL A   1      36.661  30.113  27.925  1.00  0.00    -0.200 F 
ATOM     77  F   UNL A   1      35.798  29.563  30.453  1.00  0.00    -0.200 F 
ENDBRANCH  53  67
BRANCH  54  78
ATOM     78  C   UNL A   1      49.032  26.726  26.357  1.00  0.00     0.064 A 
ATOM     79  C   UNL A   1      49.398  26.978  25.026  1.00  0.00     0.173 A 
ATOM     80  C   UNL A   1      50.007  26.195  27.213  1.00  0.00     0.173 A 
ATOM     81  F   UNL A   1      48.495  27.467  24.165  1.00  0.00    -0.203 F 
ATOM     82  C   UNL A   1      50.681  26.689  24.566  1.00  0.00     0.198 A 
ATOM     83  C   UNL A   1      51.298  25.934  26.759  1.00  0.00     0.198 A 
ATOM     84  F   UNL A   1      49.710  25.943  28.496  1.00  0.00    -0.203 F 
ATOM     85  F   UNL A   1      50.991  26.896  23.279  1.00  0.00    -0.200 F 
ATOM     86  C   UNL A   1      51.632  26.172  25.434  1.00  0.00     0.200 A 
ATOM     87  F   UNL A   1      52.218  25.451  27.604  1.00  0.00    -0.200 F 
ATOM     88  F   UNL A   1      52.867  25.899  24.993  1.00  0.00    -0.200 F 
ENDBRANCH  54  78
BRANCH  66  89
ATOM     89  C   UNL A   1      45.962  32.384  29.024  1.00  0.00     0.064 A 
ATOM     90  C   UNL A   1      45.893  33.442  28.106  1.00  0.00     0.173 A 
ATOM     91  C   UNL A   1      46.493  32.650  30.295  1.00  0.00     0.173 A 
ATOM     92  F   UNL A   1      45.408  33.235  26.872  1.00  0.00    -0.203 F 
ATOM     93  C   UNL A   1      46.362  34.710  28.440  1.00  0.00     0.198 A 
ATOM     94  C   UNL A   1      46.932  33.926  30.636  1.00  0.00     0.198 A 
ATOM     95  F   UNL A   1      46.574  31.674  31.213  1.00  0.00    -0.203 F 
ATOM     96  F   UNL A   1      46.331  35.694  27.531  1.00  0.00    -0.200 F 
ATOM     97  C   UNL A   1      46.873  34.952  29.707  1.00  0.00     0.200 A 
ATOM     98  F   UNL A   1      47.412  34.162  31.865  1.00  0.00    -0.200 F 
ATOM     99  F   UNL A   1      47.316  36.176  30.028  1.00  0.00    -0.200 F 
ENDBRANCH  66  89
ENDBRANCH  40  41
ENDBRANCH  32  35
ENDBRANCH  30  31
ENDBRANCH  29  30
ENDBRANCH  28  29
ENDBRANCH   1  28
TORSDOF 16
ENDMDL
MODEL 2
REMARK VINA RESULT:     -12.0      6.309     11.047
REMARK SMILES O=C(C[N@@H+]1CCC[C@H]1C(=O)NCCCCCCNC(=O)c1ccc(-c2c3nc(c(-c4c(F)c(F)c(F)c(F)c4F)c4ccc([nH]4)c(-c4c(F)c(F)c(F)c(F)c4F)c4nc(c(-c5c(F)c(F)c(F)c(F)c5F)c5ccc2[nH]5)C=C4)C=C3)cc1)Nc1ccc(F)c(F)c1F
REMARK SMILES IDX 14 1 13 2 12 3 11 4 9 5 10 6 8 8 4 9 5 10 6 12 7 13 3 14
REMARK SMILES IDX 2 15 1 16 84 17 85 19 86 20 92 21 87 22 90 23 93 24 88 25
REMARK SMILES IDX 91 26 89 27 15 28 16 29 17 30 18 31 19 32 20 34 21 35 22 36
REMARK SMILES IDX 83 37 23 38 82 39 24 40 25 41 26 42 76 43 27 44 81 45 75 46
REMARK SMILES IDX 77 47 28 48 80 49 74 50 73 51 29 53 61 54 41 55 60 56 42 57
REMARK SMILES IDX 45 58 59 59 78 60 43 61 44 62 58 64 79 65 46 66 30 67 31 68
REMARK SMILES IDX 39 69 32 70 33 71 37 72 40 73 34 74 35 75 38 76 36 77 62 78
REMARK SMILES IDX 63 79 71 80 64 81 65 82 69 83 72 84 66 85 67 86 70 87 68 88
REMARK SMILES IDX 47 89 48 90 56 91 49 92 50 93 54 94 57 95 51 96 52 97 55 98
REMARK SMILES IDX 53 99
REMARK H PARENT 11 7 4 11 84 18 18 33 77 52 45 63
REMARK Flexibility Score: inf
ROOT
ATOM      1  C   UNL A   1      34.586  32.199  28.177  1.00  0.00     0.002 C 
ENDROOT
BRANCH   1   2
ATOM      2  C   UNL A   1      33.474  31.511  27.381  1.00  0.00     0.021 C 
BRANCH   2   3
ATOM      3  C   UNL A   1      33.673  30.000  27.239  1.00  0.00     0.116 C 
BRANCH   3   4
ATOM      4  N   UNL A   1      34.006  29.632  25.880  1.00  0.00    -0.351 N 
ATOM      5  C   UNL A   1      33.567  28.626  25.071  1.00  0.00     0.278 C 
ATOM      6  O   UNL A   1      34.125  28.535  23.970  1.00  0.00    -0.268 OA
ATOM      7  H   UNL A   1      34.677  30.217  25.460  1.00  0.00     0.163 HD
BRANCH   5   8
ATOM      8  C   UNL A   1      32.431  27.640  25.445  1.00  0.00     0.274 C 
ATOM      9  N   UNL A   1      31.899  26.938  24.244  1.00  0.00    -0.317 N 
ATOM     10  C   UNL A   1      32.276  25.535  24.362  1.00  0.00     0.263 C 
ATOM     11  H   UNL A   1      32.312  27.307  23.388  1.00  0.00     0.349 HD
ATOM     12  C   UNL A   1      32.451  25.251  25.842  1.00  0.00     0.068 C 
ATOM     13  C   UNL A   1      32.821  26.582  26.471  1.00  0.00     0.081 C 
BRANCH   9  14
ATOM     14  C   UNL A   1      30.448  27.191  24.037  1.00  0.00     0.364 C 
BRANCH  14  15
ATOM     15  C   UNL A   1      30.123  28.281  22.996  1.00  0.00     0.279 C 
ATOM     16  O   UNL A   1      30.860  28.527  22.046  1.00  0.00    -0.268 OA
ATOM     17  N   UNL A   1      28.991  29.021  23.327  1.00  0.00    -0.319 N 
ATOM     18  H   UNL A   1      28.415  28.701  24.058  1.00  0.00     0.170 HD
BRANCH  17  19
ATOM     19  C   UNL A   1      28.641  30.205  22.659  1.00  0.00     0.080 A 
ATOM     20  C   UNL A   1      28.089  30.095  21.375  1.00  0.00     0.032 A 
ATOM     21  C   UNL A   1      28.872  31.467  23.212  1.00  0.00     0.185 A 
ATOM     22  C   UNL A   1      27.718  31.243  20.676  1.00  0.00     0.045 A 
ATOM     23  C   UNL A   1      28.558  32.609  22.487  1.00  0.00     0.196 A 
ATOM     24  F   UNL A   1      29.498  31.582  24.393  1.00  0.00    -0.201 F 
ATOM     25  C   UNL A   1      27.968  32.494  21.232  1.00  0.00     0.162 A 
ATOM     26  F   UNL A   1      28.854  33.822  22.976  1.00  0.00    -0.200 F 
ATOM     27  F   UNL A   1      27.648  33.591  20.532  1.00  0.00    -0.204 F 
ENDBRANCH  17  19
ENDBRANCH  14  15
ENDBRANCH   9  14
ENDBRANCH   5   8
ENDBRANCH   3   4
ENDBRANCH   2   3
ENDBRANCH   1   2
BRANCH   1  28
ATOM     28  C   UNL A   1      34.604  33.730  28.058  1.00  0.00     0.002 C 
BRANCH  28  29
ATOM     29  C   UNL A   1      33.279  34.429  28.381  1.00  0.00     0.021 C 
BRANCH  29  30
ATOM     30  C   UNL A   1      33.421  35.882  28.827  1.00  0.00     0.116 C 
BRANCH  30  31
ATOM     31  N   UNL A   1      32.647  36.152  30.031  1.00  0.00    -0.352 N 
ATOM     32  C   UNL A   1      32.768  35.614  31.282  1.00  0.00     0.251 C 
ATOM     33  H   UNL A   1      31.932  36.821  29.929  1.00  0.00     0.163 HD
ATOM     34  O   UNL A   1      31.871  35.774  32.115  1.00  0.00    -0.269 OA
BRANCH  32  35
ATOM     35  C   UNL A   1      33.968  34.837  31.646  1.00  0.00     0.039 A 
ATOM     36  C   UNL A   1      35.194  35.498  31.778  1.00  0.00     0.014 A 
ATOM     37  C   UNL A   1      33.894  33.452  31.821  1.00  0.00     0.014 A 
ATOM     38  C   UNL A   1      36.333  34.776  32.136  1.00  0.00     0.010 A 
ATOM     39  C   UNL A   1      35.016  32.745  32.242  1.00  0.00     0.010 A 
ATOM     40  C   UNL A   1      36.249  33.399  32.396  1.00  0.00    -0.014 A 
BRANCH  40  41
ATOM     41  C   UNL A   1      37.439  32.622  32.823  1.00  0.00     0.031 A 
ATOM     42  C   UNL A   1      38.122  32.941  34.122  1.00  0.00     0.074 A 
ATOM     43  C   UNL A   1      37.939  31.674  32.009  1.00  0.00     0.049 A 
ATOM     44  N   UNL A   1      39.214  32.429  34.633  1.00  0.00    -0.248 NA
ATOM     45  C   UNL A   1      37.515  33.998  34.947  1.00  0.00     0.031 C 
ATOM     46  C   UNL A   1      37.389  31.305  30.704  1.00  0.00     0.029 A 
ATOM     47  N   UNL A   1      39.031  30.855  32.153  1.00  0.00    -0.354 N 
ATOM     48  C   UNL A   1      39.430  33.109  35.824  1.00  0.00     0.074 A 
ATOM     49  C   UNL A   1      38.388  34.106  35.937  1.00  0.00     0.031 C 
ATOM     50  C   UNL A   1      38.135  30.322  30.175  1.00  0.00     0.029 A 
ATOM     51  C   UNL A   1      39.235  30.016  31.085  1.00  0.00     0.049 A 
ATOM     52  H   UNL A   1      39.614  30.868  32.947  1.00  0.00     0.167 HD
ATOM     53  C   UNL A   1      40.397  32.904  36.750  1.00  0.00     0.037 A 
ATOM     54  C   UNL A   1      40.204  29.108  30.862  1.00  0.00     0.037 A 
ATOM     55  C   UNL A   1      41.414  31.891  36.645  1.00  0.00     0.049 A 
ATOM     56  C   UNL A   1      41.267  28.900  31.907  1.00  0.00     0.074 A 
ATOM     57  C   UNL A   1      42.401  31.560  37.558  1.00  0.00     0.029 A 
ATOM     58  N   UNL A   1      41.577  31.044  35.558  1.00  0.00    -0.354 N 
ATOM     59  N   UNL A   1      41.422  29.504  33.061  1.00  0.00    -0.248 NA
ATOM     60  C   UNL A   1      42.286  27.882  31.621  1.00  0.00     0.031 C 
ATOM     61  C   UNL A   1      43.189  30.546  37.002  1.00  0.00     0.029 A 
ATOM     62  C   UNL A   1      42.662  30.208  35.766  1.00  0.00     0.049 A 
ATOM     63  H   UNL A   1      41.004  31.039  34.756  1.00  0.00     0.167 HD
ATOM     64  C   UNL A   1      42.535  28.919  33.650  1.00  0.00     0.074 A 
ATOM     65  C   UNL A   1      43.008  27.903  32.733  1.00  0.00     0.031 C 
ATOM     66  C   UNL A   1      43.114  29.198  34.844  1.00  0.00     0.037 A 
BRANCH  53  67
ATOM     67  C   UNL A   1      40.400  33.791  37.961  1.00  0.00     0.064 A 
ATOM     68  C   UNL A   1      39.614  33.504  39.087  1.00  0.00     0.173 A 
ATOM     69  C   UNL A   1      41.227  34.924  38.013  1.00  0.00     0.173 A 
ATOM     70  F   UNL A   1      38.796  32.440  39.085  1.00  0.00    -0.203 F 
ATOM     71  C   UNL A   1      39.632  34.332  40.207  1.00  0.00     0.198 A 
ATOM     72  C   UNL A   1      41.268  35.732  39.146  1.00  0.00     0.198 A 
ATOM     73  F   UNL A   1      42.004  35.242  36.966  1.00  0.00    -0.203 F 
ATOM     74  F   UNL A   1      38.834  34.065  41.250  1.00  0.00    -0.200 F 
ATOM     75  C   UNL A   1      40.465  35.441  40.238  1.00  0.00     0.200 A 
ATOM     76  F   UNL A   1      42.082  36.796  39.179  1.00  0.00    -0.200 F 
ATOM     77  F   UNL A   1      40.487  36.233  41.318  1.00  0.00    -0.200 F 
ENDBRANCH  53  67
BRANCH  54  78
ATOM     78  C   UNL A   1      40.201  28.311  29.608  1.00  0.00     0.064 A 
ATOM     79  C   UNL A   1      39.519  27.087  29.536  1.00  0.00     0.173 A 
ATOM     80  C   UNL A   1      40.876  28.751  28.461  1.00  0.00     0.173 A 
ATOM     81  F   UNL A   1      38.875  26.616  30.613  1.00  0.00    -0.203 F 
ATOM     82  C   UNL A   1      39.532  26.325  28.370  1.00  0.00     0.198 A 
ATOM     83  C   UNL A   1      40.864  28.001  27.287  1.00  0.00     0.198 A 
ATOM     84  F   UNL A   1      41.536  29.919  28.475  1.00  0.00    -0.203 F 
ATOM     85  F   UNL A   1      38.912  25.137  28.343  1.00  0.00    -0.200 F 
ATOM     86  C   UNL A   1      40.199  26.784  27.245  1.00  0.00     0.200 A 
ATOM     87  F   UNL A   1      41.495  28.457  26.197  1.00  0.00    -0.200 F 
ATOM     88  F   UNL A   1      40.208  26.053  26.123  1.00  0.00    -0.200 F 
ENDBRANCH  54  78
BRANCH  66  89
ATOM     89  C   UNL A   1      44.300  28.370  35.243  1.00  0.00     0.064 A 
ATOM     90  C   UNL A   1      44.152  27.158  35.934  1.00  0.00     0.173 A 
ATOM     91  C   UNL A   1      45.597  28.773  34.892  1.00  0.00     0.173 A 
ATOM     92  F   UNL A   1      42.934  26.736  36.306  1.00  0.00    -0.203 F 
ATOM     93  C   UNL A   1      45.263  26.395  36.283  1.00  0.00     0.198 A 
ATOM     94  C   UNL A   1      46.703  27.992  35.215  1.00  0.00     0.198 A 
ATOM     95  F   UNL A   1      45.792  29.920  34.224  1.00  0.00    -0.203 F 
ATOM     96  F   UNL A   1      45.103  25.265  36.985  1.00  0.00    -0.200 F 
ATOM     97  C   UNL A   1      46.536  26.808  35.916  1.00  0.00     0.200 A 
ATOM     98  F   UNL A   1      47.930  28.385  34.848  1.00  0.00    -0.200 F 
ATOM     99  F   UNL A   1      47.603  26.067  36.247  1.00  0.00    -0.200 F 
ENDBRANCH  66  89
ENDBRANCH  40  41
ENDBRANCH  32  35
ENDBRANCH  30  31
ENDBRANCH  29  30
ENDBRANCH  28  29
ENDBRANCH   1  28
TORSDOF 16
ENDMDL
MODEL 3
REMARK VINA RESULT:     -12.0      1.334      2.234
REMARK SMILES O=C(C[N@@H+]1CCC[C@H]1C(=O)NCCCCCCNC(=O)c1ccc(-c2c3nc(c(-c4c(F)c(F)c(F)c(F)c4F)c4ccc([nH]4)c(-c4c(F)c(F)c(F)c(F)c4F)c4nc(c(-c5c(F)c(F)c(F)c(F)c5F)c5ccc2[nH]5)C=C4)C=C3)cc1)Nc1ccc(F)c(F)c1F
REMARK SMILES IDX 14 1 13 2 12 3 11 4 9 5 10 6 8 8 4 9 5 10 6 12 7 13 3 14
REMARK SMILES IDX 2 15 1 16 84 17 85 19 86 20 92 21 87 22 90 23 93 24 88 25
REMARK SMILES IDX 91 26 89 27 15 28 16 29 17 30 18 31 19 32 20 34 21 35 22 36
REMARK SMILES IDX 83 37 23 38 82 39 24 40 25 41 26 42 76 43 27 44 81 45 75 46
REMARK SMILES IDX 77 47 28 48 80 49 74 50 73 51 29 53 61 54 41 55 60 56 42 57
REMARK SMILES IDX 45 58 59 59 78 60 43 61 44 62 58 64 79 65 46 66 30 67 31 68
REMARK SMILES IDX 39 69 32 70 33 71 37 72 40 73 34 74 35 75 38 76 36 77 62 78
REMARK SMILES IDX 63 79 71 80 64 81 65 82 69 83 72 84 66 85 67 86 70 87 68 88
REMARK SMILES IDX 47 89 48 90 56 91 49 92 50 93 54 94 57 95 51 96 52 97 55 98
REMARK SMILES IDX 53 99
REMARK H PARENT 11 7 4 11 84 18 18 33 77 52 45 63
REMARK Flexibility Score: inf
ROOT
ATOM      1  C   UNL A   1      38.608  23.378  26.648  1.00  0.00     0.002 C 
ENDROOT
BRANCH   1   2
ATOM      2  C   UNL A   1      37.257  24.082  26.499  1.00  0.00     0.021 C 
BRANCH   2   3
ATOM      3  C   UNL A   1      36.175  23.195  25.881  1.00  0.00     0.116 C 
BRANCH   3   4
ATOM      4  N   UNL A   1      35.126  22.894  26.831  1.00  0.00    -0.351 N 
ATOM      5  C   UNL A   1      33.817  23.272  26.898  1.00  0.00     0.278 C 
ATOM      6  O   UNL A   1      33.199  22.904  27.905  1.00  0.00    -0.268 OA
ATOM      7  H   UNL A   1      35.410  22.308  27.568  1.00  0.00     0.163 HD
BRANCH   5   8
ATOM      8  C   UNL A   1      33.090  24.095  25.804  1.00  0.00     0.274 C 
ATOM      9  N   UNL A   1      31.670  23.673  25.656  1.00  0.00    -0.317 N 
ATOM     10  C   UNL A   1      30.840  24.777  26.124  1.00  0.00     0.263 C 
ATOM     11  H   UNL A   1      31.466  22.856  26.231  1.00  0.00     0.349 HD
ATOM     12  C   UNL A   1      31.658  26.043  25.954  1.00  0.00     0.068 C 
ATOM     13  C   UNL A   1      33.109  25.603  26.028  1.00  0.00     0.081 C 
BRANCH   9  14
ATOM     14  C   UNL A   1      31.365  23.186  24.283  1.00  0.00     0.364 C 
BRANCH  14  15
ATOM     15  C   UNL A   1      32.310  22.085  23.762  1.00  0.00     0.279 C 
ATOM     16  O   UNL A   1      32.941  22.197  22.715  1.00  0.00    -0.268 OA
ATOM     17  N   UNL A   1      32.260  20.926  24.531  1.00  0.00    -0.319 N 
ATOM     18  H   UNL A   1      31.793  20.953  25.398  1.00  0.00     0.170 HD
BRANCH  17  19
ATOM     19  C   UNL A   1      32.850  19.719  24.119  1.00  0.00     0.080 A 
ATOM     20  C   UNL A   1      32.152  18.931  23.194  1.00  0.00     0.032 A 
ATOM     21  C   UNL A   1      34.067  19.272  24.638  1.00  0.00     0.185 A 
ATOM     22  C   UNL A   1      32.701  17.729  22.749  1.00  0.00     0.045 A 
ATOM     23  C   UNL A   1      34.580  18.044  24.238  1.00  0.00     0.196 A 
ATOM     24  F   UNL A   1      34.686  19.967  25.603  1.00  0.00    -0.201 F 
ATOM     25  C   UNL A   1      33.907  17.287  23.285  1.00  0.00     0.162 A 
ATOM     26  F   UNL A   1      35.704  17.569  24.795  1.00  0.00    -0.200 F 
ATOM     27  F   UNL A   1      34.403  16.109  22.884  1.00  0.00    -0.204 F 
ENDBRANCH  17  19
ENDBRANCH  14  15
ENDBRANCH   9  14
ENDBRANCH   5   8
ENDBRANCH   3   4
ENDBRANCH   2   3
ENDBRANCH   1   2
BRANCH   1  28
ATOM     28  C   UNL A   1      38.813  22.182  25.708  1.00  0.00     0.002 C 
BRANCH  28  29
ATOM     29  C   UNL A   1      39.449  20.943  26.348  1.00  0.00     0.021 C 
BRANCH  29  30
ATOM     30  C   UNL A   1      39.668  19.775  25.391  1.00  0.00     0.116 C 
BRANCH  30  31
ATOM     31  N   UNL A   1      40.647  18.831  25.910  1.00  0.00    -0.352 N 
ATOM     32  C   UNL A   1      41.933  19.048  26.322  1.00  0.00     0.251 C 
ATOM     33  H   UNL A   1      40.337  17.898  25.975  1.00  0.00     0.163 HD
ATOM     34  O   UNL A   1      42.697  18.094  26.497  1.00  0.00    -0.269 OA
BRANCH  32  35
ATOM     35  C   UNL A   1      42.417  20.421  26.557  1.00  0.00     0.039 A 
ATOM     36  C   UNL A   1      42.869  21.179  25.471  1.00  0.00     0.014 A 
ATOM     37  C   UNL A   1      42.461  20.951  27.850  1.00  0.00     0.014 A 
ATOM     38  C   UNL A   1      43.317  22.484  25.678  1.00  0.00     0.010 A 
ATOM     39  C   UNL A   1      42.843  22.275  28.045  1.00  0.00     0.010 A 
ATOM     40  C   UNL A   1      43.283  23.052  26.962  1.00  0.00    -0.014 A 
BRANCH  40  41
ATOM     41  C   UNL A   1      43.710  24.454  27.196  1.00  0.00     0.031 A 
ATOM     42  C   UNL A   1      42.722  25.470  27.692  1.00  0.00     0.074 A 
ATOM     43  C   UNL A   1      44.970  24.822  26.898  1.00  0.00     0.049 A 
ATOM     44  N   UNL A   1      42.881  26.756  27.886  1.00  0.00    -0.248 NA
ATOM     45  C   UNL A   1      41.363  24.985  27.983  1.00  0.00     0.031 C 
ATOM     46  C   UNL A   1      46.006  23.935  26.368  1.00  0.00     0.029 A 
ATOM     47  N   UNL A   1      45.592  26.042  26.987  1.00  0.00    -0.354 N 
ATOM     48  C   UNL A   1      41.645  27.232  28.305  1.00  0.00     0.074 A 
ATOM     49  C   UNL A   1      40.732  26.110  28.287  1.00  0.00     0.031 C 
ATOM     50  C   UNL A   1      47.139  24.635  26.196  1.00  0.00     0.029 A 
ATOM     51  C   UNL A   1      46.899  26.026  26.569  1.00  0.00     0.049 A 
ATOM     52  H   UNL A   1      45.141  26.853  27.320  1.00  0.00     0.167 HD
ATOM     53  C   UNL A   1      41.310  28.486  28.690  1.00  0.00     0.037 A 
ATOM     54  C   UNL A   1      47.801  27.023  26.488  1.00  0.00     0.037 A 
ATOM     55  C   UNL A   1      42.231  29.591  28.732  1.00  0.00     0.049 A 
ATOM     56  C   UNL A   1      47.402  28.408  26.923  1.00  0.00     0.074 A 
ATOM     57  C   UNL A   1      42.007  30.886  29.168  1.00  0.00     0.029 A 
ATOM     58  N   UNL A   1      43.555  29.533  28.321  1.00  0.00    -0.354 N 
ATOM     59  N   UNL A   1      46.249  28.831  27.381  1.00  0.00    -0.248 NA
ATOM     60  C   UNL A   1      48.432  29.452  26.835  1.00  0.00     0.031 C 
ATOM     61  C   UNL A   1      43.181  31.622  28.976  1.00  0.00     0.029 A 
ATOM     62  C   UNL A   1      44.152  30.774  28.470  1.00  0.00     0.049 A 
ATOM     63  H   UNL A   1      44.003  28.727  27.975  1.00  0.00     0.167 HD
ATOM     64  C   UNL A   1      46.422  30.180  27.663  1.00  0.00     0.074 A 
ATOM     65  C   UNL A   1      47.797  30.501  27.338  1.00  0.00     0.031 C 
ATOM     66  C   UNL A   1      45.525  31.073  28.147  1.00  0.00     0.037 A 
BRANCH  53  67
ATOM     67  C   UNL A   1      39.887  28.730  29.101  1.00  0.00     0.064 A 
ATOM     68  C   UNL A   1      38.920  29.168  28.185  1.00  0.00     0.173 A 
ATOM     69  C   UNL A   1      39.476  28.488  30.421  1.00  0.00     0.173 A 
ATOM     70  F   UNL A   1      39.263  29.426  26.913  1.00  0.00    -0.203 F 
ATOM     71  C   UNL A   1      37.601  29.383  28.579  1.00  0.00     0.198 A 
ATOM     72  C   UNL A   1      38.150  28.673  30.805  1.00  0.00     0.198 A 
ATOM     73  F   UNL A   1      40.359  28.063  31.337  1.00  0.00    -0.203 F 
ATOM     74  F   UNL A   1      36.707  29.851  27.698  1.00  0.00    -0.200 F 
ATOM     75  C   UNL A   1      37.217  29.128  29.887  1.00  0.00     0.200 A 
ATOM     76  F   UNL A   1      37.777  28.414  32.066  1.00  0.00    -0.200 F 
ATOM     77  F   UNL A   1      35.946  29.328  30.264  1.00  0.00    -0.200 F 
ENDBRANCH  53  67
BRANCH  54  78
ATOM     78  C   UNL A   1      49.175  26.744  25.998  1.00  0.00     0.064 A 
ATOM     79  C   UNL A   1      50.158  26.241  26.862  1.00  0.00     0.173 A 
ATOM     80  C   UNL A   1      49.535  26.973  24.662  1.00  0.00     0.173 A 
ATOM     81  F   UNL A   1      49.868  26.024  28.152  1.00  0.00    -0.203 F 
ATOM     82  C   UNL A   1      51.455  25.999  26.413  1.00  0.00     0.198 A 
ATOM     83  C   UNL A   1      50.823  26.703  24.208  1.00  0.00     0.198 A 
ATOM     84  F   UNL A   1      48.629  27.446  23.793  1.00  0.00    -0.203 F 
ATOM     85  F   UNL A   1      52.388  25.563  27.270  1.00  0.00    -0.200 F 
ATOM     86  C   UNL A   1      51.786  26.225  25.085  1.00  0.00     0.200 A 
ATOM     87  F   UNL A   1      51.134  26.907  22.920  1.00  0.00    -0.200 F 
ATOM     88  F   UNL A   1      53.031  25.988  24.653  1.00  0.00    -0.200 F 
ENDBRANCH  54  78
BRANCH  66  89
ATOM     89  C   UNL A   1      46.009  32.472  28.389  1.00  0.00     0.064 A 
ATOM     90  C   UNL A   1      45.927  33.461  27.397  1.00  0.00     0.173 A 
ATOM     91  C   UNL A   1      46.524  32.838  29.642  1.00  0.00     0.173 A 
ATOM     92  F   UNL A   1      45.456  33.157  26.178  1.00  0.00    -0.203 F 
ATOM     93  C   UNL A   1      46.368  34.758  27.644  1.00  0.00     0.198 A 
ATOM     94  C   UNL A   1      46.935  34.145  29.894  1.00  0.00     0.198 A 
ATOM     95  F   UNL A   1      46.617  31.932  30.627  1.00  0.00    -0.203 F 
ATOM     96  F   UNL A   1      46.324  35.675  26.667  1.00  0.00    -0.200 F 
ATOM     97  C   UNL A   1      46.862  35.101  28.894  1.00  0.00     0.200 A 
ATOM     98  F   UNL A   1      47.400  34.476  31.106  1.00  0.00    -0.200 F 
ATOM     99  F   UNL A   1      47.279  36.353  29.130  1.00  0.00    -0.200 F 
ENDBRANCH  66  89
ENDBRANCH  40  41
ENDBRANCH  32  35
ENDBRANCH  30  31
ENDBRANCH  29  30
ENDBRANCH  28  29
ENDBRANCH   1  28
TORSDOF 16
ENDMDL
