MODEL 1
REMARK VINA RESULT:     -12.0      0.000      0.000
REMARK SMILES C[C@H]1[C@@H](C(=O)NCCCCCCNC(=O)c2ccc(-c3c4nc(c(-c5c(F)c(F)c(F)c(F)c5F)c5ccc([nH]5)c(-c5c(F)c(F)c(F)c(F)c5F)c5nc(c(-c6c(F)c(F)c(F)c(F)c6F)c6ccc3[nH]6)C=C5)C=C4)cc2)CC[N@@H+]1Cc1cc(F)c(F)c(F)c1
REMARK SMILES IDX 9 1 8 2 7 3 6 4 4 5 5 6 3 8 1 9 2 10 81 11 79 12 80 13 82 15
REMARK SMILES IDX 83 16 84 17 91 18 85 19 89 20 86 21 87 22 90 23 88 24 10 25
REMARK SMILES IDX 11 26 12 27 13 28 14 29 15 31 16 32 17 33 78 34 18 35 77 36
REMARK SMILES IDX 19 37 20 38 21 39 71 40 22 41 76 42 70 43 72 44 23 45 75 46
REMARK SMILES IDX 69 47 68 48 24 50 56 51 36 52 55 53 37 54 40 55 54 56 73 57
REMARK SMILES IDX 38 58 39 59 53 61 74 62 41 63 25 64 26 65 34 66 27 67 28 68
REMARK SMILES IDX 32 69 35 70 29 71 30 72 33 73 31 74 57 75 58 76 66 77 59 78
REMARK SMILES IDX 60 79 64 80 67 81 61 82 62 83 65 84 63 85 42 86 43 87 51 88
REMARK SMILES IDX 44 89 45 90 49 91 52 92 46 93 47 94 50 95 48 96
REMARK H PARENT 6 7 81 14 13 30 72 49 40 60
REMARK Flexibility Score: inf
ROOT
ATOM      1  C   UNL A   1      41.202  21.508  26.147  1.00  0.00     0.002 C 
ENDROOT
BRANCH   1   2
ATOM      2  C   UNL A   1      39.984  22.195  26.768  1.00  0.00     0.021 C 
BRANCH   2   3
ATOM      3  C   UNL A   1      38.663  21.893  26.049  1.00  0.00     0.116 C 
BRANCH   3   4
ATOM      4  N   UNL A   1      37.777  23.013  26.245  1.00  0.00    -0.356 N 
ATOM      5  C   UNL A   1      36.512  23.195  25.779  1.00  0.00     0.229 C 
ATOM      6  O   UNL A   1      36.177  24.368  25.594  1.00  0.00    -0.275 OA
ATOM      7  H   UNL A   1      38.137  23.749  26.792  1.00  0.00     0.163 HD
BRANCH   5   8
ATOM      8  C   UNL A   1      35.513  22.029  25.690  1.00  0.00     0.142 C 
ATOM      9  C   UNL A   1      34.343  22.847  23.433  1.00  0.00     0.076 C 
ATOM     10  C   UNL A   1      34.363  21.945  24.652  1.00  0.00     0.193 C 
ATOM     11  N   UNL A   1      33.106  22.221  25.371  1.00  0.00    -0.328 N 
ATOM     12  C   UNL A   1      34.745  21.957  27.024  1.00  0.00     0.081 C 
ATOM     13  C   UNL A   1      33.445  22.669  26.713  1.00  0.00     0.263 C 
ATOM     14  H   UNL A   1      32.619  22.985  24.902  1.00  0.00     0.348 HD
BRANCH  11  15
ATOM     15  C   UNL A   1      32.044  21.223  25.241  1.00  0.00     0.299 C 
BRANCH  15  16
ATOM     16  C   UNL A   1      32.432  19.867  24.686  1.00  0.00     0.012 A 
ATOM     17  C   UNL A   1      32.284  19.579  23.318  1.00  0.00     0.052 A 
ATOM     18  C   UNL A   1      32.942  18.864  25.526  1.00  0.00     0.052 A 
ATOM     19  C   UNL A   1      32.672  18.337  22.815  1.00  0.00     0.162 A 
ATOM     20  C   UNL A   1      33.348  17.639  25.002  1.00  0.00     0.162 A 
ATOM     21  F   UNL A   1      32.519  18.086  21.507  1.00  0.00    -0.204 F 
ATOM     22  C   UNL A   1      33.217  17.371  23.650  1.00  0.00     0.194 A 
ATOM     23  F   UNL A   1      33.881  16.725  25.824  1.00  0.00    -0.204 F 
ATOM     24  F   UNL A   1      33.610  16.190  23.153  1.00  0.00    -0.200 F 
ENDBRANCH  15  16
ENDBRANCH  11  15
ENDBRANCH   5   8
ENDBRANCH   3   4
ENDBRANCH   2   3
ENDBRANCH   1   2
BRANCH   1  25
ATOM     25  C   UNL A   1      41.689  20.279  26.917  1.00  0.00     0.002 C 
BRANCH  25  26
ATOM     26  C   UNL A   1      42.072  19.081  26.044  1.00  0.00     0.021 C 
BRANCH  26  27
ATOM     27  C   UNL A   1      43.535  18.658  26.148  1.00  0.00     0.116 C 
BRANCH  27  28
ATOM     28  N   UNL A   1      44.161  18.564  24.838  1.00  0.00    -0.352 N 
ATOM     29  C   UNL A   1      44.594  19.564  24.011  1.00  0.00     0.251 C 
ATOM     30  H   UNL A   1      44.292  17.649  24.498  1.00  0.00     0.163 HD
ATOM     31  O   UNL A   1      44.866  19.324  22.834  1.00  0.00    -0.269 OA
BRANCH  29  32
ATOM     32  C   UNL A   1      44.731  20.939  24.527  1.00  0.00     0.039 A 
ATOM     33  C   UNL A   1      45.384  21.145  25.744  1.00  0.00     0.014 A 
ATOM     34  C   UNL A   1      44.191  22.021  23.823  1.00  0.00     0.014 A 
ATOM     35  C   UNL A   1      45.541  22.444  26.233  1.00  0.00     0.010 A 
ATOM     36  C   UNL A   1      44.408  23.319  24.276  1.00  0.00     0.010 A 
ATOM     37  C   UNL A   1      45.077  23.542  25.489  1.00  0.00    -0.014 A 
BRANCH  37  38
ATOM     38  C   UNL A   1      45.273  24.931  25.971  1.00  0.00     0.031 A 
ATOM     39  C   UNL A   1      46.635  25.564  25.913  1.00  0.00     0.074 A 
ATOM     40  C   UNL A   1      44.237  25.599  26.514  1.00  0.00     0.049 A 
ATOM     41  N   UNL A   1      47.021  26.740  26.340  1.00  0.00    -0.248 NA
ATOM     42  C   UNL A   1      47.713  24.758  25.320  1.00  0.00     0.031 C 
ATOM     43  C   UNL A   1      42.880  25.073  26.667  1.00  0.00     0.029 A 
ATOM     44  N   UNL A   1      44.168  26.860  27.049  1.00  0.00    -0.354 N 
ATOM     45  C   UNL A   1      48.382  26.808  26.079  1.00  0.00     0.074 A 
ATOM     46  C   UNL A   1      48.769  25.536  25.507  1.00  0.00     0.031 C 
ATOM     47  C   UNL A   1      42.108  26.011  27.235  1.00  0.00     0.029 A 
ATOM     48  C   UNL A   1      42.921  27.190  27.520  1.00  0.00     0.049 A 
ATOM     49  H   UNL A   1      44.939  27.471  27.091  1.00  0.00     0.167 HD
ATOM     50  C   UNL A   1      49.230  27.846  26.277  1.00  0.00     0.037 A 
ATOM     51  C   UNL A   1      42.486  28.314  28.121  1.00  0.00     0.037 A 
ATOM     52  C   UNL A   1      48.836  29.118  26.824  1.00  0.00     0.049 A 
ATOM     53  C   UNL A   1      43.450  29.449  28.336  1.00  0.00     0.074 A 
ATOM     54  C   UNL A   1      49.604  30.255  27.007  1.00  0.00     0.029 A 
ATOM     55  N   UNL A   1      47.560  29.420  27.279  1.00  0.00    -0.354 N 
ATOM     56  N   UNL A   1      44.719  29.528  28.023  1.00  0.00    -0.248 NA
ATOM     57  C   UNL A   1      42.916  30.655  28.985  1.00  0.00     0.031 C 
ATOM     58  C   UNL A   1      48.805  31.229  27.616  1.00  0.00     0.029 A 
ATOM     59  C   UNL A   1      47.526  30.716  27.766  1.00  0.00     0.049 A 
ATOM     60  H   UNL A   1      46.793  28.803  27.260  1.00  0.00     0.167 HD
ATOM     61  C   UNL A   1      45.131  30.796  28.411  1.00  0.00     0.074 A 
ATOM     62  C   UNL A   1      43.969  31.458  28.968  1.00  0.00     0.031 C 
ATOM     63  C   UNL A   1      46.360  31.361  28.315  1.00  0.00     0.037 A 
BRANCH  50  64
ATOM     64  C   UNL A   1      50.669  27.649  25.896  1.00  0.00     0.064 A 
ATOM     65  C   UNL A   1      51.635  27.270  26.841  1.00  0.00     0.173 A 
ATOM     66  C   UNL A   1      51.081  27.810  24.565  1.00  0.00     0.173 A 
ATOM     67  F   UNL A   1      51.296  27.114  28.128  1.00  0.00    -0.203 F 
ATOM     68  C   UNL A   1      52.966  27.091  26.472  1.00  0.00     0.198 A 
ATOM     69  C   UNL A   1      52.407  27.600  24.194  1.00  0.00     0.198 A 
ATOM     70  F   UNL A   1      50.197  28.166  23.620  1.00  0.00    -0.203 F 
ATOM     71  F   UNL A   1      53.881  26.781  27.401  1.00  0.00    -0.200 F 
ATOM     72  C   UNL A   1      53.350  27.249  25.148  1.00  0.00     0.200 A 
ATOM     73  F   UNL A   1      52.774  27.740  22.913  1.00  0.00    -0.200 F 
ATOM     74  F   UNL A   1      54.630  27.071  24.795  1.00  0.00    -0.200 F 
ENDBRANCH  50  64
BRANCH  51  75
ATOM     75  C   UNL A   1      41.065  28.430  28.537  1.00  0.00     0.064 A 
ATOM     76  C   UNL A   1      40.652  28.011  29.809  1.00  0.00     0.173 A 
ATOM     77  C   UNL A   1      40.092  28.960  27.676  1.00  0.00     0.173 A 
ATOM     78  F   UNL A   1      41.542  27.479  30.659  1.00  0.00    -0.203 F 
ATOM     79  C   UNL A   1      39.317  28.099  30.199  1.00  0.00     0.198 A 
ATOM     80  C   UNL A   1      38.762  29.075  28.077  1.00  0.00     0.198 A 
ATOM     81  F   UNL A   1      40.436  29.380  26.450  1.00  0.00    -0.203 F 
ATOM     82  F   UNL A   1      38.943  27.651  31.405  1.00  0.00    -0.200 F 
ATOM     83  C   UNL A   1      38.374  28.637  29.335  1.00  0.00     0.200 A 
ATOM     84  F   UNL A   1      37.857  29.608  27.245  1.00  0.00    -0.200 F 
ATOM     85  F   UNL A   1      37.092  28.727  29.712  1.00  0.00    -0.200 F 
ENDBRANCH  51  75
BRANCH  63  86
ATOM     86  C   UNL A   1      46.505  32.774  28.798  1.00  0.00     0.064 A 
ATOM     87  C   UNL A   1      46.276  33.868  27.951  1.00  0.00     0.173 A 
ATOM     88  C   UNL A   1      46.837  33.036  30.136  1.00  0.00     0.173 A 
ATOM     89  F   UNL A   1      45.971  33.670  26.660  1.00  0.00    -0.203 F 
ATOM     90  C   UNL A   1      46.401  35.174  28.420  1.00  0.00     0.198 A 
ATOM     91  C   UNL A   1      46.932  34.341  30.609  1.00  0.00     0.198 A 
ATOM     92  F   UNL A   1      47.059  32.024  30.989  1.00  0.00    -0.203 F 
ATOM     93  F   UNL A   1      46.225  36.204  27.581  1.00  0.00    -0.200 F 
ATOM     94  C   UNL A   1      46.721  35.409  29.748  1.00  0.00     0.200 A 
ATOM     95  F   UNL A   1      47.226  34.568  31.896  1.00  0.00    -0.200 F 
ATOM     96  F   UNL A   1      46.832  36.666  30.199  1.00  0.00    -0.200 F 
ENDBRANCH  63  86
ENDBRANCH  37  38
ENDBRANCH  29  32
ENDBRANCH  27  28
ENDBRANCH  26  27
ENDBRANCH  25  26
ENDBRANCH   1  25
TORSDOF 15
ENDMDL
MODEL 2
REMARK VINA RESULT:     -11.9      0.218      2.185
REMARK SMILES C[C@H]1[C@@H](C(=O)NCCCCCCNC(=O)c2ccc(-c3c4nc(c(-c5c(F)c(F)c(F)c(F)c5F)c5ccc([nH]5)c(-c5c(F)c(F)c(F)c(F)c5F)c5nc(c(-c6c(F)c(F)c(F)c(F)c6F)c6ccc3[nH]6)C=C5)C=C4)cc2)CC[N@@H+]1Cc1cc(F)c(F)c(F)c1
REMARK SMILES IDX 9 1 8 2 7 3 6 4 4 5 5 6 3 8 1 9 2 10 81 11 79 12 80 13 82 15
REMARK SMILES IDX 83 16 84 17 91 18 85 19 89 20 86 21 87 22 90 23 88 24 10 25
REMARK SMILES IDX 11 26 12 27 13 28 14 29 15 31 16 32 17 33 78 34 18 35 77 36
REMARK SMILES IDX 19 37 20 38 21 39 71 40 22 41 76 42 70 43 72 44 23 45 75 46
REMARK SMILES IDX 69 47 68 48 24 50 56 51 36 52 55 53 37 54 40 55 54 56 73 57
REMARK SMILES IDX 38 58 39 59 53 61 74 62 41 63 25 64 26 65 34 66 27 67 28 68
REMARK SMILES IDX 32 69 35 70 29 71 30 72 33 73 31 74 57 75 58 76 66 77 59 78
REMARK SMILES IDX 60 79 64 80 67 81 61 82 62 83 65 84 63 85 42 86 43 87 51 88
REMARK SMILES IDX 44 89 45 90 49 91 52 92 46 93 47 94 50 95 48 96
REMARK H PARENT 6 7 81 14 13 30 72 49 40 60
REMARK Flexibility Score: inf
ROOT
ATOM      1  C   UNL A   1      40.636  21.492  27.364  1.00  0.00     0.002 C 
ENDROOT
BRANCH   1   2
ATOM      2  C   UNL A   1      39.962  22.382  26.316  1.00  0.00     0.021 C 
BRANCH   2   3
ATOM      3  C   UNL A   1      38.537  21.948  25.953  1.00  0.00     0.116 C 
BRANCH   3   4
ATOM      4  N   UNL A   1      37.641  23.032  26.273  1.00  0.00    -0.356 N 
ATOM      5  C   UNL A   1      36.356  23.227  25.871  1.00  0.00     0.229 C 
ATOM      6  O   UNL A   1      35.997  24.404  25.795  1.00  0.00    -0.275 OA
ATOM      7  H   UNL A   1      38.011  23.727  26.864  1.00  0.00     0.163 HD
BRANCH   5   8
ATOM      8  C   UNL A   1      35.374  22.054  25.725  1.00  0.00     0.142 C 
ATOM      9  C   UNL A   1      34.288  22.894  23.434  1.00  0.00     0.076 C 
ATOM     10  C   UNL A   1      34.267  21.974  24.640  1.00  0.00     0.193 C 
ATOM     11  N   UNL A   1      32.980  22.229  25.312  1.00  0.00    -0.328 N 
ATOM     12  C   UNL A   1      34.552  21.955  27.026  1.00  0.00     0.081 C 
ATOM     13  C   UNL A   1      33.259  22.660  26.672  1.00  0.00     0.263 C 
ATOM     14  H   UNL A   1      32.504  22.995  24.834  1.00  0.00     0.348 HD
BRANCH  11  15
ATOM     15  C   UNL A   1      31.933  21.223  25.124  1.00  0.00     0.299 C 
BRANCH  15  16
ATOM     16  C   UNL A   1      32.367  19.851  24.647  1.00  0.00     0.012 A 
ATOM     17  C   UNL A   1      32.891  18.908  25.547  1.00  0.00     0.052 A 
ATOM     18  C   UNL A   1      32.263  19.493  23.294  1.00  0.00     0.052 A 
ATOM     19  C   UNL A   1      33.259  17.639  25.101  1.00  0.00     0.162 A 
ATOM     20  C   UNL A   1      32.612  18.212  22.870  1.00  0.00     0.162 A 
ATOM     21  F   UNL A   1      33.757  16.757  25.980  1.00  0.00    -0.204 F 
ATOM     22  C   UNL A   1      33.108  17.283  23.769  1.00  0.00     0.194 A 
ATOM     23  F   UNL A   1      32.448  17.887  21.581  1.00  0.00    -0.204 F 
ATOM     24  F   UNL A   1      33.441  16.052  23.354  1.00  0.00    -0.200 F 
ENDBRANCH  15  16
ENDBRANCH  11  15
ENDBRANCH   5   8
ENDBRANCH   3   4
ENDBRANCH   2   3
ENDBRANCH   1   2
BRANCH   1  25
ATOM     25  C   UNL A   1      42.033  21.009  26.972  1.00  0.00     0.002 C 
BRANCH  25  26
ATOM     26  C   UNL A   1      42.059  19.761  26.084  1.00  0.00     0.021 C 
BRANCH  26  27
ATOM     27  C   UNL A   1      43.303  18.891  26.244  1.00  0.00     0.116 C 
BRANCH  27  28
ATOM     28  N   UNL A   1      43.970  18.671  24.970  1.00  0.00    -0.352 N 
ATOM     29  C   UNL A   1      44.527  19.582  24.114  1.00  0.00     0.251 C 
ATOM     30  H   UNL A   1      44.031  17.731  24.683  1.00  0.00     0.163 HD
ATOM     31  O   UNL A   1      44.823  19.255  22.964  1.00  0.00    -0.269 OA
BRANCH  29  32
ATOM     32  C   UNL A   1      44.768  20.965  24.566  1.00  0.00     0.039 A 
ATOM     33  C   UNL A   1      44.248  22.025  23.818  1.00  0.00     0.014 A 
ATOM     34  C   UNL A   1      45.528  21.217  25.713  1.00  0.00     0.014 A 
ATOM     35  C   UNL A   1      44.449  23.338  24.249  1.00  0.00     0.010 A 
ATOM     36  C   UNL A   1      45.669  22.521  26.178  1.00  0.00     0.010 A 
ATOM     37  C   UNL A   1      45.139  23.594  25.445  1.00  0.00    -0.014 A 
BRANCH  37  38
ATOM     38  C   UNL A   1      45.324  24.980  25.941  1.00  0.00     0.031 A 
ATOM     39  C   UNL A   1      46.682  25.623  25.892  1.00  0.00     0.074 A 
ATOM     40  C   UNL A   1      44.283  25.635  26.488  1.00  0.00     0.049 A 
ATOM     41  N   UNL A   1      47.058  26.797  26.331  1.00  0.00    -0.248 NA
ATOM     42  C   UNL A   1      47.766  24.831  25.294  1.00  0.00     0.031 C 
ATOM     43  C   UNL A   1      42.929  25.098  26.633  1.00  0.00     0.029 A 
ATOM     44  N   UNL A   1      44.203  26.891  27.036  1.00  0.00    -0.354 N 
ATOM     45  C   UNL A   1      48.420  26.877  26.074  1.00  0.00     0.074 A 
ATOM     46  C   UNL A   1      48.816  25.614  25.491  1.00  0.00     0.031 C 
ATOM     47  C   UNL A   1      42.148  26.025  27.209  1.00  0.00     0.029 A 
ATOM     48  C   UNL A   1      42.953  27.207  27.507  1.00  0.00     0.049 A 
ATOM     49  H   UNL A   1      44.969  27.507  27.084  1.00  0.00     0.167 HD
ATOM     50  C   UNL A   1      49.260  27.920  26.284  1.00  0.00     0.037 A 
ATOM     51  C   UNL A   1      42.508  28.322  28.118  1.00  0.00     0.037 A 
ATOM     52  C   UNL A   1      48.855  29.183  26.842  1.00  0.00     0.049 A 
ATOM     53  C   UNL A   1      43.464  29.462  28.346  1.00  0.00     0.074 A 
ATOM     54  C   UNL A   1      49.615  30.324  27.038  1.00  0.00     0.029 A 
ATOM     55  N   UNL A   1      47.576  29.472  27.298  1.00  0.00    -0.354 N 
ATOM     56  N   UNL A   1      44.734  29.552  28.037  1.00  0.00    -0.248 NA
ATOM     57  C   UNL A   1      42.920  30.658  29.005  1.00  0.00     0.031 C 
ATOM     58  C   UNL A   1      48.808  31.286  27.655  1.00  0.00     0.029 A 
ATOM     59  C   UNL A   1      47.532  30.763  27.797  1.00  0.00     0.049 A 
ATOM     60  H   UNL A   1      46.814  28.850  27.270  1.00  0.00     0.167 HD
ATOM     61  C   UNL A   1      45.135  30.819  28.438  1.00  0.00     0.074 A 
ATOM     62  C   UNL A   1      43.968  31.468  28.999  1.00  0.00     0.031 C 
ATOM     63  C   UNL A   1      46.360  31.394  28.350  1.00  0.00     0.037 A 
BRANCH  50  64
ATOM     64  C   UNL A   1      50.701  27.737  25.904  1.00  0.00     0.064 A 
ATOM     65  C   UNL A   1      51.145  27.935  24.587  1.00  0.00     0.173 A 
ATOM     66  C   UNL A   1      51.655  27.391  26.873  1.00  0.00     0.173 A 
ATOM     67  F   UNL A   1      50.273  28.256  23.621  1.00  0.00    -0.203 F 
ATOM     68  C   UNL A   1      52.485  27.761  24.249  1.00  0.00     0.198 A 
ATOM     69  C   UNL A   1      52.999  27.248  26.537  1.00  0.00     0.198 A 
ATOM     70  F   UNL A   1      51.285  27.195  28.148  1.00  0.00    -0.203 F 
ATOM     71  F   UNL A   1      52.877  27.904  22.976  1.00  0.00    -0.200 F 
ATOM     72  C   UNL A   1      53.412  27.425  25.225  1.00  0.00     0.200 A 
ATOM     73  F   UNL A   1      53.895  26.936  27.483  1.00  0.00    -0.200 F 
ATOM     74  F   UNL A   1      54.701  27.264  24.899  1.00  0.00    -0.200 F 
ENDBRANCH  50  64
BRANCH  51  75
ATOM     75  C   UNL A   1      41.086  28.423  28.532  1.00  0.00     0.064 A 
ATOM     76  C   UNL A   1      40.122  28.959  27.666  1.00  0.00     0.173 A 
ATOM     77  C   UNL A   1      40.659  27.989  29.795  1.00  0.00     0.173 A 
ATOM     78  F   UNL A   1      40.486  29.406  26.455  1.00  0.00    -0.203 F 
ATOM     79  C   UNL A   1      38.789  29.074  28.054  1.00  0.00     0.198 A 
ATOM     80  C   UNL A   1      39.320  28.078  30.172  1.00  0.00     0.198 A 
ATOM     81  F   UNL A   1      41.540  27.464  30.658  1.00  0.00    -0.203 F 
ATOM     82  F   UNL A   1      37.898  29.629  27.223  1.00  0.00    -0.200 F 
ATOM     83  C   UNL A   1      38.388  28.628  29.305  1.00  0.00     0.200 A 
ATOM     84  F   UNL A   1      38.935  27.633  31.376  1.00  0.00    -0.200 F 
ATOM     85  F   UNL A   1      37.105  28.733  29.676  1.00  0.00    -0.200 F 
ENDBRANCH  51  75
BRANCH  63  86
ATOM     86  C   UNL A   1      46.494  32.803  28.847  1.00  0.00     0.064 A 
ATOM     87  C   UNL A   1      46.863  33.084  30.171  1.00  0.00     0.173 A 
ATOM     88  C   UNL A   1      46.290  33.886  27.978  1.00  0.00     0.173 A 
ATOM     89  F   UNL A   1      47.055  32.084  31.045  1.00  0.00    -0.203 F 
ATOM     90  C   UNL A   1      46.998  34.398  30.613  1.00  0.00     0.198 A 
ATOM     91  C   UNL A   1      46.454  35.197  28.414  1.00  0.00     0.198 A 
ATOM     92  F   UNL A   1      45.941  33.671  26.700  1.00  0.00    -0.203 F 
ATOM     93  F   UNL A   1      47.304  34.643  31.894  1.00  0.00    -0.200 F 
ATOM     94  C   UNL A   1      46.801  35.452  29.733  1.00  0.00     0.200 A 
ATOM     95  F   UNL A   1      46.277  36.214  27.560  1.00  0.00    -0.200 F 
ATOM     96  F   UNL A   1      46.938  36.715  30.159  1.00  0.00    -0.200 F 
ENDBRANCH  63  86
ENDBRANCH  37  38
ENDBRANCH  29  32
ENDBRANCH  27  28
ENDBRANCH  26  27
ENDBRANCH  25  26
ENDBRANCH   1  25
TORSDOF 15
ENDMDL
MODEL 3
REMARK VINA RESULT:     -11.8      6.219     10.729
REMARK SMILES C[C@H]1[C@@H](C(=O)NCCCCCCNC(=O)c2ccc(-c3c4nc(c(-c5c(F)c(F)c(F)c(F)c5F)c5ccc([nH]5)c(-c5c(F)c(F)c(F)c(F)c5F)c5nc(c(-c6c(F)c(F)c(F)c(F)c6F)c6ccc3[nH]6)C=C5)C=C4)cc2)CC[N@@H+]1Cc1cc(F)c(F)c(F)c1
REMARK SMILES IDX 9 1 8 2 7 3 6 4 4 5 5 6 3 8 1 9 2 10 81 11 79 12 80 13 82 15
REMARK SMILES IDX 83 16 84 17 91 18 85 19 89 20 86 21 87 22 90 23 88 24 10 25
REMARK SMILES IDX 11 26 12 27 13 28 14 29 15 31 16 32 17 33 78 34 18 35 77 36
REMARK SMILES IDX 19 37 20 38 21 39 71 40 22 41 76 42 70 43 72 44 23 45 75 46
REMARK SMILES IDX 69 47 68 48 24 50 56 51 36 52 55 53 37 54 40 55 54 56 73 57
REMARK SMILES IDX 38 58 39 59 53 61 74 62 41 63 25 64 26 65 34 66 27 67 28 68
REMARK SMILES IDX 32 69 35 70 29 71 30 72 33 73 31 74 57 75 58 76 66 77 59 78
REMARK SMILES IDX 60 79 64 80 67 81 61 82 62 83 65 84 63 85 42 86 43 87 51 88
REMARK SMILES IDX 44 89 45 90 49 91 52 92 46 93 47 94 50 95 48 96
REMARK H PARENT 6 7 81 14 13 30 72 49 40 60
REMARK Flexibility Score: inf
ROOT
ATOM      1  C   UNL A   1      32.419  29.840  26.798  1.00  0.00     0.002 C 
ENDROOT
BRANCH   1   2
ATOM      2  C   UNL A   1      32.410  28.356  26.422  1.00  0.00     0.021 C 
BRANCH   2   3
ATOM      3  C   UNL A   1      33.697  27.879  25.737  1.00  0.00     0.116 C 
BRANCH   3   4
ATOM      4  N   UNL A   1      33.343  27.306  24.463  1.00  0.00    -0.356 N 
ATOM      5  C   UNL A   1      33.473  26.020  24.038  1.00  0.00     0.229 C 
ATOM      6  O   UNL A   1      33.633  25.877  22.823  1.00  0.00    -0.275 OA
ATOM      7  H   UNL A   1      32.954  27.932  23.810  1.00  0.00     0.163 HD
BRANCH   5   8
ATOM      8  C   UNL A   1      33.229  24.833  24.983  1.00  0.00     0.142 C 
ATOM      9  C   UNL A   1      34.993  23.197  23.824  1.00  0.00     0.076 C 
ATOM     10  C   UNL A   1      33.840  23.421  24.785  1.00  0.00     0.193 C 
ATOM     11  N   UNL A   1      32.756  22.539  24.316  1.00  0.00    -0.328 N 
ATOM     12  C   UNL A   1      31.718  24.528  24.986  1.00  0.00     0.081 C 
ATOM     13  C   UNL A   1      31.598  23.367  24.021  1.00  0.00     0.263 C 
ATOM     14  H   UNL A   1      33.048  22.091  23.446  1.00  0.00     0.348 HD
BRANCH  11  15
ATOM     15  C   UNL A   1      32.532  21.313  25.082  1.00  0.00     0.299 C 
BRANCH  15  16
ATOM     16  C   UNL A   1      32.941  20.005  24.434  1.00  0.00     0.012 A 
ATOM     17  C   UNL A   1      34.084  19.312  24.868  1.00  0.00     0.052 A 
ATOM     18  C   UNL A   1      32.191  19.458  23.380  1.00  0.00     0.052 A 
ATOM     19  C   UNL A   1      34.433  18.095  24.283  1.00  0.00     0.162 A 
ATOM     20  C   UNL A   1      32.540  18.229  22.825  1.00  0.00     0.162 A 
ATOM     21  F   UNL A   1      35.529  17.454  24.713  1.00  0.00    -0.204 F 
ATOM     22  C   UNL A   1      33.657  17.544  23.273  1.00  0.00     0.194 A 
ATOM     23  F   UNL A   1      31.771  17.711  21.858  1.00  0.00    -0.204 F 
ATOM     24  F   UNL A   1      33.986  16.361  22.734  1.00  0.00    -0.200 F 
ENDBRANCH  15  16
ENDBRANCH  11  15
ENDBRANCH   5   8
ENDBRANCH   3   4
ENDBRANCH   2   3
ENDBRANCH   1   2
BRANCH   1  25
ATOM     25  C   UNL A   1      31.410  30.689  26.021  1.00  0.00     0.002 C 
BRANCH  25  26
ATOM     26  C   UNL A   1      31.302  32.145  26.483  1.00  0.00     0.021 C 
BRANCH  26  27
ATOM     27  C   UNL A   1      32.504  32.654  27.274  1.00  0.00     0.116 C 
BRANCH  27  28
ATOM     28  N   UNL A   1      32.382  34.069  27.585  1.00  0.00    -0.352 N 
ATOM     29  C   UNL A   1      33.003  34.798  28.563  1.00  0.00     0.251 C 
ATOM     30  H   UNL A   1      31.765  34.576  27.009  1.00  0.00     0.163 HD
ATOM     31  O   UNL A   1      32.598  35.926  28.850  1.00  0.00    -0.269 OA
BRANCH  29  32
ATOM     32  C   UNL A   1      34.158  34.231  29.283  1.00  0.00     0.039 A 
ATOM     33  C   UNL A   1      33.940  33.526  30.469  1.00  0.00     0.014 A 
ATOM     34  C   UNL A   1      35.458  34.416  28.801  1.00  0.00     0.014 A 
ATOM     35  C   UNL A   1      35.023  32.964  31.147  1.00  0.00     0.010 A 
ATOM     36  C   UNL A   1      36.529  33.798  29.440  1.00  0.00     0.010 A 
ATOM     37  C   UNL A   1      36.322  33.074  30.624  1.00  0.00    -0.014 A 
BRANCH  37  38
ATOM     38  C   UNL A   1      37.479  32.445  31.307  1.00  0.00     0.031 A 
ATOM     39  C   UNL A   1      38.220  31.315  30.651  1.00  0.00     0.074 A 
ATOM     40  C   UNL A   1      37.824  32.855  32.543  1.00  0.00     0.049 A 
ATOM     41  N   UNL A   1      39.214  30.597  31.111  1.00  0.00    -0.248 NA
ATOM     42  C   UNL A   1      37.768  30.920  29.308  1.00  0.00     0.031 C 
ATOM     43  C   UNL A   1      37.151  33.911  33.301  1.00  0.00     0.029 A 
ATOM     44  N   UNL A   1      38.818  32.423  33.385  1.00  0.00    -0.354 N 
ATOM     45  C   UNL A   1      39.495  29.663  30.123  1.00  0.00     0.074 A 
ATOM     46  C   UNL A   1      38.533  29.867  29.062  1.00  0.00     0.031 C 
ATOM     47  C   UNL A   1      37.765  34.060  34.485  1.00  0.00     0.029 A 
ATOM     48  C   UNL A   1      38.850  33.087  34.586  1.00  0.00     0.049 A 
ATOM     49  H   UNL A   1      39.449  31.705  33.149  1.00  0.00     0.167 HD
ATOM     50  C   UNL A   1      40.480  28.734  30.094  1.00  0.00     0.037 A 
ATOM     51  C   UNL A   1      39.659  32.925  35.650  1.00  0.00     0.037 A 
ATOM     52  C   UNL A   1      41.450  28.551  31.143  1.00  0.00     0.049 A 
ATOM     53  C   UNL A   1      40.740  31.880  35.595  1.00  0.00     0.074 A 
ATOM     54  C   UNL A   1      42.525  27.681  31.183  1.00  0.00     0.029 A 
ATOM     55  N   UNL A   1      41.458  29.253  32.340  1.00  0.00    -0.354 N 
ATOM     56  N   UNL A   1      41.039  31.049  34.628  1.00  0.00    -0.248 NA
ATOM     57  C   UNL A   1      41.600  31.757  36.780  1.00  0.00     0.031 C 
ATOM     58  C   UNL A   1      43.156  27.822  32.423  1.00  0.00     0.029 A 
ATOM     59  C   UNL A   1      42.504  28.816  33.136  1.00  0.00     0.049 A 
ATOM     60  H   UNL A   1      40.814  29.955  32.588  1.00  0.00     0.167 HD
ATOM     61  C   UNL A   1      42.135  30.322  35.074  1.00  0.00     0.074 A 
ATOM     62  C   UNL A   1      42.458  30.823  36.394  1.00  0.00     0.031 C 
ATOM     63  C   UNL A   1      42.813  29.329  34.447  1.00  0.00     0.037 A 
BRANCH  50  64
ATOM     64  C   UNL A   1      40.560  27.846  28.886  1.00  0.00     0.064 A 
ATOM     65  C   UNL A   1      41.386  28.160  27.796  1.00  0.00     0.173 A 
ATOM     66  C   UNL A   1      39.828  26.650  28.831  1.00  0.00     0.173 A 
ATOM     67  F   UNL A   1      42.098  29.296  27.793  1.00  0.00    -0.203 F 
ATOM     68  C   UNL A   1      41.450  27.327  26.682  1.00  0.00     0.198 A 
ATOM     69  C   UNL A   1      39.918  25.804  27.729  1.00  0.00     0.198 A 
ATOM     70  F   UNL A   1      39.028  26.299  29.849  1.00  0.00    -0.203 F 
ATOM     71  F   UNL A   1      42.205  27.673  25.630  1.00  0.00    -0.200 F 
ATOM     72  C   UNL A   1      40.722  26.146  26.652  1.00  0.00     0.200 A 
ATOM     73  F   UNL A   1      39.225  24.658  27.707  1.00  0.00    -0.200 F 
ATOM     74  F   UNL A   1      40.790  25.343  25.582  1.00  0.00    -0.200 F 
ENDBRANCH  50  64
BRANCH  51  75
ATOM     75  C   UNL A   1      39.492  33.790  36.846  1.00  0.00     0.064 A 
ATOM     76  C   UNL A   1      40.111  35.045  36.916  1.00  0.00     0.173 A 
ATOM     77  C   UNL A   1      38.714  33.383  37.939  1.00  0.00     0.173 A 
ATOM     78  F   UNL A   1      40.881  35.468  35.904  1.00  0.00    -0.203 F 
ATOM     79  C   UNL A   1      39.974  35.854  38.043  1.00  0.00     0.198 A 
ATOM     80  C   UNL A   1      38.554  34.204  39.054  1.00  0.00     0.198 A 
ATOM     81  F   UNL A   1      38.096  32.193  37.919  1.00  0.00    -0.203 F 
ATOM     82  F   UNL A   1      40.612  37.030  38.101  1.00  0.00    -0.200 F 
ATOM     83  C   UNL A   1      39.191  35.436  39.108  1.00  0.00     0.200 A 
ATOM     84  F   UNL A   1      37.785  33.802  40.075  1.00  0.00    -0.200 F 
ATOM     85  F   UNL A   1      39.055  36.215  40.189  1.00  0.00    -0.200 F 
ENDBRANCH  51  75
BRANCH  63  86
ATOM     86  C   UNL A   1      43.987  28.737  35.171  1.00  0.00     0.064 A 
ATOM     87  C   UNL A   1      43.849  27.616  36.003  1.00  0.00     0.173 A 
ATOM     88  C   UNL A   1      45.272  29.274  34.997  1.00  0.00     0.173 A 
ATOM     89  F   UNL A   1      42.639  27.076  36.213  1.00  0.00    -0.203 F 
ATOM     90  C   UNL A   1      44.952  27.070  36.656  1.00  0.00     0.198 A 
ATOM     91  C   UNL A   1      46.376  28.708  35.627  1.00  0.00     0.198 A 
ATOM     92  F   UNL A   1      45.458  30.342  34.207  1.00  0.00    -0.203 F 
ATOM     93  F   UNL A   1      44.789  26.030  37.483  1.00  0.00    -0.200 F 
ATOM     94  C   UNL A   1      46.214  27.611  36.462  1.00  0.00     0.200 A 
ATOM     95  F   UNL A   1      47.597  29.222  35.428  1.00  0.00    -0.200 F 
ATOM     96  F   UNL A   1      47.274  27.080  37.085  1.00  0.00    -0.200 F 
ENDBRANCH  63  86
ENDBRANCH  37  38
ENDBRANCH  29  32
ENDBRANCH  27  28
ENDBRANCH  26  27
ENDBRANCH  25  26
ENDBRANCH   1  25
TORSDOF 15
ENDMDL
