MODEL 1
REMARK VINA RESULT:     -12.2      0.000      0.000
REMARK SMILES CC(/C=C1\SC(=S)N(CC(=O)NCC(=O)NCCCCCCNC(=O)c2ccc(-c3c4nc(c(-c5c(F)c(F)c(F)c(F)c5F)c5ccc([nH]5)c(-c5c(F)c(F)c(F)c(F)c5F)c5nc(c(-c6c(F)c(F)c(F)c(F)c6F)c6ccc3[nH]6)C=C5)C=C4)cc2)C1=O)=C\c1ccccc1
REMARK SMILES IDX 18 1 17 2 16 3 14 4 15 5 13 7 12 8 10 9 11 10 9 12 8 13 3 14
REMARK SMILES IDX 4 15 5 16 89 17 6 18 90 19 7 20 2 21 1 22 91 23 92 24 93 25
REMARK SMILES IDX 97 26 94 27 96 28 95 29 19 30 20 31 21 32 22 33 23 34 24 35
REMARK SMILES IDX 25 37 26 38 27 39 88 40 28 41 87 42 29 43 30 44 31 45 81 46
REMARK SMILES IDX 32 47 86 48 80 49 82 50 33 51 85 52 79 53 78 54 34 56 66 57
REMARK SMILES IDX 46 58 65 59 47 60 50 61 64 62 83 63 48 64 49 65 63 67 84 68
REMARK SMILES IDX 51 69 35 70 36 71 44 72 37 73 38 74 42 75 45 76 39 77 40 78
REMARK SMILES IDX 43 79 41 80 67 81 68 82 76 83 69 84 70 85 74 86 77 87 71 88
REMARK SMILES IDX 72 89 75 90 73 91 52 92 53 93 61 94 54 95 55 96 59 97 62 98
REMARK SMILES IDX 56 99 57 100 60 101 58 102
REMARK H PARENT 16 6 12 11 23 36 82 55 50 66
REMARK Flexibility Score: inf
ROOT
ATOM      1  C   UNL A   1      34.815  32.208  28.151  1.00  0.00     0.021 C 
ENDROOT
BRANCH   1   2
ATOM      2  C   UNL A   1      33.584  31.485  27.618  1.00  0.00     0.116 C 
BRANCH   2   3
ATOM      3  N   UNL A   1      33.710  30.047  27.667  1.00  0.00    -0.355 N 
ATOM      4  C   UNL A   1      33.421  29.124  26.703  1.00  0.00     0.239 C 
ATOM      5  O   UNL A   1      33.799  27.964  26.887  1.00  0.00    -0.273 OA
ATOM      6  H   UNL A   1      34.054  29.680  28.513  1.00  0.00     0.163 HD
BRANCH   4   7
ATOM      7  C   UNL A   1      32.818  29.549  25.352  1.00  0.00     0.216 C 
BRANCH   7   8
ATOM      8  N   UNL A   1      33.641  29.246  24.191  1.00  0.00    -0.345 N 
ATOM      9  C   UNL A   1      33.513  28.327  23.197  1.00  0.00     0.240 C 
ATOM     10  O   UNL A   1      34.335  28.407  22.277  1.00  0.00    -0.273 OA
ATOM     11  H   UNL A   1      34.440  29.814  24.110  1.00  0.00     0.164 HD
BRANCH   9  12
ATOM     12  C   UNL A   1      32.336  27.340  23.092  1.00  0.00     0.227 C 
BRANCH  12  13
ATOM     13  N   UNL A   1      32.478  26.037  23.753  1.00  0.00    -0.283 N 
ATOM     14  C   UNL A   1      34.029  22.764  23.582  1.00  0.00     0.024 C 
ATOM     15  C   UNL A   1      33.262  23.808  23.931  1.00  0.00     0.080 C 
ATOM     16  S   UNL A   1      32.327  24.021  25.351  1.00  0.00    -0.054 SA
ATOM     17  C   UNL A   1      33.212  25.052  23.106  1.00  0.00     0.266 C 
ATOM     18  C   UNL A   1      31.816  25.642  24.895  1.00  0.00     0.148 C 
ATOM     19  O   UNL A   1      33.790  25.175  22.040  1.00  0.00    -0.268 OA
ATOM     20  S   UNL A   1      30.686  26.487  25.784  1.00  0.00    -0.052 S 
BRANCH  14  21
ATOM     21  C   UNL A   1      34.272  21.513  24.302  1.00  0.00    -0.049 C 
ATOM     22  C   UNL A   1      35.307  21.503  25.394  1.00  0.00     0.044 C 
ATOM     23  C   UNL A   1      33.539  20.431  23.969  1.00  0.00     0.011 C 
BRANCH  23  24
ATOM     24  C   UNL A   1      33.583  19.085  24.558  1.00  0.00    -0.025 A 
ATOM     25  C   UNL A   1      34.670  18.252  24.258  1.00  0.00     0.008 A 
ATOM     26  C   UNL A   1      32.530  18.574  25.323  1.00  0.00     0.008 A 
ATOM     27  C   UNL A   1      34.721  16.946  24.750  1.00  0.00     0.001 A 
ATOM     28  C   UNL A   1      32.584  17.269  25.821  1.00  0.00     0.001 A 
ATOM     29  C   UNL A   1      33.681  16.458  25.537  1.00  0.00     0.000 A 
ENDBRANCH  23  24
ENDBRANCH  14  21
ENDBRANCH  12  13
ENDBRANCH   9  12
ENDBRANCH   7   8
ENDBRANCH   4   7
ENDBRANCH   2   3
ENDBRANCH   1   2
BRANCH   1  30
ATOM     30  C   UNL A   1      34.490  33.376  29.089  1.00  0.00     0.002 C 
BRANCH  30  31
ATOM     31  C   UNL A   1      34.900  34.764  28.578  1.00  0.00     0.002 C 
BRANCH  31  32
ATOM     32  C   UNL A   1      33.871  35.872  28.814  1.00  0.00     0.021 C 
BRANCH  32  33
ATOM     33  C   UNL A   1      32.609  35.411  29.525  1.00  0.00     0.116 C 
BRANCH  33  34
ATOM     34  N   UNL A   1      32.333  36.235  30.696  1.00  0.00    -0.352 N 
ATOM     35  C   UNL A   1      32.795  36.138  31.986  1.00  0.00     0.251 C 
ATOM     36  H   UNL A   1      31.715  36.985  30.535  1.00  0.00     0.163 HD
ATOM     37  O   UNL A   1      32.249  36.790  32.873  1.00  0.00    -0.269 OA
BRANCH  35  38
ATOM     38  C   UNL A   1      33.941  35.261  32.327  1.00  0.00     0.039 A 
ATOM     39  C   UNL A   1      33.691  33.978  32.828  1.00  0.00     0.014 A 
ATOM     40  C   UNL A   1      35.256  35.715  32.224  1.00  0.00     0.014 A 
ATOM     41  C   UNL A   1      34.756  33.143  33.183  1.00  0.00     0.010 A 
ATOM     42  C   UNL A   1      36.316  34.851  32.480  1.00  0.00     0.010 A 
ATOM     43  C   UNL A   1      36.079  33.565  32.991  1.00  0.00    -0.014 A 
BRANCH  43  44
ATOM     44  C   UNL A   1      37.247  32.732  33.380  1.00  0.00     0.031 A 
ATOM     45  C   UNL A   1      37.943  33.008  34.687  1.00  0.00     0.074 A 
ATOM     46  C   UNL A   1      37.740  31.806  32.537  1.00  0.00     0.049 A 
ATOM     47  N   UNL A   1      39.086  32.554  35.135  1.00  0.00    -0.248 NA
ATOM     48  C   UNL A   1      37.283  33.960  35.595  1.00  0.00     0.031 C 
ATOM     49  C   UNL A   1      37.176  31.462  31.231  1.00  0.00     0.029 A 
ATOM     50  N   UNL A   1      38.845  30.999  32.646  1.00  0.00    -0.354 N 
ATOM     51  C   UNL A   1      39.301  33.201  36.345  1.00  0.00     0.074 A 
ATOM     52  C   UNL A   1      38.193  34.109  36.543  1.00  0.00     0.031 C 
ATOM     53  C   UNL A   1      37.933  30.506  30.665  1.00  0.00     0.029 A 
ATOM     54  C   UNL A   1      39.057  30.203  31.546  1.00  0.00     0.049 A 
ATOM     55  H   UNL A   1      39.431  30.992  33.437  1.00  0.00     0.167 HD
ATOM     56  C   UNL A   1      40.320  33.040  37.222  1.00  0.00     0.037 A 
ATOM     57  C   UNL A   1      40.056  29.342  31.275  1.00  0.00     0.037 A 
ATOM     58  C   UNL A   1      41.384  32.087  37.052  1.00  0.00     0.049 A 
ATOM     59  C   UNL A   1      41.159  29.152  32.281  1.00  0.00     0.074 A 
ATOM     60  C   UNL A   1      42.431  31.799  37.910  1.00  0.00     0.029 A 
ATOM     61  N   UNL A   1      41.526  31.256  35.951  1.00  0.00    -0.354 N 
ATOM     62  N   UNL A   1      41.335  29.746  33.437  1.00  0.00    -0.248 NA
ATOM     63  C   UNL A   1      42.200  28.170  31.948  1.00  0.00     0.031 C 
ATOM     64  C   UNL A   1      43.222  30.811  37.316  1.00  0.00     0.029 A 
ATOM     65  C   UNL A   1      42.644  30.455  36.108  1.00  0.00     0.049 A 
ATOM     66  H   UNL A   1      40.922  31.238  35.174  1.00  0.00     0.167 HD
ATOM     67  C   UNL A   1      42.482  29.184  33.984  1.00  0.00     0.074 A 
ATOM     68  C   UNL A   1      42.960  28.201  33.035  1.00  0.00     0.031 C 
ATOM     69  C   UNL A   1      43.082  29.458  35.166  1.00  0.00     0.037 A 
BRANCH  56  70
ATOM     70  C   UNL A   1      40.327  33.905  38.449  1.00  0.00     0.064 A 
ATOM     71  C   UNL A   1      41.017  35.126  38.485  1.00  0.00     0.173 A 
ATOM     72  C   UNL A   1      39.612  33.522  39.592  1.00  0.00     0.173 A 
ATOM     73  F   UNL A   1      41.727  35.532  37.422  1.00  0.00    -0.203 F 
ATOM     74  C   UNL A   1      41.016  35.915  39.633  1.00  0.00     0.198 A 
ATOM     75  C   UNL A   1      39.587  34.329  40.727  1.00  0.00     0.198 A 
ATOM     76  F   UNL A   1      38.928  32.367  39.610  1.00  0.00    -0.203 F 
ATOM     77  F   UNL A   1      41.727  37.052  39.661  1.00  0.00    -0.200 F 
ATOM     78  C   UNL A   1      40.296  35.519  40.749  1.00  0.00     0.200 A 
ATOM     79  F   UNL A   1      38.879  33.952  41.801  1.00  0.00    -0.200 F 
ATOM     80  F   UNL A   1      40.292  36.284  41.850  1.00  0.00    -0.200 F 
ENDBRANCH  56  70
BRANCH  57  81
ATOM     81  C   UNL A   1      40.044  28.570  30.005  1.00  0.00     0.064 A 
ATOM     82  C   UNL A   1      39.445  27.303  29.944  1.00  0.00     0.173 A 
ATOM     83  C   UNL A   1      40.625  29.074  28.834  1.00  0.00     0.173 A 
ATOM     84  F   UNL A   1      38.895  26.771  31.045  1.00  0.00    -0.203 F 
ATOM     85  C   UNL A   1      39.445  26.562  28.765  1.00  0.00     0.198 A 
ATOM     86  C   UNL A   1      40.601  28.343  27.647  1.00  0.00     0.198 A 
ATOM     87  F   UNL A   1      41.205  30.283  28.837  1.00  0.00    -0.203 F 
ATOM     88  F   UNL A   1      38.903  25.337  28.746  1.00  0.00    -0.200 F 
ATOM     89  C   UNL A   1      40.018  27.085  27.615  1.00  0.00     0.200 A 
ATOM     90  F   UNL A   1      41.144  28.857  26.534  1.00  0.00    -0.200 F 
ATOM     91  F   UNL A   1      40.014  26.375  26.479  1.00  0.00    -0.200 F 
ENDBRANCH  57  81
BRANCH  69  92
ATOM     92  C   UNL A   1      44.284  28.643  35.539  1.00  0.00     0.064 A 
ATOM     93  C   UNL A   1      45.583  29.044  35.195  1.00  0.00     0.173 A 
ATOM     94  C   UNL A   1      44.134  27.482  36.312  1.00  0.00     0.173 A 
ATOM     95  F   UNL A   1      45.774  30.140  34.446  1.00  0.00    -0.203 F 
ATOM     96  C   UNL A   1      46.689  28.304  35.602  1.00  0.00     0.198 A 
ATOM     97  C   UNL A   1      45.243  26.758  36.739  1.00  0.00     0.198 A 
ATOM     98  F   UNL A   1      42.911  27.062  36.671  1.00  0.00    -0.203 F 
ATOM     99  F   UNL A   1      47.920  28.687  35.238  1.00  0.00    -0.200 F 
ATOM    100  C   UNL A   1      46.518  27.168  36.380  1.00  0.00     0.200 A 
ATOM    101  F   UNL A   1      45.078  25.668  37.500  1.00  0.00    -0.200 F 
ATOM    102  F   UNL A   1      47.587  26.465  36.783  1.00  0.00    -0.200 F 
ENDBRANCH  69  92
ENDBRANCH  43  44
ENDBRANCH  35  38
ENDBRANCH  33  34
ENDBRANCH  32  33
ENDBRANCH  31  32
ENDBRANCH  30  31
ENDBRANCH   1  30
TORSDOF 18
ENDMDL
MODEL 2
REMARK VINA RESULT:     -12.0      6.747     12.695
REMARK SMILES CC(/C=C1\SC(=S)N(CC(=O)NCC(=O)NCCCCCCNC(=O)c2ccc(-c3c4nc(c(-c5c(F)c(F)c(F)c(F)c5F)c5ccc([nH]5)c(-c5c(F)c(F)c(F)c(F)c5F)c5nc(c(-c6c(F)c(F)c(F)c(F)c6F)c6ccc3[nH]6)C=C5)C=C4)cc2)C1=O)=C\c1ccccc1
REMARK SMILES IDX 18 1 17 2 16 3 14 4 15 5 13 7 12 8 10 9 11 10 9 12 8 13 3 14
REMARK SMILES IDX 4 15 5 16 89 17 6 18 90 19 7 20 2 21 1 22 91 23 92 24 93 25
REMARK SMILES IDX 97 26 94 27 96 28 95 29 19 30 20 31 21 32 22 33 23 34 24 35
REMARK SMILES IDX 25 37 26 38 27 39 88 40 28 41 87 42 29 43 30 44 31 45 81 46
REMARK SMILES IDX 32 47 86 48 80 49 82 50 33 51 85 52 79 53 78 54 34 56 66 57
REMARK SMILES IDX 46 58 65 59 47 60 50 61 64 62 83 63 48 64 49 65 63 67 84 68
REMARK SMILES IDX 51 69 35 70 36 71 44 72 37 73 38 74 42 75 45 76 39 77 40 78
REMARK SMILES IDX 43 79 41 80 67 81 68 82 76 83 69 84 70 85 74 86 77 87 71 88
REMARK SMILES IDX 72 89 75 90 73 91 52 92 53 93 61 94 54 95 55 96 59 97 62 98
REMARK SMILES IDX 56 99 57 100 60 101 58 102
REMARK H PARENT 16 6 12 11 23 36 82 55 50 66
REMARK Flexibility Score: inf
ROOT
ATOM      1  C   UNL A   1      40.126  22.500  27.114  1.00  0.00     0.021 C 
ENDROOT
BRANCH   1   2
ATOM      2  C   UNL A   1      38.877  22.961  26.371  1.00  0.00     0.116 C 
BRANCH   2   3
ATOM      3  N   UNL A   1      38.038  21.866  25.946  1.00  0.00    -0.355 N 
ATOM      4  C   UNL A   1      36.684  21.838  25.767  1.00  0.00     0.239 C 
ATOM      5  O   UNL A   1      36.200  20.854  25.203  1.00  0.00    -0.273 OA
ATOM      6  H   UNL A   1      38.506  21.020  25.760  1.00  0.00     0.163 HD
BRANCH   4   7
ATOM      7  C   UNL A   1      35.816  23.069  26.081  1.00  0.00     0.216 C 
BRANCH   7   8
ATOM      8  N   UNL A   1      34.862  22.887  27.164  1.00  0.00    -0.345 N 
ATOM      9  C   UNL A   1      33.515  22.701  27.173  1.00  0.00     0.240 C 
ATOM     10  O   UNL A   1      33.009  22.456  28.273  1.00  0.00    -0.273 OA
ATOM     11  H   UNL A   1      35.269  22.902  28.060  1.00  0.00     0.164 HD
BRANCH   9  12
ATOM     12  C   UNL A   1      32.657  22.620  25.897  1.00  0.00     0.227 C 
BRANCH  12  13
ATOM     13  N   UNL A   1      32.459  23.855  25.129  1.00  0.00    -0.283 N 
ATOM     14  C   UNL A   1      30.893  27.125  25.098  1.00  0.00     0.024 C 
ATOM     15  C   UNL A   1      31.542  26.005  24.743  1.00  0.00     0.080 C 
ATOM     16  S   UNL A   1      32.490  25.716  23.345  1.00  0.00    -0.054 SA
ATOM     17  C   UNL A   1      31.606  24.819  25.648  1.00  0.00     0.266 C 
ATOM     18  C   UNL A   1      32.923  24.087  23.852  1.00  0.00     0.148 C 
ATOM     19  O   UNL A   1      31.021  24.755  26.715  1.00  0.00    -0.268 OA
ATOM     20  S   UNL A   1      33.770  23.054  22.852  1.00  0.00    -0.052 S 
BRANCH  14  21
ATOM     21  C   UNL A   1      30.800  28.403  24.391  1.00  0.00    -0.049 C 
ATOM     22  C   UNL A   1      32.049  29.222  24.220  1.00  0.00     0.044 C 
ATOM     23  C   UNL A   1      29.599  28.778  23.903  1.00  0.00     0.011 C 
BRANCH  23  24
ATOM     24  C   UNL A   1      29.263  29.991  23.145  1.00  0.00    -0.025 A 
ATOM     25  C   UNL A   1      29.090  31.195  23.841  1.00  0.00     0.008 A 
ATOM     26  C   UNL A   1      29.009  29.962  21.770  1.00  0.00     0.008 A 
ATOM     27  C   UNL A   1      28.712  32.358  23.166  1.00  0.00     0.001 A 
ATOM     28  C   UNL A   1      28.638  31.127  21.093  1.00  0.00     0.001 A 
ATOM     29  C   UNL A   1      28.494  32.324  21.791  1.00  0.00     0.000 A 
ENDBRANCH  23  24
ENDBRANCH  14  21
ENDBRANCH  12  13
ENDBRANCH   9  12
ENDBRANCH   7   8
ENDBRANCH   4   7
ENDBRANCH   2   3
ENDBRANCH   1   2
BRANCH   1  30
ATOM     30  C   UNL A   1      41.148  21.785  26.225  1.00  0.00     0.002 C 
BRANCH  30  31
ATOM     31  C   UNL A   1      41.805  20.543  26.845  1.00  0.00     0.002 C 
BRANCH  31  32
ATOM     32  C   UNL A   1      42.085  19.401  25.865  1.00  0.00     0.021 C 
BRANCH  32  33
ATOM     33  C   UNL A   1      43.337  18.598  26.182  1.00  0.00     0.116 C 
BRANCH  33  34
ATOM     34  N   UNL A   1      44.176  18.442  25.000  1.00  0.00    -0.352 N 
ATOM     35  C   UNL A   1      44.770  19.382  24.195  1.00  0.00     0.251 C 
ATOM     36  H   UNL A   1      44.344  17.508  24.736  1.00  0.00     0.163 HD
ATOM     37  O   UNL A   1      45.235  19.041  23.110  1.00  0.00    -0.269 OA
BRANCH  35  38
ATOM     38  C   UNL A   1      44.862  20.802  24.612  1.00  0.00     0.039 A 
ATOM     39  C   UNL A   1      44.340  21.794  23.773  1.00  0.00     0.014 A 
ATOM     40  C   UNL A   1      45.517  21.171  25.788  1.00  0.00     0.014 A 
ATOM     41  C   UNL A   1      44.439  23.142  24.132  1.00  0.00     0.010 A 
ATOM     42  C   UNL A   1      45.526  22.501  26.194  1.00  0.00     0.010 A 
ATOM     43  C   UNL A   1      45.014  23.506  25.358  1.00  0.00    -0.014 A 
BRANCH  43  44
ATOM     44  C   UNL A   1      45.174  24.923  25.776  1.00  0.00     0.031 A 
ATOM     45  C   UNL A   1      46.531  25.570  25.675  1.00  0.00     0.074 A 
ATOM     46  C   UNL A   1      44.146  25.596  26.326  1.00  0.00     0.049 A 
ATOM     47  N   UNL A   1      46.948  26.712  26.161  1.00  0.00    -0.248 NA
ATOM     48  C   UNL A   1      47.571  24.806  24.968  1.00  0.00     0.031 C 
ATOM     49  C   UNL A   1      42.791  25.076  26.506  1.00  0.00     0.029 A 
ATOM     50  N   UNL A   1      44.091  26.860  26.858  1.00  0.00    -0.354 N 
ATOM     51  C   UNL A   1      48.304  26.776  25.863  1.00  0.00     0.074 A 
ATOM     52  C   UNL A   1      48.649  25.542  25.190  1.00  0.00     0.031 C 
ATOM     53  C   UNL A   1      42.034  26.017  27.096  1.00  0.00     0.029 A 
ATOM     54  C   UNL A   1      42.861  27.187  27.377  1.00  0.00     0.049 A 
ATOM     55  H   UNL A   1      44.860  27.475  26.868  1.00  0.00     0.167 HD
ATOM     56  C   UNL A   1      49.178  27.780  26.109  1.00  0.00     0.037 A 
ATOM     57  C   UNL A   1      42.455  28.297  28.021  1.00  0.00     0.037 A 
ATOM     58  C   UNL A   1      48.815  29.031  26.718  1.00  0.00     0.049 A 
ATOM     59  C   UNL A   1      43.437  29.416  28.251  1.00  0.00     0.074 A 
ATOM     60  C   UNL A   1      49.610  30.139  26.955  1.00  0.00     0.029 A 
ATOM     61  N   UNL A   1      47.543  29.344  27.171  1.00  0.00    -0.354 N 
ATOM     62  N   UNL A   1      44.708  29.479  27.936  1.00  0.00    -0.248 NA
ATOM     63  C   UNL A   1      42.926  30.619  28.923  1.00  0.00     0.031 C 
ATOM     64  C   UNL A   1      48.824  31.114  27.578  1.00  0.00     0.029 A 
ATOM     65  C   UNL A   1      47.530  30.628  27.689  1.00  0.00     0.049 A 
ATOM     66  H   UNL A   1      46.764  28.743  27.132  1.00  0.00     0.167 HD
ATOM     67  C   UNL A   1      45.138  30.737  28.336  1.00  0.00     0.074 A 
ATOM     68  C   UNL A   1      43.993  31.407  28.915  1.00  0.00     0.031 C 
ATOM     69  C   UNL A   1      46.371  31.288  28.230  1.00  0.00     0.037 A 
BRANCH  56  70
ATOM     70  C   UNL A   1      50.610  27.570  25.711  1.00  0.00     0.064 A 
ATOM     71  C   UNL A   1      51.052  27.800  24.400  1.00  0.00     0.173 A 
ATOM     72  C   UNL A   1      51.558  27.160  26.660  1.00  0.00     0.173 A 
ATOM     73  F   UNL A   1      50.183  28.182  23.452  1.00  0.00    -0.203 F 
ATOM     74  C   UNL A   1      52.384  27.598  24.047  1.00  0.00     0.198 A 
ATOM     75  C   UNL A   1      52.895  26.988  26.311  1.00  0.00     0.198 A 
ATOM     76  F   UNL A   1      51.191  26.931  27.931  1.00  0.00    -0.203 F 
ATOM     77  F   UNL A   1      52.771  27.774  22.776  1.00  0.00    -0.200 F 
ATOM     78  C   UNL A   1      53.305  27.199  25.003  1.00  0.00     0.200 A 
ATOM     79  F   UNL A   1      53.787  26.616  27.239  1.00  0.00    -0.200 F 
ATOM     80  F   UNL A   1      54.588  27.010  24.662  1.00  0.00    -0.200 F 
ENDBRANCH  56  70
BRANCH  57  81
ATOM     81  C   UNL A   1      41.044  28.420  28.468  1.00  0.00     0.064 A 
ATOM     82  C   UNL A   1      40.665  28.019  29.757  1.00  0.00     0.173 A 
ATOM     83  C   UNL A   1      40.049  28.936  27.627  1.00  0.00     0.173 A 
ATOM     84  F   UNL A   1      41.578  27.500  30.591  1.00  0.00    -0.203 F 
ATOM     85  C   UNL A   1      39.342  28.113  30.181  1.00  0.00     0.198 A 
ATOM     86  C   UNL A   1      38.730  29.054  28.060  1.00  0.00     0.198 A 
ATOM     87  F   UNL A   1      40.360  29.339  26.386  1.00  0.00    -0.203 F 
ATOM     88  F   UNL A   1      38.999  27.683  31.403  1.00  0.00    -0.200 F 
ATOM     89  C   UNL A   1      38.375  28.635  29.333  1.00  0.00     0.200 A 
ATOM     90  F   UNL A   1      37.801  29.571  27.243  1.00  0.00    -0.200 F 
ATOM     91  F   UNL A   1      37.103  28.728  29.742  1.00  0.00    -0.200 F 
ENDBRANCH  57  81
BRANCH  69  92
ATOM     92  C   UNL A   1      46.539  32.706  28.687  1.00  0.00     0.064 A 
ATOM     93  C   UNL A   1      46.301  33.789  27.830  1.00  0.00     0.173 A 
ATOM     94  C   UNL A   1      46.876  32.980  30.021  1.00  0.00     0.173 A 
ATOM     95  F   UNL A   1      45.990  33.577  26.543  1.00  0.00    -0.203 F 
ATOM     96  C   UNL A   1      46.405  35.099  28.291  1.00  0.00     0.198 A 
ATOM     97  C   UNL A   1      46.955  34.289  30.485  1.00  0.00     0.198 A 
ATOM     98  F   UNL A   1      47.106  31.975  30.880  1.00  0.00    -0.203 F 
ATOM     99  F   UNL A   1      46.203  36.122  27.449  1.00  0.00    -0.200 F 
ATOM    100  C   UNL A   1      46.723  35.347  29.619  1.00  0.00     0.200 A 
ATOM    101  F   UNL A   1      47.249  34.527  31.770  1.00  0.00    -0.200 F 
ATOM    102  F   UNL A   1      46.809  36.609  30.063  1.00  0.00    -0.200 F 
ENDBRANCH  69  92
ENDBRANCH  43  44
ENDBRANCH  35  38
ENDBRANCH  33  34
ENDBRANCH  32  33
ENDBRANCH  31  32
ENDBRANCH  30  31
ENDBRANCH   1  30
TORSDOF 18
ENDMDL
MODEL 3
REMARK VINA RESULT:     -11.3      5.057      8.654
REMARK SMILES CC(/C=C1\SC(=S)N(CC(=O)NCC(=O)NCCCCCCNC(=O)c2ccc(-c3c4nc(c(-c5c(F)c(F)c(F)c(F)c5F)c5ccc([nH]5)c(-c5c(F)c(F)c(F)c(F)c5F)c5nc(c(-c6c(F)c(F)c(F)c(F)c6F)c6ccc3[nH]6)C=C5)C=C4)cc2)C1=O)=C\c1ccccc1
REMARK SMILES IDX 18 1 17 2 16 3 14 4 15 5 13 7 12 8 10 9 11 10 9 12 8 13 3 14
REMARK SMILES IDX 4 15 5 16 89 17 6 18 90 19 7 20 2 21 1 22 91 23 92 24 93 25
REMARK SMILES IDX 97 26 94 27 96 28 95 29 19 30 20 31 21 32 22 33 23 34 24 35
REMARK SMILES IDX 25 37 26 38 27 39 88 40 28 41 87 42 29 43 30 44 31 45 81 46
REMARK SMILES IDX 32 47 86 48 80 49 82 50 33 51 85 52 79 53 78 54 34 56 66 57
REMARK SMILES IDX 46 58 65 59 47 60 50 61 64 62 83 63 48 64 49 65 63 67 84 68
REMARK SMILES IDX 51 69 35 70 36 71 44 72 37 73 38 74 42 75 45 76 39 77 40 78
REMARK SMILES IDX 43 79 41 80 67 81 68 82 76 83 69 84 70 85 74 86 77 87 71 88
REMARK SMILES IDX 72 89 75 90 73 91 52 92 53 93 61 94 54 95 55 96 59 97 62 98
REMARK SMILES IDX 56 99 57 100 60 101 58 102
REMARK H PARENT 16 6 12 11 23 36 82 55 50 66
REMARK Flexibility Score: inf
ROOT
ATOM      1  C   UNL A   1      33.969  27.137  26.024  1.00  0.00     0.021 C 
ENDROOT
BRANCH   1   2
ATOM      2  C   UNL A   1      32.539  27.458  26.443  1.00  0.00     0.116 C 
BRANCH   2   3
ATOM      3  N   UNL A   1      32.257  28.874  26.447  1.00  0.00    -0.355 N 
ATOM      4  C   UNL A   1      31.752  29.654  25.446  1.00  0.00     0.239 C 
ATOM      5  O   UNL A   1      31.400  30.801  25.734  1.00  0.00    -0.273 OA
ATOM      6  H   UNL A   1      32.457  29.344  27.288  1.00  0.00     0.163 HD
BRANCH   4   7
ATOM      7  C   UNL A   1      31.451  29.065  24.056  1.00  0.00     0.216 C 
BRANCH   7   8
ATOM      8  N   UNL A   1      32.622  28.661  23.295  1.00  0.00    -0.345 N 
ATOM      9  C   UNL A   1      32.835  27.642  22.419  1.00  0.00     0.240 C 
ATOM     10  O   UNL A   1      33.928  27.643  21.843  1.00  0.00    -0.273 OA
ATOM     11  H   UNL A   1      33.410  29.233  23.441  1.00  0.00     0.164 HD
BRANCH   9  12
ATOM     12  C   UNL A   1      31.752  26.627  22.012  1.00  0.00     0.227 C 
BRANCH  12  13
ATOM     13  N   UNL A   1      31.661  25.380  22.781  1.00  0.00    -0.283 N 
ATOM     14  C   UNL A   1      33.014  22.046  23.223  1.00  0.00     0.024 C 
ATOM     15  C   UNL A   1      32.249  23.146  23.303  1.00  0.00     0.080 C 
ATOM     16  S   UNL A   1      31.025  23.516  24.444  1.00  0.00    -0.054 SA
ATOM     17  C   UNL A   1      32.465  24.316  22.400  1.00  0.00     0.266 C 
ATOM     18  C   UNL A   1      30.730  25.111  23.762  1.00  0.00     0.148 C 
ATOM     19  O   UNL A   1      33.280  24.324  21.494  1.00  0.00    -0.268 OA
ATOM     20  S   UNL A   1      29.477  26.074  24.295  1.00  0.00    -0.052 S 
BRANCH  14  21
ATOM     21  C   UNL A   1      33.010  20.853  24.070  1.00  0.00    -0.049 C 
ATOM     22  C   UNL A   1      32.670  21.008  25.527  1.00  0.00     0.044 C 
ATOM     23  C   UNL A   1      33.289  19.662  23.500  1.00  0.00     0.011 C 
BRANCH  23  24
ATOM     24  C   UNL A   1      33.323  18.336  24.132  1.00  0.00    -0.025 A 
ATOM     25  C   UNL A   1      32.152  17.839  24.721  1.00  0.00     0.008 A 
ATOM     26  C   UNL A   1      34.506  17.601  24.254  1.00  0.00     0.008 A 
ATOM     27  C   UNL A   1      32.157  16.609  25.383  1.00  0.00     0.001 A 
ATOM     28  C   UNL A   1      34.510  16.367  24.910  1.00  0.00     0.001 A 
ATOM     29  C   UNL A   1      33.334  15.871  25.470  1.00  0.00     0.000 A 
ENDBRANCH  23  24
ENDBRANCH  14  21
ENDBRANCH  12  13
ENDBRANCH   9  12
ENDBRANCH   7   8
ENDBRANCH   4   7
ENDBRANCH   2   3
ENDBRANCH   1   2
BRANCH   1  30
ATOM     30  C   UNL A   1      34.102  25.843  25.214  1.00  0.00     0.002 C 
BRANCH  30  31
ATOM     31  C   UNL A   1      34.187  24.553  26.042  1.00  0.00     0.002 C 
BRANCH  31  32
ATOM     32  C   UNL A   1      35.255  23.558  25.583  1.00  0.00     0.021 C 
BRANCH  32  33
ATOM     33  C   UNL A   1      35.745  22.619  26.674  1.00  0.00     0.116 C 
BRANCH  33  34
ATOM     34  N   UNL A   1      36.620  21.588  26.128  1.00  0.00    -0.352 N 
ATOM     35  C   UNL A   1      37.949  21.631  25.789  1.00  0.00     0.251 C 
ATOM     36  H   UNL A   1      36.184  20.717  25.981  1.00  0.00     0.163 HD
ATOM     37  O   UNL A   1      38.431  20.720  25.119  1.00  0.00    -0.269 OA
BRANCH  35  38
ATOM     38  C   UNL A   1      38.814  22.757  26.214  1.00  0.00     0.039 A 
ATOM     39  C   UNL A   1      39.845  22.517  27.130  1.00  0.00     0.014 A 
ATOM     40  C   UNL A   1      38.577  24.060  25.772  1.00  0.00     0.014 A 
ATOM     41  C   UNL A   1      40.657  23.569  27.567  1.00  0.00     0.010 A 
ATOM     42  C   UNL A   1      39.446  25.087  26.127  1.00  0.00     0.010 A 
ATOM     43  C   UNL A   1      40.477  24.861  27.051  1.00  0.00    -0.014 A 
BRANCH  43  44
ATOM     44  C   UNL A   1      41.290  26.020  27.503  1.00  0.00     0.031 A 
ATOM     45  C   UNL A   1      40.629  27.113  28.303  1.00  0.00     0.074 A 
ATOM     46  C   UNL A   1      42.575  26.146  27.125  1.00  0.00     0.049 A 
ATOM     47  N   UNL A   1      41.080  28.298  28.627  1.00  0.00    -0.248 NA
ATOM     48  C   UNL A   1      39.255  26.850  28.763  1.00  0.00     0.031 C 
ATOM     49  C   UNL A   1      43.325  25.174  26.328  1.00  0.00     0.029 A 
ATOM     50  N   UNL A   1      43.474  27.160  27.344  1.00  0.00    -0.354 N 
ATOM     51  C   UNL A   1      40.032  28.935  29.280  1.00  0.00     0.074 A 
ATOM     52  C   UNL A   1      38.910  28.022  29.271  1.00  0.00     0.031 C 
ATOM     53  C   UNL A   1      44.572  25.634  26.135  1.00  0.00     0.029 A 
ATOM     54  C   UNL A   1      44.697  26.950  26.754  1.00  0.00     0.049 A 
ATOM     55  H   UNL A   1      43.262  27.963  27.873  1.00  0.00     0.167 HD
ATOM     56  C   UNL A   1      40.012  30.161  29.853  1.00  0.00     0.037 A 
ATOM     57  C   UNL A   1      45.786  27.740  26.704  1.00  0.00     0.037 A 
ATOM     58  C   UNL A   1      41.151  31.037  29.917  1.00  0.00     0.049 A 
ATOM     59  C   UNL A   1      45.753  29.085  27.380  1.00  0.00     0.074 A 
ATOM     60  C   UNL A   1      41.256  32.274  30.529  1.00  0.00     0.029 A 
ATOM     61  N   UNL A   1      42.390  30.758  29.360  1.00  0.00    -0.354 N 
ATOM     62  N   UNL A   1      44.767  29.664  28.022  1.00  0.00    -0.248 NA
ATOM     63  C   UNL A   1      46.985  29.886  27.327  1.00  0.00     0.031 C 
ATOM     64  C   UNL A   1      42.552  32.755  30.319  1.00  0.00     0.029 A 
ATOM     65  C   UNL A   1      43.265  31.800  29.613  1.00  0.00     0.049 A 
ATOM     66  H   UNL A   1      42.613  29.940  28.859  1.00  0.00     0.167 HD
ATOM     67  C   UNL A   1      45.269  30.875  28.480  1.00  0.00     0.074 A 
ATOM     68  C   UNL A   1      46.648  30.949  28.045  1.00  0.00     0.031 C 
ATOM     69  C   UNL A   1      44.644  31.837  29.199  1.00  0.00     0.037 A 
BRANCH  56  70
ATOM     70  C   UNL A   1      38.722  30.624  30.463  1.00  0.00     0.064 A 
ATOM     71  C   UNL A   1      38.464  30.486  31.836  1.00  0.00     0.173 A 
ATOM     72  C   UNL A   1      37.741  31.240  29.671  1.00  0.00     0.173 A 
ATOM     73  F   UNL A   1      39.364  29.893  32.635  1.00  0.00    -0.203 F 
ATOM     74  C   UNL A   1      37.260  30.918  32.386  1.00  0.00     0.198 A 
ATOM     75  C   UNL A   1      36.551  31.700  30.230  1.00  0.00     0.198 A 
ATOM     76  F   UNL A   1      37.938  31.404  28.354  1.00  0.00    -0.203 F 
ATOM     77  F   UNL A   1      37.016  30.727  33.690  1.00  0.00    -0.200 F 
ATOM     78  C   UNL A   1      36.308  31.530  31.584  1.00  0.00     0.200 A 
ATOM     79  F   UNL A   1      35.639  32.303  29.457  1.00  0.00    -0.200 F 
ATOM     80  F   UNL A   1      35.153  31.951  32.118  1.00  0.00    -0.200 F 
ENDBRANCH  56  70
BRANCH  57  81
ATOM     81  C   UNL A   1      47.014  27.267  26.014  1.00  0.00     0.064 A 
ATOM     82  C   UNL A   1      47.994  26.546  26.711  1.00  0.00     0.173 A 
ATOM     83  C   UNL A   1      47.235  27.521  24.653  1.00  0.00     0.173 A 
ATOM     84  F   UNL A   1      47.836  26.297  28.019  1.00  0.00    -0.203 F 
ATOM     85  C   UNL A   1      49.157  26.114  26.078  1.00  0.00     0.198 A 
ATOM     86  C   UNL A   1      48.387  27.065  24.014  1.00  0.00     0.198 A 
ATOM     87  F   UNL A   1      46.326  28.201  23.939  1.00  0.00    -0.203 F 
ATOM     88  F   UNL A   1      50.097  25.464  26.778  1.00  0.00    -0.200 F 
ATOM     89  C   UNL A   1      49.351  26.369  24.729  1.00  0.00     0.200 A 
ATOM     90  F   UNL A   1      48.564  27.302  22.707  1.00  0.00    -0.200 F 
ATOM     91  F   UNL A   1      50.467  25.950  24.119  1.00  0.00    -0.200 F 
ENDBRANCH  57  81
BRANCH  69  92
ATOM     92  C   UNL A   1      45.455  33.025  29.622  1.00  0.00     0.064 A 
ATOM     93  C   UNL A   1      46.263  32.996  30.767  1.00  0.00     0.173 A 
ATOM     94  C   UNL A   1      45.474  34.182  28.828  1.00  0.00     0.173 A 
ATOM     95  F   UNL A   1      46.267  31.917  31.563  1.00  0.00    -0.203 F 
ATOM     96  C   UNL A   1      47.054  34.089  31.109  1.00  0.00     0.198 A 
ATOM     97  C   UNL A   1      46.285  35.263  29.159  1.00  0.00     0.198 A 
ATOM     98  F   UNL A   1      44.722  34.254  27.719  1.00  0.00    -0.203 F 
ATOM     99  F   UNL A   1      47.798  34.053  32.223  1.00  0.00    -0.200 F 
ATOM    100  C   UNL A   1      47.071  35.217  30.301  1.00  0.00     0.200 A 
ATOM    101  F   UNL A   1      46.310  36.347  28.372  1.00  0.00    -0.200 F 
ATOM    102  F   UNL A   1      47.845  36.262  30.625  1.00  0.00    -0.200 F 
ENDBRANCH  69  92
ENDBRANCH  43  44
ENDBRANCH  35  38
ENDBRANCH  33  34
ENDBRANCH  32  33
ENDBRANCH  31  32
ENDBRANCH  30  31
ENDBRANCH   1  30
TORSDOF 18
ENDMDL
