MODEL 1
REMARK VINA RESULT:     -13.0      0.000      0.000
REMARK SMILES N#C/C(=C\c1ccc(-c2ccc(C(=O)NCCCCCCNC(=O)c3ccc(-c4c5nc(c(-c6c(F)c(F)c(F)c(F)c6F)c6ccc([nH]6)c(-c6c(F)c(F)c(F)c(F)c6F)c6nc(c(-c7c(F)c(F)c(F)c(F)c7F)c7ccc4[nH]7)C=C6)C=C5)cc3)cc2)o1)[C@@H]1N=c2cc(Br)cnc2=N1
REMARK SMILES IDX 18 1 17 2 16 3 15 4 13 5 14 6 12 8 9 9 10 10 89 11 11 12
REMARK SMILES IDX 88 13 8 14 5 15 6 16 90 17 7 18 4 19 3 20 2 21 1 22 91 23
REMARK SMILES IDX 92 24 100 25 93 26 99 27 94 28 98 29 95 30 97 31 96 32 19 33
REMARK SMILES IDX 20 34 21 35 22 36 23 37 24 39 25 40 26 41 87 42 27 43 86 44
REMARK SMILES IDX 28 45 29 46 30 47 80 48 31 49 85 50 79 51 81 52 32 53 84 54
REMARK SMILES IDX 78 55 77 56 33 58 65 59 45 60 64 61 46 62 49 63 63 64 82 65
REMARK SMILES IDX 47 66 48 67 62 69 83 70 50 71 34 72 35 73 43 74 36 75 37 76
REMARK SMILES IDX 41 77 44 78 38 79 39 80 42 81 40 82 66 83 67 84 75 85 68 86
REMARK SMILES IDX 69 87 73 88 76 89 70 90 71 91 74 92 72 93 51 94 52 95 60 96
REMARK SMILES IDX 53 97 54 98 58 99 61 100 55 101 56 102 59 103 57 104
REMARK H PARENT 15 7 22 38 81 57 49 68
REMARK Flexibility Score: inf
ROOT
ATOM      1  C   UNL A   1      35.802  21.328  25.376  1.00  0.00     0.002 C 
ENDROOT
BRANCH   1   2
ATOM      2  C   UNL A   1      34.547  20.534  24.996  1.00  0.00     0.021 C 
BRANCH   2   3
ATOM      3  C   UNL A   1      33.365  21.435  24.628  1.00  0.00     0.116 C 
BRANCH   3   4
ATOM      4  N   UNL A   1      33.511  21.900  23.260  1.00  0.00    -0.352 N 
ATOM      5  C   UNL A   1      33.412  23.146  22.697  1.00  0.00     0.251 C 
ATOM      6  O   UNL A   1      33.574  23.245  21.481  1.00  0.00    -0.269 OA
ATOM      7  H   UNL A   1      33.722  21.185  22.618  1.00  0.00     0.163 HD
BRANCH   5   8
ATOM      8  C   UNL A   1      33.192  24.375  23.504  1.00  0.00     0.039 A 
ATOM      9  C   UNL A   1      32.862  26.537  25.257  1.00  0.00     0.017 A 
ATOM     10  C   UNL A   1      34.121  25.952  25.107  1.00  0.00     0.013 A 
ATOM     11  C   UNL A   1      31.796  26.096  24.471  1.00  0.00     0.013 A 
ATOM     12  C   UNL A   1      34.280  24.867  24.241  1.00  0.00     0.014 A 
ATOM     13  C   UNL A   1      31.973  25.051  23.569  1.00  0.00     0.014 A 
BRANCH   9  14
ATOM     14  C   UNL A   1      32.610  27.574  26.225  1.00  0.00     0.134 A 
ATOM     15  C   UNL A   1      33.122  29.465  27.246  1.00  0.00     0.128 A 
ATOM     16  C   UNL A   1      31.832  29.103  27.628  1.00  0.00     0.051 A 
ATOM     17  O   UNL A   1      33.570  28.523  26.351  1.00  0.00    -0.457 OA
ATOM     18  C   UNL A   1      31.522  27.876  27.007  1.00  0.00     0.051 A 
BRANCH  15  19
ATOM     19  C   UNL A   1      33.928  30.567  27.648  1.00  0.00     0.066 C 
ATOM     20  C   UNL A   1      33.548  31.851  27.462  1.00  0.00     0.080 C 
BRANCH  20  21
ATOM     21  C   UNL A   1      32.171  32.087  26.864  1.00  0.00     0.099 C 
ATOM     22  N   UNL A   1      31.028  32.284  26.368  1.00  0.00    -0.193 NA
ENDBRANCH  20  21
BRANCH  20  23
ATOM     23  C   UNL A   1      34.336  33.031  27.966  1.00  0.00     0.265 C 
ATOM     24  N   UNL A   1      35.125  32.628  29.169  1.00  0.00    -0.249 NA
ATOM     25  N   UNL A   1      33.424  34.160  28.308  1.00  0.00    -0.232 NA
ATOM     26  C   UNL A   1      34.698  33.441  30.068  1.00  0.00     0.106 A 
ATOM     27  C   UNL A   1      33.654  34.357  29.559  1.00  0.00     0.175 A 
ATOM     28  C   UNL A   1      35.079  33.573  31.475  1.00  0.00     0.049 A 
ATOM     29  N   UNL A   1      32.982  35.270  30.313  1.00  0.00    -0.234 NA
ATOM     30  C   UNL A   1      34.422  34.487  32.203  1.00  0.00     0.038 A 
ATOM     31  C   UNL A   1      33.351  35.312  31.556  1.00  0.00     0.129 A 
ATOM     32  Br  UNL A   1      34.778  34.792  34.001  1.00  0.00    -0.049 Br
ENDBRANCH  20  23
ENDBRANCH  15  19
ENDBRANCH   9  14
ENDBRANCH   5   8
ENDBRANCH   3   4
ENDBRANCH   2   3
ENDBRANCH   1   2
BRANCH   1  33
ATOM     33  C   UNL A   1      37.027  21.032  24.502  1.00  0.00     0.002 C 
BRANCH  33  34
ATOM     34  C   UNL A   1      37.903  19.880  25.001  1.00  0.00     0.021 C 
BRANCH  34  35
ATOM     35  C   UNL A   1      39.127  20.333  25.789  1.00  0.00     0.116 C 
BRANCH  35  36
ATOM     36  N   UNL A   1      40.089  19.253  25.947  1.00  0.00    -0.352 N 
ATOM     37  C   UNL A   1      41.454  19.320  26.075  1.00  0.00     0.251 C 
ATOM     38  H   UNL A   1      39.708  18.346  25.966  1.00  0.00     0.163 HD
ATOM     39  O   UNL A   1      42.143  18.316  25.949  1.00  0.00    -0.269 OA
BRANCH  37  40
ATOM     40  C   UNL A   1      42.090  20.624  26.352  1.00  0.00     0.039 A 
ATOM     41  C   UNL A   1      42.517  21.414  25.285  1.00  0.00     0.014 A 
ATOM     42  C   UNL A   1      42.256  21.062  27.669  1.00  0.00     0.014 A 
ATOM     43  C   UNL A   1      43.055  22.678  25.536  1.00  0.00     0.010 A 
ATOM     44  C   UNL A   1      42.719  22.350  27.914  1.00  0.00     0.010 A 
ATOM     45  C   UNL A   1      43.125  23.170  26.850  1.00  0.00    -0.014 A 
BRANCH  45  46
ATOM     46  C   UNL A   1      43.612  24.541  27.136  1.00  0.00     0.031 A 
ATOM     47  C   UNL A   1      42.667  25.583  27.662  1.00  0.00     0.074 A 
ATOM     48  C   UNL A   1      44.888  24.865  26.852  1.00  0.00     0.049 A 
ATOM     49  N   UNL A   1      42.880  26.853  27.898  1.00  0.00    -0.248 NA
ATOM     50  C   UNL A   1      41.289  25.145  27.934  1.00  0.00     0.031 C 
ATOM     51  C   UNL A   1      45.890  23.951  26.301  1.00  0.00     0.029 A 
ATOM     52  N   UNL A   1      45.560  26.055  26.978  1.00  0.00    -0.354 N 
ATOM     53  C   UNL A   1      41.665  27.365  28.335  1.00  0.00     0.074 A 
ATOM     54  C   UNL A   1      40.704  26.285  28.274  1.00  0.00     0.031 C 
ATOM     55  C   UNL A   1      47.053  24.605  26.162  1.00  0.00     0.029 A 
ATOM     56  C   UNL A   1      46.870  25.994  26.568  1.00  0.00     0.049 A 
ATOM     57  H   UNL A   1      45.142  26.874  27.329  1.00  0.00     0.167 HD
ATOM     58  C   UNL A   1      41.384  28.616  28.772  1.00  0.00     0.037 A 
ATOM     59  C   UNL A   1      47.811  26.955  26.517  1.00  0.00     0.037 A 
ATOM     60  C   UNL A   1      42.349  29.682  28.841  1.00  0.00     0.049 A 
ATOM     61  C   UNL A   1      47.461  28.347  26.970  1.00  0.00     0.074 A 
ATOM     62  C   UNL A   1      42.180  30.971  29.316  1.00  0.00     0.029 A 
ATOM     63  N   UNL A   1      43.667  29.584  28.415  1.00  0.00    -0.354 N 
ATOM     64  N   UNL A   1      46.329  28.804  27.447  1.00  0.00    -0.248 NA
ATOM     65  C   UNL A   1      48.524  29.358  26.879  1.00  0.00     0.031 C 
ATOM     66  C   UNL A   1      43.375  31.669  29.122  1.00  0.00     0.029 A 
ATOM     67  C   UNL A   1      44.311  30.798  28.586  1.00  0.00     0.049 A 
ATOM     68  H   UNL A   1      44.081  28.771  28.045  1.00  0.00     0.167 HD
ATOM     69  C   UNL A   1      46.551  30.142  27.744  1.00  0.00     0.074 A 
ATOM     70  C   UNL A   1      47.931  30.420  27.406  1.00  0.00     0.031 C 
ATOM     71  C   UNL A   1      45.689  31.058  28.252  1.00  0.00     0.037 A 
BRANCH  58  72
ATOM     72  C   UNL A   1      39.973  28.898  29.204  1.00  0.00     0.064 A 
ATOM     73  C   UNL A   1      39.556  28.710  30.532  1.00  0.00     0.173 A 
ATOM     74  C   UNL A   1      39.032  29.387  28.286  1.00  0.00     0.173 A 
ATOM     75  F   UNL A   1      40.414  28.235  31.448  1.00  0.00    -0.203 F 
ATOM     76  C   UNL A   1      38.242  28.963  30.914  1.00  0.00     0.198 A 
ATOM     77  C   UNL A   1      37.727  29.674  28.681  1.00  0.00     0.198 A 
ATOM     78  F   UNL A   1      39.376  29.593  27.007  1.00  0.00    -0.203 F 
ATOM     79  F   UNL A   1      37.853  28.718  32.173  1.00  0.00    -0.200 F 
ATOM     80  C   UNL A   1      37.330  29.453  29.990  1.00  0.00     0.200 A 
ATOM     81  F   UNL A   1      36.851  30.162  27.790  1.00  0.00    -0.200 F 
ATOM     82  F   UNL A   1      36.067  29.701  30.361  1.00  0.00    -0.200 F 
ENDBRANCH  58  72
BRANCH  59  83
ATOM     83  C   UNL A   1      49.181  26.631  26.039  1.00  0.00     0.064 A 
ATOM     84  C   UNL A   1      49.561  26.895  24.715  1.00  0.00     0.173 A 
ATOM     85  C   UNL A   1      50.133  26.044  26.885  1.00  0.00     0.173 A 
ATOM     86  F   UNL A   1      48.680  27.437  23.862  1.00  0.00    -0.203 F 
ATOM     87  C   UNL A   1      50.831  26.564  24.250  1.00  0.00     0.198 A 
ATOM     88  C   UNL A   1      51.414  25.742  26.427  1.00  0.00     0.198 A 
ATOM     89  F   UNL A   1      49.823  25.774  28.161  1.00  0.00    -0.203 F 
ATOM     90  F   UNL A   1      51.150  26.782  22.967  1.00  0.00    -0.200 F 
ATOM     91  C   UNL A   1      51.759  25.993  25.107  1.00  0.00     0.200 A 
ATOM     92  F   UNL A   1      52.312  25.204  27.263  1.00  0.00    -0.200 F 
ATOM     93  F   UNL A   1      52.982  25.677  24.661  1.00  0.00    -0.200 F 
ENDBRANCH  59  83
BRANCH  71  94
ATOM     94  C   UNL A   1      46.224  32.437  28.514  1.00  0.00     0.064 A 
ATOM     95  C   UNL A   1      46.830  32.775  29.732  1.00  0.00     0.173 A 
ATOM     96  C   UNL A   1      46.169  33.419  27.512  1.00  0.00     0.173 A 
ATOM     97  F   UNL A   1      46.894  31.878  30.727  1.00  0.00    -0.203 F 
ATOM     98  C   UNL A   1      47.338  34.055  29.948  1.00  0.00     0.198 A 
ATOM     99  C   UNL A   1      46.708  34.686  27.720  1.00  0.00     0.198 A 
ATOM    100  F   UNL A   1      45.606  33.145  26.326  1.00  0.00    -0.203 F 
ATOM    101  F   UNL A   1      47.868  34.370  31.138  1.00  0.00    -0.200 F 
ATOM    102  C   UNL A   1      47.285  35.004  28.938  1.00  0.00     0.200 A 
ATOM    103  F   UNL A   1      46.671  35.596  26.737  1.00  0.00    -0.200 F 
ATOM    104  F   UNL A   1      47.785  36.231  29.144  1.00  0.00    -0.200 F 
ENDBRANCH  71  94
ENDBRANCH  45  46
ENDBRANCH  37  40
ENDBRANCH  35  36
ENDBRANCH  34  35
ENDBRANCH  33  34
ENDBRANCH   1  33
TORSDOF 17
ENDMDL
MODEL 2
REMARK VINA RESULT:     -12.2      4.990     10.603
REMARK SMILES N#C/C(=C\c1ccc(-c2ccc(C(=O)NCCCCCCNC(=O)c3ccc(-c4c5nc(c(-c6c(F)c(F)c(F)c(F)c6F)c6ccc([nH]6)c(-c6c(F)c(F)c(F)c(F)c6F)c6nc(c(-c7c(F)c(F)c(F)c(F)c7F)c7ccc4[nH]7)C=C6)C=C5)cc3)cc2)o1)[C@@H]1N=c2cc(Br)cnc2=N1
REMARK SMILES IDX 18 1 17 2 16 3 15 4 13 5 14 6 12 8 9 9 10 10 89 11 11 12
REMARK SMILES IDX 88 13 8 14 5 15 6 16 90 17 7 18 4 19 3 20 2 21 1 22 91 23
REMARK SMILES IDX 92 24 100 25 93 26 99 27 94 28 98 29 95 30 97 31 96 32 19 33
REMARK SMILES IDX 20 34 21 35 22 36 23 37 24 39 25 40 26 41 87 42 27 43 86 44
REMARK SMILES IDX 28 45 29 46 30 47 80 48 31 49 85 50 79 51 81 52 32 53 84 54
REMARK SMILES IDX 78 55 77 56 33 58 65 59 45 60 64 61 46 62 49 63 63 64 82 65
REMARK SMILES IDX 47 66 48 67 62 69 83 70 50 71 34 72 35 73 43 74 36 75 37 76
REMARK SMILES IDX 41 77 44 78 38 79 39 80 42 81 40 82 66 83 67 84 75 85 68 86
REMARK SMILES IDX 69 87 73 88 76 89 70 90 71 91 74 92 72 93 51 94 52 95 60 96
REMARK SMILES IDX 53 97 54 98 58 99 61 100 55 101 56 102 59 103 57 104
REMARK H PARENT 15 7 22 38 81 57 49 68
REMARK Flexibility Score: inf
ROOT
ATOM      1  C   UNL A   1      35.174  34.858  32.770  1.00  0.00     0.002 C 
ENDROOT
BRANCH   1   2
ATOM      2  C   UNL A   1      34.332  36.127  32.596  1.00  0.00     0.021 C 
BRANCH   2   3
ATOM      3  C   UNL A   1      33.145  35.926  31.650  1.00  0.00     0.116 C 
BRANCH   3   4
ATOM      4  N   UNL A   1      33.305  36.767  30.478  1.00  0.00    -0.352 N 
ATOM      5  C   UNL A   1      33.656  36.484  29.183  1.00  0.00     0.251 C 
ATOM      6  O   UNL A   1      33.729  37.419  28.386  1.00  0.00    -0.269 OA
ATOM      7  H   UNL A   1      33.127  37.721  30.645  1.00  0.00     0.163 HD
BRANCH   5   8
ATOM      8  C   UNL A   1      33.877  35.096  28.698  1.00  0.00     0.039 A 
ATOM      9  C   UNL A   1      34.089  32.397  27.975  1.00  0.00     0.017 A 
ATOM     10  C   UNL A   1      32.873  33.063  27.816  1.00  0.00     0.013 A 
ATOM     11  C   UNL A   1      35.212  33.100  28.414  1.00  0.00     0.013 A 
ATOM     12  C   UNL A   1      32.767  34.406  28.187  1.00  0.00     0.014 A 
ATOM     13  C   UNL A   1      35.115  34.452  28.730  1.00  0.00     0.014 A 
BRANCH   9  14
ATOM     14  C   UNL A   1      34.226  30.983  27.727  1.00  0.00     0.134 A 
ATOM     15  C   UNL A   1      33.393  28.979  27.313  1.00  0.00     0.128 A 
ATOM     16  C   UNL A   1      34.776  28.915  27.152  1.00  0.00     0.051 A 
ATOM     17  O   UNL A   1      33.073  30.277  27.635  1.00  0.00    -0.457 OA
ATOM     18  C   UNL A   1      35.309  30.184  27.456  1.00  0.00     0.051 A 
BRANCH  15  19
ATOM     19  C   UNL A   1      32.404  27.962  27.204  1.00  0.00     0.066 C 
ATOM     20  C   UNL A   1      31.771  27.686  26.042  1.00  0.00     0.080 C 
BRANCH  20  21
ATOM     21  C   UNL A   1      32.210  28.462  24.811  1.00  0.00     0.099 C 
ATOM     22  N   UNL A   1      32.574  29.106  23.790  1.00  0.00    -0.193 NA
ENDBRANCH  20  21
BRANCH  20  23
ATOM     23  C   UNL A   1      30.794  26.551  25.879  1.00  0.00     0.265 C 
ATOM     24  N   UNL A   1      31.265  25.370  26.662  1.00  0.00    -0.249 NA
ATOM     25  N   UNL A   1      30.652  26.188  24.440  1.00  0.00    -0.232 NA
ATOM     26  C   UNL A   1      31.370  24.461  25.759  1.00  0.00     0.106 A 
ATOM     27  C   UNL A   1      31.020  24.955  24.409  1.00  0.00     0.175 A 
ATOM     28  C   UNL A   1      31.782  23.062  25.875  1.00  0.00     0.049 A 
ATOM     29  N   UNL A   1      31.110  24.224  23.264  1.00  0.00    -0.234 NA
ATOM     30  C   UNL A   1      31.851  22.348  24.743  1.00  0.00     0.038 A 
ATOM     31  C   UNL A   1      31.510  23.003  23.438  1.00  0.00     0.129 A 
ATOM     32  Br  UNL A   1      32.351  20.558  24.705  1.00  0.00    -0.049 Br
ENDBRANCH  20  23
ENDBRANCH  15  19
ENDBRANCH   9  14
ENDBRANCH   5   8
ENDBRANCH   3   4
ENDBRANCH   2   3
ENDBRANCH   1   2
BRANCH   1  33
ATOM     33  C   UNL A   1      34.364  33.556  32.775  1.00  0.00     0.002 C 
BRANCH  33  34
ATOM     34  C   UNL A   1      34.978  32.418  31.955  1.00  0.00     0.021 C 
BRANCH  34  35
ATOM     35  C   UNL A   1      36.415  32.088  32.341  1.00  0.00     0.116 C 
BRANCH  35  36
ATOM     36  N   UNL A   1      36.525  30.742  32.885  1.00  0.00    -0.352 N 
ATOM     37  C   UNL A   1      37.521  29.815  32.711  1.00  0.00     0.251 C 
ATOM     38  H   UNL A   1      35.779  30.457  33.461  1.00  0.00     0.163 HD
ATOM     39  O   UNL A   1      37.349  28.646  33.030  1.00  0.00    -0.269 OA
BRANCH  37  40
ATOM     40  C   UNL A   1      38.806  30.239  32.119  1.00  0.00     0.039 A 
ATOM     41  C   UNL A   1      39.004  30.092  30.745  1.00  0.00     0.014 A 
ATOM     42  C   UNL A   1      39.808  30.788  32.924  1.00  0.00     0.014 A 
ATOM     43  C   UNL A   1      40.188  30.554  30.168  1.00  0.00     0.010 A 
ATOM     44  C   UNL A   1      40.952  31.318  32.338  1.00  0.00     0.010 A 
ATOM     45  C   UNL A   1      41.153  31.204  30.954  1.00  0.00    -0.014 A 
BRANCH  45  46
ATOM     46  C   UNL A   1      42.380  31.781  30.350  1.00  0.00     0.031 A 
ATOM     47  C   UNL A   1      43.641  30.968  30.283  1.00  0.00     0.074 A 
ATOM     48  C   UNL A   1      42.374  33.060  29.929  1.00  0.00     0.049 A 
ATOM     49  N   UNL A   1      44.832  31.319  29.868  1.00  0.00    -0.248 NA
ATOM     50  C   UNL A   1      43.560  29.584  30.774  1.00  0.00     0.031 C 
ATOM     51  C   UNL A   1      41.222  33.961  29.978  1.00  0.00     0.029 A 
ATOM     52  N   UNL A   1      43.372  33.829  29.386  1.00  0.00    -0.354 N 
ATOM     53  C   UNL A   1      45.640  30.205  30.057  1.00  0.00     0.074 A 
ATOM     54  C   UNL A   1      44.821  29.188  30.680  1.00  0.00     0.031 C 
ATOM     55  C   UNL A   1      41.571  35.150  29.461  1.00  0.00     0.029 A 
ATOM     56  C   UNL A   1      42.980  35.111  29.088  1.00  0.00     0.049 A 
ATOM     57  H   UNL A   1      44.283  33.492  29.225  1.00  0.00     0.167 HD
ATOM     58  C   UNL A   1      46.941  30.038  29.717  1.00  0.00     0.037 A 
ATOM     59  C   UNL A   1      43.684  36.142  28.582  1.00  0.00     0.037 A 
ATOM     60  C   UNL A   1      47.747  31.051  29.086  1.00  0.00     0.049 A 
ATOM     61  C   UNL A   1      45.138  35.942  28.251  1.00  0.00     0.074 A 
ATOM     62  C   UNL A   1      49.058  30.967  28.656  1.00  0.00     0.029 A 
ATOM     63  N   UNL A   1      47.316  32.340  28.803  1.00  0.00    -0.354 N 
ATOM     64  N   UNL A   1      45.876  34.864  28.369  1.00  0.00    -0.248 NA
ATOM     65  C   UNL A   1      45.860  37.104  27.714  1.00  0.00     0.031 C 
ATOM     66  C   UNL A   1      49.439  32.220  28.166  1.00  0.00     0.029 A 
ATOM     67  C   UNL A   1      48.346  33.069  28.232  1.00  0.00     0.049 A 
ATOM     68  H   UNL A   1      46.410  32.685  28.981  1.00  0.00     0.167 HD
ATOM     69  C   UNL A   1      47.133  35.206  27.891  1.00  0.00     0.074 A 
ATOM     70  C   UNL A   1      47.056  36.589  27.469  1.00  0.00     0.031 C 
ATOM     71  C   UNL A   1      48.251  34.443  27.809  1.00  0.00     0.037 A 
BRANCH  58  72
ATOM     72  C   UNL A   1      47.573  28.711  30.028  1.00  0.00     0.064 A 
ATOM     73  C   UNL A   1      47.546  27.648  29.111  1.00  0.00     0.173 A 
ATOM     74  C   UNL A   1      48.237  28.506  31.247  1.00  0.00     0.173 A 
ATOM     75  F   UNL A   1      46.916  27.787  27.935  1.00  0.00    -0.203 F 
ATOM     76  C   UNL A   1      48.125  26.420  29.419  1.00  0.00     0.198 A 
ATOM     77  C   UNL A   1      48.847  27.287  31.536  1.00  0.00     0.198 A 
ATOM     78  F   UNL A   1      48.301  29.489  32.157  1.00  0.00    -0.203 F 
ATOM     79  F   UNL A   1      48.033  25.402  28.551  1.00  0.00    -0.200 F 
ATOM     80  C   UNL A   1      48.782  26.243  30.627  1.00  0.00     0.200 A 
ATOM     81  F   UNL A   1      49.494  27.123  32.698  1.00  0.00    -0.200 F 
ATOM     82  F   UNL A   1      49.343  25.062  30.919  1.00  0.00    -0.200 F 
ENDBRANCH  58  72
BRANCH  59  83
ATOM     83  C   UNL A   1      43.018  37.448  28.335  1.00  0.00     0.064 A 
ATOM     84  C   UNL A   1      42.284  37.669  27.160  1.00  0.00     0.173 A 
ATOM     85  C   UNL A   1      43.107  38.502  29.256  1.00  0.00     0.173 A 
ATOM     86  F   UNL A   1      42.187  36.699  26.240  1.00  0.00    -0.203 F 
ATOM     87  C   UNL A   1      41.685  38.900  26.906  1.00  0.00     0.198 A 
ATOM     88  C   UNL A   1      42.481  39.723  29.014  1.00  0.00     0.198 A 
ATOM     89  F   UNL A   1      43.793  38.342  30.397  1.00  0.00    -0.203 F 
ATOM     90  F   UNL A   1      41.034  39.100  25.752  1.00  0.00    -0.200 F 
ATOM     91  C   UNL A   1      41.779  39.925  27.836  1.00  0.00     0.200 A 
ATOM     92  F   UNL A   1      42.561  40.705  29.922  1.00  0.00    -0.200 F 
ATOM     93  F   UNL A   1      41.200  41.109  27.593  1.00  0.00    -0.200 F 
ENDBRANCH  59  83
BRANCH  71  94
ATOM     94  C   UNL A   1      49.473  35.073  27.202  1.00  0.00     0.064 A 
ATOM     95  C   UNL A   1      49.646  35.159  25.813  1.00  0.00     0.173 A 
ATOM     96  C   UNL A   1      50.460  35.639  28.023  1.00  0.00     0.173 A 
ATOM     97  F   UNL A   1      48.740  34.620  24.984  1.00  0.00    -0.203 F 
ATOM     98  C   UNL A   1      50.777  35.765  25.269  1.00  0.00     0.198 A 
ATOM     99  C   UNL A   1      51.571  36.275  27.476  1.00  0.00     0.198 A 
ATOM    100  F   UNL A   1      50.339  35.590  29.358  1.00  0.00    -0.203 F 
ATOM    101  F   UNL A   1      50.946  35.791  23.939  1.00  0.00    -0.200 F 
ATOM    102  C   UNL A   1      51.732  36.330  26.101  1.00  0.00     0.200 A 
ATOM    103  F   UNL A   1      52.484  36.834  28.281  1.00  0.00    -0.200 F 
ATOM    104  F   UNL A   1      52.813  36.924  25.575  1.00  0.00    -0.200 F 
ENDBRANCH  71  94
ENDBRANCH  45  46
ENDBRANCH  37  40
ENDBRANCH  35  36
ENDBRANCH  34  35
ENDBRANCH  33  34
ENDBRANCH   1  33
TORSDOF 17
ENDMDL
MODEL 3
REMARK VINA RESULT:     -12.0      4.572      9.333
REMARK SMILES N#C/C(=C\c1ccc(-c2ccc(C(=O)NCCCCCCNC(=O)c3ccc(-c4c5nc(c(-c6c(F)c(F)c(F)c(F)c6F)c6ccc([nH]6)c(-c6c(F)c(F)c(F)c(F)c6F)c6nc(c(-c7c(F)c(F)c(F)c(F)c7F)c7ccc4[nH]7)C=C6)C=C5)cc3)cc2)o1)[C@@H]1N=c2cc(Br)cnc2=N1
REMARK SMILES IDX 18 1 17 2 16 3 15 4 13 5 14 6 12 8 9 9 10 10 89 11 11 12
REMARK SMILES IDX 88 13 8 14 5 15 6 16 90 17 7 18 4 19 3 20 2 21 1 22 91 23
REMARK SMILES IDX 92 24 100 25 93 26 99 27 94 28 98 29 95 30 97 31 96 32 19 33
REMARK SMILES IDX 20 34 21 35 22 36 23 37 24 39 25 40 26 41 87 42 27 43 86 44
REMARK SMILES IDX 28 45 29 46 30 47 80 48 31 49 85 50 79 51 81 52 32 53 84 54
REMARK SMILES IDX 78 55 77 56 33 58 65 59 45 60 64 61 46 62 49 63 63 64 82 65
REMARK SMILES IDX 47 66 48 67 62 69 83 70 50 71 34 72 35 73 43 74 36 75 37 76
REMARK SMILES IDX 41 77 44 78 38 79 39 80 42 81 40 82 66 83 67 84 75 85 68 86
REMARK SMILES IDX 69 87 73 88 76 89 70 90 71 91 74 92 72 93 51 94 52 95 60 96
REMARK SMILES IDX 53 97 54 98 58 99 61 100 55 101 56 102 59 103 57 104
REMARK H PARENT 15 7 22 38 81 57 49 68
REMARK Flexibility Score: inf
ROOT
ATOM      1  C   UNL A   1      34.963  35.671  33.120  1.00  0.00     0.002 C 
ENDROOT
BRANCH   1   2
ATOM      2  C   UNL A   1      33.795  36.603  32.777  1.00  0.00     0.021 C 
BRANCH   2   3
ATOM      3  C   UNL A   1      32.891  36.039  31.677  1.00  0.00     0.116 C 
BRANCH   3   4
ATOM      4  N   UNL A   1      32.984  36.872  30.492  1.00  0.00    -0.352 N 
ATOM      5  C   UNL A   1      33.327  36.590  29.195  1.00  0.00     0.251 C 
ATOM      6  O   UNL A   1      33.334  37.517  28.385  1.00  0.00    -0.269 OA
ATOM      7  H   UNL A   1      32.758  37.816  30.650  1.00  0.00     0.163 HD
BRANCH   5   8
ATOM      8  C   UNL A   1      33.613  35.210  28.723  1.00  0.00     0.039 A 
ATOM      9  C   UNL A   1      33.928  32.520  27.999  1.00  0.00     0.017 A 
ATOM     10  C   UNL A   1      32.736  33.182  27.702  1.00  0.00     0.013 A 
ATOM     11  C   UNL A   1      34.985  33.224  28.578  1.00  0.00     0.013 A 
ATOM     12  C   UNL A   1      32.577  34.521  28.074  1.00  0.00     0.014 A 
ATOM     13  C   UNL A   1      34.842  34.571  28.897  1.00  0.00     0.014 A 
BRANCH   9  14
ATOM     14  C   UNL A   1      34.103  31.111  27.752  1.00  0.00     0.134 A 
ATOM     15  C   UNL A   1      33.327  29.091  27.311  1.00  0.00     0.128 A 
ATOM     16  C   UNL A   1      34.714  29.057  27.189  1.00  0.00     0.051 A 
ATOM     17  O   UNL A   1      32.968  30.380  27.625  1.00  0.00    -0.457 OA
ATOM     18  C   UNL A   1      35.211  30.336  27.510  1.00  0.00     0.051 A 
BRANCH  15  19
ATOM     19  C   UNL A   1      32.364  28.052  27.172  1.00  0.00     0.066 C 
ATOM     20  C   UNL A   1      31.776  27.759  25.990  1.00  0.00     0.080 C 
BRANCH  20  21
ATOM     21  C   UNL A   1      32.240  28.541  24.772  1.00  0.00     0.099 C 
ATOM     22  N   UNL A   1      32.625  29.190  23.761  1.00  0.00    -0.193 NA
ENDBRANCH  20  21
BRANCH  20  23
ATOM     23  C   UNL A   1      30.829  26.604  25.797  1.00  0.00     0.265 C 
ATOM     24  N   UNL A   1      31.273  25.450  26.635  1.00  0.00    -0.249 NA
ATOM     25  N   UNL A   1      30.780  26.204  24.361  1.00  0.00    -0.232 NA
ATOM     26  C   UNL A   1      31.446  24.522  25.762  1.00  0.00     0.106 A 
ATOM     27  C   UNL A   1      31.169  24.977  24.383  1.00  0.00     0.175 A 
ATOM     28  C   UNL A   1      31.874  23.134  25.938  1.00  0.00     0.049 A 
ATOM     29  N   UNL A   1      31.338  24.222  23.263  1.00  0.00    -0.234 NA
ATOM     30  C   UNL A   1      32.021  22.395  24.829  1.00  0.00     0.038 A 
ATOM     31  C   UNL A   1      31.747  23.013  23.491  1.00  0.00     0.129 A 
ATOM     32  Br  UNL A   1      32.553  20.614  24.864  1.00  0.00    -0.049 Br
ENDBRANCH  20  23
ENDBRANCH  15  19
ENDBRANCH   9  14
ENDBRANCH   5   8
ENDBRANCH   3   4
ENDBRANCH   2   3
ENDBRANCH   1   2
BRANCH   1  33
ATOM     33  C   UNL A   1      34.812  34.242  32.586  1.00  0.00     0.002 C 
BRANCH  33  34
ATOM     34  C   UNL A   1      36.120  33.587  32.135  1.00  0.00     0.021 C 
BRANCH  34  35
ATOM     35  C   UNL A   1      36.691  32.595  33.141  1.00  0.00     0.116 C 
BRANCH  35  36
ATOM     36  N   UNL A   1      36.299  31.230  32.825  1.00  0.00    -0.352 N 
ATOM     37  C   UNL A   1      36.870  30.345  31.946  1.00  0.00     0.251 C 
ATOM     38  H   UNL A   1      35.513  30.893  33.313  1.00  0.00     0.163 HD
ATOM     39  O   UNL A   1      36.278  29.327  31.611  1.00  0.00    -0.269 OA
BRANCH  37  40
ATOM     40  C   UNL A   1      38.207  30.639  31.392  1.00  0.00     0.039 A 
ATOM     41  C   UNL A   1      38.322  31.012  30.052  1.00  0.00     0.014 A 
ATOM     42  C   UNL A   1      39.342  30.550  32.203  1.00  0.00     0.014 A 
ATOM     43  C   UNL A   1      39.574  31.359  29.540  1.00  0.00     0.010 A 
ATOM     44  C   UNL A   1      40.574  30.970  31.713  1.00  0.00     0.010 A 
ATOM     45  C   UNL A   1      40.702  31.377  30.376  1.00  0.00    -0.014 A 
BRANCH  45  46
ATOM     46  C   UNL A   1      42.025  31.825  29.878  1.00  0.00     0.031 A 
ATOM     47  C   UNL A   1      42.325  33.290  29.745  1.00  0.00     0.074 A 
ATOM     48  C   UNL A   1      42.928  30.908  29.477  1.00  0.00     0.049 A 
ATOM     49  N   UNL A   1      43.387  33.878  29.256  1.00  0.00    -0.248 NA
ATOM     50  C   UNL A   1      41.278  34.221  30.196  1.00  0.00     0.031 C 
ATOM     51  C   UNL A   1      42.737  29.458  29.522  1.00  0.00     0.029 A 
ATOM     52  N   UNL A   1      44.183  31.062  28.945  1.00  0.00    -0.354 N 
ATOM     53  C   UNL A   1      43.133  35.242  29.333  1.00  0.00     0.074 A 
ATOM     54  C   UNL A   1      41.793  35.393  29.857  1.00  0.00     0.031 C 
ATOM     55  C   UNL A   1      43.845  28.855  29.062  1.00  0.00     0.029 A 
ATOM     56  C   UNL A   1      44.804  29.872  28.648  1.00  0.00     0.049 A 
ATOM     57  H   UNL A   1      44.599  31.940  28.791  1.00  0.00     0.167 HD
ATOM     58  C   UNL A   1      43.954  36.272  29.019  1.00  0.00     0.037 A 
ATOM     59  C   UNL A   1      46.008  29.634  28.094  1.00  0.00     0.037 A 
ATOM     60  C   UNL A   1      45.290  36.114  28.509  1.00  0.00     0.049 A 
ATOM     61  C   UNL A   1      46.883  30.798  27.716  1.00  0.00     0.074 A 
ATOM     62  C   UNL A   1      46.222  37.091  28.207  1.00  0.00     0.029 A 
ATOM     63  N   UNL A   1      45.885  34.893  28.218  1.00  0.00    -0.354 N 
ATOM     64  N   UNL A   1      46.662  32.083  27.856  1.00  0.00    -0.248 NA
ATOM     65  C   UNL A   1      48.180  30.478  27.102  1.00  0.00     0.031 C 
ATOM     66  C   UNL A   1      47.356  36.467  27.678  1.00  0.00     0.029 A 
ATOM     67  C   UNL A   1      47.158  35.095  27.710  1.00  0.00     0.049 A 
ATOM     68  H   UNL A   1      45.463  34.013  28.352  1.00  0.00     0.167 HD
ATOM     69  C   UNL A   1      47.800  32.722  27.383  1.00  0.00     0.074 A 
ATOM     70  C   UNL A   1      48.716  31.682  26.963  1.00  0.00     0.031 C 
ATOM     71  C   UNL A   1      48.062  34.049  27.304  1.00  0.00     0.037 A 
BRANCH  58  72
ATOM     72  C   UNL A   1      43.422  37.665  29.213  1.00  0.00     0.064 A 
ATOM     73  C   UNL A   1      43.750  38.428  30.346  1.00  0.00     0.173 A 
ATOM     74  C   UNL A   1      42.597  38.254  28.244  1.00  0.00     0.173 A 
ATOM     75  F   UNL A   1      44.528  37.909  31.308  1.00  0.00    -0.203 F 
ATOM     76  C   UNL A   1      43.239  39.711  30.518  1.00  0.00     0.198 A 
ATOM     77  C   UNL A   1      42.118  39.552  28.403  1.00  0.00     0.198 A 
ATOM     78  F   UNL A   1      42.258  37.575  27.139  1.00  0.00    -0.203 F 
ATOM     79  F   UNL A   1      43.518  40.397  31.636  1.00  0.00    -0.200 F 
ATOM     80  C   UNL A   1      42.430  40.276  29.543  1.00  0.00     0.200 A 
ATOM     81  F   UNL A   1      41.348  40.102  27.452  1.00  0.00    -0.200 F 
ATOM     82  F   UNL A   1      41.944  41.513  29.708  1.00  0.00    -0.200 F 
ENDBRANCH  58  72
BRANCH  59  83
ATOM     83  C   UNL A   1      46.466  28.235  27.883  1.00  0.00     0.064 A 
ATOM     84  C   UNL A   1      47.141  27.540  28.897  1.00  0.00     0.173 A 
ATOM     85  C   UNL A   1      46.250  27.568  26.669  1.00  0.00     0.173 A 
ATOM     86  F   UNL A   1      47.389  28.143  30.069  1.00  0.00    -0.203 F 
ATOM     87  C   UNL A   1      47.603  26.242  28.697  1.00  0.00     0.198 A 
ATOM     88  C   UNL A   1      46.685  26.257  26.481  1.00  0.00     0.198 A 
ATOM     89  F   UNL A   1      45.605  28.185  25.668  1.00  0.00    -0.203 F 
ATOM     90  F   UNL A   1      48.290  25.621  29.666  1.00  0.00    -0.200 F 
ATOM     91  C   UNL A   1      47.370  25.598  27.491  1.00  0.00     0.200 A 
ATOM     92  F   UNL A   1      46.443  25.634  25.319  1.00  0.00    -0.200 F 
ATOM     93  F   UNL A   1      47.811  24.348  27.299  1.00  0.00    -0.200 F 
ENDBRANCH  59  83
BRANCH  71  94
ATOM     94  C   UNL A   1      49.411  34.456  26.781  1.00  0.00     0.064 A 
ATOM     95  C   UNL A   1      49.583  34.928  25.472  1.00  0.00     0.173 A 
ATOM     96  C   UNL A   1      50.537  34.415  27.618  1.00  0.00     0.173 A 
ATOM     97  F   UNL A   1      48.542  34.973  24.627  1.00  0.00    -0.203 F 
ATOM     98  C   UNL A   1      50.838  35.320  25.011  1.00  0.00     0.198 A 
ATOM     99  C   UNL A   1      51.783  34.840  27.165  1.00  0.00     0.198 A 
ATOM    100  F   UNL A   1      50.425  33.978  28.881  1.00  0.00    -0.203 F 
ATOM    101  F   UNL A   1      50.988  35.720  23.741  1.00  0.00    -0.200 F 
ATOM    102  C   UNL A   1      51.934  35.284  25.862  1.00  0.00     0.200 A 
ATOM    103  F   UNL A   1      52.836  34.820  27.993  1.00  0.00    -0.200 F 
ATOM    104  F   UNL A   1      53.139  35.673  25.420  1.00  0.00    -0.200 F 
ENDBRANCH  71  94
ENDBRANCH  45  46
ENDBRANCH  37  40
ENDBRANCH  35  36
ENDBRANCH  34  35
ENDBRANCH  33  34
ENDBRANCH   1  33
TORSDOF 17
ENDMDL
