MODEL 1
REMARK VINA RESULT:     -12.4      0.000      0.000
REMARK SMILES O=C(NCCCCCCNC(=O)[C@]1(CCc2cccnc2)C[C@H]2CC[C@@H]1O2)c1ccc(-c2c3nc(c(-c4c(F)c(F)c(F)c(F)c4F)c4ccc([nH]4)c(-c4c(F)c(F)c(F)c(F)c4F)c4nc(c(-c5c(F)c(F)c(F)c(F)c5F)c5ccc2[nH]5)C=C4)C=C3)cc1
REMARK SMILES IDX 7 1 6 2 5 3 4 4 3 5 1 6 2 7 28 9 29 10 90 11 30 12 89 13
REMARK SMILES IDX 31 14 32 15 33 16 83 17 34 18 88 19 82 20 84 21 35 22 87 23
REMARK SMILES IDX 81 24 80 25 36 27 68 28 48 29 67 30 49 31 52 32 66 33 85 34
REMARK SMILES IDX 50 35 51 36 65 38 86 39 53 40 37 41 38 42 46 43 39 44 40 45
REMARK SMILES IDX 44 46 47 47 41 48 42 49 45 50 43 51 69 52 70 53 78 54 71 55
REMARK SMILES IDX 72 56 76 57 79 58 73 59 74 60 77 61 75 62 54 63 55 64 63 65
REMARK SMILES IDX 56 66 57 67 61 68 64 69 58 70 59 71 62 72 60 73 8 74 9 75
REMARK SMILES IDX 10 76 11 77 12 79 13 80 22 81 26 82 23 83 25 84 27 85 24 86
REMARK SMILES IDX 14 87 15 88 16 89 17 90 21 91 18 92 20 93 19 94
REMARK H PARENT 3 8 84 26 52 37 10 78
REMARK Flexibility Score: inf
ROOT
ATOM      1  C   UNL A   1      33.180  30.483  26.986  1.00  0.00     0.002 C 
ENDROOT
BRANCH   1   2
ATOM      2  C   UNL A   1      31.803  31.001  26.593  1.00  0.00     0.002 C 
BRANCH   2   3
ATOM      3  C   UNL A   1      31.567  32.479  26.866  1.00  0.00     0.021 C 
BRANCH   3   4
ATOM      4  C   UNL A   1      32.684  33.176  27.630  1.00  0.00     0.116 C 
BRANCH   4   5
ATOM      5  N   UNL A   1      32.459  34.601  27.834  1.00  0.00    -0.352 N 
ATOM      6  O   UNL A   1      32.795  36.593  28.888  1.00  0.00    -0.269 OA
ATOM      7  C   UNL A   1      33.116  35.423  28.723  1.00  0.00     0.251 C 
ATOM      8  H   UNL A   1      31.763  35.021  27.278  1.00  0.00     0.163 HD
BRANCH   7   9
ATOM      9  C   UNL A   1      34.219  34.829  29.503  1.00  0.00     0.039 A 
ATOM     10  C   UNL A   1      35.485  34.744  28.922  1.00  0.00     0.014 A 
ATOM     11  C   UNL A   1      33.951  34.232  30.737  1.00  0.00     0.014 A 
ATOM     12  C   UNL A   1      36.444  33.932  29.506  1.00  0.00     0.010 A 
ATOM     13  C   UNL A   1      34.951  33.488  31.368  1.00  0.00     0.010 A 
ATOM     14  C   UNL A   1      36.194  33.305  30.741  1.00  0.00    -0.014 A 
BRANCH  14  15
ATOM     15  C   UNL A   1      37.290  32.531  31.375  1.00  0.00     0.031 A 
ATOM     16  C   UNL A   1      38.015  31.438  30.646  1.00  0.00     0.074 A 
ATOM     17  C   UNL A   1      37.664  32.886  32.621  1.00  0.00     0.049 A 
ATOM     18  N   UNL A   1      39.026  30.709  31.052  1.00  0.00    -0.248 NA
ATOM     19  C   UNL A   1      37.549  31.108  29.291  1.00  0.00     0.031 C 
ATOM     20  C   UNL A   1      37.011  33.922  33.425  1.00  0.00     0.029 A 
ATOM     21  N   UNL A   1      38.691  32.447  33.412  1.00  0.00    -0.354 N 
ATOM     22  C   UNL A   1      39.307  29.829  30.016  1.00  0.00     0.074 A 
ATOM     23  C   UNL A   1      38.346  30.097  28.966  1.00  0.00     0.031 C 
ATOM     24  C   UNL A   1      37.690  34.084  34.567  1.00  0.00     0.029 A 
ATOM     25  C   UNL A   1      38.780  33.117  34.607  1.00  0.00     0.049 A 
ATOM     26  H   UNL A   1      39.306  31.723  33.150  1.00  0.00     0.167 HD
ATOM     27  C   UNL A   1      40.281  28.888  29.951  1.00  0.00     0.037 A 
ATOM     28  C   UNL A   1      39.635  32.961  35.634  1.00  0.00     0.037 A 
ATOM     29  C   UNL A   1      41.236  28.634  31.002  1.00  0.00     0.049 A 
ATOM     30  C   UNL A   1      40.708  31.919  35.526  1.00  0.00     0.074 A 
ATOM     31  C   UNL A   1      42.261  27.703  31.035  1.00  0.00     0.029 A 
ATOM     32  N   UNL A   1      41.284  29.319  32.209  1.00  0.00    -0.354 N 
ATOM     33  N   UNL A   1      40.963  31.098  34.537  1.00  0.00    -0.248 NA
ATOM     34  C   UNL A   1      41.608  31.780  36.676  1.00  0.00     0.031 C 
ATOM     35  C   UNL A   1      42.907  27.803  32.273  1.00  0.00     0.029 A 
ATOM     36  C   UNL A   1      42.315  28.827  32.994  1.00  0.00     0.049 A 
ATOM     37  H   UNL A   1      40.677  30.049  32.468  1.00  0.00     0.167 HD
ATOM     38  C   UNL A   1      42.050  30.340  34.945  1.00  0.00     0.074 A 
ATOM     39  C   UNL A   1      42.431  30.830  36.254  1.00  0.00     0.031 C 
ATOM     40  C   UNL A   1      42.668  29.320  34.300  1.00  0.00     0.037 A 
BRANCH  27  41
ATOM     41  C   UNL A   1      40.366  28.048  28.708  1.00  0.00     0.064 A 
ATOM     42  C   UNL A   1      41.123  28.453  27.599  1.00  0.00     0.173 A 
ATOM     43  C   UNL A   1      39.740  26.793  28.650  1.00  0.00     0.173 A 
ATOM     44  F   UNL A   1      41.732  29.648  27.597  1.00  0.00    -0.203 F 
ATOM     45  C   UNL A   1      41.238  27.639  26.474  1.00  0.00     0.198 A 
ATOM     46  C   UNL A   1      39.879  25.971  27.534  1.00  0.00     0.198 A 
ATOM     47  F   UNL A   1      39.010  26.354  29.687  1.00  0.00    -0.203 F 
ATOM     48  F   UNL A   1      41.942  28.061  25.413  1.00  0.00    -0.200 F 
ATOM     49  C   UNL A   1      40.623  26.396  26.445  1.00  0.00     0.200 A 
ATOM     50  F   UNL A   1      39.294  24.765  27.514  1.00  0.00    -0.200 F 
ATOM     51  F   UNL A   1      40.748  25.610  25.367  1.00  0.00    -0.200 F 
ENDBRANCH  27  41
BRANCH  28  52
ATOM     52  C   UNL A   1      39.489  33.807  36.845  1.00  0.00     0.064 A 
ATOM     53  C   UNL A   1      40.050  35.088  36.907  1.00  0.00     0.173 A 
ATOM     54  C   UNL A   1      38.757  33.358  37.954  1.00  0.00     0.173 A 
ATOM     55  F   UNL A   1      40.771  35.555  35.878  1.00  0.00    -0.203 F 
ATOM     56  C   UNL A   1      39.896  35.884  38.041  1.00  0.00     0.198 A 
ATOM     57  C   UNL A   1      38.575  34.167  39.071  1.00  0.00     0.198 A 
ATOM     58  F   UNL A   1      38.191  32.142  37.939  1.00  0.00    -0.203 F 
ATOM     59  F   UNL A   1      40.476  37.092  38.091  1.00  0.00    -0.200 F 
ATOM     60  C   UNL A   1      39.151  35.426  39.117  1.00  0.00     0.200 A 
ATOM     61  F   UNL A   1      37.836  33.729  40.100  1.00  0.00    -0.200 F 
ATOM     62  F   UNL A   1      38.992  36.199  40.201  1.00  0.00    -0.200 F 
ENDBRANCH  28  52
BRANCH  40  63
ATOM     63  C   UNL A   1      43.820  28.679  35.015  1.00  0.00     0.064 A 
ATOM     64  C   UNL A   1      45.134  29.141  34.844  1.00  0.00     0.173 A 
ATOM     65  C   UNL A   1      43.610  27.589  35.871  1.00  0.00     0.173 A 
ATOM     66  F   UNL A   1      45.385  30.169  34.020  1.00  0.00    -0.203 F 
ATOM     67  C   UNL A   1      46.200  28.511  35.480  1.00  0.00     0.198 A 
ATOM     68  C   UNL A   1      44.676  26.980  36.527  1.00  0.00     0.198 A 
ATOM     69  F   UNL A   1      42.371  27.112  36.069  1.00  0.00    -0.203 F 
ATOM     70  F   UNL A   1      47.453  28.932  35.255  1.00  0.00    -0.200 F 
ATOM     71  C   UNL A   1      45.970  27.435  36.322  1.00  0.00     0.200 A 
ATOM     72  F   UNL A   1      44.452  25.944  37.347  1.00  0.00    -0.200 F 
ATOM     73  F   UNL A   1      46.999  26.825  36.927  1.00  0.00    -0.200 F 
ENDBRANCH  40  63
ENDBRANCH  14  15
ENDBRANCH   7   9
ENDBRANCH   4   5
ENDBRANCH   3   4
ENDBRANCH   2   3
ENDBRANCH   1   2
BRANCH   1  74
ATOM     74  C   UNL A   1      33.319  28.972  27.199  1.00  0.00     0.021 C 
BRANCH  74  75
ATOM     75  C   UNL A   1      34.306  28.204  26.299  1.00  0.00     0.116 C 
BRANCH  75  76
ATOM     76  N   UNL A   1      34.415  28.683  24.928  1.00  0.00    -0.356 N 
ATOM     77  C   UNL A   1      33.821  28.380  23.735  1.00  0.00     0.228 C 
ATOM     78  H   UNL A   1      35.080  29.403  24.839  1.00  0.00     0.163 HD
ATOM     79  O   UNL A   1      34.208  29.068  22.784  1.00  0.00    -0.274 OA
BRANCH  77  80
ATOM     80  C   UNL A   1      32.753  27.279  23.552  1.00  0.00     0.078 C 
ATOM     81  C   UNL A   1      33.162  25.921  24.192  1.00  0.00     0.051 C 
ATOM     82  C   UNL A   1      32.869  26.916  22.038  1.00  0.00     0.134 C 
ATOM     83  C   UNL A   1      33.380  25.025  22.975  1.00  0.00     0.120 C 
ATOM     84  C   UNL A   1      31.784  25.992  21.498  1.00  0.00     0.036 C 
ATOM     85  O   UNL A   1      33.969  25.959  22.050  1.00  0.00    -0.374 OA
ATOM     86  C   UNL A   1      32.051  24.706  22.281  1.00  0.00     0.035 C 
BRANCH  80  87
ATOM     87  C   UNL A   1      31.348  27.672  24.047  1.00  0.00     0.024 C 
BRANCH  87  88
ATOM     88  C   UNL A   1      30.897  29.158  24.140  1.00  0.00     0.038 C 
BRANCH  88  89
ATOM     89  C   UNL A   1      29.809  29.867  23.372  1.00  0.00    -0.030 A 
ATOM     90  C   UNL A   1      29.036  30.935  23.799  1.00  0.00     0.007 A 
ATOM     91  C   UNL A   1      29.574  29.477  22.051  1.00  0.00     0.114 A 
ATOM     92  C   UNL A   1      28.089  31.541  22.973  1.00  0.00     0.020 A 
ATOM     93  N   UNL A   1      28.672  30.040  21.207  1.00  0.00    -0.264 NA
ATOM     94  C   UNL A   1      27.943  31.061  21.693  1.00  0.00     0.111 A 
ENDBRANCH  88  89
ENDBRANCH  87  88
ENDBRANCH  80  87
ENDBRANCH  77  80
ENDBRANCH  75  76
ENDBRANCH  74  75
ENDBRANCH   1  74
TORSDOF 16
ENDMDL
MODEL 2
REMARK VINA RESULT:     -12.4      6.324     11.799
REMARK SMILES O=C(NCCCCCCNC(=O)[C@]1(CCc2cccnc2)C[C@H]2CC[C@@H]1O2)c1ccc(-c2c3nc(c(-c4c(F)c(F)c(F)c(F)c4F)c4ccc([nH]4)c(-c4c(F)c(F)c(F)c(F)c4F)c4nc(c(-c5c(F)c(F)c(F)c(F)c5F)c5ccc2[nH]5)C=C4)C=C3)cc1
REMARK SMILES IDX 7 1 6 2 5 3 4 4 3 5 1 6 2 7 28 9 29 10 90 11 30 12 89 13
REMARK SMILES IDX 31 14 32 15 33 16 83 17 34 18 88 19 82 20 84 21 35 22 87 23
REMARK SMILES IDX 81 24 80 25 36 27 68 28 48 29 67 30 49 31 52 32 66 33 85 34
REMARK SMILES IDX 50 35 51 36 65 38 86 39 53 40 37 41 38 42 46 43 39 44 40 45
REMARK SMILES IDX 44 46 47 47 41 48 42 49 45 50 43 51 69 52 70 53 78 54 71 55
REMARK SMILES IDX 72 56 76 57 79 58 73 59 74 60 77 61 75 62 54 63 55 64 63 65
REMARK SMILES IDX 56 66 57 67 61 68 64 69 58 70 59 71 62 72 60 73 8 74 9 75
REMARK SMILES IDX 10 76 11 77 12 79 13 80 22 81 26 82 23 83 25 84 27 85 24 86
REMARK SMILES IDX 14 87 15 88 16 89 17 90 21 91 18 92 20 93 19 94
REMARK H PARENT 3 8 84 26 52 37 10 78
REMARK Flexibility Score: inf
ROOT
ATOM      1  C   UNL A   1      38.083  22.013  25.303  1.00  0.00     0.002 C 
ENDROOT
BRANCH   1   2
ATOM      2  C   UNL A   1      37.633  20.622  24.879  1.00  0.00     0.002 C 
BRANCH   2   3
ATOM      3  C   UNL A   1      38.508  19.480  25.375  1.00  0.00     0.021 C 
BRANCH   3   4
ATOM      4  C   UNL A   1      39.870  19.902  25.906  1.00  0.00     0.116 C 
BRANCH   4   5
ATOM      5  N   UNL A   1      40.830  18.809  26.001  1.00  0.00    -0.352 N 
ATOM      6  O   UNL A   1      42.932  17.943  26.157  1.00  0.00    -0.269 OA
ATOM      7  C   UNL A   1      42.192  18.919  26.179  1.00  0.00     0.251 C 
ATOM      8  H   UNL A   1      40.467  17.897  25.929  1.00  0.00     0.163 HD
BRANCH   7   9
ATOM      9  C   UNL A   1      42.741  20.274  26.373  1.00  0.00     0.039 A 
ATOM     10  C   UNL A   1      42.617  20.877  27.625  1.00  0.00     0.014 A 
ATOM     11  C   UNL A   1      43.237  20.983  25.277  1.00  0.00     0.014 A 
ATOM     12  C   UNL A   1      42.848  22.239  27.746  1.00  0.00     0.010 A 
ATOM     13  C   UNL A   1      43.556  22.336  25.426  1.00  0.00     0.010 A 
ATOM     14  C   UNL A   1      43.333  22.981  26.652  1.00  0.00    -0.014 A 
BRANCH  14  15
ATOM     15  C   UNL A   1      43.663  24.413  26.861  1.00  0.00     0.031 A 
ATOM     16  C   UNL A   1      42.669  25.383  27.431  1.00  0.00     0.074 A 
ATOM     17  C   UNL A   1      44.920  24.809  26.580  1.00  0.00     0.049 A 
ATOM     18  N   UNL A   1      42.830  26.652  27.717  1.00  0.00    -0.248 NA
ATOM     19  C   UNL A   1      41.318  24.875  27.711  1.00  0.00     0.031 C 
ATOM     20  C   UNL A   1      45.957  23.950  26.004  1.00  0.00     0.029 A 
ATOM     21  N   UNL A   1      45.549  26.011  26.768  1.00  0.00    -0.354 N 
ATOM     22  C   UNL A   1      41.605  27.097  28.194  1.00  0.00     0.074 A 
ATOM     23  C   UNL A   1      40.699  25.969  28.141  1.00  0.00     0.031 C 
ATOM     24  C   UNL A   1      47.108  24.631  25.944  1.00  0.00     0.029 A 
ATOM     25  C   UNL A   1      46.874  25.992  26.409  1.00  0.00     0.049 A 
ATOM     26  H   UNL A   1      45.096  26.809  27.124  1.00  0.00     0.167 HD
ATOM     27  C   UNL A   1      41.274  28.334  28.639  1.00  0.00     0.037 A 
ATOM     28  C   UNL A   1      47.799  26.968  26.435  1.00  0.00     0.037 A 
ATOM     29  C   UNL A   1      42.188  29.449  28.692  1.00  0.00     0.049 A 
ATOM     30  C   UNL A   1      47.403  28.323  26.942  1.00  0.00     0.074 A 
ATOM     31  C   UNL A   1      41.950  30.744  29.124  1.00  0.00     0.029 A 
ATOM     32  N   UNL A   1      43.519  29.399  28.302  1.00  0.00    -0.354 N 
ATOM     33  N   UNL A   1      46.241  28.727  27.394  1.00  0.00    -0.248 NA
ATOM     34  C   UNL A   1      48.444  29.356  26.940  1.00  0.00     0.031 C 
ATOM     35  C   UNL A   1      43.127  31.484  28.965  1.00  0.00     0.029 A 
ATOM     36  C   UNL A   1      44.112  30.641  28.476  1.00  0.00     0.049 A 
ATOM     37  H   UNL A   1      43.975  28.600  27.954  1.00  0.00     0.167 HD
ATOM     38  C   UNL A   1      46.408  30.062  27.727  1.00  0.00     0.074 A 
ATOM     39  C   UNL A   1      47.795  30.386  27.463  1.00  0.00     0.031 C 
ATOM     40  C   UNL A   1      45.491  30.945  28.194  1.00  0.00     0.037 A 
BRANCH  27  41
ATOM     41  C   UNL A   1      39.861  28.562  29.096  1.00  0.00     0.064 A 
ATOM     42  C   UNL A   1      39.473  28.332  30.424  1.00  0.00     0.173 A 
ATOM     43  C   UNL A   1      38.900  29.082  28.214  1.00  0.00     0.173 A 
ATOM     44  F   UNL A   1      40.348  27.826  31.305  1.00  0.00    -0.203 F 
ATOM     45  C   UNL A   1      38.173  28.601  30.848  1.00  0.00     0.198 A 
ATOM     46  C   UNL A   1      37.608  29.373  28.648  1.00  0.00     0.198 A 
ATOM     47  F   UNL A   1      39.220  29.328  26.935  1.00  0.00    -0.203 F 
ATOM     48  F   UNL A   1      37.817  28.344  32.115  1.00  0.00    -0.200 F 
ATOM     49  C   UNL A   1      37.244  29.128  29.963  1.00  0.00     0.200 A 
ATOM     50  F   UNL A   1      36.716  29.895  27.794  1.00  0.00    -0.200 F 
ATOM     51  F   UNL A   1      35.999  29.398  30.377  1.00  0.00    -0.200 F 
ENDBRANCH  27  41
BRANCH  28  52
ATOM     52  C   UNL A   1      49.174  26.688  25.951  1.00  0.00     0.064 A 
ATOM     53  C   UNL A   1      50.123  26.077  26.778  1.00  0.00     0.173 A 
ATOM     54  C   UNL A   1      49.554  27.002  24.637  1.00  0.00     0.173 A 
ATOM     55  F   UNL A   1      49.812  25.772  28.045  1.00  0.00    -0.203 F 
ATOM     56  C   UNL A   1      51.409  25.802  26.313  1.00  0.00     0.198 A 
ATOM     57  C   UNL A   1      50.826  26.696  24.164  1.00  0.00     0.198 A 
ATOM     58  F   UNL A   1      48.677  27.579  23.803  1.00  0.00    -0.203 F 
ATOM     59  F   UNL A   1      52.311  25.251  27.136  1.00  0.00    -0.200 F 
ATOM     60  C   UNL A   1      51.755  26.103  25.004  1.00  0.00     0.200 A 
ATOM     61  F   UNL A   1      51.149  26.969  22.892  1.00  0.00    -0.200 F 
ATOM     62  F   UNL A   1      52.987  25.825  24.554  1.00  0.00    -0.200 F 
ENDBRANCH  28  52
BRANCH  40  63
ATOM     63  C   UNL A   1      45.977  32.341  28.448  1.00  0.00     0.064 A 
ATOM     64  C   UNL A   1      45.920  33.326  27.450  1.00  0.00     0.173 A 
ATOM     65  C   UNL A   1      46.508  32.695  29.695  1.00  0.00     0.173 A 
ATOM     66  F   UNL A   1      45.437  33.028  26.235  1.00  0.00    -0.203 F 
ATOM     67  C   UNL A   1      46.413  34.607  27.683  1.00  0.00     0.198 A 
ATOM     68  C   UNL A   1      46.974  33.984  29.934  1.00  0.00     0.198 A 
ATOM     69  F   UNL A   1      46.581  31.788  30.682  1.00  0.00    -0.203 F 
ATOM     70  F   UNL A   1      46.404  35.514  26.697  1.00  0.00    -0.200 F 
ATOM     71  C   UNL A   1      46.936  34.935  28.924  1.00  0.00     0.200 A 
ATOM     72  F   UNL A   1      47.472  34.304  31.136  1.00  0.00    -0.200 F 
ATOM     73  F   UNL A   1      47.417  36.167  29.145  1.00  0.00    -0.200 F 
ENDBRANCH  40  63
ENDBRANCH  14  15
ENDBRANCH   7   9
ENDBRANCH   4   5
ENDBRANCH   3   4
ENDBRANCH   2   3
ENDBRANCH   1   2
BRANCH   1  74
ATOM     74  C   UNL A   1      37.175  23.186  24.919  1.00  0.00     0.021 C 
BRANCH  74  75
ATOM     75  C   UNL A   1      36.311  23.823  26.025  1.00  0.00     0.116 C 
BRANCH  75  76
ATOM     76  N   UNL A   1      35.574  22.891  26.866  1.00  0.00    -0.356 N 
ATOM     77  C   UNL A   1      34.291  22.424  26.919  1.00  0.00     0.228 C 
ATOM     78  H   UNL A   1      36.140  22.501  27.571  1.00  0.00     0.163 HD
ATOM     79  O   UNL A   1      34.085  21.596  27.813  1.00  0.00    -0.274 OA
BRANCH  77  80
ATOM     80  C   UNL A   1      33.166  22.867  25.958  1.00  0.00     0.078 C 
ATOM     81  C   UNL A   1      33.059  24.414  25.818  1.00  0.00     0.051 C 
ATOM     82  C   UNL A   1      31.864  22.575  26.771  1.00  0.00     0.134 C 
ATOM     83  C   UNL A   1      31.730  24.726  26.502  1.00  0.00     0.120 C 
ATOM     84  C   UNL A   1      30.559  22.717  25.997  1.00  0.00     0.036 C 
ATOM     85  O   UNL A   1      31.753  23.779  27.587  1.00  0.00    -0.374 OA
ATOM     86  C   UNL A   1      30.549  24.210  25.672  1.00  0.00     0.035 C 
BRANCH  80  87
ATOM     87  C   UNL A   1      33.243  22.233  24.557  1.00  0.00     0.024 C 
BRANCH  87  88
ATOM     88  C   UNL A   1      34.127  20.986  24.269  1.00  0.00     0.038 C 
BRANCH  88  89
ATOM     89  C   UNL A   1      33.835  19.533  24.549  1.00  0.00    -0.030 A 
ATOM     90  C   UNL A   1      34.713  18.465  24.458  1.00  0.00     0.007 A 
ATOM     91  C   UNL A   1      32.565  19.197  25.025  1.00  0.00     0.114 A 
ATOM     92  C   UNL A   1      34.335  17.164  24.794  1.00  0.00     0.020 A 
ATOM     93  N   UNL A   1      32.154  17.950  25.374  1.00  0.00    -0.264 NA
ATOM     94  C   UNL A   1      33.052  16.957  25.244  1.00  0.00     0.111 A 
ENDBRANCH  88  89
ENDBRANCH  87  88
ENDBRANCH  80  87
ENDBRANCH  77  80
ENDBRANCH  75  76
ENDBRANCH  74  75
ENDBRANCH   1  74
TORSDOF 16
ENDMDL
MODEL 3
REMARK VINA RESULT:     -12.4      0.288      1.609
REMARK SMILES O=C(NCCCCCCNC(=O)[C@]1(CCc2cccnc2)C[C@H]2CC[C@@H]1O2)c1ccc(-c2c3nc(c(-c4c(F)c(F)c(F)c(F)c4F)c4ccc([nH]4)c(-c4c(F)c(F)c(F)c(F)c4F)c4nc(c(-c5c(F)c(F)c(F)c(F)c5F)c5ccc2[nH]5)C=C4)C=C3)cc1
REMARK SMILES IDX 7 1 6 2 5 3 4 4 3 5 1 6 2 7 28 9 29 10 90 11 30 12 89 13
REMARK SMILES IDX 31 14 32 15 33 16 83 17 34 18 88 19 82 20 84 21 35 22 87 23
REMARK SMILES IDX 81 24 80 25 36 27 68 28 48 29 67 30 49 31 52 32 66 33 85 34
REMARK SMILES IDX 50 35 51 36 65 38 86 39 53 40 37 41 38 42 46 43 39 44 40 45
REMARK SMILES IDX 44 46 47 47 41 48 42 49 45 50 43 51 69 52 70 53 78 54 71 55
REMARK SMILES IDX 72 56 76 57 79 58 73 59 74 60 77 61 75 62 54 63 55 64 63 65
REMARK SMILES IDX 56 66 57 67 61 68 64 69 58 70 59 71 62 72 60 73 8 74 9 75
REMARK SMILES IDX 10 76 11 77 12 79 13 80 22 81 26 82 23 83 25 84 27 85 24 86
REMARK SMILES IDX 14 87 15 88 16 89 17 90 21 91 18 92 20 93 19 94
REMARK H PARENT 3 8 84 26 52 37 10 78
REMARK Flexibility Score: inf
ROOT
ATOM      1  C   UNL A   1      33.361  30.537  26.817  1.00  0.00     0.002 C 
ENDROOT
BRANCH   1   2
ATOM      2  C   UNL A   1      31.916  31.019  26.806  1.00  0.00     0.002 C 
BRANCH   2   3
ATOM      3  C   UNL A   1      31.738  32.528  26.883  1.00  0.00     0.021 C 
BRANCH   3   4
ATOM      4  C   UNL A   1      32.850  33.268  27.611  1.00  0.00     0.116 C 
BRANCH   4   5
ATOM      5  N   UNL A   1      32.549  34.669  27.878  1.00  0.00    -0.352 N 
ATOM      6  O   UNL A   1      32.750  36.616  29.044  1.00  0.00    -0.269 OA
ATOM      7  C   UNL A   1      33.132  35.471  28.834  1.00  0.00     0.251 C 
ATOM      8  H   UNL A   1      31.856  35.085  27.315  1.00  0.00     0.163 HD
BRANCH   7   9
ATOM      9  C   UNL A   1      34.230  34.889  29.628  1.00  0.00     0.039 A 
ATOM     10  C   UNL A   1      35.490  34.761  29.042  1.00  0.00     0.014 A 
ATOM     11  C   UNL A   1      33.961  34.342  30.885  1.00  0.00     0.014 A 
ATOM     12  C   UNL A   1      36.440  33.955  29.649  1.00  0.00     0.010 A 
ATOM     13  C   UNL A   1      34.953  33.604  31.537  1.00  0.00     0.010 A 
ATOM     14  C   UNL A   1      36.188  33.378  30.909  1.00  0.00    -0.014 A 
BRANCH  14  15
ATOM     15  C   UNL A   1      37.276  32.609  31.564  1.00  0.00     0.031 A 
ATOM     16  C   UNL A   1      38.004  31.503  30.856  1.00  0.00     0.074 A 
ATOM     17  C   UNL A   1      37.639  32.981  32.807  1.00  0.00     0.049 A 
ATOM     18  N   UNL A   1      39.009  30.777  31.282  1.00  0.00    -0.248 NA
ATOM     19  C   UNL A   1      37.549  31.156  29.503  1.00  0.00     0.031 C 
ATOM     20  C   UNL A   1      36.983  34.030  33.591  1.00  0.00     0.029 A 
ATOM     21  N   UNL A   1      38.658  32.550  33.614  1.00  0.00    -0.354 N 
ATOM     22  C   UNL A   1      39.296  29.881  30.261  1.00  0.00     0.074 A 
ATOM     23  C   UNL A   1      38.346  30.138  29.199  1.00  0.00     0.031 C 
ATOM     24  C   UNL A   1      37.652  34.206  34.736  1.00  0.00     0.029 A 
ATOM     25  C   UNL A   1      38.738  33.236  34.800  1.00  0.00     0.049 A 
ATOM     26  H   UNL A   1      39.273  31.820  33.368  1.00  0.00     0.167 HD
ATOM     27  C   UNL A   1      40.268  28.937  30.219  1.00  0.00     0.037 A 
ATOM     28  C   UNL A   1      39.584  33.092  35.837  1.00  0.00     0.037 A 
ATOM     29  C   UNL A   1      41.212  28.695  31.282  1.00  0.00     0.049 A 
ATOM     30  C   UNL A   1      40.654  32.045  35.754  1.00  0.00     0.074 A 
ATOM     31  C   UNL A   1      42.233  27.760  31.338  1.00  0.00     0.029 A 
ATOM     32  N   UNL A   1      41.251  29.397  32.479  1.00  0.00    -0.354 N 
ATOM     33  N   UNL A   1      40.915  31.209  34.779  1.00  0.00    -0.248 NA
ATOM     34  C   UNL A   1      41.543  31.920  36.914  1.00  0.00     0.031 C 
ATOM     35  C   UNL A   1      42.868  27.876  32.579  1.00  0.00     0.029 A 
ATOM     36  C   UNL A   1      42.273  28.912  33.281  1.00  0.00     0.049 A 
ATOM     37  H   UNL A   1      40.644  30.132  32.722  1.00  0.00     0.167 HD
ATOM     38  C   UNL A   1      41.995  30.454  35.207  1.00  0.00     0.074 A 
ATOM     39  C   UNL A   1      42.366  30.961  36.513  1.00  0.00     0.031 C 
ATOM     40  C   UNL A   1      42.616  29.422  34.583  1.00  0.00     0.037 A 
BRANCH  27  41
ATOM     41  C   UNL A   1      40.361  28.079  28.988  1.00  0.00     0.064 A 
ATOM     42  C   UNL A   1      39.640  26.881  28.872  1.00  0.00     0.173 A 
ATOM     43  C   UNL A   1      41.124  28.493  27.885  1.00  0.00     0.173 A 
ATOM     44  F   UNL A   1      38.905  26.434  29.900  1.00  0.00    -0.203 F 
ATOM     45  C   UNL A   1      39.692  26.124  27.704  1.00  0.00     0.198 A 
ATOM     46  C   UNL A   1      41.154  27.746  26.710  1.00  0.00     0.198 A 
ATOM     47  F   UNL A   1      41.827  29.635  27.940  1.00  0.00    -0.203 F 
ATOM     48  F   UNL A   1      39.020  24.967  27.628  1.00  0.00    -0.200 F 
ATOM     49  C   UNL A   1      40.442  26.560  26.622  1.00  0.00     0.200 A 
ATOM     50  F   UNL A   1      41.869  28.177  25.661  1.00  0.00    -0.200 F 
ATOM     51  F   UNL A   1      40.479  25.836  25.494  1.00  0.00    -0.200 F 
ENDBRANCH  27  41
BRANCH  28  52
ATOM     52  C   UNL A   1      39.429  33.956  37.034  1.00  0.00     0.064 A 
ATOM     53  C   UNL A   1      39.977  35.244  37.076  1.00  0.00     0.173 A 
ATOM     54  C   UNL A   1      38.702  33.517  38.151  1.00  0.00     0.173 A 
ATOM     55  F   UNL A   1      40.692  35.701  36.039  1.00  0.00    -0.203 F 
ATOM     56  C   UNL A   1      39.816  36.056  38.197  1.00  0.00     0.198 A 
ATOM     57  C   UNL A   1      38.512  34.342  39.256  1.00  0.00     0.198 A 
ATOM     58  F   UNL A   1      38.149  32.295  38.155  1.00  0.00    -0.203 F 
ATOM     59  F   UNL A   1      40.382  37.270  38.228  1.00  0.00    -0.200 F 
ATOM     60  C   UNL A   1      39.076  35.608  39.281  1.00  0.00     0.200 A 
ATOM     61  F   UNL A   1      37.778  33.913  40.291  1.00  0.00    -0.200 F 
ATOM     62  F   UNL A   1      38.909  36.395  40.353  1.00  0.00    -0.200 F 
ENDBRANCH  28  52
BRANCH  40  63
ATOM     63  C   UNL A   1      43.759  28.788  35.317  1.00  0.00     0.064 A 
ATOM     64  C   UNL A   1      43.550  27.746  36.234  1.00  0.00     0.173 A 
ATOM     65  C   UNL A   1      45.073  29.229  35.108  1.00  0.00     0.173 A 
ATOM     66  F   UNL A   1      42.308  27.304  36.481  1.00  0.00    -0.203 F 
ATOM     67  C   UNL A   1      44.614  27.193  36.940  1.00  0.00     0.198 A 
ATOM     68  C   UNL A   1      46.138  28.654  35.796  1.00  0.00     0.198 A 
ATOM     69  F   UNL A   1      45.324  30.221  34.239  1.00  0.00    -0.203 F 
ATOM     70  F   UNL A   1      44.385  26.240  37.855  1.00  0.00    -0.200 F 
ATOM     71  C   UNL A   1      45.906  27.645  36.719  1.00  0.00     0.200 A 
ATOM     72  F   UNL A   1      47.387  29.086  35.575  1.00  0.00    -0.200 F 
ATOM     73  F   UNL A   1      46.928  27.117  37.406  1.00  0.00    -0.200 F 
ENDBRANCH  40  63
ENDBRANCH  14  15
ENDBRANCH   7   9
ENDBRANCH   4   5
ENDBRANCH   3   4
ENDBRANCH   2   3
ENDBRANCH   1   2
BRANCH   1  74
ATOM     74  C   UNL A   1      33.614  29.107  27.306  1.00  0.00     0.021 C 
BRANCH  74  75
ATOM     75  C   UNL A   1      34.206  28.096  26.305  1.00  0.00     0.116 C 
BRANCH  75  76
ATOM     76  N   UNL A   1      34.354  28.575  24.938  1.00  0.00    -0.356 N 
ATOM     77  C   UNL A   1      33.816  28.253  23.724  1.00  0.00     0.228 C 
ATOM     78  H   UNL A   1      35.004  29.312  24.872  1.00  0.00     0.163 HD
ATOM     79  O   UNL A   1      34.221  28.949  22.786  1.00  0.00    -0.274 OA
BRANCH  77  80
ATOM     80  C   UNL A   1      32.785  27.124  23.503  1.00  0.00     0.078 C 
ATOM     81  C   UNL A   1      33.274  25.743  24.029  1.00  0.00     0.051 C 
ATOM     82  C   UNL A   1      32.854  26.873  21.963  1.00  0.00     0.134 C 
ATOM     83  C   UNL A   1      33.477  24.944  22.743  1.00  0.00     0.120 C 
ATOM     84  C   UNL A   1      31.786  25.943  21.400  1.00  0.00     0.036 C 
ATOM     85  O   UNL A   1      33.991  25.964  21.866  1.00  0.00    -0.374 OA
ATOM     86  C   UNL A   1      32.134  24.618  22.079  1.00  0.00     0.035 C 
BRANCH  80  87
ATOM     87  C   UNL A   1      31.388  27.422  24.077  1.00  0.00     0.024 C 
BRANCH  87  88
ATOM     88  C   UNL A   1      30.906  28.876  24.350  1.00  0.00     0.038 C 
BRANCH  88  89
ATOM     89  C   UNL A   1      30.009  29.750  23.508  1.00  0.00    -0.030 A 
ATOM     90  C   UNL A   1      29.352  30.905  23.899  1.00  0.00     0.007 A 
ATOM     91  C   UNL A   1      29.857  29.429  22.156  1.00  0.00     0.114 A 
ATOM     92  C   UNL A   1      28.586  31.659  23.009  1.00  0.00     0.020 A 
ATOM     93  N   UNL A   1      29.132  30.135  21.251  1.00  0.00    -0.264 NA
ATOM     94  C   UNL A   1      28.505  31.236  21.703  1.00  0.00     0.111 A 
ENDBRANCH  88  89
ENDBRANCH  87  88
ENDBRANCH  80  87
ENDBRANCH  77  80
ENDBRANCH  75  76
ENDBRANCH  74  75
ENDBRANCH   1  74
TORSDOF 16
ENDMDL
