MODEL 1
REMARK VINA RESULT:     -12.0      0.000      0.000
REMARK SMILES CC[C@H]1CC[C@](Cc2cccnc2)(C(=O)NCCCCCCNC(=O)c2ccc(-c3c4nc(c(-c5c(F)c(F)c(F)c(F)c5F)c5ccc([nH]5)c(-c5c(F)c(F)c(F)c(F)c5F)c5nc(c(-c6c(F)c(F)c(F)c(F)c6F)c6ccc3[nH]6)C=C5)C=C4)cc2)C1
REMARK SMILES IDX 19 1 18 2 17 3 16 4 14 5 15 6 6 8 3 9 4 10 89 11 5 12 2 13
REMARK SMILES IDX 1 14 7 15 8 16 9 17 13 18 10 19 12 20 11 21 20 22 21 23
REMARK SMILES IDX 22 24 23 25 24 26 25 28 26 29 27 30 88 31 28 32 87 33 29 34
REMARK SMILES IDX 30 35 31 36 81 37 32 38 86 39 80 40 82 41 33 42 85 43 79 44
REMARK SMILES IDX 78 45 34 47 66 48 46 49 65 50 47 51 50 52 64 53 83 54 48 55
REMARK SMILES IDX 49 56 63 58 84 59 51 60 35 61 36 62 44 63 37 64 38 65 42 66
REMARK SMILES IDX 45 67 39 68 40 69 43 70 41 71 67 72 68 73 76 74 69 75 70 76
REMARK SMILES IDX 74 77 77 78 71 79 72 80 75 81 73 82 52 83 53 84 61 85 54 86
REMARK SMILES IDX 55 87 59 88 62 89 56 90 57 91 60 92 58 93
REMARK H PARENT 16 7 23 27 82 46 50 57
REMARK Flexibility Score: inf
ROOT
ATOM      1  C   UNL A   1      33.217  30.065  26.947  1.00  0.00     0.002 C 
ENDROOT
BRANCH   1   2
ATOM      2  C   UNL A   1      33.342  28.569  27.241  1.00  0.00     0.021 C 
BRANCH   2   3
ATOM      3  C   UNL A   1      34.032  27.775  26.127  1.00  0.00     0.116 C 
BRANCH   3   4
ATOM      4  N   UNL A   1      34.017  28.522  24.880  1.00  0.00    -0.356 N 
ATOM      5  C   UNL A   1      33.380  28.294  23.694  1.00  0.00     0.226 C 
ATOM      6  O   UNL A   1      33.684  29.044  22.765  1.00  0.00    -0.274 OA
ATOM      7  H   UNL A   1      34.565  29.340  24.894  1.00  0.00     0.163 HD
BRANCH   5   8
ATOM      8  C   UNL A   1      32.343  27.146  23.537  1.00  0.00     0.054 C 
ATOM      9  C   UNL A   1      32.777  24.759  22.905  1.00  0.00    -0.010 C 
ATOM     10  C   UNL A   1      32.851  25.627  21.661  1.00  0.00     0.005 C 
ATOM     11  C   UNL A   1      32.946  25.793  24.033  1.00  0.00     0.021 C 
ATOM     12  C   UNL A   1      32.114  26.915  22.022  1.00  0.00     0.017 C 
BRANCH   9  13
ATOM     13  C   UNL A   1      31.544  23.845  23.064  1.00  0.00     0.000 C 
ATOM     14  C   UNL A   1      30.839  23.821  24.412  1.00  0.00     0.004 C 
ENDBRANCH   9  13
BRANCH   8  15
ATOM     15  C   UNL A   1      31.098  27.543  24.385  1.00  0.00     0.054 C 
BRANCH  15  16
ATOM     16  C   UNL A   1      29.975  28.338  23.773  1.00  0.00    -0.029 A 
ATOM     17  C   UNL A   1      28.733  27.762  23.501  1.00  0.00     0.007 A 
ATOM     18  C   UNL A   1      30.113  29.699  23.513  1.00  0.00     0.114 A 
ATOM     19  C   UNL A   1      27.726  28.529  22.922  1.00  0.00     0.020 A 
ATOM     20  N   UNL A   1      29.152  30.472  22.961  1.00  0.00    -0.264 NA
ATOM     21  C   UNL A   1      27.983  29.864  22.665  1.00  0.00     0.111 A 
ENDBRANCH  15  16
ENDBRANCH   8  15
ENDBRANCH   5   8
ENDBRANCH   3   4
ENDBRANCH   2   3
ENDBRANCH   1   2
BRANCH   1  22
ATOM     22  C   UNL A   1      31.786  30.549  26.702  1.00  0.00     0.002 C 
BRANCH  22  23
ATOM     23  C   UNL A   1      31.585  32.060  26.846  1.00  0.00     0.021 C 
BRANCH  23  24
ATOM     24  C   UNL A   1      32.815  32.809  27.351  1.00  0.00     0.116 C 
BRANCH  24  25
ATOM     25  N   UNL A   1      32.517  34.207  27.627  1.00  0.00    -0.352 N 
ATOM     26  C   UNL A   1      33.019  35.027  28.608  1.00  0.00     0.251 C 
ATOM     27  H   UNL A   1      31.862  34.625  27.023  1.00  0.00     0.163 HD
ATOM     28  O   UNL A   1      32.489  36.103  28.854  1.00  0.00    -0.269 OA
BRANCH  26  29
ATOM     29  C   UNL A   1      34.198  34.590  29.382  1.00  0.00     0.039 A 
ATOM     30  C   UNL A   1      34.016  34.089  30.673  1.00  0.00     0.014 A 
ATOM     31  C   UNL A   1      35.477  34.659  28.823  1.00  0.00     0.014 A 
ATOM     32  C   UNL A   1      35.110  33.575  31.372  1.00  0.00     0.010 A 
ATOM     33  C   UNL A   1      36.553  34.084  29.491  1.00  0.00     0.010 A 
ATOM     34  C   UNL A   1      36.376  33.523  30.766  1.00  0.00    -0.014 A 
BRANCH  34  35
ATOM     35  C   UNL A   1      37.524  32.850  31.425  1.00  0.00     0.031 A 
ATOM     36  C   UNL A   1      38.189  31.674  30.771  1.00  0.00     0.074 A 
ATOM     37  C   UNL A   1      37.903  33.247  32.655  1.00  0.00     0.049 A 
ATOM     38  N   UNL A   1      39.128  30.890  31.238  1.00  0.00    -0.248 NA
ATOM     39  C   UNL A   1      37.721  31.317  29.424  1.00  0.00     0.031 C 
ATOM     40  C   UNL A   1      37.311  34.357  33.405  1.00  0.00     0.029 A 
ATOM     41  N   UNL A   1      38.866  32.753  33.499  1.00  0.00    -0.354 N 
ATOM     42  C   UNL A   1      39.357  29.945  30.248  1.00  0.00     0.074 A 
ATOM     43  C   UNL A   1      38.423  30.221  29.177  1.00  0.00     0.031 C 
ATOM     44  C   UNL A   1      37.932  34.468  34.589  1.00  0.00     0.029 A 
ATOM     45  C   UNL A   1      38.929  33.409  34.705  1.00  0.00     0.049 A 
ATOM     46  H   UNL A   1      39.455  32.001  33.264  1.00  0.00     0.167 HD
ATOM     47  C   UNL A   1      40.277  28.951  30.228  1.00  0.00     0.037 A 
ATOM     48  C   UNL A   1      39.689  33.169  35.791  1.00  0.00     0.037 A 
ATOM     49  C   UNL A   1      41.206  28.687  31.295  1.00  0.00     0.049 A 
ATOM     50  C   UNL A   1      40.660  32.019  35.765  1.00  0.00     0.074 A 
ATOM     51  C   UNL A   1      42.215  27.743  31.347  1.00  0.00     0.029 A 
ATOM     52  N   UNL A   1      41.230  29.364  32.507  1.00  0.00    -0.354 N 
ATOM     53  N   UNL A   1      40.922  31.178  34.796  1.00  0.00    -0.248 NA
ATOM     54  C   UNL A   1      41.439  31.784  36.989  1.00  0.00     0.031 C 
ATOM     55  C   UNL A   1      42.808  27.803  32.612  1.00  0.00     0.029 A 
ATOM     56  C   UNL A   1      42.209  28.828  33.329  1.00  0.00     0.049 A 
ATOM     57  H   UNL A   1      40.639  30.115  32.747  1.00  0.00     0.167 HD
ATOM     58  C   UNL A   1      41.907  30.328  35.280  1.00  0.00     0.074 A 
ATOM     59  C   UNL A   1      42.211  30.769  36.626  1.00  0.00     0.031 C 
ATOM     60  C   UNL A   1      42.501  29.277  34.667  1.00  0.00     0.037 A 
BRANCH  47  61
ATOM     61  C   UNL A   1      40.319  28.067  29.014  1.00  0.00     0.064 A 
ATOM     62  C   UNL A   1      41.082  28.400  27.884  1.00  0.00     0.173 A 
ATOM     63  C   UNL A   1      39.613  26.854  28.991  1.00  0.00     0.173 A 
ATOM     64  F   UNL A   1      41.769  29.552  27.849  1.00  0.00    -0.203 F 
ATOM     65  C   UNL A   1      41.111  27.570  26.766  1.00  0.00     0.198 A 
ATOM     66  C   UNL A   1      39.672  26.010  27.886  1.00  0.00     0.198 A 
ATOM     67  F   UNL A   1      38.873  26.481  30.047  1.00  0.00    -0.203 F 
ATOM     68  F   UNL A   1      41.805  27.936  25.680  1.00  0.00    -0.200 F 
ATOM     69  C   UNL A   1      40.413  26.372  26.772  1.00  0.00     0.200 A 
ATOM     70  F   UNL A   1      39.009  24.845  27.899  1.00  0.00    -0.200 F 
ATOM     71  F   UNL A   1      40.447  25.570  25.698  1.00  0.00    -0.200 F 
ENDBRANCH  47  61
BRANCH  48  72
ATOM     72  C   UNL A   1      39.560  34.033  36.994  1.00  0.00     0.064 A 
ATOM     73  C   UNL A   1      38.750  33.648  38.071  1.00  0.00     0.173 A 
ATOM     74  C   UNL A   1      40.238  35.256  37.094  1.00  0.00     0.173 A 
ATOM     75  F   UNL A   1      38.064  32.497  38.015  1.00  0.00    -0.203 F 
ATOM     76  C   UNL A   1      38.607  34.463  39.192  1.00  0.00     0.198 A 
ATOM     77  C   UNL A   1      40.122  36.055  38.230  1.00  0.00     0.198 A 
ATOM     78  F   UNL A   1      41.031  35.669  36.094  1.00  0.00    -0.203 F 
ATOM     79  F   UNL A   1      37.789  34.092  40.188  1.00  0.00    -0.200 F 
ATOM     80  C   UNL A   1      39.299  35.661  39.274  1.00  0.00     0.200 A 
ATOM     81  F   UNL A   1      40.805  37.204  38.311  1.00  0.00    -0.200 F 
ATOM     82  F   UNL A   1      39.167  36.442  40.356  1.00  0.00    -0.200 F 
ENDBRANCH  48  72
BRANCH  60  83
ATOM     83  C   UNL A   1      43.556  28.534  35.436  1.00  0.00     0.064 A 
ATOM     84  C   UNL A   1      43.227  27.482  36.304  1.00  0.00     0.173 A 
ATOM     85  C   UNL A   1      44.915  28.835  35.255  1.00  0.00     0.173 A 
ATOM     86  F   UNL A   1      41.942  27.167  36.526  1.00  0.00    -0.203 F 
ATOM     87  C   UNL A   1      44.219  26.771  36.974  1.00  0.00     0.198 A 
ATOM     88  C   UNL A   1      45.904  28.100  35.900  1.00  0.00     0.198 A 
ATOM     89  F   UNL A   1      45.283  29.827  34.430  1.00  0.00    -0.203 F 
ATOM     90  F   UNL A   1      43.879  25.797  37.830  1.00  0.00    -0.200 F 
ATOM     91  C   UNL A   1      45.556  27.072  36.764  1.00  0.00     0.200 A 
ATOM     92  F   UNL A   1      47.196  28.382  35.683  1.00  0.00    -0.200 F 
ATOM     93  F   UNL A   1      46.509  26.374  37.397  1.00  0.00    -0.200 F 
ENDBRANCH  60  83
ENDBRANCH  34  35
ENDBRANCH  26  29
ENDBRANCH  24  25
ENDBRANCH  23  24
ENDBRANCH  22  23
ENDBRANCH   1  22
TORSDOF 16
ENDMDL
MODEL 2
REMARK VINA RESULT:     -11.9      1.621      3.091
REMARK SMILES CC[C@H]1CC[C@](Cc2cccnc2)(C(=O)NCCCCCCNC(=O)c2ccc(-c3c4nc(c(-c5c(F)c(F)c(F)c(F)c5F)c5ccc([nH]5)c(-c5c(F)c(F)c(F)c(F)c5F)c5nc(c(-c6c(F)c(F)c(F)c(F)c6F)c6ccc3[nH]6)C=C5)C=C4)cc2)C1
REMARK SMILES IDX 19 1 18 2 17 3 16 4 14 5 15 6 6 8 3 9 4 10 89 11 5 12 2 13
REMARK SMILES IDX 1 14 7 15 8 16 9 17 13 18 10 19 12 20 11 21 20 22 21 23
REMARK SMILES IDX 22 24 23 25 24 26 25 28 26 29 27 30 88 31 28 32 87 33 29 34
REMARK SMILES IDX 30 35 31 36 81 37 32 38 86 39 80 40 82 41 33 42 85 43 79 44
REMARK SMILES IDX 78 45 34 47 66 48 46 49 65 50 47 51 50 52 64 53 83 54 48 55
REMARK SMILES IDX 49 56 63 58 84 59 51 60 35 61 36 62 44 63 37 64 38 65 42 66
REMARK SMILES IDX 45 67 39 68 40 69 43 70 41 71 67 72 68 73 76 74 69 75 70 76
REMARK SMILES IDX 74 77 77 78 71 79 72 80 75 81 73 82 52 83 53 84 61 85 54 86
REMARK SMILES IDX 55 87 59 88 62 89 56 90 57 91 60 92 58 93
REMARK H PARENT 16 7 23 27 82 46 50 57
REMARK Flexibility Score: inf
ROOT
ATOM      1  C   UNL A   1      32.638  29.696  27.229  1.00  0.00     0.002 C 
ENDROOT
BRANCH   1   2
ATOM      2  C   UNL A   1      31.930  28.395  27.611  1.00  0.00     0.021 C 
BRANCH   2   3
ATOM      3  C   UNL A   1      31.392  27.609  26.411  1.00  0.00     0.116 C 
BRANCH   3   4
ATOM      4  N   UNL A   1      30.804  26.352  26.843  1.00  0.00    -0.356 N 
ATOM      5  C   UNL A   1      30.918  25.082  26.354  1.00  0.00     0.226 C 
ATOM      6  O   UNL A   1      30.171  24.240  26.858  1.00  0.00    -0.274 OA
ATOM      7  H   UNL A   1      30.218  26.431  27.630  1.00  0.00     0.163 HD
BRANCH   5   8
ATOM      8  C   UNL A   1      31.925  24.735  25.222  1.00  0.00     0.054 C 
ATOM      9  C   UNL A   1      31.559  24.866  22.745  1.00  0.00    -0.010 C 
ATOM     10  C   UNL A   1      30.871  23.626  23.288  1.00  0.00     0.005 C 
ATOM     11  C   UNL A   1      31.752  25.714  24.017  1.00  0.00     0.021 C 
ATOM     12  C   UNL A   1      31.530  23.356  24.638  1.00  0.00     0.017 C 
BRANCH   9  13
ATOM     13  C   UNL A   1      32.847  24.663  21.920  1.00  0.00     0.000 C 
ATOM     14  C   UNL A   1      33.304  23.238  21.645  1.00  0.00     0.004 C 
ENDBRANCH   9  13
BRANCH   8  15
ATOM     15  C   UNL A   1      33.352  24.857  25.835  1.00  0.00     0.054 C 
BRANCH  15  16
ATOM     16  C   UNL A   1      34.362  23.756  25.652  1.00  0.00    -0.029 A 
ATOM     17  C   UNL A   1      35.281  23.771  24.600  1.00  0.00     0.007 A 
ATOM     18  C   UNL A   1      34.462  22.708  26.564  1.00  0.00     0.114 A 
ATOM     19  C   UNL A   1      36.189  22.726  24.459  1.00  0.00     0.020 A 
ATOM     20  N   UNL A   1      35.338  21.686  26.460  1.00  0.00    -0.264 NA
ATOM     21  C   UNL A   1      36.173  21.711  25.399  1.00  0.00     0.111 A 
ENDBRANCH  15  16
ENDBRANCH   8  15
ENDBRANCH   5   8
ENDBRANCH   3   4
ENDBRANCH   2   3
ENDBRANCH   1   2
BRANCH   1  22
ATOM     22  C   UNL A   1      31.881  30.560  26.216  1.00  0.00     0.002 C 
BRANCH  22  23
ATOM     23  C   UNL A   1      31.566  31.981  26.692  1.00  0.00     0.021 C 
BRANCH  23  24
ATOM     24  C   UNL A   1      32.720  32.669  27.414  1.00  0.00     0.116 C 
BRANCH  24  25
ATOM     25  N   UNL A   1      32.451  34.083  27.633  1.00  0.00    -0.352 N 
ATOM     26  C   UNL A   1      32.988  34.938  28.564  1.00  0.00     0.251 C 
ATOM     27  H   UNL A   1      31.788  34.484  27.025  1.00  0.00     0.163 HD
ATOM     28  O   UNL A   1      32.481  36.033  28.771  1.00  0.00    -0.269 OA
BRANCH  26  29
ATOM     29  C   UNL A   1      34.177  34.517  29.331  1.00  0.00     0.039 A 
ATOM     30  C   UNL A   1      34.009  34.003  30.619  1.00  0.00     0.014 A 
ATOM     31  C   UNL A   1      35.453  34.613  28.768  1.00  0.00     0.014 A 
ATOM     32  C   UNL A   1      35.114  33.505  31.311  1.00  0.00     0.010 A 
ATOM     33  C   UNL A   1      36.541  34.053  29.429  1.00  0.00     0.010 A 
ATOM     34  C   UNL A   1      36.379  33.480  30.700  1.00  0.00    -0.014 A 
BRANCH  34  35
ATOM     35  C   UNL A   1      37.540  32.823  31.351  1.00  0.00     0.031 A 
ATOM     36  C   UNL A   1      38.216  31.655  30.693  1.00  0.00     0.074 A 
ATOM     37  C   UNL A   1      37.924  33.227  32.576  1.00  0.00     0.049 A 
ATOM     38  N   UNL A   1      39.170  30.884  31.153  1.00  0.00    -0.248 NA
ATOM     39  C   UNL A   1      37.742  31.290  29.349  1.00  0.00     0.031 C 
ATOM     40  C   UNL A   1      37.323  34.329  33.330  1.00  0.00     0.029 A 
ATOM     41  N   UNL A   1      38.901  32.746  33.414  1.00  0.00    -0.354 N 
ATOM     42  C   UNL A   1      39.403  29.941  30.161  1.00  0.00     0.074 A 
ATOM     43  C   UNL A   1      38.457  30.204  29.098  1.00  0.00     0.031 C 
ATOM     44  C   UNL A   1      37.952  34.450  34.509  1.00  0.00     0.029 A 
ATOM     45  C   UNL A   1      38.965  33.404  34.618  1.00  0.00     0.049 A 
ATOM     46  H   UNL A   1      39.498  32.002  33.174  1.00  0.00     0.167 HD
ATOM     47  C   UNL A   1      40.336  28.960  30.135  1.00  0.00     0.037 A 
ATOM     48  C   UNL A   1      39.736  33.175  35.699  1.00  0.00     0.037 A 
ATOM     49  C   UNL A   1      41.277  28.710  31.195  1.00  0.00     0.049 A 
ATOM     50  C   UNL A   1      40.722  32.039  35.666  1.00  0.00     0.074 A 
ATOM     51  C   UNL A   1      42.299  27.779  31.240  1.00  0.00     0.029 A 
ATOM     52  N   UNL A   1      41.301  29.389  32.406  1.00  0.00    -0.354 N 
ATOM     53  N   UNL A   1      40.987  31.200  34.695  1.00  0.00    -0.248 NA
ATOM     54  C   UNL A   1      41.515  31.816  36.883  1.00  0.00     0.031 C 
ATOM     55  C   UNL A   1      42.901  27.849  32.500  1.00  0.00     0.029 A 
ATOM     56  C   UNL A   1      42.294  28.866  33.220  1.00  0.00     0.049 A 
ATOM     57  H   UNL A   1      40.703  30.131  32.650  1.00  0.00     0.167 HD
ATOM     58  C   UNL A   1      41.988  30.365  35.173  1.00  0.00     0.074 A 
ATOM     59  C   UNL A   1      42.297  30.811  36.516  1.00  0.00     0.031 C 
ATOM     60  C   UNL A   1      42.591  29.320  34.556  1.00  0.00     0.037 A 
BRANCH  47  61
ATOM     61  C   UNL A   1      40.380  28.075  28.921  1.00  0.00     0.064 A 
ATOM     62  C   UNL A   1      39.660  26.872  28.859  1.00  0.00     0.173 A 
ATOM     63  C   UNL A   1      41.123  28.452  27.792  1.00  0.00     0.173 A 
ATOM     64  F   UNL A   1      38.940  26.460  29.913  1.00  0.00    -0.203 F 
ATOM     65  C   UNL A   1      39.710  26.063  27.726  1.00  0.00     0.198 A 
ATOM     66  C   UNL A   1      41.144  27.658  26.648  1.00  0.00     0.198 A 
ATOM     67  F   UNL A   1      41.824  29.596  27.793  1.00  0.00    -0.203 F 
ATOM     68  F   UNL A   1      39.058  24.893  27.712  1.00  0.00    -0.200 F 
ATOM     69  C   UNL A   1      40.445  26.461  26.619  1.00  0.00     0.200 A 
ATOM     70  F   UNL A   1      41.842  28.051  25.574  1.00  0.00    -0.200 F 
ATOM     71  F   UNL A   1      40.487  25.685  25.528  1.00  0.00    -0.200 F 
ENDBRANCH  47  61
BRANCH  48  72
ATOM     72  C   UNL A   1      39.605  34.039  36.902  1.00  0.00     0.064 A 
ATOM     73  C   UNL A   1      38.812  33.643  37.987  1.00  0.00     0.173 A 
ATOM     74  C   UNL A   1      40.265  35.273  36.994  1.00  0.00     0.173 A 
ATOM     75  F   UNL A   1      38.144  32.481  37.939  1.00  0.00    -0.203 F 
ATOM     76  C   UNL A   1      38.667  34.457  39.109  1.00  0.00     0.198 A 
ATOM     77  C   UNL A   1      40.147  36.072  38.130  1.00  0.00     0.198 A 
ATOM     78  F   UNL A   1      41.041  35.697  35.985  1.00  0.00    -0.203 F 
ATOM     79  F   UNL A   1      37.865  34.075  40.113  1.00  0.00    -0.200 F 
ATOM     80  C   UNL A   1      39.340  35.667  39.182  1.00  0.00     0.200 A 
ATOM     81  F   UNL A   1      40.812  37.232  38.203  1.00  0.00    -0.200 F 
ATOM     82  F   UNL A   1      39.207  36.446  40.264  1.00  0.00    -0.200 F 
ENDBRANCH  48  72
BRANCH  60  83
ATOM     83  C   UNL A   1      43.662  28.592  35.317  1.00  0.00     0.064 A 
ATOM     84  C   UNL A   1      43.355  27.530  36.181  1.00  0.00     0.173 A 
ATOM     85  C   UNL A   1      45.014  28.919  35.133  1.00  0.00     0.173 A 
ATOM     86  F   UNL A   1      42.077  27.190  36.405  1.00  0.00    -0.203 F 
ATOM     87  C   UNL A   1      44.362  26.833  36.843  1.00  0.00     0.198 A 
ATOM     88  C   UNL A   1      46.020  28.199  35.771  1.00  0.00     0.198 A 
ATOM     89  F   UNL A   1      45.362  29.922  34.313  1.00  0.00    -0.203 F 
ATOM     90  F   UNL A   1      44.043  25.848  37.695  1.00  0.00    -0.200 F 
ATOM     91  C   UNL A   1      45.693  27.160  36.630  1.00  0.00     0.200 A 
ATOM     92  F   UNL A   1      47.305  28.505  35.552  1.00  0.00    -0.200 F 
ATOM     93  F   UNL A   1      46.661  26.476  37.256  1.00  0.00    -0.200 F 
ENDBRANCH  60  83
ENDBRANCH  34  35
ENDBRANCH  26  29
ENDBRANCH  24  25
ENDBRANCH  23  24
ENDBRANCH  22  23
ENDBRANCH   1  22
TORSDOF 16
ENDMDL
MODEL 3
REMARK VINA RESULT:     -11.8      1.532      3.296
REMARK SMILES CC[C@H]1CC[C@](Cc2cccnc2)(C(=O)NCCCCCCNC(=O)c2ccc(-c3c4nc(c(-c5c(F)c(F)c(F)c(F)c5F)c5ccc([nH]5)c(-c5c(F)c(F)c(F)c(F)c5F)c5nc(c(-c6c(F)c(F)c(F)c(F)c6F)c6ccc3[nH]6)C=C5)C=C4)cc2)C1
REMARK SMILES IDX 19 1 18 2 17 3 16 4 14 5 15 6 6 8 3 9 4 10 89 11 5 12 2 13
REMARK SMILES IDX 1 14 7 15 8 16 9 17 13 18 10 19 12 20 11 21 20 22 21 23
REMARK SMILES IDX 22 24 23 25 24 26 25 28 26 29 27 30 88 31 28 32 87 33 29 34
REMARK SMILES IDX 30 35 31 36 81 37 32 38 86 39 80 40 82 41 33 42 85 43 79 44
REMARK SMILES IDX 78 45 34 47 66 48 46 49 65 50 47 51 50 52 64 53 83 54 48 55
REMARK SMILES IDX 49 56 63 58 84 59 51 60 35 61 36 62 44 63 37 64 38 65 42 66
REMARK SMILES IDX 45 67 39 68 40 69 43 70 41 71 67 72 68 73 76 74 69 75 70 76
REMARK SMILES IDX 74 77 77 78 71 79 72 80 75 81 73 82 52 83 53 84 61 85 54 86
REMARK SMILES IDX 55 87 59 88 62 89 56 90 57 91 60 92 58 93
REMARK H PARENT 16 7 23 27 82 46 50 57
REMARK Flexibility Score: inf
ROOT
ATOM      1  C   UNL A   1      31.541  30.006  25.008  1.00  0.00     0.002 C 
ENDROOT
BRANCH   1   2
ATOM      2  C   UNL A   1      31.535  28.482  24.877  1.00  0.00     0.021 C 
BRANCH   2   3
ATOM      3  C   UNL A   1      32.932  27.866  24.768  1.00  0.00     0.116 C 
BRANCH   3   4
ATOM      4  N   UNL A   1      33.191  27.418  23.411  1.00  0.00    -0.356 N 
ATOM      5  C   UNL A   1      33.395  26.172  22.889  1.00  0.00     0.226 C 
ATOM      6  O   UNL A   1      33.736  26.131  21.705  1.00  0.00    -0.274 OA
ATOM      7  H   UNL A   1      33.227  28.144  22.746  1.00  0.00     0.163 HD
BRANCH   5   8
ATOM      8  C   UNL A   1      33.212  24.891  23.751  1.00  0.00     0.054 C 
ATOM      9  C   UNL A   1      31.867  22.848  23.203  1.00  0.00    -0.010 C 
ATOM     10  C   UNL A   1      30.931  23.961  23.641  1.00  0.00     0.005 C 
ATOM     11  C   UNL A   1      33.147  23.623  22.840  1.00  0.00     0.021 C 
ATOM     12  C   UNL A   1      31.809  24.951  24.403  1.00  0.00     0.017 C 
BRANCH   9  13
ATOM     13  C   UNL A   1      32.093  21.680  24.185  1.00  0.00     0.000 C 
ATOM     14  C   UNL A   1      32.998  20.539  23.745  1.00  0.00     0.004 C 
ENDBRANCH   9  13
BRANCH   8  15
ATOM     15  C   UNL A   1      34.434  24.819  24.715  1.00  0.00     0.054 C 
BRANCH  15  16
ATOM     16  C   UNL A   1      35.210  23.539  24.875  1.00  0.00    -0.029 A 
ATOM     17  C   UNL A   1      36.218  23.176  23.980  1.00  0.00     0.007 A 
ATOM     18  C   UNL A   1      34.995  22.695  25.962  1.00  0.00     0.114 A 
ATOM     19  C   UNL A   1      36.901  21.976  24.156  1.00  0.00     0.020 A 
ATOM     20  N   UNL A   1      35.649  21.531  26.166  1.00  0.00    -0.264 NA
ATOM     21  C   UNL A   1      36.578  21.191  25.248  1.00  0.00     0.111 A 
ENDBRANCH  15  16
ENDBRANCH   8  15
ENDBRANCH   5   8
ENDBRANCH   3   4
ENDBRANCH   2   3
ENDBRANCH   1   2
BRANCH   1  22
ATOM     22  C   UNL A   1      31.785  30.523  26.429  1.00  0.00     0.002 C 
BRANCH  22  23
ATOM     23  C   UNL A   1      31.634  32.038  26.596  1.00  0.00     0.021 C 
BRANCH  23  24
ATOM     24  C   UNL A   1      32.711  32.681  27.464  1.00  0.00     0.116 C 
BRANCH  24  25
ATOM     25  N   UNL A   1      32.453  34.097  27.681  1.00  0.00    -0.352 N 
ATOM     26  C   UNL A   1      33.003  34.952  28.605  1.00  0.00     0.251 C 
ATOM     27  H   UNL A   1      31.788  34.501  27.077  1.00  0.00     0.163 HD
ATOM     28  O   UNL A   1      32.504  36.050  28.813  1.00  0.00    -0.269 OA
BRANCH  26  29
ATOM     29  C   UNL A   1      34.196  34.525  29.363  1.00  0.00     0.039 A 
ATOM     30  C   UNL A   1      34.037  34.041  30.664  1.00  0.00     0.014 A 
ATOM     31  C   UNL A   1      35.464  34.588  28.781  1.00  0.00     0.014 A 
ATOM     32  C   UNL A   1      35.143  33.537  31.350  1.00  0.00     0.010 A 
ATOM     33  C   UNL A   1      36.552  34.022  29.437  1.00  0.00     0.010 A 
ATOM     34  C   UNL A   1      36.398  33.478  30.722  1.00  0.00    -0.014 A 
BRANCH  34  35
ATOM     35  C   UNL A   1      37.558  32.814  31.370  1.00  0.00     0.031 A 
ATOM     36  C   UNL A   1      38.212  31.630  30.720  1.00  0.00     0.074 A 
ATOM     37  C   UNL A   1      37.959  33.228  32.587  1.00  0.00     0.049 A 
ATOM     38  N   UNL A   1      39.160  30.852  31.181  1.00  0.00    -0.248 NA
ATOM     39  C   UNL A   1      37.720  31.254  29.386  1.00  0.00     0.031 C 
ATOM     40  C   UNL A   1      37.379  34.347  33.333  1.00  0.00     0.029 A 
ATOM     41  N   UNL A   1      38.937  32.745  33.421  1.00  0.00    -0.354 N 
ATOM     42  C   UNL A   1      39.371  29.894  30.199  1.00  0.00     0.074 A 
ATOM     43  C   UNL A   1      38.418  30.155  29.141  1.00  0.00     0.031 C 
ATOM     44  C   UNL A   1      38.021  34.474  34.504  1.00  0.00     0.029 A 
ATOM     45  C   UNL A   1      39.021  33.417  34.616  1.00  0.00     0.049 A 
ATOM     46  H   UNL A   1      39.522  31.990  33.185  1.00  0.00     0.167 HD
ATOM     47  C   UNL A   1      40.291  28.900  30.176  1.00  0.00     0.037 A 
ATOM     48  C   UNL A   1      39.800  33.191  35.692  1.00  0.00     0.037 A 
ATOM     49  C   UNL A   1      41.239  28.651  31.230  1.00  0.00     0.049 A 
ATOM     50  C   UNL A   1      40.771  32.042  35.664  1.00  0.00     0.074 A 
ATOM     51  C   UNL A   1      42.250  27.708  31.276  1.00  0.00     0.029 A 
ATOM     52  N   UNL A   1      41.284  29.344  32.432  1.00  0.00    -0.354 N 
ATOM     53  N   UNL A   1      41.016  31.188  34.701  1.00  0.00    -0.248 NA
ATOM     54  C   UNL A   1      41.572  31.823  36.876  1.00  0.00     0.031 C 
ATOM     55  C   UNL A   1      42.865  27.785  32.529  1.00  0.00     0.029 A 
ATOM     56  C   UNL A   1      42.278  28.819  33.243  1.00  0.00     0.049 A 
ATOM     57  H   UNL A   1      40.698  30.097  32.672  1.00  0.00     0.167 HD
ATOM     58  C   UNL A   1      42.010  30.345  35.180  1.00  0.00     0.074 A 
ATOM     59  C   UNL A   1      42.338  30.804  36.514  1.00  0.00     0.031 C 
ATOM     60  C   UNL A   1      42.594  29.286  34.570  1.00  0.00     0.037 A 
BRANCH  47  61
ATOM     61  C   UNL A   1      40.312  28.000  28.973  1.00  0.00     0.064 A 
ATOM     62  C   UNL A   1      41.055  28.319  27.825  1.00  0.00     0.173 A 
ATOM     63  C   UNL A   1      39.607  26.786  28.979  1.00  0.00     0.173 A 
ATOM     64  F   UNL A   1      41.740  29.470  27.763  1.00  0.00    -0.203 F 
ATOM     65  C   UNL A   1      41.065  27.473  26.719  1.00  0.00     0.198 A 
ATOM     66  C   UNL A   1      39.646  25.928  27.884  1.00  0.00     0.198 A 
ATOM     67  F   UNL A   1      38.886  26.427  30.053  1.00  0.00    -0.203 F 
ATOM     68  F   UNL A   1      41.738  27.825  25.615  1.00  0.00    -0.200 F 
ATOM     69  C   UNL A   1      40.367  26.275  26.752  1.00  0.00     0.200 A 
ATOM     70  F   UNL A   1      38.984  24.763  27.924  1.00  0.00    -0.200 F 
ATOM     71  F   UNL A   1      40.383  25.460  25.689  1.00  0.00    -0.200 F 
ENDBRANCH  47  61
BRANCH  48  72
ATOM     72  C   UNL A   1      39.692  34.071  36.886  1.00  0.00     0.064 A 
ATOM     73  C   UNL A   1      40.407  35.274  36.959  1.00  0.00     0.173 A 
ATOM     74  C   UNL A   1      38.876  33.732  37.975  1.00  0.00     0.173 A 
ATOM     75  F   UNL A   1      41.217  35.632  35.951  1.00  0.00    -0.203 F 
ATOM     76  C   UNL A   1      40.327  36.093  38.083  1.00  0.00     0.198 A 
ATOM     77  C   UNL A   1      38.771  34.567  39.086  1.00  0.00     0.198 A 
ATOM     78  F   UNL A   1      38.165  32.594  37.955  1.00  0.00    -0.203 F 
ATOM     79  F   UNL A   1      41.059  37.214  38.146  1.00  0.00    -0.200 F 
ATOM     80  C   UNL A   1      39.504  35.743  39.142  1.00  0.00     0.200 A 
ATOM     81  F   UNL A   1      37.961  34.233  40.099  1.00  0.00    -0.200 F 
ATOM     82  F   UNL A   1      39.422  36.534  40.220  1.00  0.00    -0.200 F 
ENDBRANCH  48  72
BRANCH  60  83
ATOM     83  C   UNL A   1      43.663  28.553  35.329  1.00  0.00     0.064 A 
ATOM     84  C   UNL A   1      45.020  28.872  35.179  1.00  0.00     0.173 A 
ATOM     85  C   UNL A   1      43.321  27.563  36.263  1.00  0.00     0.173 A 
ATOM     86  F   UNL A   1      45.401  29.798  34.287  1.00  0.00    -0.203 F 
ATOM     87  C   UNL A   1      45.996  28.217  35.926  1.00  0.00     0.198 A 
ATOM     88  C   UNL A   1      44.296  26.933  37.031  1.00  0.00     0.198 A 
ATOM     89  F   UNL A   1      42.036  27.224  36.450  1.00  0.00    -0.203 F 
ATOM     90  F   UNL A   1      47.290  28.511  35.736  1.00  0.00    -0.200 F 
ATOM     91  C   UNL A   1      45.633  27.257  36.858  1.00  0.00     0.200 A 
ATOM     92  F   UNL A   1      43.942  26.018  37.943  1.00  0.00    -0.200 F 
ATOM     93  F   UNL A   1      46.573  26.640  37.588  1.00  0.00    -0.200 F 
ENDBRANCH  60  83
ENDBRANCH  34  35
ENDBRANCH  26  29
ENDBRANCH  24  25
ENDBRANCH  23  24
ENDBRANCH  22  23
ENDBRANCH   1  22
TORSDOF 16
ENDMDL
