MODEL 1
REMARK VINA RESULT:      -9.9      0.000      0.000
REMARK SMILES CN(CCOCC1CC1)C(=O)N1CC[C@H](C(=O)NCCCCCCNC(=O)c2ccc(-c3c4nc(c(-c5c(F)c(F)c(F)c(F)c5F)c5ccc([nH]5)c(-c5c(F)c(F)c(F)c(F)c5F)c5nc(c(-c6c(F)c(F)c(F)c(F)c6F)c6ccc3[nH]6)C=C5)C=C4)cc2)C1
REMARK SMILES IDX 19 1 18 2 16 3 17 4 15 6 12 7 13 8 91 9 14 10 10 11 11 12
REMARK SMILES IDX 2 13 1 14 3 15 4 16 5 17 6 18 7 19 8 20 9 21 20 22 21 23
REMARK SMILES IDX 22 24 23 25 24 26 25 27 26 28 27 30 28 31 29 32 90 33 30 34
REMARK SMILES IDX 89 35 31 36 32 37 33 38 83 39 34 40 88 41 82 42 84 43 35 44
REMARK SMILES IDX 87 45 81 46 80 47 36 49 68 50 48 51 67 52 49 53 52 54 66 55
REMARK SMILES IDX 85 56 50 57 51 58 65 60 86 61 53 62 37 63 38 64 46 65 39 66
REMARK SMILES IDX 40 67 44 68 47 69 41 70 42 71 45 72 43 73 69 74 70 75 78 76
REMARK SMILES IDX 71 77 72 78 76 79 79 80 73 81 74 82 77 83 75 84 54 85 55 86
REMARK SMILES IDX 63 87 56 88 57 89 61 90 64 91 58 92 59 93 62 94 60 95
REMARK H PARENT 18 5 25 29 84 48 52 59
REMARK Flexibility Score: inf
ROOT
ATOM      1  C   UNL A   1      39.373  22.037  26.512  1.00  0.00     0.116 C 
ENDROOT
BRANCH   1   2
ATOM      2  N   UNL A   1      38.462  23.163  26.469  1.00  0.00    -0.356 N 
ATOM      3  C   UNL A   1      37.292  23.337  25.796  1.00  0.00     0.224 C 
ATOM      4  O   UNL A   1      36.679  24.390  25.991  1.00  0.00    -0.275 OA
ATOM      5  H   UNL A   1      38.736  23.932  27.020  1.00  0.00     0.163 HD
BRANCH   3   6
ATOM      6  C   UNL A   1      36.745  22.312  24.817  1.00  0.00     0.100 C 
ATOM      7  N   UNL A   1      34.584  22.460  23.810  1.00  0.00    -0.324 N 
ATOM      8  C   UNL A   1      34.623  21.189  24.524  1.00  0.00     0.122 C 
ATOM      9  C   UNL A   1      35.959  22.935  23.671  1.00  0.00     0.134 C 
ATOM     10  C   UNL A   1      35.817  21.287  25.463  1.00  0.00     0.037 C 
BRANCH   7  11
ATOM     11  C   UNL A   1      33.609  23.180  23.166  1.00  0.00     0.319 C 
ATOM     12  O   UNL A   1      33.678  23.280  21.933  1.00  0.00    -0.248 OA
BRANCH  11  13
ATOM     13  N   UNL A   1      32.575  23.809  23.826  1.00  0.00    -0.325 N 
ATOM     14  C   UNL A   1      31.219  23.440  23.417  1.00  0.00     0.148 C 
BRANCH  13  15
ATOM     15  C   UNL A   1      32.631  24.755  24.940  1.00  0.00     0.149 C 
BRANCH  15  16
ATOM     16  C   UNL A   1      31.952  24.262  26.228  1.00  0.00     0.181 C 
BRANCH  16  17
ATOM     17  O   UNL A   1      31.117  25.237  26.853  1.00  0.00    -0.379 OA
BRANCH  17  18
ATOM     18  C   UNL A   1      31.006  26.454  26.109  1.00  0.00     0.163 C 
BRANCH  18  19
ATOM     19  C   UNL A   1      31.427  27.646  26.909  1.00  0.00     0.015 C 
ATOM     20  C   UNL A   1      32.870  28.078  26.907  1.00  0.00     0.006 C 
ATOM     21  C   UNL A   1      31.821  28.968  26.300  1.00  0.00     0.006 C 
ENDBRANCH  18  19
ENDBRANCH  17  18
ENDBRANCH  16  17
ENDBRANCH  15  16
ENDBRANCH  13  15
ENDBRANCH  11  13
ENDBRANCH   7  11
ENDBRANCH   3   6
ENDBRANCH   1   2
BRANCH   1  22
ATOM     22  C   UNL A   1      40.620  22.317  27.342  1.00  0.00     0.021 C 
BRANCH  22  23
ATOM     23  C   UNL A   1      41.847  21.498  26.944  1.00  0.00     0.002 C 
BRANCH  23  24
ATOM     24  C   UNL A   1      41.974  20.135  27.629  1.00  0.00     0.002 C 
BRANCH  24  25
ATOM     25  C   UNL A   1      42.628  19.032  26.792  1.00  0.00     0.021 C 
BRANCH  25  26
ATOM     26  C   UNL A   1      42.599  19.260  25.283  1.00  0.00     0.116 C 
BRANCH  26  27
ATOM     27  N   UNL A   1      43.837  18.851  24.643  1.00  0.00    -0.352 N 
ATOM     28  C   UNL A   1      44.928  19.598  24.281  1.00  0.00     0.251 C 
ATOM     29  H   UNL A   1      43.903  17.890  24.438  1.00  0.00     0.163 HD
ATOM     30  O   UNL A   1      45.804  19.106  23.577  1.00  0.00    -0.269 OA
BRANCH  28  31
ATOM     31  C   UNL A   1      45.051  21.002  24.727  1.00  0.00     0.039 A 
ATOM     32  C   UNL A   1      45.477  21.254  26.034  1.00  0.00     0.014 A 
ATOM     33  C   UNL A   1      44.707  22.063  23.884  1.00  0.00     0.014 A 
ATOM     34  C   UNL A   1      45.600  22.571  26.482  1.00  0.00     0.010 A 
ATOM     35  C   UNL A   1      44.888  23.377  24.311  1.00  0.00     0.010 A 
ATOM     36  C   UNL A   1      45.328  23.642  25.616  1.00  0.00    -0.014 A 
BRANCH  36  37
ATOM     37  C   UNL A   1      45.488  25.046  26.070  1.00  0.00     0.031 A 
ATOM     38  C   UNL A   1      46.834  25.713  26.007  1.00  0.00     0.074 A 
ATOM     39  C   UNL A   1      44.433  25.700  26.592  1.00  0.00     0.049 A 
ATOM     40  N   UNL A   1      47.183  26.911  26.404  1.00  0.00    -0.248 NA
ATOM     41  C   UNL A   1      47.941  24.920  25.448  1.00  0.00     0.031 C 
ATOM     42  C   UNL A   1      43.090  25.141  26.755  1.00  0.00     0.029 A 
ATOM     43  N   UNL A   1      44.325  26.973  27.091  1.00  0.00    -0.354 N 
ATOM     44  C   UNL A   1      48.547  27.007  26.160  1.00  0.00     0.074 A 
ATOM     45  C   UNL A   1      48.972  25.734  25.621  1.00  0.00     0.031 C 
ATOM     46  C   UNL A   1      42.291  26.070  27.303  1.00  0.00     0.029 A 
ATOM     47  C   UNL A   1      43.070  27.278  27.555  1.00  0.00     0.049 A 
ATOM     48  H   UNL A   1      45.078  27.608  27.114  1.00  0.00     0.167 HD
ATOM     49  C   UNL A   1      49.364  28.070  26.350  1.00  0.00     0.037 A 
ATOM     50  C   UNL A   1      42.601  28.406  28.124  1.00  0.00     0.037 A 
ATOM     51  C   UNL A   1      48.929  29.348  26.848  1.00  0.00     0.049 A 
ATOM     52  C   UNL A   1      43.526  29.580  28.296  1.00  0.00     0.074 A 
ATOM     53  C   UNL A   1      49.666  30.511  27.001  1.00  0.00     0.029 A 
ATOM     54  N   UNL A   1      47.640  29.633  27.271  1.00  0.00    -0.354 N 
ATOM     55  N   UNL A   1      44.795  29.685  27.990  1.00  0.00    -0.248 NA
ATOM     56  C   UNL A   1      42.949  30.798  28.883  1.00  0.00     0.031 C 
ATOM     57  C   UNL A   1      48.831  31.487  27.553  1.00  0.00     0.029 A 
ATOM     58  C   UNL A   1      47.565  30.946  27.705  1.00  0.00     0.049 A 
ATOM     59  H   UNL A   1      46.890  28.996  27.265  1.00  0.00     0.167 HD
ATOM     60  C   UNL A   1      45.163  30.981  28.322  1.00  0.00     0.074 A 
ATOM     61  C   UNL A   1      43.978  31.632  28.839  1.00  0.00     0.031 C 
ATOM     62  C   UNL A   1      46.373  31.579  28.209  1.00  0.00     0.037 A 
BRANCH  49  63
ATOM     63  C   UNL A   1      50.816  27.903  26.014  1.00  0.00     0.064 A 
ATOM     64  C   UNL A   1      51.294  28.084  24.707  1.00  0.00     0.173 A 
ATOM     65  C   UNL A   1      51.751  27.613  27.020  1.00  0.00     0.173 A 
ATOM     66  F   UNL A   1      50.440  28.351  23.708  1.00  0.00    -0.203 F 
ATOM     67  C   UNL A   1      52.650  27.961  24.416  1.00  0.00     0.198 A 
ATOM     68  C   UNL A   1      53.109  27.517  26.731  1.00  0.00     0.198 A 
ATOM     69  F   UNL A   1      51.347  27.436  28.287  1.00  0.00    -0.203 F 
ATOM     70  F   UNL A   1      53.079  28.100  23.155  1.00  0.00    -0.200 F 
ATOM     71  C   UNL A   1      53.557  27.687  25.429  1.00  0.00     0.200 A 
ATOM     72  F   UNL A   1      53.985  27.264  27.712  1.00  0.00    -0.200 F 
ATOM     73  F   UNL A   1      54.864  27.580  25.149  1.00  0.00    -0.200 F 
ENDBRANCH  49  63
BRANCH  50  74
ATOM     74  C   UNL A   1      41.182  28.485  28.553  1.00  0.00     0.064 A 
ATOM     75  C   UNL A   1      40.795  28.089  29.841  1.00  0.00     0.173 A 
ATOM     76  C   UNL A   1      40.184  28.950  27.685  1.00  0.00     0.173 A 
ATOM     77  F   UNL A   1      41.712  27.618  30.699  1.00  0.00    -0.203 F 
ATOM     78  C   UNL A   1      39.461  28.132  30.236  1.00  0.00     0.198 A 
ATOM     79  C   UNL A   1      38.852  29.018  28.090  1.00  0.00     0.198 A 
ATOM     80  F   UNL A   1      40.504  29.346  26.445  1.00  0.00    -0.203 F 
ATOM     81  F   UNL A   1      39.111  27.702  31.457  1.00  0.00    -0.200 F 
ATOM     82  C   UNL A   1      38.490  28.601  29.362  1.00  0.00     0.200 A 
ATOM     83  F   UNL A   1      37.921  29.484  27.247  1.00  0.00    -0.200 F 
ATOM     84  F   UNL A   1      37.207  28.643  29.744  1.00  0.00    -0.200 F 
ENDBRANCH  50  74
BRANCH  62  85
ATOM     85  C   UNL A   1      46.472  33.017  28.627  1.00  0.00     0.064 A 
ATOM     86  C   UNL A   1      46.215  34.061  27.728  1.00  0.00     0.173 A 
ATOM     87  C   UNL A   1      46.787  33.350  29.953  1.00  0.00     0.173 A 
ATOM     88  F   UNL A   1      45.924  33.792  26.446  1.00  0.00    -0.203 F 
ATOM     89  C   UNL A   1      46.291  35.389  28.137  1.00  0.00     0.198 A 
ATOM     90  C   UNL A   1      46.835  34.678  30.364  1.00  0.00     0.198 A 
ATOM     91  F   UNL A   1      47.035  32.386  30.852  1.00  0.00    -0.203 F 
ATOM     92  F   UNL A   1      46.082  36.373  27.251  1.00  0.00    -0.200 F 
ATOM     93  C   UNL A   1      46.593  35.697  29.455  1.00  0.00     0.200 A 
ATOM     94  F   UNL A   1      47.116  34.973  31.641  1.00  0.00    -0.200 F 
ATOM     95  F   UNL A   1      46.659  36.976  29.848  1.00  0.00    -0.200 F 
ENDBRANCH  62  85
ENDBRANCH  36  37
ENDBRANCH  28  31
ENDBRANCH  26  27
ENDBRANCH  25  26
ENDBRANCH  24  25
ENDBRANCH  23  24
ENDBRANCH  22  23
ENDBRANCH   1  22
TORSDOF 20
ENDMDL
MODEL 2
REMARK VINA RESULT:      -9.8      0.993      2.297
REMARK SMILES CN(CCOCC1CC1)C(=O)N1CC[C@H](C(=O)NCCCCCCNC(=O)c2ccc(-c3c4nc(c(-c5c(F)c(F)c(F)c(F)c5F)c5ccc([nH]5)c(-c5c(F)c(F)c(F)c(F)c5F)c5nc(c(-c6c(F)c(F)c(F)c(F)c6F)c6ccc3[nH]6)C=C5)C=C4)cc2)C1
REMARK SMILES IDX 19 1 18 2 16 3 17 4 15 6 12 7 13 8 91 9 14 10 10 11 11 12
REMARK SMILES IDX 2 13 1 14 3 15 4 16 5 17 6 18 7 19 8 20 9 21 20 22 21 23
REMARK SMILES IDX 22 24 23 25 24 26 25 27 26 28 27 30 28 31 29 32 90 33 30 34
REMARK SMILES IDX 89 35 31 36 32 37 33 38 83 39 34 40 88 41 82 42 84 43 35 44
REMARK SMILES IDX 87 45 81 46 80 47 36 49 68 50 48 51 67 52 49 53 52 54 66 55
REMARK SMILES IDX 85 56 50 57 51 58 65 60 86 61 53 62 37 63 38 64 46 65 39 66
REMARK SMILES IDX 40 67 44 68 47 69 41 70 42 71 45 72 43 73 69 74 70 75 78 76
REMARK SMILES IDX 71 77 72 78 76 79 79 80 73 81 74 82 77 83 75 84 54 85 55 86
REMARK SMILES IDX 63 87 56 88 57 89 61 90 64 91 58 92 59 93 62 94 60 95
REMARK H PARENT 18 5 25 29 84 48 52 59
REMARK Flexibility Score: inf
ROOT
ATOM      1  C   UNL A   1      39.517  21.941  26.396  1.00  0.00     0.116 C 
ENDROOT
BRANCH   1   2
ATOM      2  N   UNL A   1      38.635  23.090  26.427  1.00  0.00    -0.356 N 
ATOM      3  C   UNL A   1      37.439  23.311  25.818  1.00  0.00     0.224 C 
ATOM      4  O   UNL A   1      36.864  24.374  26.070  1.00  0.00    -0.275 OA
ATOM      5  H   UNL A   1      38.956  23.837  26.983  1.00  0.00     0.163 HD
BRANCH   3   6
ATOM      6  C   UNL A   1      36.817  22.326  24.842  1.00  0.00     0.100 C 
ATOM      7  N   UNL A   1      34.812  22.756  23.618  1.00  0.00    -0.324 N 
ATOM      8  C   UNL A   1      34.573  21.546  24.395  1.00  0.00     0.122 C 
ATOM      9  C   UNL A   1      36.255  22.991  23.593  1.00  0.00     0.134 C 
ATOM     10  C   UNL A   1      35.676  21.511  25.442  1.00  0.00     0.037 C 
BRANCH   7  11
ATOM     11  C   UNL A   1      34.034  23.581  22.844  1.00  0.00     0.319 C 
ATOM     12  O   UNL A   1      33.665  23.163  21.738  1.00  0.00    -0.248 OA
BRANCH  11  13
ATOM     13  N   UNL A   1      33.664  24.851  23.231  1.00  0.00    -0.325 N 
ATOM     14  C   UNL A   1      33.644  25.114  24.672  1.00  0.00     0.148 C 
BRANCH  13  15
ATOM     15  C   UNL A   1      33.348  26.014  22.403  1.00  0.00     0.149 C 
BRANCH  15  16
ATOM     16  C   UNL A   1      33.024  27.291  23.197  1.00  0.00     0.181 C 
BRANCH  16  17
ATOM     17  O   UNL A   1      31.969  28.070  22.633  1.00  0.00    -0.379 OA
BRANCH  17  18
ATOM     18  C   UNL A   1      30.732  27.361  22.522  1.00  0.00     0.163 C 
BRANCH  18  19
ATOM     19  C   UNL A   1      29.989  27.312  23.819  1.00  0.00     0.015 C 
ATOM     20  C   UNL A   1      28.613  26.702  23.873  1.00  0.00     0.006 C 
ATOM     21  C   UNL A   1      29.752  26.045  24.603  1.00  0.00     0.006 C 
ENDBRANCH  18  19
ENDBRANCH  17  18
ENDBRANCH  16  17
ENDBRANCH  15  16
ENDBRANCH  13  15
ENDBRANCH  11  13
ENDBRANCH   7  11
ENDBRANCH   3   6
ENDBRANCH   1   2
BRANCH   1  22
ATOM     22  C   UNL A   1      40.638  22.028  27.425  1.00  0.00     0.021 C 
BRANCH  22  23
ATOM     23  C   UNL A   1      41.904  21.257  27.055  1.00  0.00     0.002 C 
BRANCH  23  24
ATOM     24  C   UNL A   1      42.038  19.875  27.699  1.00  0.00     0.002 C 
BRANCH  24  25
ATOM     25  C   UNL A   1      42.600  18.774  26.792  1.00  0.00     0.021 C 
BRANCH  25  26
ATOM     26  C   UNL A   1      42.650  19.121  25.307  1.00  0.00     0.116 C 
BRANCH  26  27
ATOM     27  N   UNL A   1      43.898  18.709  24.690  1.00  0.00    -0.352 N 
ATOM     28  C   UNL A   1      44.988  19.457  24.328  1.00  0.00     0.251 C 
ATOM     29  H   UNL A   1      43.973  17.746  24.502  1.00  0.00     0.163 HD
ATOM     30  O   UNL A   1      45.876  18.959  23.643  1.00  0.00    -0.269 OA
BRANCH  28  31
ATOM     31  C   UNL A   1      45.097  20.870  24.750  1.00  0.00     0.039 A 
ATOM     32  C   UNL A   1      45.493  21.147  26.061  1.00  0.00     0.014 A 
ATOM     33  C   UNL A   1      44.767  21.914  23.881  1.00  0.00     0.014 A 
ATOM     34  C   UNL A   1      45.603  22.472  26.487  1.00  0.00     0.010 A 
ATOM     35  C   UNL A   1      44.934  23.236  24.287  1.00  0.00     0.010 A 
ATOM     36  C   UNL A   1      45.345  23.527  25.597  1.00  0.00    -0.014 A 
BRANCH  36  37
ATOM     37  C   UNL A   1      45.491  24.939  26.029  1.00  0.00     0.031 A 
ATOM     38  C   UNL A   1      46.830  25.618  25.956  1.00  0.00     0.074 A 
ATOM     39  C   UNL A   1      44.428  25.591  26.539  1.00  0.00     0.049 A 
ATOM     40  N   UNL A   1      47.166  26.826  26.334  1.00  0.00    -0.248 NA
ATOM     41  C   UNL A   1      47.945  24.828  25.411  1.00  0.00     0.031 C 
ATOM     42  C   UNL A   1      43.090  25.021  26.708  1.00  0.00     0.029 A 
ATOM     43  N   UNL A   1      44.307  26.871  27.017  1.00  0.00    -0.354 N 
ATOM     44  C   UNL A   1      48.530  26.932  26.090  1.00  0.00     0.074 A 
ATOM     45  C   UNL A   1      48.968  25.655  25.573  1.00  0.00     0.031 C 
ATOM     46  C   UNL A   1      42.281  25.951  27.241  1.00  0.00     0.029 A 
ATOM     47  C   UNL A   1      43.048  27.171  27.475  1.00  0.00     0.049 A 
ATOM     48  H   UNL A   1      45.053  27.514  27.030  1.00  0.00     0.167 HD
ATOM     49  C   UNL A   1      49.336  28.006  26.264  1.00  0.00     0.037 A 
ATOM     50  C   UNL A   1      42.568  28.303  28.025  1.00  0.00     0.037 A 
ATOM     51  C   UNL A   1      48.887  29.288  26.741  1.00  0.00     0.049 A 
ATOM     52  C   UNL A   1      43.480  29.489  28.179  1.00  0.00     0.074 A 
ATOM     53  C   UNL A   1      49.612  30.460  26.876  1.00  0.00     0.029 A 
ATOM     54  N   UNL A   1      47.595  29.566  27.158  1.00  0.00    -0.354 N 
ATOM     55  N   UNL A   1      44.749  29.601  27.873  1.00  0.00    -0.248 NA
ATOM     56  C   UNL A   1      42.890  30.709  28.746  1.00  0.00     0.031 C 
ATOM     57  C   UNL A   1      48.767  31.436  27.412  1.00  0.00     0.029 A 
ATOM     58  C   UNL A   1      47.505  30.885  27.571  1.00  0.00     0.049 A 
ATOM     59  H   UNL A   1      46.851  28.921  27.161  1.00  0.00     0.167 HD
ATOM     60  C   UNL A   1      45.103  30.906  28.184  1.00  0.00     0.074 A 
ATOM     61  C   UNL A   1      43.910  31.553  28.690  1.00  0.00     0.031 C 
ATOM     62  C   UNL A   1      46.307  31.514  28.063  1.00  0.00     0.037 A 
BRANCH  49  63
ATOM     63  C   UNL A   1      50.790  27.848  25.932  1.00  0.00     0.064 A 
ATOM     64  C   UNL A   1      51.743  27.560  26.921  1.00  0.00     0.173 A 
ATOM     65  C   UNL A   1      51.229  27.929  24.602  1.00  0.00     0.173 A 
ATOM     66  F   UNL A   1      51.375  27.483  28.209  1.00  0.00    -0.203 F 
ATOM     67  C   UNL A   1      53.084  27.381  26.594  1.00  0.00     0.198 A 
ATOM     68  C   UNL A   1      52.566  27.723  24.274  1.00  0.00     0.198 A 
ATOM     69  F   UNL A   1      50.358  28.196  23.618  1.00  0.00    -0.203 F 
ATOM     70  F   UNL A   1      53.982  27.145  27.559  1.00  0.00    -0.200 F 
ATOM     71  C   UNL A   1      53.492  27.453  25.270  1.00  0.00     0.200 A 
ATOM     72  F   UNL A   1      52.958  27.782  22.994  1.00  0.00    -0.200 F 
ATOM     73  F   UNL A   1      54.783  27.269  24.955  1.00  0.00    -0.200 F 
ENDBRANCH  49  63
BRANCH  50  74
ATOM     74  C   UNL A   1      41.147  28.374  28.451  1.00  0.00     0.064 A 
ATOM     75  C   UNL A   1      40.162  28.885  27.593  1.00  0.00     0.173 A 
ATOM     76  C   UNL A   1      40.745  27.943  29.723  1.00  0.00     0.173 A 
ATOM     77  F   UNL A   1      40.502  29.329  26.374  1.00  0.00    -0.203 F 
ATOM     78  C   UNL A   1      38.834  28.983  28.001  1.00  0.00     0.198 A 
ATOM     79  C   UNL A   1      39.412  28.016  30.121  1.00  0.00     0.198 A 
ATOM     80  F   UNL A   1      41.649  27.442  30.578  1.00  0.00    -0.203 F 
ATOM     81  F   UNL A   1      37.921  29.519  27.179  1.00  0.00    -0.200 F 
ATOM     82  C   UNL A   1      38.458  28.544  29.262  1.00  0.00     0.200 A 
ATOM     83  F   UNL A   1      39.052  27.580  31.335  1.00  0.00    -0.200 F 
ATOM     84  F   UNL A   1      37.181  28.638  29.653  1.00  0.00    -0.200 F 
ENDBRANCH  50  74
BRANCH  62  85
ATOM     85  C   UNL A   1      46.391  32.959  28.458  1.00  0.00     0.064 A 
ATOM     86  C   UNL A   1      46.738  33.344  29.761  1.00  0.00     0.173 A 
ATOM     87  C   UNL A   1      46.161  33.968  27.510  1.00  0.00     0.173 A 
ATOM     88  F   UNL A   1      46.953  32.416  30.705  1.00  0.00    -0.203 F 
ATOM     89  C   UNL A   1      46.830  34.690  30.106  1.00  0.00     0.198 A 
ATOM     90  C   UNL A   1      46.281  35.312  27.853  1.00  0.00     0.198 A 
ATOM     91  F   UNL A   1      45.831  33.650  26.250  1.00  0.00    -0.203 F 
ATOM     92  F   UNL A   1      47.123  35.036  31.367  1.00  0.00    -0.200 F 
ATOM     93  C   UNL A   1      46.610  35.672  29.151  1.00  0.00     0.200 A 
ATOM     94  F   UNL A   1      46.079  36.259  26.926  1.00  0.00    -0.200 F 
ATOM     95  F   UNL A   1      46.707  36.966  29.484  1.00  0.00    -0.200 F 
ENDBRANCH  62  85
ENDBRANCH  36  37
ENDBRANCH  28  31
ENDBRANCH  26  27
ENDBRANCH  25  26
ENDBRANCH  24  25
ENDBRANCH  23  24
ENDBRANCH  22  23
ENDBRANCH   1  22
TORSDOF 20
ENDMDL
MODEL 3
REMARK VINA RESULT:      -9.8      3.831      6.125
REMARK SMILES CN(CCOCC1CC1)C(=O)N1CC[C@H](C(=O)NCCCCCCNC(=O)c2ccc(-c3c4nc(c(-c5c(F)c(F)c(F)c(F)c5F)c5ccc([nH]5)c(-c5c(F)c(F)c(F)c(F)c5F)c5nc(c(-c6c(F)c(F)c(F)c(F)c6F)c6ccc3[nH]6)C=C5)C=C4)cc2)C1
REMARK SMILES IDX 19 1 18 2 16 3 17 4 15 6 12 7 13 8 91 9 14 10 10 11 11 12
REMARK SMILES IDX 2 13 1 14 3 15 4 16 5 17 6 18 7 19 8 20 9 21 20 22 21 23
REMARK SMILES IDX 22 24 23 25 24 26 25 27 26 28 27 30 28 31 29 32 90 33 30 34
REMARK SMILES IDX 89 35 31 36 32 37 33 38 83 39 34 40 88 41 82 42 84 43 35 44
REMARK SMILES IDX 87 45 81 46 80 47 36 49 68 50 48 51 67 52 49 53 52 54 66 55
REMARK SMILES IDX 85 56 50 57 51 58 65 60 86 61 53 62 37 63 38 64 46 65 39 66
REMARK SMILES IDX 40 67 44 68 47 69 41 70 42 71 45 72 43 73 69 74 70 75 78 76
REMARK SMILES IDX 71 77 72 78 76 79 79 80 73 81 74 82 77 83 75 84 54 85 55 86
REMARK SMILES IDX 63 87 56 88 57 89 61 90 64 91 58 92 59 93 62 94 60 95
REMARK H PARENT 18 5 25 29 84 48 52 59
REMARK Flexibility Score: inf
ROOT
ATOM      1  C   UNL A   1      33.232  22.191  27.007  1.00  0.00     0.116 C 
ENDROOT
BRANCH   1   2
ATOM      2  N   UNL A   1      31.860  22.606  27.224  1.00  0.00    -0.356 N 
ATOM      3  C   UNL A   1      31.161  23.664  26.731  1.00  0.00     0.224 C 
ATOM      4  O   UNL A   1      29.968  23.747  27.038  1.00  0.00    -0.275 OA
ATOM      5  H   UNL A   1      31.349  22.025  27.832  1.00  0.00     0.163 HD
BRANCH   3   6
ATOM      6  C   UNL A   1      31.794  24.734  25.856  1.00  0.00     0.100 C 
ATOM      7  N   UNL A   1      30.589  26.003  24.231  1.00  0.00    -0.324 N 
ATOM      8  C   UNL A   1      31.664  25.326  23.515  1.00  0.00     0.122 C 
ATOM      9  C   UNL A   1      30.903  25.953  25.658  1.00  0.00     0.134 C 
ATOM     10  C   UNL A   1      32.160  24.240  24.460  1.00  0.00     0.037 C 
BRANCH   7  11
ATOM     11  C   UNL A   1      29.495  26.745  23.861  1.00  0.00     0.319 C 
ATOM     12  O   UNL A   1      28.372  26.315  24.160  1.00  0.00    -0.248 OA
BRANCH  11  13
ATOM     13  N   UNL A   1      29.587  27.927  23.158  1.00  0.00    -0.325 N 
ATOM     14  C   UNL A   1      28.352  28.702  23.019  1.00  0.00     0.148 C 
BRANCH  13  15
ATOM     15  C   UNL A   1      30.767  28.567  22.578  1.00  0.00     0.149 C 
BRANCH  15  16
ATOM     16  C   UNL A   1      31.775  29.098  23.612  1.00  0.00     0.181 C 
BRANCH  16  17
ATOM     17  O   UNL A   1      31.184  29.473  24.856  1.00  0.00    -0.379 OA
BRANCH  17  18
ATOM     18  C   UNL A   1      32.140  29.804  25.867  1.00  0.00     0.163 C 
BRANCH  18  19
ATOM     19  C   UNL A   1      33.448  29.107  25.658  1.00  0.00     0.015 C 
ATOM     20  C   UNL A   1      34.507  29.165  26.726  1.00  0.00     0.006 C 
ATOM     21  C   UNL A   1      33.856  27.853  26.387  1.00  0.00     0.006 C 
ENDBRANCH  18  19
ENDBRANCH  17  18
ENDBRANCH  16  17
ENDBRANCH  15  16
ENDBRANCH  13  15
ENDBRANCH  11  13
ENDBRANCH   7  11
ENDBRANCH   3   6
ENDBRANCH   1   2
BRANCH   1  22
ATOM     22  C   UNL A   1      33.344  20.983  26.085  1.00  0.00     0.021 C 
BRANCH  22  23
ATOM     23  C   UNL A   1      33.874  21.296  24.687  1.00  0.00     0.002 C 
BRANCH  23  24
ATOM     24  C   UNL A   1      35.373  21.601  24.609  1.00  0.00     0.002 C 
BRANCH  24  25
ATOM     25  C   UNL A   1      35.744  23.087  24.580  1.00  0.00     0.021 C 
BRANCH  25  26
ATOM     26  C   UNL A   1      36.683  23.543  25.694  1.00  0.00     0.116 C 
BRANCH  26  27
ATOM     27  N   UNL A   1      37.739  22.579  25.949  1.00  0.00    -0.352 N 
ATOM     28  C   UNL A   1      39.018  22.776  26.402  1.00  0.00     0.251 C 
ATOM     29  H   UNL A   1      37.501  21.641  25.769  1.00  0.00     0.163 HD
ATOM     30  O   UNL A   1      39.828  21.856  26.375  1.00  0.00    -0.269 OA
BRANCH  28  31
ATOM     31  C   UNL A   1      39.431  24.099  26.917  1.00  0.00     0.039 A 
ATOM     32  C   UNL A   1      39.176  24.406  28.256  1.00  0.00     0.014 A 
ATOM     33  C   UNL A   1      40.023  25.050  26.079  1.00  0.00     0.014 A 
ATOM     34  C   UNL A   1      39.554  25.648  28.768  1.00  0.00     0.010 A 
ATOM     35  C   UNL A   1      40.455  26.266  26.605  1.00  0.00     0.010 A 
ATOM     36  C   UNL A   1      40.216  26.579  27.951  1.00  0.00    -0.014 A 
BRANCH  36  37
ATOM     37  C   UNL A   1      40.653  27.890  28.493  1.00  0.00     0.031 A 
ATOM     38  C   UNL A   1      42.096  28.120  28.845  1.00  0.00     0.074 A 
ATOM     39  C   UNL A   1      39.739  28.853  28.719  1.00  0.00     0.049 A 
ATOM     40  N   UNL A   1      42.660  29.175  29.377  1.00  0.00    -0.248 NA
ATOM     41  C   UNL A   1      43.026  27.007  28.591  1.00  0.00     0.031 C 
ATOM     42  C   UNL A   1      38.303  28.730  28.468  1.00  0.00     0.029 A 
ATOM     43  N   UNL A   1      39.881  30.122  29.222  1.00  0.00    -0.354 N 
ATOM     44  C   UNL A   1      44.000  28.848  29.536  1.00  0.00     0.074 A 
ATOM     45  C   UNL A   1      44.159  27.483  29.086  1.00  0.00     0.031 C 
ATOM     46  C   UNL A   1      37.697  29.879  28.805  1.00  0.00     0.029 A 
ATOM     47  C   UNL A   1      38.697  30.809  29.322  1.00  0.00     0.049 A 
ATOM     48  H   UNL A   1      40.750  30.503  29.486  1.00  0.00     0.167 HD
ATOM     49  C   UNL A   1      45.009  29.625  29.997  1.00  0.00     0.037 A 
ATOM     50  C   UNL A   1      38.446  32.051  29.782  1.00  0.00     0.037 A 
ATOM     51  C   UNL A   1      44.853  30.997  30.406  1.00  0.00     0.049 A 
ATOM     52  C   UNL A   1      39.591  32.901  30.261  1.00  0.00     0.074 A 
ATOM     53  C   UNL A   1      45.829  31.891  30.813  1.00  0.00     0.029 A 
ATOM     54  N   UNL A   1      43.644  31.673  30.456  1.00  0.00    -0.354 N 
ATOM     55  N   UNL A   1      40.865  32.607  30.335  1.00  0.00    -0.248 NA
ATOM     56  C   UNL A   1      39.263  34.261  30.711  1.00  0.00     0.031 C 
ATOM     57  C   UNL A   1      45.204  33.097  31.146  1.00  0.00     0.029 A 
ATOM     58  C   UNL A   1      43.846  32.967  30.907  1.00  0.00     0.049 A 
ATOM     59  H   UNL A   1      42.772  31.290  30.208  1.00  0.00     0.167 HD
ATOM     60  C   UNL A   1      41.494  33.747  30.813  1.00  0.00     0.074 A 
ATOM     61  C   UNL A   1      40.462  34.746  30.999  1.00  0.00     0.031 C 
ATOM     62  C   UNL A   1      42.807  33.950  31.077  1.00  0.00     0.037 A 
BRANCH  49  63
ATOM     63  C   UNL A   1      46.376  29.016  30.083  1.00  0.00     0.064 A 
ATOM     64  C   UNL A   1      47.272  29.064  29.003  1.00  0.00     0.173 A 
ATOM     65  C   UNL A   1      46.820  28.426  31.276  1.00  0.00     0.173 A 
ATOM     66  F   UNL A   1      46.892  29.608  27.837  1.00  0.00    -0.203 F 
ATOM     67  C   UNL A   1      48.551  28.526  29.108  1.00  0.00     0.198 A 
ATOM     68  C   UNL A   1      48.109  27.913  31.387  1.00  0.00     0.198 A 
ATOM     69  F   UNL A   1      46.006  28.359  32.340  1.00  0.00    -0.203 F 
ATOM     70  F   UNL A   1      49.375  28.550  28.052  1.00  0.00    -0.200 F 
ATOM     71  C   UNL A   1      48.972  27.960  30.302  1.00  0.00     0.200 A 
ATOM     72  F   UNL A   1      48.518  27.376  32.545  1.00  0.00    -0.200 F 
ATOM     73  F   UNL A   1      50.208  27.452  30.406  1.00  0.00    -0.200 F 
ENDBRANCH  49  63
BRANCH  50  74
ATOM     74  C   UNL A   1      37.056  32.570  29.791  1.00  0.00     0.064 A 
ATOM     75  C   UNL A   1      36.552  33.303  28.706  1.00  0.00     0.173 A 
ATOM     76  C   UNL A   1      36.204  32.354  30.884  1.00  0.00     0.173 A 
ATOM     77  F   UNL A   1      37.336  33.553  27.648  1.00  0.00    -0.203 F 
ATOM     78  C   UNL A   1      35.259  33.819  28.725  1.00  0.00     0.198 A 
ATOM     79  C   UNL A   1      34.901  32.847  30.890  1.00  0.00     0.198 A 
ATOM     80  F   UNL A   1      36.636  31.655  31.943  1.00  0.00    -0.203 F 
ATOM     81  F   UNL A   1      34.819  34.556  27.695  1.00  0.00    -0.200 F 
ATOM     82  C   UNL A   1      34.432  33.587  29.814  1.00  0.00     0.200 A 
ATOM     83  F   UNL A   1      34.102  32.610  31.939  1.00  0.00    -0.200 F 
ATOM     84  F   UNL A   1      33.188  34.083  29.831  1.00  0.00    -0.200 F 
ENDBRANCH  50  74
BRANCH  62  85
ATOM     85  C   UNL A   1      43.208  35.310  31.568  1.00  0.00     0.064 A 
ATOM     86  C   UNL A   1      43.177  35.636  32.931  1.00  0.00     0.173 A 
ATOM     87  C   UNL A   1      43.668  36.282  30.666  1.00  0.00     0.173 A 
ATOM     88  F   UNL A   1      42.732  34.744  33.828  1.00  0.00    -0.203 F 
ATOM     89  C   UNL A   1      43.572  36.896  33.372  1.00  0.00     0.198 A 
ATOM     90  C   UNL A   1      44.087  37.531  31.114  1.00  0.00     0.198 A 
ATOM     91  F   UNL A   1      43.722  36.015  29.353  1.00  0.00    -0.203 F 
ATOM     92  F   UNL A   1      43.495  37.201  34.675  1.00  0.00    -0.200 F 
ATOM     93  C   UNL A   1      44.033  37.839  32.466  1.00  0.00     0.200 A 
ATOM     94  F   UNL A   1      44.544  38.437  30.239  1.00  0.00    -0.200 F 
ATOM     95  F   UNL A   1      44.420  39.048  32.894  1.00  0.00    -0.200 F 
ENDBRANCH  62  85
ENDBRANCH  36  37
ENDBRANCH  28  31
ENDBRANCH  26  27
ENDBRANCH  25  26
ENDBRANCH  24  25
ENDBRANCH  23  24
ENDBRANCH  22  23
ENDBRANCH   1  22
TORSDOF 20
ENDMDL
