MODEL 1
REMARK VINA RESULT:     -12.1      0.000      0.000
REMARK SMILES COc1cccc([C@H]2C=C(C(=O)NCCCCCCNC(=O)c3ccc(-c4c5nc(c(-c6c(F)c(F)c(F)c(F)c6F)c6ccc([nH]6)c(-c6c(F)c(F)c(F)c(F)c6F)c6nc(c(-c7c(F)c(F)c(F)c(F)c7F)c7ccc4[nH]7)C=C6)C=C5)cc3)Nc3nnnn32)c1OC
REMARK SMILES IDX 16 1 15 2 14 3 13 4 11 5 12 6 10 8 8 9 9 10 91 11 87 12
REMARK SMILES IDX 90 13 86 14 88 15 89 16 7 18 3 19 4 20 92 21 5 22 6 23 2 24
REMARK SMILES IDX 1 25 93 26 94 27 17 28 18 29 19 30 20 31 21 32 22 34 23 35
REMARK SMILES IDX 24 36 85 37 25 38 84 39 26 40 27 41 28 42 78 43 29 44 83 45
REMARK SMILES IDX 77 46 79 47 30 48 82 49 76 50 75 51 31 53 63 54 43 55 62 56
REMARK SMILES IDX 44 57 47 58 61 59 80 60 45 61 46 62 60 64 81 65 48 66 32 67
REMARK SMILES IDX 33 68 41 69 34 70 35 71 39 72 42 73 36 74 37 75 40 76 38 77
REMARK SMILES IDX 64 78 65 79 73 80 66 81 67 82 71 83 74 84 68 85 69 86 72 87
REMARK SMILES IDX 70 88 49 89 50 90 58 91 51 92 52 93 56 94 59 95 53 96 54 97
REMARK SMILES IDX 57 98 55 99
REMARK H PARENT 13 7 86 17 20 33 79 52 47 63
REMARK Flexibility Score: inf
ROOT
ATOM      1  C   UNL A   1      34.027  30.096  27.291  1.00  0.00     0.002 C 
ENDROOT
BRANCH   1   2
ATOM      2  C   UNL A   1      32.566  29.675  27.147  1.00  0.00     0.021 C 
BRANCH   2   3
ATOM      3  C   UNL A   1      31.898  29.997  25.818  1.00  0.00     0.116 C 
BRANCH   3   4
ATOM      4  N   UNL A   1      32.713  29.716  24.655  1.00  0.00    -0.351 N 
ATOM      5  C   UNL A   1      33.186  28.537  24.157  1.00  0.00     0.267 C 
ATOM      6  O   UNL A   1      33.917  28.563  23.164  1.00  0.00    -0.268 OA
ATOM      7  H   UNL A   1      32.970  30.511  24.134  1.00  0.00     0.163 HD
BRANCH   5   8
ATOM      8  C   UNL A   1      32.925  27.213  24.832  1.00  0.00     0.105 C 
ATOM      9  C   UNL A   1      33.514  25.184  26.162  1.00  0.00     0.172 C 
ATOM     10  C   UNL A   1      33.789  26.600  25.667  1.00  0.00     0.037 C 
ATOM     11  N   UNL A   1      32.071  24.978  26.205  1.00  0.00    -0.200 N 
ATOM     12  C   UNL A   1      31.182  25.678  25.432  1.00  0.00     0.248 A 
ATOM     13  N   UNL A   1      31.419  24.202  27.087  1.00  0.00    -0.043 NA
ATOM     14  N   UNL A   1      31.650  26.677  24.654  1.00  0.00    -0.319 N 
ATOM     15  N   UNL A   1      29.979  25.233  25.706  1.00  0.00    -0.090 NA
ATOM     16  N   UNL A   1      30.141  24.316  26.733  1.00  0.00    -0.022 NA
ATOM     17  H   UNL A   1      31.073  27.038  23.941  1.00  0.00     0.170 HD
BRANCH   9  18
ATOM     18  C   UNL A   1      34.315  24.149  25.326  1.00  0.00     0.027 A 
ATOM     19  C   UNL A   1      35.886  22.293  25.042  1.00  0.00     0.161 A 
ATOM     20  C   UNL A   1      35.903  22.499  23.660  1.00  0.00     0.050 A 
ATOM     21  C   UNL A   1      35.054  23.068  25.872  1.00  0.00     0.166 A 
ATOM     22  C   UNL A   1      35.115  23.497  23.097  1.00  0.00     0.004 A 
ATOM     23  C   UNL A   1      34.364  24.336  23.922  1.00  0.00     0.010 A 
BRANCH  19  24
ATOM     24  O   UNL A   1      36.831  21.449  25.562  1.00  0.00    -0.493 OA
ATOM     25  C   UNL A   1      38.084  22.081  25.801  1.00  0.00     0.278 C 
ENDBRANCH  19  24
BRANCH  21  26
ATOM     26  O   UNL A   1      34.813  22.812  27.188  1.00  0.00    -0.492 OA
ATOM     27  C   UNL A   1      34.013  21.719  27.599  1.00  0.00     0.278 C 
ENDBRANCH  21  26
ENDBRANCH   9  18
ENDBRANCH   5   8
ENDBRANCH   3   4
ENDBRANCH   2   3
ENDBRANCH   1   2
BRANCH   1  28
ATOM     28  C   UNL A   1      34.288  31.391  28.061  1.00  0.00     0.002 C 
BRANCH  28  29
ATOM     29  C   UNL A   1      33.866  32.690  27.371  1.00  0.00     0.021 C 
BRANCH  29  30
ATOM     30  C   UNL A   1      32.473  33.202  27.714  1.00  0.00     0.116 C 
BRANCH  30  31
ATOM     31  N   UNL A   1      32.446  34.628  27.984  1.00  0.00    -0.352 N 
ATOM     32  C   UNL A   1      33.209  35.365  28.852  1.00  0.00     0.251 C 
ATOM     33  H   UNL A   1      31.782  35.141  27.469  1.00  0.00     0.163 HD
ATOM     34  O   UNL A   1      32.941  36.550  29.055  1.00  0.00    -0.269 OA
BRANCH  32  35
ATOM     35  C   UNL A   1      34.340  34.740  29.569  1.00  0.00     0.039 A 
ATOM     36  C   UNL A   1      34.088  34.062  30.765  1.00  0.00     0.014 A 
ATOM     37  C   UNL A   1      35.646  34.830  29.078  1.00  0.00     0.014 A 
ATOM     38  C   UNL A   1      35.134  33.431  31.440  1.00  0.00     0.010 A 
ATOM     39  C   UNL A   1      36.674  34.134  29.709  1.00  0.00     0.010 A 
ATOM     40  C   UNL A   1      36.431  33.437  30.902  1.00  0.00    -0.014 A 
BRANCH  40  41
ATOM     41  C   UNL A   1      37.548  32.733  31.582  1.00  0.00     0.031 A 
ATOM     42  C   UNL A   1      38.215  31.559  30.923  1.00  0.00     0.074 A 
ATOM     43  C   UNL A   1      37.928  33.119  32.815  1.00  0.00     0.049 A 
ATOM     44  N   UNL A   1      39.170  30.784  31.375  1.00  0.00    -0.248 NA
ATOM     45  C   UNL A   1      37.724  31.189  29.587  1.00  0.00     0.031 C 
ATOM     46  C   UNL A   1      37.338  34.221  33.576  1.00  0.00     0.029 A 
ATOM     47  N   UNL A   1      38.900  32.624  33.648  1.00  0.00    -0.354 N 
ATOM     48  C   UNL A   1      39.386  29.834  30.384  1.00  0.00     0.074 A 
ATOM     49  C   UNL A   1      38.417  30.088  29.340  1.00  0.00     0.031 C 
ATOM     50  C   UNL A   1      37.983  34.342  34.747  1.00  0.00     0.029 A 
ATOM     51  C   UNL A   1      39.004  33.302  34.838  1.00  0.00     0.049 A 
ATOM     52  H   UNL A   1      39.470  31.855  33.414  1.00  0.00     0.167 HD
ATOM     53  C   UNL A   1      40.323  28.858  30.335  1.00  0.00     0.037 A 
ATOM     54  C   UNL A   1      39.830  33.105  35.883  1.00  0.00     0.037 A 
ATOM     55  C   UNL A   1      41.292  28.616  31.373  1.00  0.00     0.049 A 
ATOM     56  C   UNL A   1      40.839  31.991  35.823  1.00  0.00     0.074 A 
ATOM     57  C   UNL A   1      42.309  27.678  31.405  1.00  0.00     0.029 A 
ATOM     58  N   UNL A   1      41.359  29.318  32.569  1.00  0.00    -0.354 N 
ATOM     59  N   UNL A   1      41.073  31.135  34.857  1.00  0.00    -0.248 NA
ATOM     60  C   UNL A   1      41.701  31.818  37.000  1.00  0.00     0.031 C 
ATOM     61  C   UNL A   1      42.959  27.779  32.641  1.00  0.00     0.029 A 
ATOM     62  C   UNL A   1      42.385  28.818  33.355  1.00  0.00     0.049 A 
ATOM     63  H   UNL A   1      40.766  30.062  32.820  1.00  0.00     0.167 HD
ATOM     64  C   UNL A   1      42.131  30.349  35.292  1.00  0.00     0.074 A 
ATOM     65  C   UNL A   1      42.499  30.835  36.606  1.00  0.00     0.031 C 
ATOM     66  C   UNL A   1      42.745  29.318  34.659  1.00  0.00     0.037 A 
BRANCH  53  67
ATOM     67  C   UNL A   1      40.336  27.979  29.116  1.00  0.00     0.064 A 
ATOM     68  C   UNL A   1      39.592  26.789  29.057  1.00  0.00     0.173 A 
ATOM     69  C   UNL A   1      41.101  28.327  27.992  1.00  0.00     0.173 A 
ATOM     70  F   UNL A   1      38.853  26.402  30.107  1.00  0.00    -0.203 F 
ATOM     71  C   UNL A   1      39.652  25.959  27.940  1.00  0.00     0.198 A 
ATOM     72  C   UNL A   1      41.130  27.512  26.863  1.00  0.00     0.198 A 
ATOM     73  F   UNL A   1      41.826  29.454  27.990  1.00  0.00    -0.203 F 
ATOM     74  F   UNL A   1      38.990  24.793  27.939  1.00  0.00    -0.200 F 
ATOM     75  C   UNL A   1      40.417  26.323  26.844  1.00  0.00     0.200 A 
ATOM     76  F   UNL A   1      41.858  27.872  25.798  1.00  0.00    -0.200 F 
ATOM     77  F   UNL A   1      40.477  25.521  25.772  1.00  0.00    -0.200 F 
ENDBRANCH  53  67
BRANCH  54  78
ATOM     78  C   UNL A   1      39.770  34.016  37.056  1.00  0.00     0.064 A 
ATOM     79  C   UNL A   1      40.529  35.194  37.086  1.00  0.00     0.173 A 
ATOM     80  C   UNL A   1      38.956  33.737  38.162  1.00  0.00     0.173 A 
ATOM     81  F   UNL A   1      41.339  35.493  36.059  1.00  0.00    -0.203 F 
ATOM     82  C   UNL A   1      40.489  36.050  38.183  1.00  0.00     0.198 A 
ATOM     83  C   UNL A   1      38.894  34.608  39.248  1.00  0.00     0.198 A 
ATOM     84  F   UNL A   1      38.204  32.625  38.181  1.00  0.00    -0.203 F 
ATOM     85  F   UNL A   1      41.255  37.149  38.202  1.00  0.00    -0.200 F 
ATOM     86  C   UNL A   1      39.665  35.760  39.261  1.00  0.00     0.200 A 
ATOM     87  F   UNL A   1      38.085  34.333  40.280  1.00  0.00    -0.200 F 
ATOM     88  F   UNL A   1      39.620  36.588  40.314  1.00  0.00    -0.200 F 
ENDBRANCH  54  78
BRANCH  66  89
ATOM     89  C   UNL A   1      43.911  28.677  35.357  1.00  0.00     0.064 A 
ATOM     90  C   UNL A   1      45.228  29.114  35.152  1.00  0.00     0.173 A 
ATOM     91  C   UNL A   1      43.701  27.632  36.271  1.00  0.00     0.173 A 
ATOM     92  F   UNL A   1      45.485  30.099  34.277  1.00  0.00    -0.203 F 
ATOM     93  C   UNL A   1      46.293  28.509  35.813  1.00  0.00     0.198 A 
ATOM     94  C   UNL A   1      44.765  27.053  36.955  1.00  0.00     0.198 A 
ATOM     95  F   UNL A   1      42.460  27.181  36.508  1.00  0.00    -0.203 F 
ATOM     96  F   UNL A   1      47.549  28.906  35.563  1.00  0.00    -0.200 F 
ATOM     97  C   UNL A   1      46.061  27.484  36.719  1.00  0.00     0.200 A 
ATOM     98  F   UNL A   1      44.536  26.073  37.841  1.00  0.00    -0.200 F 
ATOM     99  F   UNL A   1      47.088  26.908  37.360  1.00  0.00    -0.200 F 
ENDBRANCH  66  89
ENDBRANCH  40  41
ENDBRANCH  32  35
ENDBRANCH  30  31
ENDBRANCH  29  30
ENDBRANCH  28  29
ENDBRANCH   1  28
TORSDOF 16
ENDMDL
MODEL 2
REMARK VINA RESULT:     -12.0      0.431      7.128
REMARK SMILES COc1cccc([C@H]2C=C(C(=O)NCCCCCCNC(=O)c3ccc(-c4c5nc(c(-c6c(F)c(F)c(F)c(F)c6F)c6ccc([nH]6)c(-c6c(F)c(F)c(F)c(F)c6F)c6nc(c(-c7c(F)c(F)c(F)c(F)c7F)c7ccc4[nH]7)C=C6)C=C5)cc3)Nc3nnnn32)c1OC
REMARK SMILES IDX 16 1 15 2 14 3 13 4 11 5 12 6 10 8 8 9 9 10 91 11 87 12
REMARK SMILES IDX 90 13 86 14 88 15 89 16 7 18 3 19 4 20 92 21 5 22 6 23 2 24
REMARK SMILES IDX 1 25 93 26 94 27 17 28 18 29 19 30 20 31 21 32 22 34 23 35
REMARK SMILES IDX 24 36 85 37 25 38 84 39 26 40 27 41 28 42 78 43 29 44 83 45
REMARK SMILES IDX 77 46 79 47 30 48 82 49 76 50 75 51 31 53 63 54 43 55 62 56
REMARK SMILES IDX 44 57 47 58 61 59 80 60 45 61 46 62 60 64 81 65 48 66 32 67
REMARK SMILES IDX 33 68 41 69 34 70 35 71 39 72 42 73 36 74 37 75 40 76 38 77
REMARK SMILES IDX 64 78 65 79 73 80 66 81 67 82 71 83 74 84 68 85 69 86 72 87
REMARK SMILES IDX 70 88 49 89 50 90 58 91 51 92 52 93 56 94 59 95 53 96 54 97
REMARK SMILES IDX 57 98 55 99
REMARK H PARENT 13 7 86 17 20 33 79 52 47 63
REMARK Flexibility Score: inf
ROOT
ATOM      1  C   UNL A   1      33.948  30.266  27.229  1.00  0.00     0.002 C 
ENDROOT
BRANCH   1   2
ATOM      2  C   UNL A   1      32.513  29.760  27.112  1.00  0.00     0.021 C 
BRANCH   2   3
ATOM      3  C   UNL A   1      31.817  30.001  25.780  1.00  0.00     0.116 C 
BRANCH   3   4
ATOM      4  N   UNL A   1      32.636  29.722  24.619  1.00  0.00    -0.351 N 
ATOM      5  C   UNL A   1      33.127  28.546  24.131  1.00  0.00     0.267 C 
ATOM      6  O   UNL A   1      33.857  28.575  23.137  1.00  0.00    -0.268 OA
ATOM      7  H   UNL A   1      32.880  30.516  24.091  1.00  0.00     0.163 HD
BRANCH   5   8
ATOM      8  C   UNL A   1      32.887  27.224  24.818  1.00  0.00     0.105 C 
ATOM      9  C   UNL A   1      33.509  25.213  26.160  1.00  0.00     0.172 C 
ATOM     10  C   UNL A   1      33.763  26.629  25.653  1.00  0.00     0.037 C 
ATOM     11  N   UNL A   1      32.069  24.990  26.213  1.00  0.00    -0.200 N 
ATOM     12  C   UNL A   1      31.167  25.672  25.439  1.00  0.00     0.248 A 
ATOM     13  N   UNL A   1      31.432  24.213  27.104  1.00  0.00    -0.043 NA
ATOM     14  N   UNL A   1      31.617  26.670  24.651  1.00  0.00    -0.319 N 
ATOM     15  N   UNL A   1      29.971  25.213  25.723  1.00  0.00    -0.090 NA
ATOM     16  N   UNL A   1      30.151  24.307  26.757  1.00  0.00    -0.022 NA
ATOM     17  H   UNL A   1      31.033  27.018  23.938  1.00  0.00     0.170 HD
BRANCH   9  18
ATOM     18  C   UNL A   1      34.319  24.183  25.328  1.00  0.00     0.027 A 
ATOM     19  C   UNL A   1      35.899  22.334  25.052  1.00  0.00     0.161 A 
ATOM     20  C   UNL A   1      35.922  22.540  23.670  1.00  0.00     0.050 A 
ATOM     21  C   UNL A   1      35.060  23.105  25.878  1.00  0.00     0.166 A 
ATOM     22  C   UNL A   1      35.133  23.535  23.103  1.00  0.00     0.004 A 
ATOM     23  C   UNL A   1      34.374  24.370  23.924  1.00  0.00     0.010 A 
BRANCH  19  24
ATOM     24  O   UNL A   1      36.846  21.494  25.577  1.00  0.00    -0.493 OA
ATOM     25  C   UNL A   1      38.102  22.126  25.800  1.00  0.00     0.278 C 
ENDBRANCH  19  24
BRANCH  21  26
ATOM     26  O   UNL A   1      34.813  22.847  27.192  1.00  0.00    -0.492 OA
ATOM     27  C   UNL A   1      33.970  21.785  27.597  1.00  0.00     0.278 C 
ENDBRANCH  21  26
ENDBRANCH   9  18
ENDBRANCH   5   8
ENDBRANCH   3   4
ENDBRANCH   2   3
ENDBRANCH   1   2
BRANCH   1  28
ATOM     28  C   UNL A   1      34.149  31.563  28.015  1.00  0.00     0.002 C 
BRANCH  28  29
ATOM     29  C   UNL A   1      33.724  32.856  27.316  1.00  0.00     0.021 C 
BRANCH  29  30
ATOM     30  C   UNL A   1      32.346  33.389  27.686  1.00  0.00     0.116 C 
BRANCH  30  31
ATOM     31  N   UNL A   1      32.363  34.796  28.045  1.00  0.00    -0.352 N 
ATOM     32  C   UNL A   1      33.171  35.459  28.932  1.00  0.00     0.251 C 
ATOM     33  H   UNL A   1      31.696  35.355  27.585  1.00  0.00     0.163 HD
ATOM     34  O   UNL A   1      32.939  36.635  29.216  1.00  0.00    -0.269 OA
BRANCH  32  35
ATOM     35  C   UNL A   1      34.308  34.765  29.570  1.00  0.00     0.039 A 
ATOM     36  C   UNL A   1      34.075  34.008  30.722  1.00  0.00     0.014 A 
ATOM     37  C   UNL A   1      35.602  34.866  29.050  1.00  0.00     0.014 A 
ATOM     38  C   UNL A   1      35.126  33.311  31.321  1.00  0.00     0.010 A 
ATOM     39  C   UNL A   1      36.633  34.109  29.602  1.00  0.00     0.010 A 
ATOM     40  C   UNL A   1      36.408  33.333  30.747  1.00  0.00    -0.014 A 
BRANCH  40  41
ATOM     41  C   UNL A   1      37.530  32.563  31.345  1.00  0.00     0.031 A 
ATOM     42  C   UNL A   1      38.045  32.917  32.711  1.00  0.00     0.074 A 
ATOM     43  C   UNL A   1      38.117  31.579  30.637  1.00  0.00     0.049 A 
ATOM     44  N   UNL A   1      39.045  32.400  33.382  1.00  0.00    -0.248 NA
ATOM     45  C   UNL A   1      37.364  34.020  33.406  1.00  0.00     0.031 C 
ATOM     46  C   UNL A   1      37.731  31.162  29.288  1.00  0.00     0.029 A 
ATOM     47  N   UNL A   1      39.166  30.753  30.953  1.00  0.00    -0.354 N 
ATOM     48  C   UNL A   1      39.115  33.118  34.569  1.00  0.00     0.074 A 
ATOM     49  C   UNL A   1      38.103  34.150  34.497  1.00  0.00     0.031 C 
ATOM     50  C   UNL A   1      38.507  30.135  28.907  1.00  0.00     0.029 A 
ATOM     51  C   UNL A   1      39.472  29.848  29.966  1.00  0.00     0.049 A 
ATOM     52  H   UNL A   1      39.653  30.803  31.808  1.00  0.00     0.167 HD
ATOM     53  C   UNL A   1      39.928  32.918  35.634  1.00  0.00     0.037 A 
ATOM     54  C   UNL A   1      40.422  28.896  29.922  1.00  0.00     0.037 A 
ATOM     55  C   UNL A   1      40.926  31.883  35.705  1.00  0.00     0.049 A 
ATOM     56  C   UNL A   1      41.339  28.717  31.101  1.00  0.00     0.074 A 
ATOM     57  C   UNL A   1      41.775  31.572  36.752  1.00  0.00     0.029 A 
ATOM     58  N   UNL A   1      41.214  30.993  34.680  1.00  0.00    -0.354 N 
ATOM     59  N   UNL A   1      41.359  29.364  32.242  1.00  0.00    -0.248 NA
ATOM     60  C   UNL A   1      42.364  27.671  30.986  1.00  0.00     0.031 C 
ATOM     61  C   UNL A   1      42.610  30.526  36.342  1.00  0.00     0.029 A 
ATOM     62  C   UNL A   1      42.243  30.146  35.062  1.00  0.00     0.049 A 
ATOM     63  H   UNL A   1      40.753  30.966  33.811  1.00  0.00     0.167 HD
ATOM     64  C   UNL A   1      42.369  28.780  32.993  1.00  0.00     0.074 A 
ATOM     65  C   UNL A   1      42.934  27.722  32.182  1.00  0.00     0.031 C 
ATOM     66  C   UNL A   1      42.790  29.091  34.245  1.00  0.00     0.037 A 
BRANCH  53  67
ATOM     67  C   UNL A   1      39.766  33.848  36.805  1.00  0.00     0.064 A 
ATOM     68  C   UNL A   1      40.432  35.084  36.862  1.00  0.00     0.173 A 
ATOM     69  C   UNL A   1      38.937  33.502  37.883  1.00  0.00     0.173 A 
ATOM     70  F   UNL A   1      41.245  35.460  35.865  1.00  0.00    -0.203 F 
ATOM     71  C   UNL A   1      40.312  35.912  37.975  1.00  0.00     0.198 A 
ATOM     72  C   UNL A   1      38.792  34.350  38.977  1.00  0.00     0.198 A 
ATOM     73  F   UNL A   1      38.272  32.338  37.878  1.00  0.00    -0.203 F 
ATOM     74  F   UNL A   1      41.015  37.052  38.038  1.00  0.00    -0.200 F 
ATOM     75  C   UNL A   1      39.489  35.548  39.029  1.00  0.00     0.200 A 
ATOM     76  F   UNL A   1      37.985  34.003  39.989  1.00  0.00    -0.200 F 
ATOM     77  F   UNL A   1      39.378  36.344  40.101  1.00  0.00    -0.200 F 
ENDBRANCH  53  67
BRANCH  54  78
ATOM     78  C   UNL A   1      40.524  28.005  28.736  1.00  0.00     0.064 A 
ATOM     79  C   UNL A   1      41.300  28.375  27.629  1.00  0.00     0.173 A 
ATOM     80  C   UNL A   1      39.859  26.772  28.684  1.00  0.00     0.173 A 
ATOM     81  F   UNL A   1      41.938  29.555  27.624  1.00  0.00    -0.203 F 
ATOM     82  C   UNL A   1      41.396  27.554  26.508  1.00  0.00     0.198 A 
ATOM     83  C   UNL A   1      39.977  25.938  27.574  1.00  0.00     0.198 A 
ATOM     84  F   UNL A   1      39.108  26.368  29.720  1.00  0.00    -0.203 F 
ATOM     85  F   UNL A   1      42.112  27.950  25.448  1.00  0.00    -0.200 F 
ATOM     86  C   UNL A   1      40.740  26.331  26.485  1.00  0.00     0.200 A 
ATOM     87  F   UNL A   1      39.356  24.751  27.562  1.00  0.00    -0.200 F 
ATOM     88  F   UNL A   1      40.838  25.537  25.410  1.00  0.00    -0.200 F 
ENDBRANCH  54  78
BRANCH  66  89
ATOM     89  C   UNL A   1      43.883  28.246  34.834  1.00  0.00     0.064 A 
ATOM     90  C   UNL A   1      45.239  28.557  34.653  1.00  0.00     0.173 A 
ATOM     91  C   UNL A   1      43.567  27.126  35.621  1.00  0.00     0.173 A 
ATOM     92  F   UNL A   1      45.596  29.607  33.898  1.00  0.00    -0.203 F 
ATOM     93  C   UNL A   1      46.236  27.763  35.212  1.00  0.00     0.198 A 
ATOM     94  C   UNL A   1      44.566  26.355  36.205  1.00  0.00     0.198 A 
ATOM     95  F   UNL A   1      42.285  26.788  35.830  1.00  0.00    -0.203 F 
ATOM     96  F   UNL A   1      47.526  28.049  34.982  1.00  0.00    -0.200 F 
ATOM     97  C   UNL A   1      45.900  26.667  35.994  1.00  0.00     0.200 A 
ATOM     98  F   UNL A   1      44.238  25.305  36.972  1.00  0.00    -0.200 F 
ATOM     99  F   UNL A   1      46.862  25.908  36.536  1.00  0.00    -0.200 F 
ENDBRANCH  66  89
ENDBRANCH  40  41
ENDBRANCH  32  35
ENDBRANCH  30  31
ENDBRANCH  29  30
ENDBRANCH  28  29
ENDBRANCH   1  28
TORSDOF 16
ENDMDL
MODEL 3
REMARK VINA RESULT:     -12.0      1.611      2.454
REMARK SMILES COc1cccc([C@H]2C=C(C(=O)NCCCCCCNC(=O)c3ccc(-c4c5nc(c(-c6c(F)c(F)c(F)c(F)c6F)c6ccc([nH]6)c(-c6c(F)c(F)c(F)c(F)c6F)c6nc(c(-c7c(F)c(F)c(F)c(F)c7F)c7ccc4[nH]7)C=C6)C=C5)cc3)Nc3nnnn32)c1OC
REMARK SMILES IDX 16 1 15 2 14 3 13 4 11 5 12 6 10 8 8 9 9 10 91 11 87 12
REMARK SMILES IDX 90 13 86 14 88 15 89 16 7 18 3 19 4 20 92 21 5 22 6 23 2 24
REMARK SMILES IDX 1 25 93 26 94 27 17 28 18 29 19 30 20 31 21 32 22 34 23 35
REMARK SMILES IDX 24 36 85 37 25 38 84 39 26 40 27 41 28 42 78 43 29 44 83 45
REMARK SMILES IDX 77 46 79 47 30 48 82 49 76 50 75 51 31 53 63 54 43 55 62 56
REMARK SMILES IDX 44 57 47 58 61 59 80 60 45 61 46 62 60 64 81 65 48 66 32 67
REMARK SMILES IDX 33 68 41 69 34 70 35 71 39 72 42 73 36 74 37 75 40 76 38 77
REMARK SMILES IDX 64 78 65 79 73 80 66 81 67 82 71 83 74 84 68 85 69 86 72 87
REMARK SMILES IDX 70 88 49 89 50 90 58 91 51 92 52 93 56 94 59 95 53 96 54 97
REMARK SMILES IDX 57 98 55 99
REMARK H PARENT 13 7 86 17 20 33 79 52 47 63
REMARK Flexibility Score: inf
ROOT
ATOM      1  C   UNL A   1      32.439  29.842  26.516  1.00  0.00     0.002 C 
ENDROOT
BRANCH   1   2
ATOM      2  C   UNL A   1      31.782  28.616  27.144  1.00  0.00     0.021 C 
BRANCH   2   3
ATOM      3  C   UNL A   1      31.361  27.509  26.188  1.00  0.00     0.116 C 
BRANCH   3   4
ATOM      4  N   UNL A   1      30.914  26.295  26.839  1.00  0.00    -0.351 N 
ATOM      5  C   UNL A   1      31.059  24.986  26.486  1.00  0.00     0.267 C 
ATOM      6  O   UNL A   1      30.534  24.120  27.191  1.00  0.00    -0.268 OA
ATOM      7  H   UNL A   1      30.423  26.440  27.680  1.00  0.00     0.163 HD
BRANCH   5   8
ATOM      8  C   UNL A   1      31.755  24.564  25.216  1.00  0.00     0.105 C 
ATOM      9  C   UNL A   1      32.418  22.977  23.406  1.00  0.00     0.172 C 
ATOM     10  C   UNL A   1      31.542  23.392  24.583  1.00  0.00     0.037 C 
ATOM     11  N   UNL A   1      32.889  24.181  22.731  1.00  0.00    -0.200 N 
ATOM     12  C   UNL A   1      33.005  25.399  23.347  1.00  0.00     0.248 A 
ATOM     13  N   UNL A   1      33.130  24.294  21.415  1.00  0.00    -0.043 NA
ATOM     14  N   UNL A   1      32.574  25.523  24.620  1.00  0.00    -0.319 N 
ATOM     15  N   UNL A   1      33.473  26.250  22.465  1.00  0.00    -0.090 NA
ATOM     16  N   UNL A   1      33.547  25.550  21.270  1.00  0.00    -0.022 NA
ATOM     17  H   UNL A   1      32.844  26.313  25.142  1.00  0.00     0.170 HD
BRANCH   9  18
ATOM     18  C   UNL A   1      33.523  21.990  23.869  1.00  0.00     0.027 A 
ATOM     19  C   UNL A   1      34.351  19.821  24.647  1.00  0.00     0.161 A 
ATOM     20  C   UNL A   1      35.595  20.385  24.941  1.00  0.00     0.050 A 
ATOM     21  C   UNL A   1      33.333  20.597  24.059  1.00  0.00     0.166 A 
ATOM     22  C   UNL A   1      35.828  21.730  24.679  1.00  0.00     0.004 A 
ATOM     23  C   UNL A   1      34.794  22.530  24.188  1.00  0.00     0.010 A 
BRANCH  19  24
ATOM     24  O   UNL A   1      34.107  18.558  25.118  1.00  0.00    -0.493 OA
ATOM     25  C   UNL A   1      34.796  17.542  24.397  1.00  0.00     0.278 C 
ENDBRANCH  19  24
BRANCH  21  26
ATOM     26  O   UNL A   1      32.173  20.099  23.550  1.00  0.00    -0.492 OA
ATOM     27  C   UNL A   1      32.163  19.209  22.449  1.00  0.00     0.278 C 
ENDBRANCH  21  26
ENDBRANCH   9  18
ENDBRANCH   5   8
ENDBRANCH   3   4
ENDBRANCH   2   3
ENDBRANCH   1   2
BRANCH   1  28
ATOM     28  C   UNL A   1      31.498  30.871  25.888  1.00  0.00     0.002 C 
BRANCH  28  29
ATOM     29  C   UNL A   1      31.294  32.172  26.666  1.00  0.00     0.021 C 
BRANCH  29  30
ATOM     30  C   UNL A   1      32.555  32.805  27.242  1.00  0.00     0.116 C 
BRANCH  30  31
ATOM     31  N   UNL A   1      32.365  34.191  27.629  1.00  0.00    -0.352 N 
ATOM     32  C   UNL A   1      33.008  34.923  28.593  1.00  0.00     0.251 C 
ATOM     33  H   UNL A   1      31.672  34.677  27.125  1.00  0.00     0.163 HD
ATOM     34  O   UNL A   1      32.607  36.052  28.880  1.00  0.00    -0.269 OA
BRANCH  32  35
ATOM     35  C   UNL A   1      34.168  34.356  29.311  1.00  0.00     0.039 A 
ATOM     36  C   UNL A   1      33.943  33.615  30.475  1.00  0.00     0.014 A 
ATOM     37  C   UNL A   1      35.473  34.562  28.855  1.00  0.00     0.014 A 
ATOM     38  C   UNL A   1      35.020  33.037  31.150  1.00  0.00     0.010 A 
ATOM     39  C   UNL A   1      36.538  33.921  29.483  1.00  0.00     0.010 A 
ATOM     40  C   UNL A   1      36.324  33.160  30.642  1.00  0.00    -0.014 A 
BRANCH  40  41
ATOM     41  C   UNL A   1      37.477  32.516  31.322  1.00  0.00     0.031 A 
ATOM     42  C   UNL A   1      38.218  31.394  30.651  1.00  0.00     0.074 A 
ATOM     43  C   UNL A   1      37.824  32.905  32.563  1.00  0.00     0.049 A 
ATOM     44  N   UNL A   1      39.215  30.671  31.099  1.00  0.00    -0.248 NA
ATOM     45  C   UNL A   1      37.759  31.014  29.306  1.00  0.00     0.031 C 
ATOM     46  C   UNL A   1      37.163  33.959  33.334  1.00  0.00     0.029 A 
ATOM     47  N   UNL A   1      38.818  32.458  33.396  1.00  0.00    -0.354 N 
ATOM     48  C   UNL A   1      39.495  29.751  30.097  1.00  0.00     0.074 A 
ATOM     49  C   UNL A   1      38.520  29.961  29.048  1.00  0.00     0.031 C 
ATOM     50  C   UNL A   1      37.792  34.101  34.512  1.00  0.00     0.029 A 
ATOM     51  C   UNL A   1      38.873  33.123  34.597  1.00  0.00     0.049 A 
ATOM     52  H   UNL A   1      39.436  31.728  33.156  1.00  0.00     0.167 HD
ATOM     53  C   UNL A   1      40.490  28.834  30.041  1.00  0.00     0.037 A 
ATOM     54  C   UNL A   1      39.701  32.961  35.645  1.00  0.00     0.037 A 
ATOM     55  C   UNL A   1      41.464  28.636  31.083  1.00  0.00     0.049 A 
ATOM     56  C   UNL A   1      40.776  31.911  35.577  1.00  0.00     0.074 A 
ATOM     57  C   UNL A   1      42.536  27.761  31.110  1.00  0.00     0.029 A 
ATOM     58  N   UNL A   1      41.480  29.322  32.289  1.00  0.00    -0.354 N 
ATOM     59  N   UNL A   1      41.069  31.085  34.601  1.00  0.00    -0.248 NA
ATOM     60  C   UNL A   1      41.639  31.774  36.758  1.00  0.00     0.031 C 
ATOM     61  C   UNL A   1      43.169  27.882  32.352  1.00  0.00     0.029 A 
ATOM     62  C   UNL A   1      42.529  28.874  33.076  1.00  0.00     0.049 A 
ATOM     63  H   UNL A   1      40.841  30.026  32.547  1.00  0.00     0.167 HD
ATOM     64  C   UNL A   1      42.169  30.358  35.033  1.00  0.00     0.074 A 
ATOM     65  C   UNL A   1      42.498  30.846  36.356  1.00  0.00     0.031 C 
ATOM     66  C   UNL A   1      42.849  29.376  34.390  1.00  0.00     0.037 A 
BRANCH  53  67
ATOM     67  C   UNL A   1      40.565  27.975  28.809  1.00  0.00     0.064 A 
ATOM     68  C   UNL A   1      41.330  28.352  27.693  1.00  0.00     0.173 A 
ATOM     69  C   UNL A   1      39.865  26.761  28.741  1.00  0.00     0.173 A 
ATOM     70  F   UNL A   1      42.010  29.508  27.700  1.00  0.00    -0.203 F 
ATOM     71  C   UNL A   1      41.350  27.571  26.540  1.00  0.00     0.198 A 
ATOM     72  C   UNL A   1      39.917  25.966  27.600  1.00  0.00     0.198 A 
ATOM     73  F   UNL A   1      39.124  26.348  29.779  1.00  0.00    -0.203 F 
ATOM     74  F   UNL A   1      42.029  27.990  25.463  1.00  0.00    -0.200 F 
ATOM     75  C   UNL A   1      40.648  26.378  26.496  1.00  0.00     0.200 A 
ATOM     76  F   UNL A   1      39.249  24.805  27.563  1.00  0.00    -0.200 F 
ATOM     77  F   UNL A   1      40.666  25.630  25.384  1.00  0.00    -0.200 F 
ENDBRANCH  53  67
BRANCH  54  78
ATOM     78  C   UNL A   1      39.578  33.849  36.831  1.00  0.00     0.064 A 
ATOM     79  C   UNL A   1      40.230  35.090  36.865  1.00  0.00     0.173 A 
ATOM     80  C   UNL A   1      38.808  33.486  37.944  1.00  0.00     0.173 A 
ATOM     81  F   UNL A   1      40.995  35.472  35.832  1.00  0.00    -0.203 F 
ATOM     82  C   UNL A   1      40.130  35.926  37.974  1.00  0.00     0.198 A 
ATOM     83  C   UNL A   1      38.685  34.336  39.042  1.00  0.00     0.198 A 
ATOM     84  F   UNL A   1      38.158  32.312  37.959  1.00  0.00    -0.203 F 
ATOM     85  F   UNL A   1      40.797  37.088  37.997  1.00  0.00    -0.200 F 
ATOM     86  C   UNL A   1      39.351  35.552  39.059  1.00  0.00     0.200 A 
ATOM     87  F   UNL A   1      37.919  33.978  40.081  1.00  0.00    -0.200 F 
ATOM     88  F   UNL A   1      39.248  36.360  40.123  1.00  0.00    -0.200 F 
ENDBRANCH  54  78
BRANCH  66  89
ATOM     89  C   UNL A   1      44.046  28.797  35.088  1.00  0.00     0.064 A 
ATOM     90  C   UNL A   1      45.326  29.356  34.953  1.00  0.00     0.173 A 
ATOM     91  C   UNL A   1      43.904  27.684  35.932  1.00  0.00     0.173 A 
ATOM     92  F   UNL A   1      45.520  30.411  34.146  1.00  0.00    -0.203 F 
ATOM     93  C   UNL A   1      46.421  28.806  35.613  1.00  0.00     0.198 A 
ATOM     94  C   UNL A   1      44.995  27.157  36.616  1.00  0.00     0.198 A 
ATOM     95  F   UNL A   1      42.701  27.114  36.101  1.00  0.00    -0.203 F 
ATOM     96  F   UNL A   1      47.643  29.325  35.428  1.00  0.00    -0.200 F 
ATOM     97  C   UNL A   1      46.254  27.712  36.450  1.00  0.00     0.200 A 
ATOM     98  F   UNL A   1      44.828  26.110  37.436  1.00  0.00    -0.200 F 
ATOM     99  F   UNL A   1      47.309  27.189  37.090  1.00  0.00    -0.200 F 
ENDBRANCH  66  89
ENDBRANCH  40  41
ENDBRANCH  32  35
ENDBRANCH  30  31
ENDBRANCH  29  30
ENDBRANCH  28  29
ENDBRANCH   1  28
TORSDOF 16
ENDMDL
