MODEL 1
REMARK VINA RESULT:     -14.1      0.000      0.000
REMARK SMILES Cc1ccc(C(=O)N2C[C@@H](C(=O)NCCCCCCNC(=O)c3ccc(-c4c5nc(c(-c6c(F)c(F)c(F)c(F)c6F)c6ccc([nH]6)c(-c6c(F)c(F)c(F)c(F)c6F)c6nc(c(-c7c(F)c(F)c(F)c(F)c7F)c7ccc4[nH]7)C=C6)C=C5)cc3)C[C@H](C(=O)N3CCOCC3)C2)cc1F
REMARK SMILES IDX 16 1 15 2 14 3 13 4 11 5 12 6 10 8 8 9 9 10 96 11 87 12
REMARK SMILES IDX 86 13 6 14 7 15 5 16 1 17 2 18 3 19 98 20 4 21 97 22 99 23
REMARK SMILES IDX 88 24 89 25 90 26 91 27 95 28 92 29 94 30 93 31 17 32 18 33
REMARK SMILES IDX 19 34 20 35 21 36 22 38 23 39 24 40 85 41 25 42 84 43 26 44
REMARK SMILES IDX 27 45 28 46 78 47 29 48 83 49 77 50 79 51 30 52 82 53 76 54
REMARK SMILES IDX 75 55 31 57 63 58 43 59 62 60 44 61 47 62 61 63 80 64 45 65
REMARK SMILES IDX 46 66 60 68 81 69 48 70 32 71 33 72 41 73 34 74 35 75 39 76
REMARK SMILES IDX 42 77 36 78 37 79 40 80 38 81 64 82 65 83 73 84 66 85 67 86
REMARK SMILES IDX 71 87 74 88 68 89 69 90 72 91 70 92 49 93 50 94 58 95 51 96
REMARK SMILES IDX 52 97 56 98 59 99 53 100 54 101 57 102 55 103
REMARK H PARENT 13 7 20 37 79 56 47 67
REMARK Flexibility Score: inf
ROOT
ATOM      1  C   UNL A   1      31.427  29.237  24.896  1.00  0.00     0.002 C 
ENDROOT
BRANCH   1   2
ATOM      2  C   UNL A   1      32.530  28.686  23.992  1.00  0.00     0.021 C 
BRANCH   2   3
ATOM      3  C   UNL A   1      32.132  27.390  23.313  1.00  0.00     0.116 C 
BRANCH   3   4
ATOM      4  N   UNL A   1      30.715  27.162  23.452  1.00  0.00    -0.356 N 
ATOM      5  C   UNL A   1      30.070  26.078  23.929  1.00  0.00     0.224 C 
ATOM      6  O   UNL A   1      28.841  26.050  23.883  1.00  0.00    -0.275 OA
ATOM      7  H   UNL A   1      30.137  27.902  23.158  1.00  0.00     0.163 HD
BRANCH   5   8
ATOM      8  C   UNL A   1      30.857  24.930  24.502  1.00  0.00     0.099 C 
ATOM      9  N   UNL A   1      31.548  22.578  24.124  1.00  0.00    -0.337 N 
ATOM     10  C   UNL A   1      30.896  23.745  23.555  1.00  0.00     0.133 C 
ATOM     11  C   UNL A   1      31.134  22.173  25.468  1.00  0.00     0.133 C 
ATOM     12  C   UNL A   1      31.131  23.333  26.487  1.00  0.00     0.099 C 
ATOM     13  C   UNL A   1      30.510  24.620  25.961  1.00  0.00     0.030 C 
BRANCH   9  14
ATOM     14  C   UNL A   1      32.353  21.845  23.259  1.00  0.00     0.254 C 
ATOM     15  O   UNL A   1      32.826  22.329  22.231  1.00  0.00    -0.269 OA
BRANCH  14  16
ATOM     16  C   UNL A   1      32.569  20.399  23.463  1.00  0.00     0.042 A 
ATOM     17  C   UNL A   1      34.137  16.405  23.263  1.00  0.00     0.047 C 
ATOM     18  C   UNL A   1      33.514  17.763  23.385  1.00  0.00    -0.015 A 
ATOM     19  C   UNL A   1      32.453  18.153  22.559  1.00  0.00     0.007 A 
ATOM     20  C   UNL A   1      34.050  18.691  24.283  1.00  0.00     0.126 A 
ATOM     21  C   UNL A   1      31.984  19.470  22.592  1.00  0.00     0.014 A 
ATOM     22  C   UNL A   1      33.595  20.003  24.324  1.00  0.00     0.053 A 
ATOM     23  F   UNL A   1      35.072  18.336  25.075  1.00  0.00    -0.207 F 
ENDBRANCH  14  16
ENDBRANCH   9  14
BRANCH  12  24
ATOM     24  C   UNL A   1      32.487  23.400  27.200  1.00  0.00     0.227 C 
ATOM     25  O   UNL A   1      32.583  22.832  28.295  1.00  0.00    -0.275 OA
ATOM     26  N   UNL A   1      33.612  23.822  26.539  1.00  0.00    -0.338 N 
ATOM     27  C   UNL A   1      33.849  25.083  25.833  1.00  0.00     0.148 C 
ATOM     28  C   UNL A   1      34.832  23.032  26.662  1.00  0.00     0.148 C 
ATOM     29  C   UNL A   1      34.458  24.798  24.448  1.00  0.00     0.181 C 
ATOM     30  C   UNL A   1      35.391  22.778  25.257  1.00  0.00     0.181 C 
ATOM     31  O   UNL A   1      35.662  24.020  24.582  1.00  0.00    -0.378 OA
ENDBRANCH  12  24
ENDBRANCH   5   8
ENDBRANCH   3   4
ENDBRANCH   2   3
ENDBRANCH   1   2
BRANCH   1  32
ATOM     32  C   UNL A   1      31.881  29.562  26.330  1.00  0.00     0.002 C 
BRANCH  32  33
ATOM     33  C   UNL A   1      32.671  28.456  27.049  1.00  0.00     0.021 C 
BRANCH  33  34
ATOM     34  C   UNL A   1      34.092  28.873  27.311  1.00  0.00     0.116 C 
BRANCH  34  35
ATOM     35  N   UNL A   1      34.147  30.294  27.625  1.00  0.00    -0.352 N 
ATOM     36  C   UNL A   1      34.979  30.894  28.541  1.00  0.00     0.251 C 
ATOM     37  H   UNL A   1      33.529  30.882  27.134  1.00  0.00     0.163 HD
ATOM     38  O   UNL A   1      34.699  31.945  29.082  1.00  0.00    -0.269 OA
BRANCH  36  39
ATOM     39  C   UNL A   1      36.256  30.217  28.794  1.00  0.00     0.039 A 
ATOM     40  C   UNL A   1      36.492  29.483  29.958  1.00  0.00     0.014 A 
ATOM     41  C   UNL A   1      37.231  30.369  27.812  1.00  0.00     0.014 A 
ATOM     42  C   UNL A   1      37.741  28.902  30.130  1.00  0.00     0.010 A 
ATOM     43  C   UNL A   1      38.348  29.611  27.869  1.00  0.00     0.010 A 
ATOM     44  C   UNL A   1      38.650  28.991  29.076  1.00  0.00    -0.014 A 
BRANCH  44  45
ATOM     45  C   UNL A   1      40.014  28.524  29.108  1.00  0.00     0.031 A 
ATOM     46  C   UNL A   1      40.275  27.134  28.765  1.00  0.00     0.074 A 
ATOM     47  C   UNL A   1      40.938  29.502  29.239  1.00  0.00     0.049 A 
ATOM     48  N   UNL A   1      41.285  26.474  29.192  1.00  0.00    -0.248 NA
ATOM     49  C   UNL A   1      39.378  26.342  27.928  1.00  0.00     0.031 C 
ATOM     50  C   UNL A   1      42.365  29.519  28.988  1.00  0.00     0.029 A 
ATOM     51  N   UNL A   1      40.684  30.785  29.760  1.00  0.00    -0.354 N 
ATOM     52  C   UNL A   1      41.396  25.375  28.372  1.00  0.00     0.074 A 
ATOM     53  C   UNL A   1      40.097  25.226  27.762  1.00  0.00     0.031 C 
ATOM     54  C   UNL A   1      42.900  30.560  29.661  1.00  0.00     0.029 A 
ATOM     55  C   UNL A   1      41.840  31.154  30.464  1.00  0.00     0.049 A 
ATOM     56  H   UNL A   1      39.861  31.316  29.653  1.00  0.00     0.167 HD
ATOM     57  C   UNL A   1      42.647  24.883  28.138  1.00  0.00     0.037 A 
ATOM     58  C   UNL A   1      41.750  31.170  31.829  1.00  0.00     0.037 A 
ATOM     59  C   UNL A   1      43.642  25.720  28.827  1.00  0.00     0.049 A 
ATOM     60  C   UNL A   1      42.520  30.026  32.455  1.00  0.00     0.074 A 
ATOM     61  C   UNL A   1      44.504  26.725  28.417  1.00  0.00     0.029 A 
ATOM     62  N   UNL A   1      43.552  25.851  30.202  1.00  0.00    -0.354 N 
ATOM     63  N   UNL A   1      43.023  29.030  31.775  1.00  0.00    -0.248 NA
ATOM     64  C   UNL A   1      42.774  29.895  33.883  1.00  0.00     0.031 C 
ATOM     65  C   UNL A   1      44.944  27.437  29.576  1.00  0.00     0.029 A 
ATOM     66  C   UNL A   1      44.350  26.866  30.686  1.00  0.00     0.049 A 
ATOM     67  H   UNL A   1      42.983  25.284  30.770  1.00  0.00     0.167 HD
ATOM     68  C   UNL A   1      43.691  28.174  32.603  1.00  0.00     0.074 A 
ATOM     69  C   UNL A   1      43.456  28.736  33.926  1.00  0.00     0.031 C 
ATOM     70  C   UNL A   1      44.376  27.086  32.126  1.00  0.00     0.037 A 
BRANCH  57  71
ATOM     71  C   UNL A   1      43.015  23.853  27.092  1.00  0.00     0.064 A 
ATOM     72  C   UNL A   1      42.704  22.490  27.294  1.00  0.00     0.173 A 
ATOM     73  C   UNL A   1      43.652  24.129  25.866  1.00  0.00     0.173 A 
ATOM     74  F   UNL A   1      42.024  22.079  28.372  1.00  0.00    -0.203 F 
ATOM     75  C   UNL A   1      43.065  21.489  26.391  1.00  0.00     0.198 A 
ATOM     76  C   UNL A   1      44.050  23.122  24.977  1.00  0.00     0.198 A 
ATOM     77  F   UNL A   1      43.861  25.382  25.446  1.00  0.00    -0.203 F 
ATOM     78  F   UNL A   1      42.736  20.215  26.648  1.00  0.00    -0.200 F 
ATOM     79  C   UNL A   1      43.758  21.801  25.242  1.00  0.00     0.200 A 
ATOM     80  F   UNL A   1      44.705  23.447  23.854  1.00  0.00    -0.200 F 
ATOM     81  F   UNL A   1      44.116  20.839  24.382  1.00  0.00    -0.200 F 
ENDBRANCH  57  71
BRANCH  58  82
ATOM     82  C   UNL A   1      40.416  31.727  32.261  1.00  0.00     0.064 A 
ATOM     83  C   UNL A   1      39.543  30.818  32.907  1.00  0.00     0.173 A 
ATOM     84  C   UNL A   1      40.238  33.088  32.548  1.00  0.00     0.173 A 
ATOM     85  F   UNL A   1      39.641  29.503  32.648  1.00  0.00    -0.203 F 
ATOM     86  C   UNL A   1      38.719  31.221  33.955  1.00  0.00     0.198 A 
ATOM     87  C   UNL A   1      39.359  33.494  33.562  1.00  0.00     0.198 A 
ATOM     88  F   UNL A   1      41.002  34.013  31.951  1.00  0.00    -0.203 F 
ATOM     89  F   UNL A   1      38.074  30.302  34.691  1.00  0.00    -0.200 F 
ATOM     90  C   UNL A   1      38.657  32.557  34.307  1.00  0.00     0.200 A 
ATOM     91  F   UNL A   1      39.261  34.794  33.876  1.00  0.00    -0.200 F 
ATOM     92  F   UNL A   1      37.958  32.926  35.390  1.00  0.00    -0.200 F 
ENDBRANCH  58  82
BRANCH  70  93
ATOM     93  C   UNL A   1      45.095  26.068  32.982  1.00  0.00     0.064 A 
ATOM     94  C   UNL A   1      44.435  25.221  33.880  1.00  0.00     0.173 A 
ATOM     95  C   UNL A   1      46.508  25.942  32.969  1.00  0.00     0.173 A 
ATOM     96  F   UNL A   1      43.134  25.382  34.155  1.00  0.00    -0.203 F 
ATOM     97  C   UNL A   1      45.112  24.207  34.565  1.00  0.00     0.198 A 
ATOM     98  C   UNL A   1      47.186  24.966  33.688  1.00  0.00     0.198 A 
ATOM     99  F   UNL A   1      47.304  26.750  32.260  1.00  0.00    -0.203 F 
ATOM    100  F   UNL A   1      44.421  23.360  35.339  1.00  0.00    -0.200 F 
ATOM    101  C   UNL A   1      46.483  24.068  34.453  1.00  0.00     0.200 A 
ATOM    102  F   UNL A   1      48.522  24.901  33.614  1.00  0.00    -0.200 F 
ATOM    103  F   UNL A   1      47.126  23.087  35.097  1.00  0.00    -0.200 F 
ENDBRANCH  70  93
ENDBRANCH  44  45
ENDBRANCH  36  39
ENDBRANCH  34  35
ENDBRANCH  33  34
ENDBRANCH  32  33
ENDBRANCH   1  32
TORSDOF 16
ENDMDL
MODEL 2
REMARK VINA RESULT:     -14.0      1.163      2.347
REMARK SMILES Cc1ccc(C(=O)N2C[C@@H](C(=O)NCCCCCCNC(=O)c3ccc(-c4c5nc(c(-c6c(F)c(F)c(F)c(F)c6F)c6ccc([nH]6)c(-c6c(F)c(F)c(F)c(F)c6F)c6nc(c(-c7c(F)c(F)c(F)c(F)c7F)c7ccc4[nH]7)C=C6)C=C5)cc3)C[C@H](C(=O)N3CCOCC3)C2)cc1F
REMARK SMILES IDX 16 1 15 2 14 3 13 4 11 5 12 6 10 8 8 9 9 10 96 11 87 12
REMARK SMILES IDX 86 13 6 14 7 15 5 16 1 17 2 18 3 19 98 20 4 21 97 22 99 23
REMARK SMILES IDX 88 24 89 25 90 26 91 27 95 28 92 29 94 30 93 31 17 32 18 33
REMARK SMILES IDX 19 34 20 35 21 36 22 38 23 39 24 40 85 41 25 42 84 43 26 44
REMARK SMILES IDX 27 45 28 46 78 47 29 48 83 49 77 50 79 51 30 52 82 53 76 54
REMARK SMILES IDX 75 55 31 57 63 58 43 59 62 60 44 61 47 62 61 63 80 64 45 65
REMARK SMILES IDX 46 66 60 68 81 69 48 70 32 71 33 72 41 73 34 74 35 75 39 76
REMARK SMILES IDX 42 77 36 78 37 79 40 80 38 81 64 82 65 83 73 84 66 85 67 86
REMARK SMILES IDX 71 87 74 88 68 89 69 90 72 91 70 92 49 93 50 94 58 95 51 96
REMARK SMILES IDX 52 97 56 98 59 99 53 100 54 101 57 102 55 103
REMARK H PARENT 13 7 20 37 79 56 47 67
REMARK Flexibility Score: inf
ROOT
ATOM      1  C   UNL A   1      31.140  27.323  26.844  1.00  0.00     0.002 C 
ENDROOT
BRANCH   1   2
ATOM      2  C   UNL A   1      30.286  27.181  25.584  1.00  0.00     0.021 C 
BRANCH   2   3
ATOM      3  C   UNL A   1      29.895  25.743  25.305  1.00  0.00     0.116 C 
BRANCH   3   4
ATOM      4  N   UNL A   1      30.174  24.913  26.451  1.00  0.00    -0.356 N 
ATOM      5  C   UNL A   1      30.994  23.847  26.550  1.00  0.00     0.224 C 
ATOM      6  O   UNL A   1      31.025  23.218  27.608  1.00  0.00    -0.275 OA
ATOM      7  H   UNL A   1      29.699  25.159  27.276  1.00  0.00     0.163 HD
BRANCH   5   8
ATOM      8  C   UNL A   1      31.847  23.446  25.377  1.00  0.00     0.099 C 
ATOM      9  N   UNL A   1      33.015  21.543  24.297  1.00  0.00    -0.337 N 
ATOM     10  C   UNL A   1      32.100  21.950  25.349  1.00  0.00     0.133 C 
ATOM     11  C   UNL A   1      34.263  22.296  24.171  1.00  0.00     0.133 C 
ATOM     12  C   UNL A   1      34.058  23.826  24.139  1.00  0.00     0.099 C 
ATOM     13  C   UNL A   1      33.071  24.343  25.178  1.00  0.00     0.030 C 
BRANCH   9  14
ATOM     14  C   UNL A   1      32.707  20.354  23.644  1.00  0.00     0.254 C 
ATOM     15  O   UNL A   1      32.032  20.323  22.616  1.00  0.00    -0.269 OA
BRANCH  14  16
ATOM     16  C   UNL A   1      33.064  19.049  24.235  1.00  0.00     0.042 A 
ATOM     17  C   UNL A   1      33.054  14.906  25.371  1.00  0.00     0.047 C 
ATOM     18  C   UNL A   1      33.134  16.365  25.036  1.00  0.00    -0.015 A 
ATOM     19  C   UNL A   1      32.587  17.337  25.883  1.00  0.00     0.007 A 
ATOM     20  C   UNL A   1      33.691  16.765  23.818  1.00  0.00     0.126 A 
ATOM     21  C   UNL A   1      32.546  18.676  25.483  1.00  0.00     0.014 A 
ATOM     22  C   UNL A   1      33.654  18.091  23.407  1.00  0.00     0.053 A 
ATOM     23  F   UNL A   1      34.211  15.847  22.991  1.00  0.00    -0.207 F 
ENDBRANCH  14  16
ENDBRANCH   9  14
BRANCH  12  24
ATOM     24  C   UNL A   1      33.923  24.300  22.687  1.00  0.00     0.227 C 
ATOM     25  O   UNL A   1      33.969  23.439  21.799  1.00  0.00    -0.275 OA
ATOM     26  N   UNL A   1      33.491  25.570  22.396  1.00  0.00    -0.338 N 
ATOM     27  C   UNL A   1      34.045  26.854  22.831  1.00  0.00     0.148 C 
ATOM     28  C   UNL A   1      32.453  25.740  21.385  1.00  0.00     0.148 C 
ATOM     29  C   UNL A   1      32.913  27.757  23.356  1.00  0.00     0.181 C 
ATOM     30  C   UNL A   1      31.357  26.643  21.963  1.00  0.00     0.181 C 
ATOM     31  O   UNL A   1      31.896  27.919  22.350  1.00  0.00    -0.378 OA
ENDBRANCH  12  24
ENDBRANCH   5   8
ENDBRANCH   3   4
ENDBRANCH   2   3
ENDBRANCH   1   2
BRANCH   1  32
ATOM     32  C   UNL A   1      32.020  28.585  26.881  1.00  0.00     0.002 C 
BRANCH  32  33
ATOM     33  C   UNL A   1      33.495  28.361  27.251  1.00  0.00     0.021 C 
BRANCH  33  34
ATOM     34  C   UNL A   1      34.403  29.282  26.484  1.00  0.00     0.116 C 
BRANCH  34  35
ATOM     35  N   UNL A   1      34.374  30.616  27.068  1.00  0.00    -0.352 N 
ATOM     36  C   UNL A   1      35.046  31.027  28.195  1.00  0.00     0.251 C 
ATOM     37  H   UNL A   1      33.818  31.288  26.611  1.00  0.00     0.163 HD
ATOM     38  O   UNL A   1      34.661  31.955  28.878  1.00  0.00    -0.269 OA
BRANCH  36  39
ATOM     39  C   UNL A   1      36.289  30.312  28.502  1.00  0.00     0.039 A 
ATOM     40  C   UNL A   1      36.456  29.581  29.679  1.00  0.00     0.014 A 
ATOM     41  C   UNL A   1      37.306  30.426  27.557  1.00  0.00     0.014 A 
ATOM     42  C   UNL A   1      37.679  28.962  29.904  1.00  0.00     0.010 A 
ATOM     43  C   UNL A   1      38.395  29.633  27.663  1.00  0.00     0.010 A 
ATOM     44  C   UNL A   1      38.631  29.014  28.885  1.00  0.00    -0.014 A 
BRANCH  44  45
ATOM     45  C   UNL A   1      39.976  28.504  28.972  1.00  0.00     0.031 A 
ATOM     46  C   UNL A   1      40.207  27.105  28.647  1.00  0.00     0.074 A 
ATOM     47  C   UNL A   1      40.925  29.454  29.136  1.00  0.00     0.049 A 
ATOM     48  N   UNL A   1      41.178  26.416  29.116  1.00  0.00    -0.248 NA
ATOM     49  C   UNL A   1      39.319  26.336  27.778  1.00  0.00     0.031 C 
ATOM     50  C   UNL A   1      42.361  29.425  28.942  1.00  0.00     0.029 A 
ATOM     51  N   UNL A   1      40.691  30.747  29.641  1.00  0.00    -0.354 N 
ATOM     52  C   UNL A   1      41.287  25.309  28.306  1.00  0.00     0.074 A 
ATOM     53  C   UNL A   1      40.009  25.198  27.646  1.00  0.00     0.031 C 
ATOM     54  C   UNL A   1      42.902  30.452  29.631  1.00  0.00     0.029 A 
ATOM     55  C   UNL A   1      41.830  31.084  30.388  1.00  0.00     0.049 A 
ATOM     56  H   UNL A   1      39.891  31.303  29.499  1.00  0.00     0.167 HD
ATOM     57  C   UNL A   1      42.530  24.777  28.124  1.00  0.00     0.037 A 
ATOM     58  C   UNL A   1      41.687  31.110  31.749  1.00  0.00     0.037 A 
ATOM     59  C   UNL A   1      43.522  25.586  28.848  1.00  0.00     0.049 A 
ATOM     60  C   UNL A   1      42.395  29.946  32.410  1.00  0.00     0.074 A 
ATOM     61  C   UNL A   1      44.431  26.561  28.468  1.00  0.00     0.029 A 
ATOM     62  N   UNL A   1      43.383  25.728  30.218  1.00  0.00    -0.354 N 
ATOM     63  N   UNL A   1      42.893  28.930  31.755  1.00  0.00    -0.248 NA
ATOM     64  C   UNL A   1      42.589  29.815  33.847  1.00  0.00     0.031 C 
ATOM     65  C   UNL A   1      44.848  27.265  29.641  1.00  0.00     0.029 A 
ATOM     66  C   UNL A   1      44.193  26.719  30.729  1.00  0.00     0.049 A 
ATOM     67  H   UNL A   1      42.774  25.182  30.766  1.00  0.00     0.167 HD
ATOM     68  C   UNL A   1      43.500  28.059  32.612  1.00  0.00     0.074 A 
ATOM     69  C   UNL A   1      43.231  28.635  33.922  1.00  0.00     0.031 C 
ATOM     70  C   UNL A   1      44.169  26.947  32.168  1.00  0.00     0.037 A 
BRANCH  57  71
ATOM     71  C   UNL A   1      42.905  23.730  27.098  1.00  0.00     0.064 A 
ATOM     72  C   UNL A   1      42.688  22.360  27.366  1.00  0.00     0.173 A 
ATOM     73  C   UNL A   1      43.462  23.995  25.831  1.00  0.00     0.173 A 
ATOM     74  F   UNL A   1      42.090  21.953  28.492  1.00  0.00    -0.203 F 
ATOM     75  C   UNL A   1      43.064  21.347  26.481  1.00  0.00     0.198 A 
ATOM     76  C   UNL A   1      43.874  22.978  24.959  1.00  0.00     0.198 A 
ATOM     77  F   UNL A   1      43.572  25.240  25.355  1.00  0.00    -0.203 F 
ATOM     78  F   UNL A   1      42.826  20.068  26.801  1.00  0.00    -0.200 F 
ATOM     79  C   UNL A   1      43.677  21.654  25.286  1.00  0.00     0.200 A 
ATOM     80  F   UNL A   1      44.450  23.298  23.791  1.00  0.00    -0.200 F 
ATOM     81  F   UNL A   1      44.049  20.682  24.444  1.00  0.00    -0.200 F 
ENDBRANCH  57  71
BRANCH  58  82
ATOM     82  C   UNL A   1      40.355  31.711  32.125  1.00  0.00     0.064 A 
ATOM     83  C   UNL A   1      39.435  30.837  32.754  1.00  0.00     0.173 A 
ATOM     84  C   UNL A   1      40.206  33.081  32.386  1.00  0.00     0.173 A 
ATOM     85  F   UNL A   1      39.503  29.516  32.519  1.00  0.00    -0.203 F 
ATOM     86  C   UNL A   1      38.586  31.280  33.766  1.00  0.00     0.198 A 
ATOM     87  C   UNL A   1      39.304  33.528  33.361  1.00  0.00     0.198 A 
ATOM     88  F   UNL A   1      41.016  33.974  31.802  1.00  0.00    -0.203 F 
ATOM     89  F   UNL A   1      37.890  30.392  34.492  1.00  0.00    -0.200 F 
ATOM     90  C   UNL A   1      38.551  32.622  34.096  1.00  0.00     0.200 A 
ATOM     91  F   UNL A   1      39.233  34.835  33.652  1.00  0.00    -0.200 F 
ATOM     92  F   UNL A   1      37.826  33.029  35.148  1.00  0.00    -0.200 F 
ENDBRANCH  58  82
BRANCH  70  93
ATOM     93  C   UNL A   1      44.820  25.912  33.056  1.00  0.00     0.064 A 
ATOM     94  C   UNL A   1      46.171  25.558  32.956  1.00  0.00     0.173 A 
ATOM     95  C   UNL A   1      44.082  25.185  34.027  1.00  0.00     0.173 A 
ATOM     96  F   UNL A   1      46.929  26.001  31.944  1.00  0.00    -0.203 F 
ATOM     97  C   UNL A   1      46.773  24.691  33.873  1.00  0.00     0.198 A 
ATOM     98  C   UNL A   1      44.671  24.286  34.906  1.00  0.00     0.198 A 
ATOM     99  F   UNL A   1      42.759  25.310  34.178  1.00  0.00    -0.203 F 
ATOM    100  F   UNL A   1      48.089  24.458  33.793  1.00  0.00    -0.200 F 
ATOM    101  C   UNL A   1      46.027  24.071  34.858  1.00  0.00     0.200 A 
ATOM    102  F   UNL A   1      43.910  23.648  35.805  1.00  0.00    -0.200 F 
ATOM    103  F   UNL A   1      46.608  23.253  35.744  1.00  0.00    -0.200 F 
ENDBRANCH  70  93
ENDBRANCH  44  45
ENDBRANCH  36  39
ENDBRANCH  34  35
ENDBRANCH  33  34
ENDBRANCH  32  33
ENDBRANCH   1  32
TORSDOF 16
ENDMDL
MODEL 3
REMARK VINA RESULT:     -14.0      1.565      2.467
REMARK SMILES Cc1ccc(C(=O)N2C[C@@H](C(=O)NCCCCCCNC(=O)c3ccc(-c4c5nc(c(-c6c(F)c(F)c(F)c(F)c6F)c6ccc([nH]6)c(-c6c(F)c(F)c(F)c(F)c6F)c6nc(c(-c7c(F)c(F)c(F)c(F)c7F)c7ccc4[nH]7)C=C6)C=C5)cc3)C[C@H](C(=O)N3CCOCC3)C2)cc1F
REMARK SMILES IDX 16 1 15 2 14 3 13 4 11 5 12 6 10 8 8 9 9 10 96 11 87 12
REMARK SMILES IDX 86 13 6 14 7 15 5 16 1 17 2 18 3 19 98 20 4 21 97 22 99 23
REMARK SMILES IDX 88 24 89 25 90 26 91 27 95 28 92 29 94 30 93 31 17 32 18 33
REMARK SMILES IDX 19 34 20 35 21 36 22 38 23 39 24 40 85 41 25 42 84 43 26 44
REMARK SMILES IDX 27 45 28 46 78 47 29 48 83 49 77 50 79 51 30 52 82 53 76 54
REMARK SMILES IDX 75 55 31 57 63 58 43 59 62 60 44 61 47 62 61 63 80 64 45 65
REMARK SMILES IDX 46 66 60 68 81 69 48 70 32 71 33 72 41 73 34 74 35 75 39 76
REMARK SMILES IDX 42 77 36 78 37 79 40 80 38 81 64 82 65 83 73 84 66 85 67 86
REMARK SMILES IDX 71 87 74 88 68 89 69 90 72 91 70 92 49 93 50 94 58 95 51 96
REMARK SMILES IDX 52 97 56 98 59 99 53 100 54 101 57 102 55 103
REMARK H PARENT 13 7 20 37 79 56 47 67
REMARK Flexibility Score: inf
ROOT
ATOM      1  C   UNL A   1      31.984  29.364  24.946  1.00  0.00     0.002 C 
ENDROOT
BRANCH   1   2
ATOM      2  C   UNL A   1      30.654  29.060  24.257  1.00  0.00     0.021 C 
BRANCH   2   3
ATOM      3  C   UNL A   1      30.805  28.085  23.106  1.00  0.00     0.116 C 
BRANCH   3   4
ATOM      4  N   UNL A   1      32.033  28.334  22.391  1.00  0.00    -0.356 N 
ATOM      5  C   UNL A   1      33.118  27.544  22.263  1.00  0.00     0.224 C 
ATOM      6  O   UNL A   1      34.106  27.984  21.675  1.00  0.00    -0.275 OA
ATOM      7  H   UNL A   1      32.086  29.203  21.934  1.00  0.00     0.163 HD
BRANCH   5   8
ATOM      8  C   UNL A   1      33.105  26.153  22.835  1.00  0.00     0.099 C 
ATOM      9  N   UNL A   1      34.476  24.440  23.992  1.00  0.00    -0.337 N 
ATOM     10  C   UNL A   1      34.411  25.816  23.529  1.00  0.00     0.133 C 
ATOM     11  C   UNL A   1      34.096  23.398  23.039  1.00  0.00     0.133 C 
ATOM     12  C   UNL A   1      32.743  23.664  22.343  1.00  0.00     0.099 C 
ATOM     13  C   UNL A   1      32.562  25.100  21.865  1.00  0.00     0.030 C 
BRANCH   9  14
ATOM     14  C   UNL A   1      35.084  24.239  25.227  1.00  0.00     0.254 C 
ATOM     15  O   UNL A   1      35.084  25.097  26.108  1.00  0.00    -0.269 OA
BRANCH  14  16
ATOM     16  C   UNL A   1      35.881  23.025  25.492  1.00  0.00     0.042 A 
ATOM     17  C   UNL A   1      38.468  19.624  25.051  1.00  0.00     0.047 C 
ATOM     18  C   UNL A   1      37.544  20.779  25.296  1.00  0.00    -0.015 A 
ATOM     19  C   UNL A   1      36.156  20.636  25.187  1.00  0.00     0.007 A 
ATOM     20  C   UNL A   1      38.076  22.045  25.560  1.00  0.00     0.126 A 
ATOM     21  C   UNL A   1      35.324  21.757  25.278  1.00  0.00     0.014 A 
ATOM     22  C   UNL A   1      37.262  23.166  25.651  1.00  0.00     0.053 A 
ATOM     23  F   UNL A   1      39.403  22.201  25.660  1.00  0.00    -0.207 F 
ENDBRANCH  14  16
ENDBRANCH   9  14
BRANCH  12  24
ATOM     24  C   UNL A   1      31.612  22.997  23.134  1.00  0.00     0.227 C 
ATOM     25  O   UNL A   1      31.221  21.889  22.746  1.00  0.00    -0.275 OA
ATOM     26  N   UNL A   1      31.244  23.465  24.370  1.00  0.00    -0.338 N 
ATOM     27  C   UNL A   1      30.805  24.809  24.753  1.00  0.00     0.148 C 
ATOM     28  C   UNL A   1      31.077  22.509  25.458  1.00  0.00     0.148 C 
ATOM     29  C   UNL A   1      31.572  25.269  26.007  1.00  0.00     0.181 C 
ATOM     30  C   UNL A   1      31.861  23.016  26.675  1.00  0.00     0.181 C 
ATOM     31  O   UNL A   1      31.399  24.318  27.074  1.00  0.00    -0.378 OA
ENDBRANCH  12  24
ENDBRANCH   5   8
ENDBRANCH   3   4
ENDBRANCH   2   3
ENDBRANCH   1   2
BRANCH   1  32
ATOM     32  C   UNL A   1      31.927  29.332  26.484  1.00  0.00     0.002 C 
BRANCH  32  33
ATOM     33  C   UNL A   1      33.045  28.535  27.177  1.00  0.00     0.021 C 
BRANCH  33  34
ATOM     34  C   UNL A   1      34.407  28.994  26.735  1.00  0.00     0.116 C 
BRANCH  34  35
ATOM     35  N   UNL A   1      34.580  30.409  27.033  1.00  0.00    -0.352 N 
ATOM     36  C   UNL A   1      35.417  30.945  27.982  1.00  0.00     0.251 C 
ATOM     37  H   UNL A   1      34.046  31.043  26.501  1.00  0.00     0.163 HD
ATOM     38  O   UNL A   1      35.210  32.028  28.494  1.00  0.00    -0.269 OA
BRANCH  36  39
ATOM     39  C   UNL A   1      36.609  30.157  28.312  1.00  0.00     0.039 A 
ATOM     40  C   UNL A   1      36.726  29.449  29.510  1.00  0.00     0.014 A 
ATOM     41  C   UNL A   1      37.631  30.174  27.367  1.00  0.00     0.014 A 
ATOM     42  C   UNL A   1      37.904  28.755  29.754  1.00  0.00     0.010 A 
ATOM     43  C   UNL A   1      38.664  29.313  27.497  1.00  0.00     0.010 A 
ATOM     44  C   UNL A   1      38.857  28.714  28.737  1.00  0.00    -0.014 A 
BRANCH  44  45
ATOM     45  C   UNL A   1      40.165  28.117  28.841  1.00  0.00     0.031 A 
ATOM     46  C   UNL A   1      40.290  26.684  28.616  1.00  0.00     0.074 A 
ATOM     47  C   UNL A   1      41.182  29.005  28.919  1.00  0.00     0.049 A 
ATOM     48  N   UNL A   1      41.220  25.964  29.120  1.00  0.00    -0.248 NA
ATOM     49  C   UNL A   1      39.333  25.921  27.821  1.00  0.00     0.031 C 
ATOM     50  C   UNL A   1      42.607  28.859  28.706  1.00  0.00     0.029 A 
ATOM     51  N   UNL A   1      41.049  30.346  29.330  1.00  0.00    -0.354 N 
ATOM     52  C   UNL A   1      41.233  24.796  28.393  1.00  0.00     0.074 A 
ATOM     53  C   UNL A   1      39.938  24.729  27.762  1.00  0.00     0.031 C 
ATOM     54  C   UNL A   1      43.233  29.893  29.309  1.00  0.00     0.029 A 
ATOM     55  C   UNL A   1      42.224  30.653  30.033  1.00  0.00     0.049 A 
ATOM     56  H   UNL A   1      40.287  30.945  29.160  1.00  0.00     0.167 HD
ATOM     57  C   UNL A   1      42.432  24.165  28.232  1.00  0.00     0.037 A 
ATOM     58  C   UNL A   1      42.111  30.789  31.390  1.00  0.00     0.037 A 
ATOM     59  C   UNL A   1      43.493  24.951  28.879  1.00  0.00     0.049 A 
ATOM     60  C   UNL A   1      42.749  29.628  32.124  1.00  0.00     0.074 A 
ATOM     61  C   UNL A   1      44.461  25.828  28.414  1.00  0.00     0.029 A 
ATOM     62  N   UNL A   1      43.392  25.202  30.236  1.00  0.00    -0.354 N 
ATOM     63  N   UNL A   1      43.160  28.534  31.539  1.00  0.00    -0.248 NA
ATOM     64  C   UNL A   1      42.962  29.589  33.565  1.00  0.00     0.031 C 
ATOM     65  C   UNL A   1      44.950  26.584  29.525  1.00  0.00     0.029 A 
ATOM     66  C   UNL A   1      44.280  26.167  30.660  1.00  0.00     0.049 A 
ATOM     67  H   UNL A   1      42.758  24.742  30.833  1.00  0.00     0.167 HD
ATOM     68  C   UNL A   1      43.722  27.686  32.450  1.00  0.00     0.074 A 
ATOM     69  C   UNL A   1      43.521  28.374  33.717  1.00  0.00     0.031 C 
ATOM     70  C   UNL A   1      44.302  26.500  32.078  1.00  0.00     0.037 A 
BRANCH  57  71
ATOM     71  C   UNL A   1      42.712  23.022  27.281  1.00  0.00     0.064 A 
ATOM     72  C   UNL A   1      42.123  21.756  27.495  1.00  0.00     0.173 A 
ATOM     73  C   UNL A   1      43.528  23.098  26.134  1.00  0.00     0.173 A 
ATOM     74  F   UNL A   1      41.257  21.546  28.495  1.00  0.00    -0.203 F 
ATOM     75  C   UNL A   1      42.386  20.651  26.683  1.00  0.00     0.198 A 
ATOM     76  C   UNL A   1      43.823  21.981  25.342  1.00  0.00     0.198 A 
ATOM     77  F   UNL A   1      44.021  24.261  25.695  1.00  0.00    -0.203 F 
ATOM     78  F   UNL A   1      41.790  19.479  26.946  1.00  0.00    -0.200 F 
ATOM     79  C   UNL A   1      43.254  20.756  25.619  1.00  0.00     0.200 A 
ATOM     80  F   UNL A   1      44.654  22.108  24.297  1.00  0.00    -0.200 F 
ATOM     81  F   UNL A   1      43.516  19.693  24.848  1.00  0.00    -0.200 F 
ENDBRANCH  57  71
BRANCH  58  82
ATOM     82  C   UNL A   1      40.833  31.509  31.741  1.00  0.00     0.064 A 
ATOM     83  C   UNL A   1      39.843  30.735  32.395  1.00  0.00     0.173 A 
ATOM     84  C   UNL A   1      40.797  32.894  31.955  1.00  0.00     0.173 A 
ATOM     85  F   UNL A   1      39.803  29.406  32.204  1.00  0.00    -0.203 F 
ATOM     86  C   UNL A   1      39.033  31.280  33.389  1.00  0.00     0.198 A 
ATOM     87  C   UNL A   1      39.933  33.447  32.912  1.00  0.00     0.198 A 
ATOM     88  F   UNL A   1      41.678  33.698  31.345  1.00  0.00    -0.203 F 
ATOM     89  F   UNL A   1      38.265  30.477  34.142  1.00  0.00    -0.200 F 
ATOM     90  C   UNL A   1      39.107  32.631  33.673  1.00  0.00     0.200 A 
ATOM     91  F   UNL A   1      39.969  34.764  33.159  1.00  0.00    -0.200 F 
ATOM     92  F   UNL A   1      38.417  33.131  34.708  1.00  0.00    -0.200 F 
ENDBRANCH  58  82
BRANCH  70  93
ATOM     93  C   UNL A   1      44.897  25.488  33.031  1.00  0.00     0.064 A 
ATOM     94  C   UNL A   1      44.136  24.773  33.962  1.00  0.00     0.173 A 
ATOM     95  C   UNL A   1      46.293  25.236  33.079  1.00  0.00     0.173 A 
ATOM     96  F   UNL A   1      42.847  25.070  34.177  1.00  0.00    -0.203 F 
ATOM     97  C   UNL A   1      44.694  23.756  34.742  1.00  0.00     0.198 A 
ATOM     98  C   UNL A   1      46.856  24.259  33.890  1.00  0.00     0.198 A 
ATOM     99  F   UNL A   1      47.181  25.914  32.344  1.00  0.00    -0.203 F 
ATOM    100  F   UNL A   1      43.905  23.035  35.549  1.00  0.00    -0.200 F 
ATOM    101  C   UNL A   1      46.050  23.487  34.691  1.00  0.00     0.200 A 
ATOM    102  F   UNL A   1      48.182  24.068  33.871  1.00  0.00    -0.200 F 
ATOM    103  F   UNL A   1      46.580  22.503  35.427  1.00  0.00    -0.200 F 
ENDBRANCH  70  93
ENDBRANCH  44  45
ENDBRANCH  36  39
ENDBRANCH  34  35
ENDBRANCH  33  34
ENDBRANCH  32  33
ENDBRANCH   1  32
TORSDOF 16
ENDMDL
