MODEL 1
REMARK VINA RESULT:     -12.3      0.000      0.000
REMARK SMILES O=C(CCN1C(=O)S/C(=C\c2ccc(F)cc2)C1=O)Nc1ccc(O)cc1C(=O)NCCCCCCNC(=O)c1ccc(-c2c3nc(c(-c4c(F)c(F)c(F)c(F)c4F)c4ccc([nH]4)c(-c4c(F)c(F)c(F)c(F)c4F)c4nc(c(-c5c(F)c(F)c(F)c(F)c5F)c5ccc2[nH]5)C=C4)C=C3)cc1
REMARK SMILES IDX 32 1 31 2 30 3 28 4 29 5 27 7 21 8 22 9 23 10 26 11 24 12
REMARK SMILES IDX 20 13 1 14 2 15 3 17 4 18 5 19 6 20 18 21 7 22 8 23 9 24
REMARK SMILES IDX 19 25 10 26 11 27 12 28 17 29 13 30 16 31 14 32 15 33 25 34
REMARK SMILES IDX 33 36 34 37 35 38 36 39 37 40 38 41 39 43 40 44 41 45 102 46
REMARK SMILES IDX 42 47 101 48 43 49 44 50 45 51 95 52 46 53 100 54 94 55
REMARK SMILES IDX 96 56 47 57 99 58 93 59 92 60 48 62 80 63 60 64 79 65 61 66
REMARK SMILES IDX 64 67 78 68 97 69 62 70 63 71 77 73 98 74 65 75 49 76 50 77
REMARK SMILES IDX 58 78 51 79 52 80 56 81 59 82 53 83 54 84 57 85 55 86 81 87
REMARK SMILES IDX 82 88 90 89 83 90 84 91 88 92 91 93 85 94 86 95 89 96 87 97
REMARK SMILES IDX 66 98 67 99 75 100 68 101 69 102 73 103 76 104 70 105 71 106
REMARK SMILES IDX 74 107 72 108
REMARK H PARENT 30 6 20 16 25 35 37 42 96 61 64 72
REMARK Flexibility Score: inf
ROOT
ATOM      1  C   UNL A   1      34.840  31.156  27.878  1.00  0.00     0.021 C 
ENDROOT
BRANCH   1   2
ATOM      2  C   UNL A   1      33.841  30.380  26.989  1.00  0.00     0.116 C 
BRANCH   2   3
ATOM      3  N   UNL A   1      32.838  29.533  27.620  1.00  0.00    -0.352 N 
ATOM      4  C   UNL A   1      31.871  28.692  27.083  1.00  0.00     0.253 C 
ATOM      5  O   UNL A   1      31.277  27.938  27.858  1.00  0.00    -0.269 OA
ATOM      6  H   UNL A   1      32.846  29.561  28.604  1.00  0.00     0.163 HD
BRANCH   4   7
ATOM      7  C   UNL A   1      31.469  28.651  25.639  1.00  0.00     0.067 A 
ATOM      8  C   UNL A   1      31.585  27.546  24.775  1.00  0.00     0.054 A 
ATOM      9  C   UNL A   1      31.294  27.702  23.406  1.00  0.00     0.031 A 
ATOM     10  C   UNL A   1      30.744  28.890  22.919  1.00  0.00     0.048 A 
ATOM     11  C   UNL A   1      30.863  29.824  25.142  1.00  0.00     0.062 A 
ATOM     12  C   UNL A   1      30.486  29.924  23.803  1.00  0.00     0.116 A 
BRANCH   8  13
ATOM     13  N   UNL A   1      31.772  26.244  25.290  1.00  0.00    -0.325 N 
ATOM     14  O   UNL A   1      34.023  26.316  25.756  1.00  0.00    -0.275 OA
ATOM     15  C   UNL A   1      32.979  25.678  25.632  1.00  0.00     0.226 C 
ATOM     16  H   UNL A   1      30.966  25.693  25.414  1.00  0.00     0.169 HD
BRANCH  15  17
ATOM     17  C   UNL A   1      32.981  24.163  25.831  1.00  0.00     0.122 C 
BRANCH  17  18
ATOM     18  C   UNL A   1      33.453  23.307  24.661  1.00  0.00     0.140 C 
BRANCH  18  19
ATOM     19  N   UNL A   1      34.600  22.448  24.947  1.00  0.00    -0.268 N 
ATOM     20  C   UNL A   1      34.555  21.084  24.937  1.00  0.00     0.293 C 
ATOM     21  C   UNL A   1      35.860  22.952  24.968  1.00  0.00     0.268 C 
ATOM     22  O   UNL A   1      33.597  20.391  24.627  1.00  0.00    -0.261 OA
ATOM     23  S   UNL A   1      36.143  20.418  25.366  1.00  0.00    -0.022 SA
ATOM     24  C   UNL A   1      36.849  21.969  25.413  1.00  0.00     0.083 C 
ATOM     25  O   UNL A   1      36.154  24.086  24.646  1.00  0.00    -0.268 OA
ATOM     26  C   UNL A   1      38.057  22.426  25.757  1.00  0.00     0.029 C 
BRANCH  26  27
ATOM     27  C   UNL A   1      39.241  21.679  26.144  1.00  0.00    -0.024 A 
ATOM     28  C   UNL A   1      40.050  22.235  27.144  1.00  0.00     0.011 A 
ATOM     29  C   UNL A   1      39.515  20.405  25.642  1.00  0.00     0.011 A 
ATOM     30  C   UNL A   1      41.151  21.532  27.621  1.00  0.00     0.040 A 
ATOM     31  C   UNL A   1      40.619  19.701  26.126  1.00  0.00     0.040 A 
ATOM     32  C   UNL A   1      41.427  20.273  27.105  1.00  0.00     0.123 A 
ATOM     33  F   UNL A   1      42.484  19.592  27.567  1.00  0.00    -0.207 F 
ENDBRANCH  26  27
ENDBRANCH  18  19
ENDBRANCH  17  18
ENDBRANCH  15  17
ENDBRANCH   8  13
BRANCH  12  34
ATOM     34  O   UNL A   1      29.850  31.060  23.396  1.00  0.00    -0.508 OA
ATOM     35  H   UNL A   1      30.128  31.497  22.616  1.00  0.00     0.293 HD
ENDBRANCH  12  34
ENDBRANCH   4   7
ENDBRANCH   2   3
ENDBRANCH   1   2
BRANCH   1  36
ATOM     36  C   UNL A   1      34.884  32.696  28.030  1.00  0.00     0.002 C 
BRANCH  36  37
ATOM     37  C   UNL A   1      34.136  33.530  29.099  1.00  0.00     0.002 C 
BRANCH  37  38
ATOM     38  C   UNL A   1      33.105  34.593  28.713  1.00  0.00     0.021 C 
BRANCH  38  39
ATOM     39  C   UNL A   1      33.305  36.020  29.212  1.00  0.00     0.116 C 
BRANCH  39  40
ATOM     40  N   UNL A   1      32.512  36.356  30.387  1.00  0.00    -0.352 N 
ATOM     41  C   UNL A   1      32.655  35.990  31.710  1.00  0.00     0.251 C 
ATOM     42  H   UNL A   1      31.743  36.943  30.206  1.00  0.00     0.163 HD
ATOM     43  O   UNL A   1      31.785  36.302  32.519  1.00  0.00    -0.269 OA
BRANCH  41  44
ATOM     44  C   UNL A   1      33.826  35.205  32.183  1.00  0.00     0.039 A 
ATOM     45  C   UNL A   1      33.623  33.917  32.699  1.00  0.00     0.014 A 
ATOM     46  C   UNL A   1      35.116  35.737  32.172  1.00  0.00     0.014 A 
ATOM     47  C   UNL A   1      34.714  33.143  33.119  1.00  0.00     0.010 A 
ATOM     48  C   UNL A   1      36.209  34.936  32.505  1.00  0.00     0.010 A 
ATOM     49  C   UNL A   1      36.022  33.632  32.988  1.00  0.00    -0.014 A 
BRANCH  49  50
ATOM     50  C   UNL A   1      37.214  32.822  33.363  1.00  0.00     0.031 A 
ATOM     51  C   UNL A   1      37.919  33.083  34.667  1.00  0.00     0.074 A 
ATOM     52  C   UNL A   1      37.714  31.913  32.504  1.00  0.00     0.049 A 
ATOM     53  N   UNL A   1      39.047  32.592  35.116  1.00  0.00    -0.248 NA
ATOM     54  C   UNL A   1      37.286  34.053  35.573  1.00  0.00     0.031 C 
ATOM     55  C   UNL A   1      37.140  31.578  31.201  1.00  0.00     0.029 A 
ATOM     56  N   UNL A   1      38.825  31.110  32.593  1.00  0.00    -0.354 N 
ATOM     57  C   UNL A   1      39.263  33.206  36.343  1.00  0.00     0.074 A 
ATOM     58  C   UNL A   1      38.187  34.151  36.539  1.00  0.00     0.031 C 
ATOM     59  C   UNL A   1      37.881  30.618  30.627  1.00  0.00     0.029 A 
ATOM     60  C   UNL A   1      39.011  30.303  31.498  1.00  0.00     0.049 A 
ATOM     61  H   UNL A   1      39.431  31.113  33.369  1.00  0.00     0.167 HD
ATOM     62  C   UNL A   1      40.253  32.980  37.240  1.00  0.00     0.037 A 
ATOM     63  C   UNL A   1      39.985  29.413  31.220  1.00  0.00     0.037 A 
ATOM     64  C   UNL A   1      41.307  32.017  37.055  1.00  0.00     0.049 A 
ATOM     65  C   UNL A   1      41.102  29.209  32.206  1.00  0.00     0.074 A 
ATOM     66  C   UNL A   1      42.328  31.678  37.924  1.00  0.00     0.029 A 
ATOM     67  N   UNL A   1      41.471  31.237  35.918  1.00  0.00    -0.354 N 
ATOM     68  N   UNL A   1      41.281  29.772  33.377  1.00  0.00    -0.248 NA
ATOM     69  C   UNL A   1      42.158  28.257  31.832  1.00  0.00     0.031 C 
ATOM     70  C   UNL A   1      43.135  30.725  37.297  1.00  0.00     0.029 A 
ATOM     71  C   UNL A   1      42.593  30.436  36.055  1.00  0.00     0.049 A 
ATOM     72  H   UNL A   1      40.879  31.252  35.132  1.00  0.00     0.167 HD
ATOM     73  C   UNL A   1      42.456  29.237  33.885  1.00  0.00     0.074 A 
ATOM     74  C   UNL A   1      42.945  28.293  32.901  1.00  0.00     0.031 C 
ATOM     75  C   UNL A   1      43.070  29.505  35.063  1.00  0.00     0.037 A 
BRANCH  62  76
ATOM     76  C   UNL A   1      40.234  33.782  38.510  1.00  0.00     0.064 A 
ATOM     77  C   UNL A   1      39.402  33.414  39.578  1.00  0.00     0.173 A 
ATOM     78  C   UNL A   1      41.024  34.932  38.662  1.00  0.00     0.173 A 
ATOM     79  F   UNL A   1      38.619  32.329  39.485  1.00  0.00    -0.203 F 
ATOM     80  C   UNL A   1      39.366  34.166  40.751  1.00  0.00     0.198 A 
ATOM     81  C   UNL A   1      41.010  35.661  39.849  1.00  0.00     0.198 A 
ATOM     82  F   UNL A   1      41.844  35.323  37.676  1.00  0.00    -0.203 F 
ATOM     83  F   UNL A   1      38.548  33.806  41.751  1.00  0.00    -0.200 F 
ATOM     84  C   UNL A   1      40.177  35.281  40.890  1.00  0.00     0.200 A 
ATOM     85  F   UNL A   1      41.818  36.721  39.990  1.00  0.00    -0.200 F 
ATOM     86  F   UNL A   1      40.163  35.986  42.029  1.00  0.00    -0.200 F 
ENDBRANCH  62  76
BRANCH  63  87
ATOM     87  C   UNL A   1      39.907  28.620  29.967  1.00  0.00     0.064 A 
ATOM     88  C   UNL A   1      39.357  27.330  29.942  1.00  0.00     0.173 A 
ATOM     89  C   UNL A   1      40.458  29.118  28.778  1.00  0.00     0.173 A 
ATOM     90  F   UNL A   1      38.820  26.808  31.055  1.00  0.00    -0.203 F 
ATOM     91  C   UNL A   1      39.391  26.555  28.784  1.00  0.00     0.198 A 
ATOM     92  C   UNL A   1      40.472  28.350  27.614  1.00  0.00     0.198 A 
ATOM     93  F   UNL A   1      40.977  30.353  28.748  1.00  0.00    -0.203 F 
ATOM     94  F   UNL A   1      38.897  25.309  28.798  1.00  0.00    -0.200 F 
ATOM     95  C   UNL A   1      39.950  27.066  27.621  1.00  0.00     0.200 A 
ATOM     96  F   UNL A   1      40.997  28.854  26.490  1.00  0.00    -0.200 F 
ATOM     97  F   UNL A   1      39.987  26.319  26.509  1.00  0.00    -0.200 F 
ENDBRANCH  63  87
BRANCH  75  98
ATOM     98  C   UNL A   1      44.345  28.776  35.371  1.00  0.00     0.064 A 
ATOM     99  C   UNL A   1      45.579  29.291  34.945  1.00  0.00     0.173 A 
ATOM    100  C   UNL A   1      44.331  27.515  35.982  1.00  0.00     0.173 A 
ATOM    101  F   UNL A   1      45.642  30.490  34.348  1.00  0.00    -0.203 F 
ATOM    102  C   UNL A   1      46.751  28.554  35.094  1.00  0.00     0.198 A 
ATOM    103  C   UNL A   1      45.508  26.791  36.151  1.00  0.00     0.198 A 
ATOM    104  F   UNL A   1      43.177  26.988  36.416  1.00  0.00    -0.203 F 
ATOM    105  F   UNL A   1      47.912  29.044  34.638  1.00  0.00    -0.200 F 
ATOM    106  C   UNL A   1      46.714  27.304  35.694  1.00  0.00     0.200 A 
ATOM    107  F   UNL A   1      45.476  25.592  36.748  1.00  0.00    -0.200 F 
ATOM    108  F   UNL A   1      47.842  26.594  35.833  1.00  0.00    -0.200 F 
ENDBRANCH  75  98
ENDBRANCH  49  50
ENDBRANCH  41  44
ENDBRANCH  39  40
ENDBRANCH  38  39
ENDBRANCH  37  38
ENDBRANCH  36  37
ENDBRANCH   1  36
TORSDOF 19
ENDMDL
MODEL 2
REMARK VINA RESULT:     -12.1      2.145      7.394
REMARK SMILES O=C(CCN1C(=O)S/C(=C\c2ccc(F)cc2)C1=O)Nc1ccc(O)cc1C(=O)NCCCCCCNC(=O)c1ccc(-c2c3nc(c(-c4c(F)c(F)c(F)c(F)c4F)c4ccc([nH]4)c(-c4c(F)c(F)c(F)c(F)c4F)c4nc(c(-c5c(F)c(F)c(F)c(F)c5F)c5ccc2[nH]5)C=C4)C=C3)cc1
REMARK SMILES IDX 32 1 31 2 30 3 28 4 29 5 27 7 21 8 22 9 23 10 26 11 24 12
REMARK SMILES IDX 20 13 1 14 2 15 3 17 4 18 5 19 6 20 18 21 7 22 8 23 9 24
REMARK SMILES IDX 19 25 10 26 11 27 12 28 17 29 13 30 16 31 14 32 15 33 25 34
REMARK SMILES IDX 33 36 34 37 35 38 36 39 37 40 38 41 39 43 40 44 41 45 102 46
REMARK SMILES IDX 42 47 101 48 43 49 44 50 45 51 95 52 46 53 100 54 94 55
REMARK SMILES IDX 96 56 47 57 99 58 93 59 92 60 48 62 80 63 60 64 79 65 61 66
REMARK SMILES IDX 64 67 78 68 97 69 62 70 63 71 77 73 98 74 65 75 49 76 50 77
REMARK SMILES IDX 58 78 51 79 52 80 56 81 59 82 53 83 54 84 57 85 55 86 81 87
REMARK SMILES IDX 82 88 90 89 83 90 84 91 88 92 91 93 85 94 86 95 89 96 87 97
REMARK SMILES IDX 66 98 67 99 75 100 68 101 69 102 73 103 76 104 70 105 71 106
REMARK SMILES IDX 74 107 72 108
REMARK H PARENT 30 6 20 16 25 35 37 42 96 61 64 72
REMARK Flexibility Score: inf
ROOT
ATOM      1  C   UNL A   1      33.439  28.652  26.968  1.00  0.00     0.021 C 
ENDROOT
BRANCH   1   2
ATOM      2  C   UNL A   1      31.957  28.604  27.407  1.00  0.00     0.116 C 
BRANCH   2   3
ATOM      3  N   UNL A   1      31.153  27.439  27.065  1.00  0.00    -0.352 N 
ATOM      4  C   UNL A   1      30.713  26.947  25.842  1.00  0.00     0.253 C 
ATOM      5  O   UNL A   1      30.204  25.824  25.830  1.00  0.00    -0.269 OA
ATOM      6  H   UNL A   1      30.868  26.904  27.841  1.00  0.00     0.163 HD
BRANCH   4   7
ATOM      7  C   UNL A   1      30.780  27.688  24.541  1.00  0.00     0.067 A 
ATOM      8  C   UNL A   1      31.932  27.893  23.759  1.00  0.00     0.054 A 
ATOM      9  C   UNL A   1      31.864  28.730  22.628  1.00  0.00     0.031 A 
ATOM     10  C   UNL A   1      30.641  29.235  22.181  1.00  0.00     0.048 A 
ATOM     11  C   UNL A   1      29.546  28.161  24.045  1.00  0.00     0.062 A 
ATOM     12  C   UNL A   1      29.485  28.903  22.866  1.00  0.00     0.116 A 
BRANCH   8  13
ATOM     13  N   UNL A   1      33.088  27.106  23.958  1.00  0.00    -0.325 N 
ATOM     14  O   UNL A   1      32.358  25.099  23.103  1.00  0.00    -0.275 OA
ATOM     15  C   UNL A   1      33.190  25.752  23.731  1.00  0.00     0.226 C 
ATOM     16  H   UNL A   1      33.892  27.567  24.288  1.00  0.00     0.169 HD
BRANCH  15  17
ATOM     17  C   UNL A   1      34.407  25.056  24.337  1.00  0.00     0.122 C 
BRANCH  17  18
ATOM     18  C   UNL A   1      35.132  24.035  23.468  1.00  0.00     0.140 C 
BRANCH  18  19
ATOM     19  N   UNL A   1      35.202  22.686  24.026  1.00  0.00    -0.268 N 
ATOM     20  C   UNL A   1      36.208  22.246  24.836  1.00  0.00     0.293 C 
ATOM     21  C   UNL A   1      34.121  21.865  24.002  1.00  0.00     0.268 C 
ATOM     22  O   UNL A   1      37.139  22.911  25.266  1.00  0.00    -0.261 OA
ATOM     23  S   UNL A   1      35.939  20.546  25.273  1.00  0.00    -0.022 SA
ATOM     24  C   UNL A   1      34.433  20.516  24.475  1.00  0.00     0.083 C 
ATOM     25  O   UNL A   1      33.010  22.199  23.641  1.00  0.00    -0.268 OA
ATOM     26  C   UNL A   1      33.541  19.554  24.218  1.00  0.00     0.029 C 
BRANCH  26  27
ATOM     27  C   UNL A   1      33.547  18.165  24.642  1.00  0.00    -0.024 A 
ATOM     28  C   UNL A   1      32.446  17.717  25.384  1.00  0.00     0.011 A 
ATOM     29  C   UNL A   1      34.536  17.267  24.237  1.00  0.00     0.011 A 
ATOM     30  C   UNL A   1      32.348  16.379  25.747  1.00  0.00     0.040 A 
ATOM     31  C   UNL A   1      34.432  15.923  24.600  1.00  0.00     0.040 A 
ATOM     32  C   UNL A   1      33.343  15.495  25.355  1.00  0.00     0.123 A 
ATOM     33  F   UNL A   1      33.247  14.204  25.700  1.00  0.00    -0.207 F 
ENDBRANCH  26  27
ENDBRANCH  18  19
ENDBRANCH  17  18
ENDBRANCH  15  17
ENDBRANCH   8  13
BRANCH  12  34
ATOM     34  O   UNL A   1      28.257  29.280  22.406  1.00  0.00    -0.508 OA
ATOM     35  H   UNL A   1      28.162  29.585  21.525  1.00  0.00     0.293 HD
ENDBRANCH  12  34
ENDBRANCH   4   7
ENDBRANCH   2   3
ENDBRANCH   1   2
BRANCH   1  36
ATOM     36  C   UNL A   1      34.528  29.545  27.613  1.00  0.00     0.002 C 
BRANCH  36  37
ATOM     37  C   UNL A   1      34.496  31.088  27.722  1.00  0.00     0.002 C 
BRANCH  37  38
ATOM     38  C   UNL A   1      33.191  31.851  27.962  1.00  0.00     0.021 C 
BRANCH  38  39
ATOM     39  C   UNL A   1      32.787  32.938  26.974  1.00  0.00     0.116 C 
BRANCH  39  40
ATOM     40  N   UNL A   1      32.474  34.219  27.593  1.00  0.00    -0.352 N 
ATOM     41  C   UNL A   1      33.031  34.857  28.683  1.00  0.00     0.251 C 
ATOM     42  H   UNL A   1      31.740  34.713  27.161  1.00  0.00     0.163 HD
ATOM     43  O   UNL A   1      32.520  35.892  29.103  1.00  0.00    -0.269 OA
BRANCH  41  44
ATOM     44  C   UNL A   1      34.225  34.312  29.384  1.00  0.00     0.039 A 
ATOM     45  C   UNL A   1      34.053  33.625  30.594  1.00  0.00     0.014 A 
ATOM     46  C   UNL A   1      35.515  34.510  28.892  1.00  0.00     0.014 A 
ATOM     47  C   UNL A   1      35.158  33.072  31.255  1.00  0.00     0.010 A 
ATOM     48  C   UNL A   1      36.603  33.885  29.501  1.00  0.00     0.010 A 
ATOM     49  C   UNL A   1      36.441  33.162  30.693  1.00  0.00    -0.014 A 
BRANCH  49  50
ATOM     50  C   UNL A   1      37.633  32.538  31.329  1.00  0.00     0.031 A 
ATOM     51  C   UNL A   1      38.364  31.427  30.625  1.00  0.00     0.074 A 
ATOM     52  C   UNL A   1      38.011  32.905  32.568  1.00  0.00     0.049 A 
ATOM     53  N   UNL A   1      39.330  30.659  31.062  1.00  0.00    -0.248 NA
ATOM     54  C   UNL A   1      37.925  31.115  29.256  1.00  0.00     0.031 C 
ATOM     55  C   UNL A   1      37.377  33.953  33.368  1.00  0.00     0.029 A 
ATOM     56  N   UNL A   1      39.015  32.432  33.377  1.00  0.00    -0.354 N 
ATOM     57  C   UNL A   1      39.600  29.767  30.031  1.00  0.00     0.074 A 
ATOM     58  C   UNL A   1      38.654  30.046  28.973  1.00  0.00     0.031 C 
ATOM     59  C   UNL A   1      38.025  34.067  34.538  1.00  0.00     0.029 A 
ATOM     60  C   UNL A   1      39.090  33.068  34.593  1.00  0.00     0.049 A 
ATOM     61  H   UNL A   1      39.624  31.706  33.112  1.00  0.00     0.167 HD
ATOM     62  C   UNL A   1      40.568  28.823  29.959  1.00  0.00     0.037 A 
ATOM     63  C   UNL A   1      39.917  32.867  35.638  1.00  0.00     0.037 A 
ATOM     64  C   UNL A   1      41.527  28.568  31.001  1.00  0.00     0.049 A 
ATOM     65  C   UNL A   1      40.956  31.782  35.560  1.00  0.00     0.074 A 
ATOM     66  C   UNL A   1      42.577  27.668  31.006  1.00  0.00     0.029 A 
ATOM     67  N   UNL A   1      41.550  29.220  32.227  1.00  0.00    -0.354 N 
ATOM     68  N   UNL A   1      41.221  30.966  34.568  1.00  0.00    -0.248 NA
ATOM     69  C   UNL A   1      41.802  31.581  36.744  1.00  0.00     0.031 C 
ATOM     70  C   UNL A   1      43.210  27.743  32.250  1.00  0.00     0.029 A 
ATOM     71  C   UNL A   1      42.583  28.722  33.004  1.00  0.00     0.049 A 
ATOM     72  H   UNL A   1      40.926  29.929  32.502  1.00  0.00     0.167 HD
ATOM     73  C   UNL A   1      42.269  30.166  35.001  1.00  0.00     0.074 A 
ATOM     74  C   UNL A   1      42.602  30.601  36.341  1.00  0.00     0.031 C 
ATOM     75  C   UNL A   1      42.898  29.162  34.341  1.00  0.00     0.037 A 
BRANCH  62  76
ATOM     76  C   UNL A   1      40.644  28.002  28.702  1.00  0.00     0.064 A 
ATOM     77  C   UNL A   1      39.950  26.788  28.594  1.00  0.00     0.173 A 
ATOM     78  C   UNL A   1      41.428  28.408  27.610  1.00  0.00     0.173 A 
ATOM     79  F   UNL A   1      39.193  26.348  29.611  1.00  0.00    -0.203 F 
ATOM     80  C   UNL A   1      40.034  26.014  27.439  1.00  0.00     0.198 A 
ATOM     81  C   UNL A   1      41.482  27.648  26.444  1.00  0.00     0.198 A 
ATOM     82  F   UNL A   1      42.105  29.564  27.657  1.00  0.00    -0.203 F 
ATOM     83  F   UNL A   1      39.377  24.848  27.366  1.00  0.00    -0.200 F 
ATOM     84  C   UNL A   1      40.790  26.449  26.362  1.00  0.00     0.200 A 
ATOM     85  F   UNL A   1      42.190  28.086  25.394  1.00  0.00    -0.200 F 
ATOM     86  F   UNL A   1      40.847  25.718  25.240  1.00  0.00    -0.200 F 
ENDBRANCH  62  76
BRANCH  63  87
ATOM     87  C   UNL A   1      39.814  33.753  36.826  1.00  0.00     0.064 A 
ATOM     88  C   UNL A   1      38.984  33.438  37.912  1.00  0.00     0.173 A 
ATOM     89  C   UNL A   1      40.494  34.978  36.857  1.00  0.00     0.173 A 
ATOM     90  F   UNL A   1      38.310  32.278  37.927  1.00  0.00    -0.203 F 
ATOM     91  C   UNL A   1      38.812  34.330  38.969  1.00  0.00     0.198 A 
ATOM     92  C   UNL A   1      40.338  35.861  37.926  1.00  0.00     0.198 A 
ATOM     93  F   UNL A   1      41.315  35.314  35.852  1.00  0.00    -0.203 F 
ATOM     94  F   UNL A   1      37.980  34.024  39.973  1.00  0.00    -0.200 F 
ATOM     95  C   UNL A   1      39.489  35.541  38.974  1.00  0.00     0.200 A 
ATOM     96  F   UNL A   1      41.007  37.021  37.935  1.00  0.00    -0.200 F 
ATOM     97  F   UNL A   1      39.319  36.401  39.988  1.00  0.00    -0.200 F 
ENDBRANCH  63  87
BRANCH  75  98
ATOM     98  C   UNL A   1      44.014  28.451  35.047  1.00  0.00     0.064 A 
ATOM     99  C   UNL A   1      45.341  28.878  34.889  1.00  0.00     0.173 A 
ATOM    100  C   UNL A   1      43.781  27.280  35.780  1.00  0.00     0.173 A 
ATOM    101  F   UNL A   1      45.616  29.990  34.189  1.00  0.00    -0.203 F 
ATOM    102  C   UNL A   1      46.398  28.142  35.418  1.00  0.00     0.198 A 
ATOM    103  C   UNL A   1      44.838  26.558  36.328  1.00  0.00     0.198 A 
ATOM    104  F   UNL A   1      42.528  26.839  35.967  1.00  0.00    -0.203 F 
ATOM    105  F   UNL A   1      47.661  28.543  35.217  1.00  0.00    -0.200 F 
ATOM    106  C   UNL A   1      46.146  26.981  36.134  1.00  0.00     0.200 A 
ATOM    107  F   UNL A   1      44.593  25.447  37.036  1.00  0.00    -0.200 F 
ATOM    108  F   UNL A   1      47.163  26.269  36.638  1.00  0.00    -0.200 F 
ENDBRANCH  75  98
ENDBRANCH  49  50
ENDBRANCH  41  44
ENDBRANCH  39  40
ENDBRANCH  38  39
ENDBRANCH  37  38
ENDBRANCH  36  37
ENDBRANCH   1  36
TORSDOF 19
ENDMDL
MODEL 3
REMARK VINA RESULT:     -12.1      1.464      7.105
REMARK SMILES O=C(CCN1C(=O)S/C(=C\c2ccc(F)cc2)C1=O)Nc1ccc(O)cc1C(=O)NCCCCCCNC(=O)c1ccc(-c2c3nc(c(-c4c(F)c(F)c(F)c(F)c4F)c4ccc([nH]4)c(-c4c(F)c(F)c(F)c(F)c4F)c4nc(c(-c5c(F)c(F)c(F)c(F)c5F)c5ccc2[nH]5)C=C4)C=C3)cc1
REMARK SMILES IDX 32 1 31 2 30 3 28 4 29 5 27 7 21 8 22 9 23 10 26 11 24 12
REMARK SMILES IDX 20 13 1 14 2 15 3 17 4 18 5 19 6 20 18 21 7 22 8 23 9 24
REMARK SMILES IDX 19 25 10 26 11 27 12 28 17 29 13 30 16 31 14 32 15 33 25 34
REMARK SMILES IDX 33 36 34 37 35 38 36 39 37 40 38 41 39 43 40 44 41 45 102 46
REMARK SMILES IDX 42 47 101 48 43 49 44 50 45 51 95 52 46 53 100 54 94 55
REMARK SMILES IDX 96 56 47 57 99 58 93 59 92 60 48 62 80 63 60 64 79 65 61 66
REMARK SMILES IDX 64 67 78 68 97 69 62 70 63 71 77 73 98 74 65 75 49 76 50 77
REMARK SMILES IDX 58 78 51 79 52 80 56 81 59 82 53 83 54 84 57 85 55 86 81 87
REMARK SMILES IDX 82 88 90 89 83 90 84 91 88 92 91 93 85 94 86 95 89 96 87 97
REMARK SMILES IDX 66 98 67 99 75 100 68 101 69 102 73 103 76 104 70 105 71 106
REMARK SMILES IDX 74 107 72 108
REMARK H PARENT 30 6 20 16 25 35 37 42 96 61 64 72
REMARK Flexibility Score: inf
ROOT
ATOM      1  C   UNL A   1      33.358  28.617  27.044  1.00  0.00     0.021 C 
ENDROOT
BRANCH   1   2
ATOM      2  C   UNL A   1      31.929  28.552  27.629  1.00  0.00     0.116 C 
BRANCH   2   3
ATOM      3  N   UNL A   1      31.059  27.444  27.259  1.00  0.00    -0.352 N 
ATOM      4  C   UNL A   1      30.853  26.798  26.047  1.00  0.00     0.253 C 
ATOM      5  O   UNL A   1      30.194  25.755  26.061  1.00  0.00    -0.269 OA
ATOM      6  H   UNL A   1      30.517  27.090  28.002  1.00  0.00     0.163 HD
BRANCH   4   7
ATOM      7  C   UNL A   1      31.343  27.285  24.716  1.00  0.00     0.067 A 
ATOM      8  C   UNL A   1      32.335  26.679  23.923  1.00  0.00     0.054 A 
ATOM      9  C   UNL A   1      32.787  27.331  22.759  1.00  0.00     0.031 A 
ATOM     10  C   UNL A   1      32.161  28.490  22.296  1.00  0.00     0.048 A 
ATOM     11  C   UNL A   1      30.686  28.424  24.206  1.00  0.00     0.062 A 
ATOM     12  C   UNL A   1      31.081  28.998  22.998  1.00  0.00     0.116 A 
BRANCH   8  13
ATOM     13  N   UNL A   1      32.721  25.339  24.149  1.00  0.00    -0.325 N 
ATOM     14  O   UNL A   1      34.375  25.659  25.716  1.00  0.00    -0.275 OA
ATOM     15  C   UNL A   1      33.778  24.926  24.929  1.00  0.00     0.226 C 
ATOM     16  H   UNL A   1      32.187  24.639  23.710  1.00  0.00     0.169 HD
BRANCH  15  17
ATOM     17  C   UNL A   1      34.220  23.475  24.751  1.00  0.00     0.122 C 
BRANCH  17  18
ATOM     18  C   UNL A   1      34.794  22.766  25.973  1.00  0.00     0.140 C 
BRANCH  18  19
ATOM     19  N   UNL A   1      36.004  21.986  25.723  1.00  0.00    -0.268 N 
ATOM     20  C   UNL A   1      36.015  20.768  25.106  1.00  0.00     0.293 C 
ATOM     21  C   UNL A   1      37.234  22.550  25.838  1.00  0.00     0.268 C 
ATOM     22  O   UNL A   1      35.053  20.193  24.617  1.00  0.00    -0.261 OA
ATOM     23  S   UNL A   1      37.673  20.141  25.024  1.00  0.00    -0.022 SA
ATOM     24  C   UNL A   1      38.313  21.573  25.690  1.00  0.00     0.083 C 
ATOM     25  O   UNL A   1      37.434  23.732  26.032  1.00  0.00    -0.268 OA
ATOM     26  C   UNL A   1      39.537  21.948  26.077  1.00  0.00     0.029 C 
BRANCH  26  27
ATOM     27  C   UNL A   1      40.792  21.227  25.961  1.00  0.00    -0.024 A 
ATOM     28  C   UNL A   1      41.952  21.989  25.760  1.00  0.00     0.011 A 
ATOM     29  C   UNL A   1      40.881  19.848  26.161  1.00  0.00     0.011 A 
ATOM     30  C   UNL A   1      43.196  21.370  25.726  1.00  0.00     0.040 A 
ATOM     31  C   UNL A   1      42.133  19.230  26.131  1.00  0.00     0.040 A 
ATOM     32  C   UNL A   1      43.275  19.996  25.909  1.00  0.00     0.123 A 
ATOM     33  F   UNL A   1      44.474  19.398  25.882  1.00  0.00    -0.207 F 
ENDBRANCH  26  27
ENDBRANCH  18  19
ENDBRANCH  17  18
ENDBRANCH  15  17
ENDBRANCH   8  13
BRANCH  12  34
ATOM     34  O   UNL A   1      30.369  30.062  22.527  1.00  0.00    -0.508 OA
ATOM     35  H   UNL A   1      30.792  30.888  22.399  1.00  0.00     0.293 HD
ENDBRANCH  12  34
ENDBRANCH   4   7
ENDBRANCH   2   3
ENDBRANCH   1   2
BRANCH   1  36
ATOM     36  C   UNL A   1      34.526  29.441  27.639  1.00  0.00     0.002 C 
BRANCH  36  37
ATOM     37  C   UNL A   1      34.634  30.985  27.663  1.00  0.00     0.002 C 
BRANCH  37  38
ATOM     38  C   UNL A   1      33.434  31.871  28.007  1.00  0.00     0.021 C 
BRANCH  38  39
ATOM     39  C   UNL A   1      33.029  32.966  27.027  1.00  0.00     0.116 C 
BRANCH  39  40
ATOM     40  N   UNL A   1      32.643  34.219  27.662  1.00  0.00    -0.352 N 
ATOM     41  C   UNL A   1      33.121  34.843  28.796  1.00  0.00     0.251 C 
ATOM     42  H   UNL A   1      31.917  34.701  27.205  1.00  0.00     0.163 HD
ATOM     43  O   UNL A   1      32.555  35.850  29.215  1.00  0.00    -0.269 OA
BRANCH  41  44
ATOM     44  C   UNL A   1      34.294  34.318  29.544  1.00  0.00     0.039 A 
ATOM     45  C   UNL A   1      34.092  33.703  30.788  1.00  0.00     0.014 A 
ATOM     46  C   UNL A   1      35.595  34.465  29.062  1.00  0.00     0.014 A 
ATOM     47  C   UNL A   1      35.177  33.168  31.497  1.00  0.00     0.010 A 
ATOM     48  C   UNL A   1      36.662  33.855  29.722  1.00  0.00     0.010 A 
ATOM     49  C   UNL A   1      36.469  33.204  30.950  1.00  0.00    -0.014 A 
BRANCH  49  50
ATOM     50  C   UNL A   1      37.640  32.594  31.638  1.00  0.00     0.031 A 
ATOM     51  C   UNL A   1      38.335  31.408  31.028  1.00  0.00     0.074 A 
ATOM     52  C   UNL A   1      38.029  33.048  32.845  1.00  0.00     0.049 A 
ATOM     53  N   UNL A   1      39.276  30.647  31.528  1.00  0.00    -0.248 NA
ATOM     54  C   UNL A   1      37.888  31.002  29.687  1.00  0.00     0.031 C 
ATOM     55  C   UNL A   1      37.428  34.177  33.556  1.00  0.00     0.029 A 
ATOM     56  N   UNL A   1      39.017  32.610  33.693  1.00  0.00    -0.354 N 
ATOM     57  C   UNL A   1      39.518  29.667  30.573  1.00  0.00     0.074 A 
ATOM     58  C   UNL A   1      38.582  29.890  29.494  1.00  0.00     0.031 C 
ATOM     59  C   UNL A   1      38.079  34.364  34.715  1.00  0.00     0.029 A 
ATOM     60  C   UNL A   1      39.111  33.339  34.854  1.00  0.00     0.049 A 
ATOM     61  H   UNL A   1      39.602  31.846  33.489  1.00  0.00     0.167 HD
ATOM     62  C   UNL A   1      40.455  28.690  30.581  1.00  0.00     0.037 A 
ATOM     63  C   UNL A   1      39.930  33.196  35.914  1.00  0.00     0.037 A 
ATOM     64  C   UNL A   1      41.405  28.489  31.644  1.00  0.00     0.049 A 
ATOM     65  C   UNL A   1      40.933  32.076  35.927  1.00  0.00     0.074 A 
ATOM     66  C   UNL A   1      42.425  27.559  31.725  1.00  0.00     0.029 A 
ATOM     67  N   UNL A   1      41.448  29.236  32.813  1.00  0.00    -0.354 N 
ATOM     68  N   UNL A   1      41.173  31.175  35.006  1.00  0.00    -0.248 NA
ATOM     69  C   UNL A   1      41.771  31.944  37.127  1.00  0.00     0.031 C 
ATOM     70  C   UNL A   1      43.059  27.714  32.960  1.00  0.00     0.029 A 
ATOM     71  C   UNL A   1      42.464  28.770  33.632  1.00  0.00     0.049 A 
ATOM     72  H   UNL A   1      40.847  29.985  33.028  1.00  0.00     0.167 HD
ATOM     73  C   UNL A   1      42.194  30.379  35.505  1.00  0.00     0.074 A 
ATOM     74  C   UNL A   1      42.539  30.909  36.807  1.00  0.00     0.031 C 
ATOM     75  C   UNL A   1      42.791  29.306  34.930  1.00  0.00     0.037 A 
BRANCH  62  76
ATOM     76  C   UNL A   1      40.507  27.769  29.395  1.00  0.00     0.064 A 
ATOM     77  C   UNL A   1      41.386  28.018  28.331  1.00  0.00     0.173 A 
ATOM     78  C   UNL A   1      39.665  26.649  29.300  1.00  0.00     0.173 A 
ATOM     79  F   UNL A   1      42.206  29.079  28.364  1.00  0.00    -0.203 F 
ATOM     80  C   UNL A   1      41.424  27.179  27.219  1.00  0.00     0.198 A 
ATOM     81  C   UNL A   1      39.730  25.794  28.203  1.00  0.00     0.198 A 
ATOM     82  F   UNL A   1      38.812  26.360  30.293  1.00  0.00    -0.203 F 
ATOM     83  F   UNL A   1      42.258  27.448  26.205  1.00  0.00    -0.200 F 
ATOM     84  C   UNL A   1      40.604  26.062  27.161  1.00  0.00     0.200 A 
ATOM     85  F   UNL A   1      38.958  24.699  28.164  1.00  0.00    -0.200 F 
ATOM     86  F   UNL A   1      40.662  25.240  26.105  1.00  0.00    -0.200 F 
ENDBRANCH  62  76
BRANCH  63  87
ATOM     87  C   UNL A   1      39.854  34.178  37.027  1.00  0.00     0.064 A 
ATOM     88  C   UNL A   1      40.677  35.313  37.067  1.00  0.00     0.173 A 
ATOM     89  C   UNL A   1      39.002  33.950  38.116  1.00  0.00     0.173 A 
ATOM     90  F   UNL A   1      41.512  35.573  36.050  1.00  0.00    -0.203 F 
ATOM     91  C   UNL A   1      40.673  36.166  38.169  1.00  0.00     0.198 A 
ATOM     92  C   UNL A   1      38.984  34.816  39.209  1.00  0.00     0.198 A 
ATOM     93  F   UNL A   1      38.183  32.889  38.113  1.00  0.00    -0.203 F 
ATOM     94  F   UNL A   1      41.500  37.220  38.202  1.00  0.00    -0.200 F 
ATOM     95  C   UNL A   1      39.828  35.915  39.240  1.00  0.00     0.200 A 
ATOM     96  F   UNL A   1      38.153  34.580  40.232  1.00  0.00    -0.200 F 
ATOM     97  F   UNL A   1      39.828  36.733  40.302  1.00  0.00    -0.200 F 
ENDBRANCH  63  87
BRANCH  75  98
ATOM     98  C   UNL A   1      43.884  28.618  35.694  1.00  0.00     0.064 A 
ATOM     99  C   UNL A   1      45.226  28.973  35.490  1.00  0.00     0.173 A 
ATOM    100  C   UNL A   1      43.609  27.533  36.537  1.00  0.00     0.173 A 
ATOM    101  F   UNL A   1      45.540  30.000  34.686  1.00  0.00    -0.203 F 
ATOM    102  C   UNL A   1      46.255  28.245  36.081  1.00  0.00     0.198 A 
ATOM    103  C   UNL A   1      44.640  26.822  37.145  1.00  0.00     0.198 A 
ATOM    104  F   UNL A   1      42.341  27.165  36.772  1.00  0.00    -0.203 F 
ATOM    105  F   UNL A   1      47.532  28.572  35.836  1.00  0.00    -0.200 F 
ATOM    106  C   UNL A   1      45.962  27.170  36.905  1.00  0.00     0.200 A 
ATOM    107  F   UNL A   1      44.356  25.794  37.957  1.00  0.00    -0.200 F 
ATOM    108  F   UNL A   1      46.954  26.467  37.469  1.00  0.00    -0.200 F 
ENDBRANCH  75  98
ENDBRANCH  49  50
ENDBRANCH  41  44
ENDBRANCH  39  40
ENDBRANCH  38  39
ENDBRANCH  37  38
ENDBRANCH  36  37
ENDBRANCH   1  36
TORSDOF 19
ENDMDL
