MODEL 1
REMARK VINA RESULT:     -12.0      0.000      0.000
REMARK SMILES O=C(NCCCCCCNC(=O)[C@@H]1CCCC[C@@H]1Sc1ccncc1)c1ccc(-c2c3nc(c(-c4c(F)c(F)c(F)c(F)c4F)c4ccc([nH]4)c(-c4c(F)c(F)c(F)c(F)c4F)c4nc(c(-c5c(F)c(F)c(F)c(F)c5F)c5ccc2[nH]5)C=C4)C=C3)cc1
REMARK SMILES IDX 6 1 5 2 4 3 3 4 1 5 2 6 26 8 27 9 88 10 28 11 87 12 29 13
REMARK SMILES IDX 30 14 31 15 81 16 32 17 86 18 80 19 82 20 33 21 85 22 79 23
REMARK SMILES IDX 78 24 34 26 66 27 46 28 65 29 47 30 50 31 64 32 83 33 48 34
REMARK SMILES IDX 49 35 63 37 84 38 51 39 35 40 36 41 44 42 37 43 38 44 42 45
REMARK SMILES IDX 45 46 39 47 40 48 43 49 41 50 67 51 68 52 76 53 69 54 70 55
REMARK SMILES IDX 74 56 77 57 71 58 72 59 75 60 73 61 52 62 53 63 61 64 54 65
REMARK SMILES IDX 55 66 59 67 62 68 56 69 57 70 60 71 58 72 7 73 8 74 9 75
REMARK SMILES IDX 10 76 11 77 12 79 13 80 14 81 18 82 15 83 17 84 16 85 19 86
REMARK SMILES IDX 20 87 21 88 25 89 22 90 24 91 23 92
REMARK H PARENT 3 7 82 25 50 36 10 78
REMARK Flexibility Score: inf
ROOT
ATOM      1  C   UNL A   1      31.432  30.865  26.060  1.00  0.00     0.002 C 
ENDROOT
BRANCH   1   2
ATOM      2  C   UNL A   1      31.332  32.325  26.502  1.00  0.00     0.021 C 
BRANCH   2   3
ATOM      3  C   UNL A   1      32.593  32.853  27.168  1.00  0.00     0.116 C 
BRANCH   3   4
ATOM      4  N   UNL A   1      32.424  34.220  27.632  1.00  0.00    -0.352 N 
ATOM      5  O   UNL A   1      32.617  35.933  29.091  1.00  0.00    -0.269 OA
ATOM      6  C   UNL A   1      33.036  34.858  28.684  1.00  0.00     0.251 C 
ATOM      7  H   UNL A   1      31.781  34.765  27.123  1.00  0.00     0.163 HD
BRANCH   6   8
ATOM      8  C   UNL A   1      34.208  34.227  29.323  1.00  0.00     0.039 A 
ATOM      9  C   UNL A   1      34.030  33.332  30.380  1.00  0.00     0.014 A 
ATOM     10  C   UNL A   1      35.490  34.523  28.856  1.00  0.00     0.014 A 
ATOM     11  C   UNL A   1      35.134  32.837  31.057  1.00  0.00     0.010 A 
ATOM     12  C   UNL A   1      36.601  33.942  29.473  1.00  0.00     0.010 A 
ATOM     13  C   UNL A   1      36.431  33.107  30.589  1.00  0.00    -0.014 A 
BRANCH  13  14
ATOM     14  C   UNL A   1      37.578  32.416  31.226  1.00  0.00     0.031 A 
ATOM     15  C   UNL A   1      38.043  32.775  32.606  1.00  0.00     0.074 A 
ATOM     16  C   UNL A   1      38.182  31.429  30.534  1.00  0.00     0.049 A 
ATOM     17  N   UNL A   1      39.021  32.253  33.304  1.00  0.00    -0.248 NA
ATOM     18  C   UNL A   1      37.329  33.861  33.292  1.00  0.00     0.031 C 
ATOM     19  C   UNL A   1      37.819  31.008  29.178  1.00  0.00     0.029 A 
ATOM     20  N   UNL A   1      39.211  30.590  30.875  1.00  0.00    -0.354 N 
ATOM     21  C   UNL A   1      39.049  32.953  34.503  1.00  0.00     0.074 A 
ATOM     22  C   UNL A   1      38.009  33.958  34.426  1.00  0.00     0.031 C 
ATOM     23  C   UNL A   1      38.577  29.963  28.822  1.00  0.00     0.029 A 
ATOM     24  C   UNL A   1      39.529  29.689  29.888  1.00  0.00     0.049 A 
ATOM     25  H   UNL A   1      39.677  30.630  31.741  1.00  0.00     0.167 HD
ATOM     26  C   UNL A   1      39.866  32.764  35.568  1.00  0.00     0.037 A 
ATOM     27  C   UNL A   1      40.500  28.760  29.836  1.00  0.00     0.037 A 
ATOM     28  C   UNL A   1      40.896  31.757  35.630  1.00  0.00     0.049 A 
ATOM     29  C   UNL A   1      41.415  28.606  31.016  1.00  0.00     0.074 A 
ATOM     30  C   UNL A   1      41.755  31.464  36.674  1.00  0.00     0.029 A 
ATOM     31  N   UNL A   1      41.214  30.885  34.598  1.00  0.00    -0.354 N 
ATOM     32  N   UNL A   1      41.404  29.244  32.161  1.00  0.00    -0.248 NA
ATOM     33  C   UNL A   1      42.480  27.603  30.896  1.00  0.00     0.031 C 
ATOM     34  C   UNL A   1      42.630  30.458  36.254  1.00  0.00     0.029 A 
ATOM     35  C   UNL A   1      42.276  30.074  34.971  1.00  0.00     0.049 A 
ATOM     36  H   UNL A   1      40.754  30.847  33.728  1.00  0.00     0.167 HD
ATOM     37  C   UNL A   1      42.444  28.709  32.905  1.00  0.00     0.074 A 
ATOM     38  C   UNL A   1      43.047  27.673  32.092  1.00  0.00     0.031 C 
ATOM     39  C   UNL A   1      42.865  29.047  34.149  1.00  0.00     0.037 A 
BRANCH  26  40
ATOM     40  C   UNL A   1      39.698  33.674  36.752  1.00  0.00     0.064 A 
ATOM     41  C   UNL A   1      40.318  34.933  36.812  1.00  0.00     0.173 A 
ATOM     42  C   UNL A   1      38.857  33.311  37.815  1.00  0.00     0.173 A 
ATOM     43  F   UNL A   1      41.140  35.328  35.828  1.00  0.00    -0.203 F 
ATOM     44  C   UNL A   1      40.119  35.780  37.899  1.00  0.00     0.198 A 
ATOM     45  C   UNL A   1      38.635  34.173  38.885  1.00  0.00     0.198 A 
ATOM     46  F   UNL A   1      38.233  32.123  37.807  1.00  0.00    -0.203 F 
ATOM     47  F   UNL A   1      40.754  36.959  37.953  1.00  0.00    -0.200 F 
ATOM     48  C   UNL A   1      39.271  35.404  38.930  1.00  0.00     0.200 A 
ATOM     49  F   UNL A   1      37.802  33.814  39.872  1.00  0.00    -0.200 F 
ATOM     50  F   UNL A   1      39.069  36.227  39.968  1.00  0.00    -0.200 F 
ENDBRANCH  26  40
BRANCH  27  51
ATOM     51  C   UNL A   1      40.663  27.924  28.619  1.00  0.00     0.064 A 
ATOM     52  C   UNL A   1      41.448  28.356  27.542  1.00  0.00     0.173 A 
ATOM     53  C   UNL A   1      40.032  26.675  28.505  1.00  0.00     0.173 A 
ATOM     54  F   UNL A   1      42.060  29.548  27.595  1.00  0.00    -0.203 F 
ATOM     55  C   UNL A   1      41.576  27.584  26.389  1.00  0.00     0.198 A 
ATOM     56  C   UNL A   1      40.191  25.888  27.368  1.00  0.00     0.198 A 
ATOM     57  F   UNL A   1      39.275  26.210  29.511  1.00  0.00    -0.203 F 
ATOM     58  F   UNL A   1      42.288  28.045  25.353  1.00  0.00    -0.200 F 
ATOM     59  C   UNL A   1      40.951  26.348  26.306  1.00  0.00     0.200 A 
ATOM     60  F   UNL A   1      39.603  24.684  27.302  1.00  0.00    -0.200 F 
ATOM     61  F   UNL A   1      41.078  25.604  25.199  1.00  0.00    -0.200 F 
ENDBRANCH  27  51
BRANCH  39  62
ATOM     62  C   UNL A   1      44.013  28.262  34.715  1.00  0.00     0.064 A 
ATOM     63  C   UNL A   1      43.809  27.091  35.462  1.00  0.00     0.173 A 
ATOM     64  C   UNL A   1      45.333  28.679  34.495  1.00  0.00     0.173 A 
ATOM     65  F   UNL A   1      42.565  26.659  35.716  1.00  0.00    -0.203 F 
ATOM     66  C   UNL A   1      44.886  26.388  35.997  1.00  0.00     0.198 A 
ATOM     67  C   UNL A   1      46.409  27.953  35.001  1.00  0.00     0.198 A 
ATOM     68  F   UNL A   1      45.583  29.789  33.784  1.00  0.00    -0.203 F 
ATOM     69  F   UNL A   1      44.665  25.308  36.759  1.00  0.00    -0.200 F 
ATOM     70  C   UNL A   1      46.183  26.815  35.760  1.00  0.00     0.200 A 
ATOM     71  F   UNL A   1      47.662  28.359  34.757  1.00  0.00    -0.200 F 
ATOM     72  F   UNL A   1      47.218  26.135  36.272  1.00  0.00    -0.200 F 
ENDBRANCH  39  62
ENDBRANCH  13  14
ENDBRANCH   6   8
ENDBRANCH   3   4
ENDBRANCH   2   3
ENDBRANCH   1   2
BRANCH   1  73
ATOM     73  C   UNL A   1      32.515  30.045  26.775  1.00  0.00     0.002 C 
BRANCH  73  74
ATOM     74  C   UNL A   1      32.000  28.841  27.573  1.00  0.00     0.021 C 
BRANCH  74  75
ATOM     75  C   UNL A   1      32.258  27.501  26.888  1.00  0.00     0.116 C 
BRANCH  75  76
ATOM     76  N   UNL A   1      31.026  26.837  26.514  1.00  0.00    -0.356 N 
ATOM     77  C   UNL A   1      30.611  26.131  25.437  1.00  0.00     0.224 C 
ATOM     78  H   UNL A   1      30.329  26.918  27.206  1.00  0.00     0.163 HD
ATOM     79  O   UNL A   1      29.445  25.713  25.498  1.00  0.00    -0.275 OA
BRANCH  77  80
ATOM     80  C   UNL A   1      31.466  25.766  24.213  1.00  0.00     0.092 C 
ATOM     81  C   UNL A   1      32.991  25.715  24.350  1.00  0.00     0.014 C 
ATOM     82  C   UNL A   1      31.006  26.588  22.969  1.00  0.00     0.064 C 
ATOM     83  C   UNL A   1      33.725  25.331  23.071  1.00  0.00     0.001 C 
ATOM     84  C   UNL A   1      31.779  26.112  21.724  1.00  0.00     0.015 C 
ATOM     85  C   UNL A   1      33.291  26.175  21.890  1.00  0.00     0.001 C 
BRANCH  82  86
ATOM     86  S   UNL A   1      31.220  28.408  23.274  1.00  0.00    -0.122 SA
BRANCH  86  87
ATOM     87  C   UNL A   1      29.576  29.112  23.187  1.00  0.00     0.011 A 
ATOM     88  C   UNL A   1      29.268  30.471  23.199  1.00  0.00     0.035 A 
ATOM     89  C   UNL A   1      28.518  28.202  23.120  1.00  0.00     0.035 A 
ATOM     90  C   UNL A   1      27.934  30.852  23.231  1.00  0.00     0.112 A 
ATOM     91  C   UNL A   1      27.218  28.679  23.126  1.00  0.00     0.112 A 
ATOM     92  N   UNL A   1      26.901  29.987  23.200  1.00  0.00    -0.265 NA
ENDBRANCH  86  87
ENDBRANCH  82  86
ENDBRANCH  77  80
ENDBRANCH  75  76
ENDBRANCH  74  75
ENDBRANCH  73  74
ENDBRANCH   1  73
TORSDOF 15
ENDMDL
MODEL 2
REMARK VINA RESULT:     -11.9      0.376      7.475
REMARK SMILES O=C(NCCCCCCNC(=O)[C@@H]1CCCC[C@@H]1Sc1ccncc1)c1ccc(-c2c3nc(c(-c4c(F)c(F)c(F)c(F)c4F)c4ccc([nH]4)c(-c4c(F)c(F)c(F)c(F)c4F)c4nc(c(-c5c(F)c(F)c(F)c(F)c5F)c5ccc2[nH]5)C=C4)C=C3)cc1
REMARK SMILES IDX 6 1 5 2 4 3 3 4 1 5 2 6 26 8 27 9 88 10 28 11 87 12 29 13
REMARK SMILES IDX 30 14 31 15 81 16 32 17 86 18 80 19 82 20 33 21 85 22 79 23
REMARK SMILES IDX 78 24 34 26 66 27 46 28 65 29 47 30 50 31 64 32 83 33 48 34
REMARK SMILES IDX 49 35 63 37 84 38 51 39 35 40 36 41 44 42 37 43 38 44 42 45
REMARK SMILES IDX 45 46 39 47 40 48 43 49 41 50 67 51 68 52 76 53 69 54 70 55
REMARK SMILES IDX 74 56 77 57 71 58 72 59 75 60 73 61 52 62 53 63 61 64 54 65
REMARK SMILES IDX 55 66 59 67 62 68 56 69 57 70 60 71 58 72 7 73 8 74 9 75
REMARK SMILES IDX 10 76 11 77 12 79 13 80 14 81 18 82 15 83 17 84 16 85 19 86
REMARK SMILES IDX 20 87 21 88 25 89 22 90 24 91 23 92
REMARK H PARENT 3 7 82 25 50 36 10 78
REMARK Flexibility Score: inf
ROOT
ATOM      1  C   UNL A   1      31.433  30.931  26.036  1.00  0.00     0.002 C 
ENDROOT
BRANCH   1   2
ATOM      2  C   UNL A   1      31.298  32.352  26.584  1.00  0.00     0.021 C 
BRANCH   2   3
ATOM      3  C   UNL A   1      32.588  32.911  27.164  1.00  0.00     0.116 C 
BRANCH   3   4
ATOM      4  N   UNL A   1      32.424  34.283  27.616  1.00  0.00    -0.352 N 
ATOM      5  O   UNL A   1      32.615  36.007  29.062  1.00  0.00    -0.269 OA
ATOM      6  C   UNL A   1      33.030  34.925  28.668  1.00  0.00     0.251 C 
ATOM      7  H   UNL A   1      31.790  34.828  27.096  1.00  0.00     0.163 HD
BRANCH   6   8
ATOM      8  C   UNL A   1      34.192  34.292  29.324  1.00  0.00     0.039 A 
ATOM      9  C   UNL A   1      33.998  33.423  30.400  1.00  0.00     0.014 A 
ATOM     10  C   UNL A   1      35.479  34.558  28.853  1.00  0.00     0.014 A 
ATOM     11  C   UNL A   1      35.094  32.928  31.091  1.00  0.00     0.010 A 
ATOM     12  C   UNL A   1      36.579  33.975  29.486  1.00  0.00     0.010 A 
ATOM     13  C   UNL A   1      36.395  33.168  30.620  1.00  0.00    -0.014 A 
BRANCH  13  14
ATOM     14  C   UNL A   1      37.530  32.474  31.275  1.00  0.00     0.031 A 
ATOM     15  C   UNL A   1      38.281  31.373  30.585  1.00  0.00     0.074 A 
ATOM     16  C   UNL A   1      37.890  32.879  32.509  1.00  0.00     0.049 A 
ATOM     17  N   UNL A   1      39.304  30.680  31.019  1.00  0.00    -0.248 NA
ATOM     18  C   UNL A   1      37.826  30.993  29.240  1.00  0.00     0.031 C 
ATOM     19  C   UNL A   1      37.219  33.932  33.277  1.00  0.00     0.029 A 
ATOM     20  N   UNL A   1      38.912  32.475  33.327  1.00  0.00    -0.354 N 
ATOM     21  C   UNL A   1      39.607  29.775  30.010  1.00  0.00     0.074 A 
ATOM     22  C   UNL A   1      38.640  29.986  28.953  1.00  0.00     0.031 C 
ATOM     23  C   UNL A   1      37.873  34.123  34.429  1.00  0.00     0.029 A 
ATOM     24  C   UNL A   1      38.960  33.159  34.518  1.00  0.00     0.049 A 
ATOM     25  H   UNL A   1      39.549  31.764  33.086  1.00  0.00     0.167 HD
ATOM     26  C   UNL A   1      40.606  28.861  29.973  1.00  0.00     0.037 A 
ATOM     27  C   UNL A   1      39.774  33.007  35.578  1.00  0.00     0.037 A 
ATOM     28  C   UNL A   1      41.563  28.664  31.034  1.00  0.00     0.049 A 
ATOM     29  C   UNL A   1      40.843  31.955  35.521  1.00  0.00     0.074 A 
ATOM     30  C   UNL A   1      42.631  27.786  31.081  1.00  0.00     0.029 A 
ATOM     31  N   UNL A   1      41.560  29.349  32.241  1.00  0.00    -0.354 N 
ATOM     32  N   UNL A   1      41.147  31.135  34.545  1.00  0.00    -0.248 NA
ATOM     33  C   UNL A   1      41.682  31.805  36.717  1.00  0.00     0.031 C 
ATOM     34  C   UNL A   1      43.237  27.897  32.336  1.00  0.00     0.029 A 
ATOM     35  C   UNL A   1      42.590  28.892  33.050  1.00  0.00     0.049 A 
ATOM     36  H   UNL A   1      40.921  30.057  32.488  1.00  0.00     0.167 HD
ATOM     37  C   UNL A   1      42.222  30.386  34.998  1.00  0.00     0.074 A 
ATOM     38  C   UNL A   1      42.536  30.870  36.326  1.00  0.00     0.031 C 
ATOM     39  C   UNL A   1      42.889  29.385  34.371  1.00  0.00     0.037 A 
BRANCH  26  40
ATOM     40  C   UNL A   1      40.711  27.983  28.758  1.00  0.00     0.064 A 
ATOM     41  C   UNL A   1      39.989  26.785  28.645  1.00  0.00     0.173 A 
ATOM     42  C   UNL A   1      41.498  28.376  27.664  1.00  0.00     0.173 A 
ATOM     43  F   UNL A   1      39.228  26.357  29.663  1.00  0.00    -0.203 F 
ATOM     44  C   UNL A   1      40.067  26.005  27.494  1.00  0.00     0.198 A 
ATOM     45  C   UNL A   1      41.550  27.610  26.503  1.00  0.00     0.198 A 
ATOM     46  F   UNL A   1      42.205  29.515  27.713  1.00  0.00    -0.203 F 
ATOM     47  F   UNL A   1      39.401  24.845  27.425  1.00  0.00    -0.200 F 
ATOM     48  C   UNL A   1      40.840  26.422  26.420  1.00  0.00     0.200 A 
ATOM     49  F   UNL A   1      42.286  28.024  25.460  1.00  0.00    -0.200 F 
ATOM     50  F   UNL A   1      40.903  25.677  25.308  1.00  0.00    -0.200 F 
ENDBRANCH  26  40
BRANCH  27  51
ATOM     51  C   UNL A   1      39.592  33.860  36.781  1.00  0.00     0.064 A 
ATOM     52  C   UNL A   1      40.210  35.113  36.880  1.00  0.00     0.173 A 
ATOM     53  C   UNL A   1      38.798  33.437  37.858  1.00  0.00     0.173 A 
ATOM     54  F   UNL A   1      40.991  35.556  35.884  1.00  0.00    -0.203 F 
ATOM     55  C   UNL A   1      40.063  35.899  38.021  1.00  0.00     0.198 A 
ATOM     56  C   UNL A   1      38.620  34.240  38.982  1.00  0.00     0.198 A 
ATOM     57  F   UNL A   1      38.176  32.249  37.810  1.00  0.00    -0.203 F 
ATOM     58  F   UNL A   1      40.709  37.069  38.114  1.00  0.00    -0.200 F 
ATOM     59  C   UNL A   1      39.263  35.464  39.068  1.00  0.00     0.200 A 
ATOM     60  F   UNL A   1      37.829  33.825  39.981  1.00  0.00    -0.200 F 
ATOM     61  F   UNL A   1      39.118  36.223  40.163  1.00  0.00    -0.200 F 
ENDBRANCH  27  51
BRANCH  39  62
ATOM     62  C   UNL A   1      44.045  28.773  35.108  1.00  0.00     0.064 A 
ATOM     63  C   UNL A   1      45.347  29.284  34.995  1.00  0.00     0.173 A 
ATOM     64  C   UNL A   1      43.845  27.668  35.949  1.00  0.00     0.173 A 
ATOM     65  F   UNL A   1      45.595  30.329  34.190  1.00  0.00    -0.203 F 
ATOM     66  C   UNL A   1      46.411  28.690  35.669  1.00  0.00     0.198 A 
ATOM     67  C   UNL A   1      44.904  27.098  36.650  1.00  0.00     0.198 A 
ATOM     68  F   UNL A   1      42.619  27.143  36.096  1.00  0.00    -0.203 F 
ATOM     69  F   UNL A   1      47.654  29.157  35.498  1.00  0.00    -0.200 F 
ATOM     70  C   UNL A   1      46.186  27.603  36.502  1.00  0.00     0.200 A 
ATOM     71  F   UNL A   1      44.683  26.059  37.466  1.00  0.00    -0.200 F 
ATOM     72  F   UNL A   1      47.210  27.035  37.153  1.00  0.00    -0.200 F 
ENDBRANCH  39  62
ENDBRANCH  13  14
ENDBRANCH   6   8
ENDBRANCH   3   4
ENDBRANCH   2   3
ENDBRANCH   1   2
BRANCH   1  73
ATOM     73  C   UNL A   1      32.427  30.037  26.792  1.00  0.00     0.002 C 
BRANCH  73  74
ATOM     74  C   UNL A   1      31.801  28.857  27.544  1.00  0.00     0.021 C 
BRANCH  74  75
ATOM     75  C   UNL A   1      32.132  27.499  26.930  1.00  0.00     0.116 C 
BRANCH  75  76
ATOM     76  N   UNL A   1      30.939  26.776  26.539  1.00  0.00    -0.356 N 
ATOM     77  C   UNL A   1      30.591  26.013  25.477  1.00  0.00     0.224 C 
ATOM     78  H   UNL A   1      30.214  26.857  27.201  1.00  0.00     0.163 HD
ATOM     79  O   UNL A   1      29.440  25.555  25.511  1.00  0.00    -0.275 OA
BRANCH  77  80
ATOM     80  C   UNL A   1      31.505  25.632  24.301  1.00  0.00     0.092 C 
ATOM     81  C   UNL A   1      33.024  25.629  24.500  1.00  0.00     0.014 C 
ATOM     82  C   UNL A   1      31.074  26.400  23.012  1.00  0.00     0.064 C 
ATOM     83  C   UNL A   1      33.820  25.224  23.265  1.00  0.00     0.001 C 
ATOM     84  C   UNL A   1      31.910  25.906  21.816  1.00  0.00     0.015 C 
ATOM     85  C   UNL A   1      33.412  26.017  22.040  1.00  0.00     0.001 C 
BRANCH  82  86
ATOM     86  S   UNL A   1      31.227  28.235  23.264  1.00  0.00    -0.122 SA
BRANCH  86  87
ATOM     87  C   UNL A   1      29.551  28.865  23.276  1.00  0.00     0.011 A 
ATOM     88  C   UNL A   1      28.390  28.097  23.241  1.00  0.00     0.035 A 
ATOM     89  C   UNL A   1      29.415  30.255  23.303  1.00  0.00     0.035 A 
ATOM     90  C   UNL A   1      27.165  28.742  23.149  1.00  0.00     0.112 A 
ATOM     91  C   UNL A   1      28.148  30.809  23.238  1.00  0.00     0.112 A 
ATOM     92  N   UNL A   1      27.018  30.082  23.141  1.00  0.00    -0.265 NA
ENDBRANCH  86  87
ENDBRANCH  82  86
ENDBRANCH  77  80
ENDBRANCH  75  76
ENDBRANCH  74  75
ENDBRANCH  73  74
ENDBRANCH   1  73
TORSDOF 15
ENDMDL
MODEL 3
REMARK VINA RESULT:     -11.8      6.133     11.456
REMARK SMILES O=C(NCCCCCCNC(=O)[C@@H]1CCCC[C@@H]1Sc1ccncc1)c1ccc(-c2c3nc(c(-c4c(F)c(F)c(F)c(F)c4F)c4ccc([nH]4)c(-c4c(F)c(F)c(F)c(F)c4F)c4nc(c(-c5c(F)c(F)c(F)c(F)c5F)c5ccc2[nH]5)C=C4)C=C3)cc1
REMARK SMILES IDX 6 1 5 2 4 3 3 4 1 5 2 6 26 8 27 9 88 10 28 11 87 12 29 13
REMARK SMILES IDX 30 14 31 15 81 16 32 17 86 18 80 19 82 20 33 21 85 22 79 23
REMARK SMILES IDX 78 24 34 26 66 27 46 28 65 29 47 30 50 31 64 32 83 33 48 34
REMARK SMILES IDX 49 35 63 37 84 38 51 39 35 40 36 41 44 42 37 43 38 44 42 45
REMARK SMILES IDX 45 46 39 47 40 48 43 49 41 50 67 51 68 52 76 53 69 54 70 55
REMARK SMILES IDX 74 56 77 57 71 58 72 59 75 60 73 61 52 62 53 63 61 64 54 65
REMARK SMILES IDX 55 66 59 67 62 68 56 69 57 70 60 71 58 72 7 73 8 74 9 75
REMARK SMILES IDX 10 76 11 77 12 79 13 80 14 81 18 82 15 83 17 84 16 85 19 86
REMARK SMILES IDX 20 87 21 88 25 89 22 90 24 91 23 92
REMARK H PARENT 3 7 82 25 50 36 10 78
REMARK Flexibility Score: inf
ROOT
ATOM      1  C   UNL A   1      37.129  20.401  24.963  1.00  0.00     0.002 C 
ENDROOT
BRANCH   1   2
ATOM      2  C   UNL A   1      38.350  19.480  25.003  1.00  0.00     0.021 C 
BRANCH   2   3
ATOM      3  C   UNL A   1      39.367  19.856  26.069  1.00  0.00     0.116 C 
BRANCH   3   4
ATOM      4  N   UNL A   1      40.497  18.942  26.079  1.00  0.00    -0.352 N 
ATOM      5  O   UNL A   1      42.669  18.358  25.872  1.00  0.00    -0.269 OA
ATOM      6  C   UNL A   1      41.840  19.229  26.103  1.00  0.00     0.251 C 
ATOM      7  H   UNL A   1      40.269  17.985  26.066  1.00  0.00     0.163 HD
BRANCH   6   8
ATOM      8  C   UNL A   1      42.276  20.607  26.407  1.00  0.00     0.039 A 
ATOM      9  C   UNL A   1      42.467  21.524  25.371  1.00  0.00     0.014 A 
ATOM     10  C   UNL A   1      42.482  20.987  27.735  1.00  0.00     0.014 A 
ATOM     11  C   UNL A   1      42.993  22.776  25.648  1.00  0.00     0.010 A 
ATOM     12  C   UNL A   1      42.914  22.284  28.021  1.00  0.00     0.010 A 
ATOM     13  C   UNL A   1      43.187  23.183  26.978  1.00  0.00    -0.014 A 
BRANCH  13  14
ATOM     14  C   UNL A   1      43.577  24.589  27.245  1.00  0.00     0.031 A 
ATOM     15  C   UNL A   1      44.969  25.082  26.982  1.00  0.00     0.074 A 
ATOM     16  C   UNL A   1      42.631  25.428  27.712  1.00  0.00     0.049 A 
ATOM     17  N   UNL A   1      45.461  26.284  27.150  1.00  0.00    -0.248 NA
ATOM     18  C   UNL A   1      45.940  24.103  26.471  1.00  0.00     0.031 C 
ATOM     19  C   UNL A   1      41.248  25.050  28.017  1.00  0.00     0.029 A 
ATOM     20  N   UNL A   1      42.676  26.768  27.995  1.00  0.00    -0.354 N 
ATOM     21  C   UNL A   1      46.796  26.205  26.780  1.00  0.00     0.074 A 
ATOM     22  C   UNL A   1      47.048  24.829  26.406  1.00  0.00     0.031 C 
ATOM     23  C   UNL A   1      40.566  26.138  28.396  1.00  0.00     0.029 A 
ATOM     24  C   UNL A   1      41.477  27.273  28.437  1.00  0.00     0.049 A 
ATOM     25  H   UNL A   1      43.487  27.316  27.893  1.00  0.00     0.167 HD
ATOM     26  C   UNL A   1      47.720  27.196  26.750  1.00  0.00     0.037 A 
ATOM     27  C   UNL A   1      41.152  28.509  28.856  1.00  0.00     0.037 A 
ATOM     28  C   UNL A   1      47.453  28.563  27.123  1.00  0.00     0.049 A 
ATOM     29  C   UNL A   1      42.211  29.573  28.851  1.00  0.00     0.074 A 
ATOM     30  C   UNL A   1      48.312  29.648  27.098  1.00  0.00     0.029 A 
ATOM     31  N   UNL A   1      46.237  29.032  27.601  1.00  0.00    -0.354 N 
ATOM     32  N   UNL A   1      43.459  29.497  28.458  1.00  0.00    -0.248 NA
ATOM     33  C   UNL A   1      41.816  30.895  29.351  1.00  0.00     0.031 C 
ATOM     34  C   UNL A   1      47.635  30.757  27.615  1.00  0.00     0.029 A 
ATOM     35  C   UNL A   1      46.332  30.382  27.901  1.00  0.00     0.049 A 
ATOM     36  H   UNL A   1      45.424  28.485  27.710  1.00  0.00     0.167 HD
ATOM     37  C   UNL A   1      43.994  30.762  28.643  1.00  0.00     0.074 A 
ATOM     38  C   UNL A   1      42.926  31.594  29.157  1.00  0.00     0.031 C 
ATOM     39  C   UNL A   1      45.258  31.196  28.412  1.00  0.00     0.037 A 
BRANCH  26  40
ATOM     40  C   UNL A   1      49.116  26.843  26.319  1.00  0.00     0.064 A 
ATOM     41  C   UNL A   1      49.524  26.943  24.979  1.00  0.00     0.173 A 
ATOM     42  C   UNL A   1      50.077  26.458  27.266  1.00  0.00     0.173 A 
ATOM     43  F   UNL A   1      48.645  27.298  24.030  1.00  0.00    -0.203 F 
ATOM     44  C   UNL A   1      50.833  26.652  24.604  1.00  0.00     0.198 A 
ATOM     45  C   UNL A   1      51.392  26.197  26.892  1.00  0.00     0.198 A 
ATOM     46  F   UNL A   1      49.745  26.353  28.562  1.00  0.00    -0.203 F 
ATOM     47  F   UNL A   1      51.189  26.715  23.313  1.00  0.00    -0.200 F 
ATOM     48  C   UNL A   1      51.768  26.287  25.561  1.00  0.00     0.200 A 
ATOM     49  F   UNL A   1      52.298  25.861  27.822  1.00  0.00    -0.200 F 
ATOM     50  F   UNL A   1      53.031  26.021  25.200  1.00  0.00    -0.200 F 
ENDBRANCH  26  40
BRANCH  27  51
ATOM     51  C   UNL A   1      39.773  28.794  29.329  1.00  0.00     0.064 A 
ATOM     52  C   UNL A   1      39.401  28.560  30.659  1.00  0.00     0.173 A 
ATOM     53  C   UNL A   1      38.797  29.303  28.459  1.00  0.00     0.173 A 
ATOM     54  F   UNL A   1      40.293  28.060  31.527  1.00  0.00    -0.203 F 
ATOM     55  C   UNL A   1      38.099  28.799  31.095  1.00  0.00     0.198 A 
ATOM     56  C   UNL A   1      37.506  29.578  28.904  1.00  0.00     0.198 A 
ATOM     57  F   UNL A   1      39.103  29.553  27.177  1.00  0.00    -0.203 F 
ATOM     58  F   UNL A   1      37.755  28.516  32.358  1.00  0.00    -0.200 F 
ATOM     59  C   UNL A   1      37.155  29.314  30.218  1.00  0.00     0.200 A 
ATOM     60  F   UNL A   1      36.604  30.096  28.059  1.00  0.00    -0.200 F 
ATOM     61  F   UNL A   1      35.905  29.549  30.638  1.00  0.00    -0.200 F 
ENDBRANCH  27  51
BRANCH  39  62
ATOM     62  C   UNL A   1      45.539  32.647  28.683  1.00  0.00     0.064 A 
ATOM     63  C   UNL A   1      45.320  33.635  27.711  1.00  0.00     0.173 A 
ATOM     64  C   UNL A   1      46.020  33.053  29.936  1.00  0.00     0.173 A 
ATOM     65  F   UNL A   1      44.877  33.297  26.490  1.00  0.00    -0.203 F 
ATOM     66  C   UNL A   1      45.606  34.972  27.973  1.00  0.00     0.198 A 
ATOM     67  C   UNL A   1      46.271  34.396  30.207  1.00  0.00     0.198 A 
ATOM     68  F   UNL A   1      46.242  32.149  30.902  1.00  0.00    -0.203 F 
ATOM     69  F   UNL A   1      45.449  35.890  27.010  1.00  0.00    -0.200 F 
ATOM     70  C   UNL A   1      46.074  35.351  29.223  1.00  0.00     0.200 A 
ATOM     71  F   UNL A   1      46.707  34.762  31.419  1.00  0.00    -0.200 F 
ATOM     72  F   UNL A   1      46.345  36.639  29.475  1.00  0.00    -0.200 F 
ENDBRANCH  39  62
ENDBRANCH  13  14
ENDBRANCH   6   8
ENDBRANCH   3   4
ENDBRANCH   2   3
ENDBRANCH   1   2
BRANCH   1  73
ATOM     73  C   UNL A   1      37.395  21.805  24.400  1.00  0.00     0.002 C 
BRANCH  73  74
ATOM     74  C   UNL A   1      37.288  22.946  25.418  1.00  0.00     0.021 C 
BRANCH  74  75
ATOM     75  C   UNL A   1      36.131  23.902  25.141  1.00  0.00     0.116 C 
BRANCH  75  76
ATOM     76  N   UNL A   1      35.441  23.575  23.909  1.00  0.00    -0.356 N 
ATOM     77  C   UNL A   1      34.149  23.367  23.566  1.00  0.00     0.224 C 
ATOM     78  H   UNL A   1      36.055  23.485  23.145  1.00  0.00     0.163 HD
ATOM     79  O   UNL A   1      33.957  23.100  22.371  1.00  0.00    -0.275 OA
BRANCH  77  80
ATOM     80  C   UNL A   1      32.935  23.494  24.502  1.00  0.00     0.092 C 
ATOM     81  C   UNL A   1      33.073  24.280  25.809  1.00  0.00     0.014 C 
ATOM     82  C   UNL A   1      32.267  22.100  24.711  1.00  0.00     0.064 C 
ATOM     83  C   UNL A   1      31.798  24.344  26.643  1.00  0.00     0.001 C 
ATOM     84  C   UNL A   1      30.976  22.267  25.537  1.00  0.00     0.015 C 
ATOM     85  C   UNL A   1      31.197  22.971  26.868  1.00  0.00     0.001 C 
BRANCH  82  86
ATOM     86  S   UNL A   1      33.460  20.918  25.507  1.00  0.00    -0.122 SA
BRANCH  86  87
ATOM     87  C   UNL A   1      33.406  19.430  24.512  1.00  0.00     0.011 A 
ATOM     88  C   UNL A   1      34.267  18.341  24.625  1.00  0.00     0.035 A 
ATOM     89  C   UNL A   1      32.416  19.382  23.527  1.00  0.00     0.035 A 
ATOM     90  C   UNL A   1      34.158  17.306  23.707  1.00  0.00     0.112 A 
ATOM     91  C   UNL A   1      32.367  18.292  22.674  1.00  0.00     0.112 A 
ATOM     92  N   UNL A   1      33.231  17.260  22.730  1.00  0.00    -0.265 NA
ENDBRANCH  86  87
ENDBRANCH  82  86
ENDBRANCH  77  80
ENDBRANCH  75  76
ENDBRANCH  74  75
ENDBRANCH  73  74
ENDBRANCH   1  73
TORSDOF 15
ENDMDL
