MODEL 1
REMARK VINA RESULT:     -13.1      0.000      0.000
REMARK SMILES Cc1cc(C(=O)N[C@H]2C=C[C@H](C(=O)NCCCCCCNC(=O)c3ccc(-c4c5nc(c(-c6c(F)c(F)c(F)c(F)c6F)c6ccc([nH]6)c(-c6c(F)c(F)c(F)c(F)c6F)c6nc(c(-c7c(F)c(F)c(F)c(F)c7F)c7ccc4[nH]7)C=C6)C=C5)cc3)C2)ccc1F
REMARK SMILES IDX 17 1 16 2 15 3 14 4 12 5 13 6 11 8 8 9 9 10 87 11 10 12 7 13
REMARK SMILES IDX 5 14 6 15 4 17 1 18 2 19 3 20 90 21 89 22 91 23 88 24 18 25
REMARK SMILES IDX 19 26 20 27 21 28 22 29 23 31 24 32 25 33 86 34 26 35 85 36
REMARK SMILES IDX 27 37 28 38 29 39 79 40 30 41 84 42 78 43 80 44 31 45 83 46
REMARK SMILES IDX 77 47 76 48 32 50 64 51 44 52 63 53 45 54 48 55 62 56 81 57
REMARK SMILES IDX 46 58 47 59 61 61 82 62 49 63 33 64 34 65 42 66 35 67 36 68
REMARK SMILES IDX 40 69 43 70 37 71 38 72 41 73 39 74 65 75 66 76 74 77 67 78
REMARK SMILES IDX 68 79 72 80 75 81 69 82 70 83 73 84 71 85 50 86 51 87 59 88
REMARK SMILES IDX 52 89 53 90 57 91 60 92 54 93 55 94 58 95 56 96
REMARK H PARENT 14 7 7 16 21 30 80 49 48 60
REMARK Flexibility Score: inf
ROOT
ATOM      1  C   UNL A   1      31.852  26.775  26.344  1.00  0.00     0.002 C 
ENDROOT
BRANCH   1   2
ATOM      2  C   UNL A   1      30.779  25.752  25.951  1.00  0.00     0.021 C 
BRANCH   2   3
ATOM      3  C   UNL A   1      30.950  24.309  26.412  1.00  0.00     0.116 C 
BRANCH   3   4
ATOM      4  N   UNL A   1      32.296  24.004  26.822  1.00  0.00    -0.356 N 
ATOM      5  C   UNL A   1      33.256  23.261  26.220  1.00  0.00     0.227 C 
ATOM      6  O   UNL A   1      34.373  23.314  26.748  1.00  0.00    -0.274 OA
ATOM      7  H   UNL A   1      32.562  24.400  27.683  1.00  0.00     0.163 HD
BRANCH   5   8
ATOM      8  C   UNL A   1      32.988  22.334  25.008  1.00  0.00     0.103 C 
ATOM      9  C   UNL A   1      32.719  23.892  23.205  1.00  0.00     0.106 C 
ATOM     10  C   UNL A   1      31.462  23.108  23.379  1.00  0.00    -0.006 C 
ATOM     11  C   UNL A   1      33.738  22.914  23.790  1.00  0.00     0.047 C 
ATOM     12  C   UNL A   1      31.601  22.269  24.416  1.00  0.00    -0.016 C 
BRANCH   9  13
ATOM     13  N   UNL A   1      32.954  24.266  21.841  1.00  0.00    -0.346 N 
ATOM     14  C   UNL A   1      32.733  25.474  21.219  1.00  0.00     0.251 C 
ATOM     15  O   UNL A   1      33.054  25.588  20.036  1.00  0.00    -0.269 OA
ATOM     16  H   UNL A   1      33.326  23.557  21.268  1.00  0.00     0.164 HD
BRANCH  14  17
ATOM     17  C   UNL A   1      32.196  26.668  21.940  1.00  0.00     0.040 A 
ATOM     18  C   UNL A   1      28.940  28.170  23.236  1.00  0.00     0.047 C 
ATOM     19  C   UNL A   1      30.395  27.996  22.920  1.00  0.00    -0.015 A 
ATOM     20  C   UNL A   1      30.832  26.938  22.109  1.00  0.00     0.020 A 
ATOM     21  C   UNL A   1      31.343  28.872  23.444  1.00  0.00     0.126 A 
ATOM     22  C   UNL A   1      32.700  28.684  23.204  1.00  0.00     0.040 A 
ATOM     23  F   UNL A   1      30.951  29.915  24.188  1.00  0.00    -0.207 F 
ATOM     24  C   UNL A   1      33.127  27.575  22.468  1.00  0.00     0.017 A 
ENDBRANCH  14  17
ENDBRANCH   9  13
ENDBRANCH   5   8
ENDBRANCH   3   4
ENDBRANCH   2   3
ENDBRANCH   1   2
BRANCH   1  25
ATOM     25  C   UNL A   1      31.549  27.819  27.430  1.00  0.00     0.002 C 
BRANCH  25  26
ATOM     26  C   UNL A   1      31.916  29.275  27.165  1.00  0.00     0.021 C 
BRANCH  26  27
ATOM     27  C   UNL A   1      33.396  29.596  27.232  1.00  0.00     0.116 C 
BRANCH  27  28
ATOM     28  N   UNL A   1      33.759  30.791  27.953  1.00  0.00    -0.352 N 
ATOM     29  C   UNL A   1      34.898  31.048  28.699  1.00  0.00     0.251 C 
ATOM     30  H   UNL A   1      33.107  31.527  27.910  1.00  0.00     0.163 HD
ATOM     31  O   UNL A   1      34.929  32.063  29.379  1.00  0.00    -0.269 OA
BRANCH  29  32
ATOM     32  C   UNL A   1      36.122  30.189  28.599  1.00  0.00     0.039 A 
ATOM     33  C   UNL A   1      36.481  29.433  29.728  1.00  0.00     0.014 A 
ATOM     34  C   UNL A   1      36.998  30.209  27.516  1.00  0.00     0.014 A 
ATOM     35  C   UNL A   1      37.767  28.897  29.841  1.00  0.00     0.010 A 
ATOM     36  C   UNL A   1      38.290  29.756  27.645  1.00  0.00     0.010 A 
ATOM     37  C   UNL A   1      38.684  29.144  28.823  1.00  0.00    -0.014 A 
BRANCH  37  38
ATOM     38  C   UNL A   1      40.090  28.807  28.879  1.00  0.00     0.031 A 
ATOM     39  C   UNL A   1      40.517  27.450  28.526  1.00  0.00     0.074 A 
ATOM     40  C   UNL A   1      40.996  29.770  29.143  1.00  0.00     0.049 A 
ATOM     41  N   UNL A   1      41.475  26.828  29.118  1.00  0.00    -0.248 NA
ATOM     42  C   UNL A   1      39.881  26.685  27.460  1.00  0.00     0.031 C 
ATOM     43  C   UNL A   1      42.448  29.667  29.089  1.00  0.00     0.029 A 
ATOM     44  N   UNL A   1      40.753  31.030  29.705  1.00  0.00    -0.354 N 
ATOM     45  C   UNL A   1      41.770  25.729  28.349  1.00  0.00     0.074 A 
ATOM     46  C   UNL A   1      40.698  25.631  27.382  1.00  0.00     0.031 C 
ATOM     47  C   UNL A   1      42.971  30.625  29.872  1.00  0.00     0.029 A 
ATOM     48  C   UNL A   1      41.867  31.305  30.529  1.00  0.00     0.049 A 
ATOM     49  H   UNL A   1      39.968  31.605  29.557  1.00  0.00     0.167 HD
ATOM     50  C   UNL A   1      42.978  25.115  28.493  1.00  0.00     0.037 A 
ATOM     51  C   UNL A   1      41.697  31.434  31.878  1.00  0.00     0.037 A 
ATOM     52  C   UNL A   1      43.811  25.820  29.465  1.00  0.00     0.049 A 
ATOM     53  C   UNL A   1      42.380  30.346  32.670  1.00  0.00     0.074 A 
ATOM     54  C   UNL A   1      44.800  26.779  29.303  1.00  0.00     0.029 A 
ATOM     55  N   UNL A   1      43.422  25.885  30.800  1.00  0.00    -0.354 N 
ATOM     56  N   UNL A   1      42.831  29.240  32.145  1.00  0.00    -0.248 NA
ATOM     57  C   UNL A   1      42.590  30.404  34.114  1.00  0.00     0.031 C 
ATOM     58  C   UNL A   1      44.958  27.466  30.530  1.00  0.00     0.029 A 
ATOM     59  C   UNL A   1      44.085  26.912  31.450  1.00  0.00     0.049 A 
ATOM     60  H   UNL A   1      42.768  25.284  31.224  1.00  0.00     0.167 HD
ATOM     61  C   UNL A   1      43.351  28.441  33.129  1.00  0.00     0.074 A 
ATOM     62  C   UNL A   1      43.204  29.228  34.340  1.00  0.00     0.031 C 
ATOM     63  C   UNL A   1      43.847  27.195  32.859  1.00  0.00     0.037 A 
BRANCH  50  64
ATOM     64  C   UNL A   1      43.482  24.111  27.488  1.00  0.00     0.064 A 
ATOM     65  C   UNL A   1      44.299  24.496  26.407  1.00  0.00     0.173 A 
ATOM     66  C   UNL A   1      43.137  22.747  27.523  1.00  0.00     0.173 A 
ATOM     67  F   UNL A   1      44.778  25.740  26.299  1.00  0.00    -0.203 F 
ATOM     68  C   UNL A   1      44.641  23.613  25.379  1.00  0.00     0.198 A 
ATOM     69  C   UNL A   1      43.435  21.876  26.470  1.00  0.00     0.198 A 
ATOM     70  F   UNL A   1      42.505  22.224  28.585  1.00  0.00    -0.203 F 
ATOM     71  F   UNL A   1      45.404  24.041  24.363  1.00  0.00    -0.200 F 
ATOM     72  C   UNL A   1      44.178  22.314  25.392  1.00  0.00     0.200 A 
ATOM     73  F   UNL A   1      42.985  20.613  26.501  1.00  0.00    -0.200 F 
ATOM     74  F   UNL A   1      44.458  21.484  24.377  1.00  0.00    -0.200 F 
ENDBRANCH  50  64
BRANCH  51  75
ATOM     75  C   UNL A   1      40.399  32.092  32.204  1.00  0.00     0.064 A 
ATOM     76  C   UNL A   1      40.265  33.441  31.813  1.00  0.00     0.173 A 
ATOM     77  C   UNL A   1      39.225  31.349  32.375  1.00  0.00     0.173 A 
ATOM     78  F   UNL A   1      41.360  34.205  31.664  1.00  0.00    -0.203 F 
ATOM     79  C   UNL A   1      39.037  33.953  31.405  1.00  0.00     0.198 A 
ATOM     80  C   UNL A   1      37.988  31.885  32.008  1.00  0.00     0.198 A 
ATOM     81  F   UNL A   1      39.284  30.068  32.768  1.00  0.00    -0.203 F 
ATOM     82  F   UNL A   1      38.972  35.178  30.862  1.00  0.00    -0.200 F 
ATOM     83  C   UNL A   1      37.906  33.159  31.460  1.00  0.00     0.200 A 
ATOM     84  F   UNL A   1      36.882  31.135  32.103  1.00  0.00    -0.200 F 
ATOM     85  F   UNL A   1      36.750  33.606  30.949  1.00  0.00    -0.200 F 
ENDBRANCH  51  75
BRANCH  63  86
ATOM     86  C   UNL A   1      44.257  26.162  33.882  1.00  0.00     0.064 A 
ATOM     87  C   UNL A   1      45.572  25.706  34.059  1.00  0.00     0.173 A 
ATOM     88  C   UNL A   1      43.316  25.687  34.830  1.00  0.00     0.173 A 
ATOM     89  F   UNL A   1      46.580  26.176  33.314  1.00  0.00    -0.203 F 
ATOM     90  C   UNL A   1      45.908  24.788  35.059  1.00  0.00     0.198 A 
ATOM     91  C   UNL A   1      43.668  24.826  35.868  1.00  0.00     0.198 A 
ATOM     92  F   UNL A   1      42.029  26.062  34.794  1.00  0.00    -0.203 F 
ATOM     93  F   UNL A   1      47.167  24.341  35.151  1.00  0.00    -0.200 F 
ATOM     94  C   UNL A   1      44.960  24.359  35.969  1.00  0.00     0.200 A 
ATOM     95  F   UNL A   1      42.749  24.469  36.776  1.00  0.00    -0.200 F 
ATOM     96  F   UNL A   1      45.298  23.516  36.954  1.00  0.00    -0.200 F 
ENDBRANCH  63  86
ENDBRANCH  37  38
ENDBRANCH  29  32
ENDBRANCH  27  28
ENDBRANCH  26  27
ENDBRANCH  25  26
ENDBRANCH   1  25
TORSDOF 15
ENDMDL
MODEL 2
REMARK VINA RESULT:     -13.1      1.008      2.174
REMARK SMILES Cc1cc(C(=O)N[C@H]2C=C[C@H](C(=O)NCCCCCCNC(=O)c3ccc(-c4c5nc(c(-c6c(F)c(F)c(F)c(F)c6F)c6ccc([nH]6)c(-c6c(F)c(F)c(F)c(F)c6F)c6nc(c(-c7c(F)c(F)c(F)c(F)c7F)c7ccc4[nH]7)C=C6)C=C5)cc3)C2)ccc1F
REMARK SMILES IDX 17 1 16 2 15 3 14 4 12 5 13 6 11 8 8 9 9 10 87 11 10 12 7 13
REMARK SMILES IDX 5 14 6 15 4 17 1 18 2 19 3 20 90 21 89 22 91 23 88 24 18 25
REMARK SMILES IDX 19 26 20 27 21 28 22 29 23 31 24 32 25 33 86 34 26 35 85 36
REMARK SMILES IDX 27 37 28 38 29 39 79 40 30 41 84 42 78 43 80 44 31 45 83 46
REMARK SMILES IDX 77 47 76 48 32 50 64 51 44 52 63 53 45 54 48 55 62 56 81 57
REMARK SMILES IDX 46 58 47 59 61 61 82 62 49 63 33 64 34 65 42 66 35 67 36 68
REMARK SMILES IDX 40 69 43 70 37 71 38 72 41 73 39 74 65 75 66 76 74 77 67 78
REMARK SMILES IDX 68 79 72 80 75 81 69 82 70 83 73 84 71 85 50 86 51 87 59 88
REMARK SMILES IDX 52 89 53 90 57 91 60 92 54 93 55 94 58 95 56 96
REMARK H PARENT 14 7 7 16 21 30 80 49 48 60
REMARK Flexibility Score: inf
ROOT
ATOM      1  C   UNL A   1      32.422  26.863  26.513  1.00  0.00     0.002 C 
ENDROOT
BRANCH   1   2
ATOM      2  C   UNL A   1      31.560  25.769  25.871  1.00  0.00     0.021 C 
BRANCH   2   3
ATOM      3  C   UNL A   1      31.645  24.355  26.433  1.00  0.00     0.116 C 
BRANCH   3   4
ATOM      4  N   UNL A   1      32.996  23.934  26.699  1.00  0.00    -0.356 N 
ATOM      5  C   UNL A   1      33.814  23.102  26.009  1.00  0.00     0.227 C 
ATOM      6  O   UNL A   1      34.984  23.060  26.410  1.00  0.00    -0.274 OA
ATOM      7  H   UNL A   1      33.391  24.314  27.517  1.00  0.00     0.163 HD
BRANCH   5   8
ATOM      8  C   UNL A   1      33.332  22.189  24.854  1.00  0.00     0.103 C 
ATOM      9  C   UNL A   1      32.942  23.754  23.078  1.00  0.00     0.106 C 
ATOM     10  C   UNL A   1      31.667  23.060  23.420  1.00  0.00    -0.006 C 
ATOM     11  C   UNL A   1      33.959  22.710  23.543  1.00  0.00     0.047 C 
ATOM     12  C   UNL A   1      31.879  22.219  24.442  1.00  0.00    -0.016 C 
BRANCH   9  13
ATOM     13  N   UNL A   1      33.027  24.105  21.691  1.00  0.00    -0.346 N 
ATOM     14  C   UNL A   1      32.800  25.320  21.084  1.00  0.00     0.251 C 
ATOM     15  O   UNL A   1      32.977  25.407  19.869  1.00  0.00    -0.269 OA
ATOM     16  H   UNL A   1      33.284  23.372  21.086  1.00  0.00     0.164 HD
BRANCH  14  17
ATOM     17  C   UNL A   1      32.425  26.548  21.850  1.00  0.00     0.040 A 
ATOM     18  C   UNL A   1      29.408  28.360  23.317  1.00  0.00     0.047 C 
ATOM     19  C   UNL A   1      30.821  28.038  22.933  1.00  0.00    -0.015 A 
ATOM     20  C   UNL A   1      31.107  26.958  22.085  1.00  0.00     0.020 A 
ATOM     21  C   UNL A   1      31.880  28.796  23.429  1.00  0.00     0.126 A 
ATOM     22  C   UNL A   1      33.197  28.469  23.125  1.00  0.00     0.040 A 
ATOM     23  F   UNL A   1      31.634  29.858  24.208  1.00  0.00    -0.207 F 
ATOM     24  C   UNL A   1      33.470  27.338  22.351  1.00  0.00     0.017 A 
ENDBRANCH  14  17
ENDBRANCH   9  13
ENDBRANCH   5   8
ENDBRANCH   3   4
ENDBRANCH   2   3
ENDBRANCH   1   2
BRANCH   1  25
ATOM     25  C   UNL A   1      31.769  27.906  27.432  1.00  0.00     0.002 C 
BRANCH  25  26
ATOM     26  C   UNL A   1      32.131  29.375  27.241  1.00  0.00     0.021 C 
BRANCH  26  27
ATOM     27  C   UNL A   1      33.613  29.690  27.269  1.00  0.00     0.116 C 
BRANCH  27  28
ATOM     28  N   UNL A   1      34.014  30.811  28.082  1.00  0.00    -0.352 N 
ATOM     29  C   UNL A   1      35.153  30.966  28.857  1.00  0.00     0.251 C 
ATOM     30  H   UNL A   1      33.392  31.574  28.088  1.00  0.00     0.163 HD
ATOM     31  O   UNL A   1      35.214  31.925  29.612  1.00  0.00    -0.269 OA
BRANCH  29  32
ATOM     32  C   UNL A   1      36.342  30.067  28.704  1.00  0.00     0.039 A 
ATOM     33  C   UNL A   1      36.780  29.368  29.842  1.00  0.00     0.014 A 
ATOM     34  C   UNL A   1      37.122  30.001  27.552  1.00  0.00     0.014 A 
ATOM     35  C   UNL A   1      38.058  28.803  29.877  1.00  0.00     0.010 A 
ATOM     36  C   UNL A   1      38.409  29.519  27.597  1.00  0.00     0.010 A 
ATOM     37  C   UNL A   1      38.889  28.965  28.772  1.00  0.00    -0.014 A 
BRANCH  37  38
ATOM     38  C   UNL A   1      40.287  28.592  28.729  1.00  0.00     0.031 A 
ATOM     39  C   UNL A   1      40.654  27.235  28.312  1.00  0.00     0.074 A 
ATOM     40  C   UNL A   1      41.232  29.525  28.961  1.00  0.00     0.049 A 
ATOM     41  N   UNL A   1      41.631  26.573  28.824  1.00  0.00    -0.248 NA
ATOM     42  C   UNL A   1      39.932  26.518  27.268  1.00  0.00     0.031 C 
ATOM     43  C   UNL A   1      42.675  29.387  28.811  1.00  0.00     0.029 A 
ATOM     44  N   UNL A   1      41.059  30.773  29.571  1.00  0.00    -0.354 N 
ATOM     45  C   UNL A   1      41.848  25.490  28.008  1.00  0.00     0.074 A 
ATOM     46  C   UNL A   1      40.714  25.446  27.109  1.00  0.00     0.031 C 
ATOM     47  C   UNL A   1      43.272  30.309  29.585  1.00  0.00     0.029 A 
ATOM     48  C   UNL A   1      42.230  30.996  30.330  1.00  0.00     0.049 A 
ATOM     49  H   UNL A   1      40.282  31.371  29.490  1.00  0.00     0.167 HD
ATOM     50  C   UNL A   1      43.046  24.842  28.058  1.00  0.00     0.037 A 
ATOM     51  C   UNL A   1      42.150  31.090  31.689  1.00  0.00     0.037 A 
ATOM     52  C   UNL A   1      43.957  25.499  28.993  1.00  0.00     0.049 A 
ATOM     53  C   UNL A   1      42.852  29.963  32.406  1.00  0.00     0.074 A 
ATOM     54  C   UNL A   1      44.958  26.437  28.794  1.00  0.00     0.029 A 
ATOM     55  N   UNL A   1      43.655  25.534  30.352  1.00  0.00    -0.354 N 
ATOM     56  N   UNL A   1      43.240  28.862  31.823  1.00  0.00    -0.248 NA
ATOM     57  C   UNL A   1      43.155  29.974  33.834  1.00  0.00     0.031 C 
ATOM     58  C   UNL A   1      45.212  27.084  30.027  1.00  0.00     0.029 A 
ATOM     59  C   UNL A   1      44.385  26.525  30.986  1.00  0.00     0.049 A 
ATOM     60  H   UNL A   1      43.014  24.937  30.800  1.00  0.00     0.167 HD
ATOM     61  C   UNL A   1      43.799  28.022  32.750  1.00  0.00     0.074 A 
ATOM     62  C   UNL A   1      43.750  28.778  33.988  1.00  0.00     0.031 C 
ATOM     63  C   UNL A   1      44.244  26.773  32.414  1.00  0.00     0.037 A 
BRANCH  50  64
ATOM     64  C   UNL A   1      43.458  23.856  26.995  1.00  0.00     0.064 A 
ATOM     65  C   UNL A   1      43.049  22.508  27.042  1.00  0.00     0.173 A 
ATOM     66  C   UNL A   1      44.312  24.187  25.926  1.00  0.00     0.173 A 
ATOM     67  F   UNL A   1      42.167  22.074  27.949  1.00  0.00    -0.203 F 
ATOM     68  C   UNL A   1      43.550  21.547  26.161  1.00  0.00     0.198 A 
ATOM     69  C   UNL A   1      44.853  23.217  25.077  1.00  0.00     0.198 A 
ATOM     70  F   UNL A   1      44.636  25.465  25.676  1.00  0.00    -0.203 F 
ATOM     71  F   UNL A   1      43.141  20.274  26.265  1.00  0.00    -0.200 F 
ATOM     72  C   UNL A   1      44.481  21.893  25.203  1.00  0.00     0.200 A 
ATOM     73  F   UNL A   1      45.749  23.572  24.144  1.00  0.00    -0.200 F 
ATOM     74  F   UNL A   1      45.004  20.960  24.397  1.00  0.00    -0.200 F 
ENDBRANCH  50  64
BRANCH  51  75
ATOM     75  C   UNL A   1      40.893  31.770  32.116  1.00  0.00     0.064 A 
ATOM     76  C   UNL A   1      39.905  30.953  32.704  1.00  0.00     0.173 A 
ATOM     77  C   UNL A   1      40.870  33.136  32.425  1.00  0.00     0.173 A 
ATOM     78  F   UNL A   1      39.867  29.641  32.416  1.00  0.00    -0.203 F 
ATOM     79  C   UNL A   1      39.079  31.435  33.714  1.00  0.00     0.198 A 
ATOM     80  C   UNL A   1      40.004  33.625  33.408  1.00  0.00     0.198 A 
ATOM     81  F   UNL A   1      41.767  33.971  31.881  1.00  0.00    -0.203 F 
ATOM     82  F   UNL A   1      38.281  30.591  34.384  1.00  0.00    -0.200 F 
ATOM     83  C   UNL A   1      39.161  32.762  34.097  1.00  0.00     0.200 A 
ATOM     84  F   UNL A   1      40.047  34.919  33.750  1.00  0.00    -0.200 F 
ATOM     85  F   UNL A   1      38.459  33.197  35.154  1.00  0.00    -0.200 F 
ENDBRANCH  51  75
BRANCH  63  86
ATOM     86  C   UNL A   1      44.691  25.701  33.380  1.00  0.00     0.064 A 
ATOM     87  C   UNL A   1      43.834  25.032  34.267  1.00  0.00     0.173 A 
ATOM     88  C   UNL A   1      46.021  25.213  33.336  1.00  0.00     0.173 A 
ATOM     89  F   UNL A   1      42.524  25.306  34.314  1.00  0.00    -0.203 F 
ATOM     90  C   UNL A   1      44.288  24.006  35.101  1.00  0.00     0.198 A 
ATOM     91  C   UNL A   1      46.453  24.144  34.118  1.00  0.00     0.198 A 
ATOM     92  F   UNL A   1      46.939  25.743  32.513  1.00  0.00    -0.203 F 
ATOM     93  F   UNL A   1      43.443  23.437  35.971  1.00  0.00    -0.200 F 
ATOM     94  C   UNL A   1      45.592  23.554  35.018  1.00  0.00     0.200 A 
ATOM     95  F   UNL A   1      47.704  23.681  33.980  1.00  0.00    -0.200 F 
ATOM     96  F   UNL A   1      46.010  22.539  35.786  1.00  0.00    -0.200 F 
ENDBRANCH  63  86
ENDBRANCH  37  38
ENDBRANCH  29  32
ENDBRANCH  27  28
ENDBRANCH  26  27
ENDBRANCH  25  26
ENDBRANCH   1  25
TORSDOF 15
ENDMDL
MODEL 3
REMARK VINA RESULT:     -13.0      2.122      4.007
REMARK SMILES Cc1cc(C(=O)N[C@H]2C=C[C@H](C(=O)NCCCCCCNC(=O)c3ccc(-c4c5nc(c(-c6c(F)c(F)c(F)c(F)c6F)c6ccc([nH]6)c(-c6c(F)c(F)c(F)c(F)c6F)c6nc(c(-c7c(F)c(F)c(F)c(F)c7F)c7ccc4[nH]7)C=C6)C=C5)cc3)C2)ccc1F
REMARK SMILES IDX 17 1 16 2 15 3 14 4 12 5 13 6 11 8 8 9 9 10 87 11 10 12 7 13
REMARK SMILES IDX 5 14 6 15 4 17 1 18 2 19 3 20 90 21 89 22 91 23 88 24 18 25
REMARK SMILES IDX 19 26 20 27 21 28 22 29 23 31 24 32 25 33 86 34 26 35 85 36
REMARK SMILES IDX 27 37 28 38 29 39 79 40 30 41 84 42 78 43 80 44 31 45 83 46
REMARK SMILES IDX 77 47 76 48 32 50 64 51 44 52 63 53 45 54 48 55 62 56 81 57
REMARK SMILES IDX 46 58 47 59 61 61 82 62 49 63 33 64 34 65 42 66 35 67 36 68
REMARK SMILES IDX 40 69 43 70 37 71 38 72 41 73 39 74 65 75 66 76 74 77 67 78
REMARK SMILES IDX 68 79 72 80 75 81 69 82 70 83 73 84 71 85 50 86 51 87 59 88
REMARK SMILES IDX 52 89 53 90 57 91 60 92 54 93 55 94 58 95 56 96
REMARK H PARENT 14 7 7 16 21 30 80 49 48 60
REMARK Flexibility Score: inf
ROOT
ATOM      1  C   UNL A   1      31.677  28.957  26.427  1.00  0.00     0.002 C 
ENDROOT
BRANCH   1   2
ATOM      2  C   UNL A   1      31.338  29.725  25.143  1.00  0.00     0.021 C 
BRANCH   2   3
ATOM      3  C   UNL A   1      30.868  28.935  23.928  1.00  0.00     0.116 C 
BRANCH   3   4
ATOM      4  N   UNL A   1      31.864  28.021  23.429  1.00  0.00    -0.356 N 
ATOM      5  C   UNL A   1      31.812  26.682  23.226  1.00  0.00     0.227 C 
ATOM      6  O   UNL A   1      32.786  26.200  22.635  1.00  0.00    -0.274 OA
ATOM      7  H   UNL A   1      32.724  28.439  23.197  1.00  0.00     0.163 HD
BRANCH   5   8
ATOM      8  C   UNL A   1      30.673  25.778  23.760  1.00  0.00     0.103 C 
ATOM      9  C   UNL A   1      31.794  24.439  25.404  1.00  0.00     0.106 C 
ATOM     10  C   UNL A   1      31.244  23.558  24.334  1.00  0.00    -0.006 C 
ATOM     11  C   UNL A   1      30.852  25.638  25.287  1.00  0.00     0.047 C 
ATOM     12  C   UNL A   1      30.656  24.313  23.395  1.00  0.00    -0.016 C 
BRANCH   9  13
ATOM     13  N   UNL A   1      31.810  23.806  26.690  1.00  0.00    -0.346 N 
ATOM     14  C   UNL A   1      32.723  22.918  27.213  1.00  0.00     0.251 C 
ATOM     15  O   UNL A   1      32.562  22.530  28.370  1.00  0.00    -0.269 OA
ATOM     16  H   UNL A   1      31.059  24.039  27.284  1.00  0.00     0.164 HD
BRANCH  14  17
ATOM     17  C   UNL A   1      33.935  22.470  26.462  1.00  0.00     0.040 A 
ATOM     18  C   UNL A   1      37.534  23.478  25.709  1.00  0.00     0.047 C 
ATOM     19  C   UNL A   1      36.249  22.707  25.715  1.00  0.00    -0.015 A 
ATOM     20  C   UNL A   1      35.094  23.241  26.305  1.00  0.00     0.020 A 
ATOM     21  C   UNL A   1      36.184  21.434  25.152  1.00  0.00     0.126 A 
ATOM     22  C   UNL A   1      35.011  20.688  25.205  1.00  0.00     0.040 A 
ATOM     23  F   UNL A   1      37.260  20.916  24.546  1.00  0.00    -0.207 F 
ATOM     24  C   UNL A   1      33.894  21.198  25.873  1.00  0.00     0.017 A 
ENDBRANCH  14  17
ENDBRANCH   9  13
ENDBRANCH   5   8
ENDBRANCH   3   4
ENDBRANCH   2   3
ENDBRANCH   1   2
BRANCH   1  25
ATOM     25  C   UNL A   1      33.014  29.213  27.138  1.00  0.00     0.002 C 
BRANCH  25  26
ATOM     26  C   UNL A   1      33.515  30.649  27.254  1.00  0.00     0.021 C 
BRANCH  26  27
ATOM     27  C   UNL A   1      34.995  30.801  27.542  1.00  0.00     0.116 C 
BRANCH  27  28
ATOM     28  N   UNL A   1      35.345  31.255  28.864  1.00  0.00    -0.352 N 
ATOM     29  C   UNL A   1      36.230  30.696  29.774  1.00  0.00     0.251 C 
ATOM     30  H   UNL A   1      34.894  32.077  29.164  1.00  0.00     0.163 HD
ATOM     31  O   UNL A   1      36.248  31.141  30.912  1.00  0.00    -0.269 OA
BRANCH  29  32
ATOM     32  C   UNL A   1      37.233  29.660  29.368  1.00  0.00     0.039 A 
ATOM     33  C   UNL A   1      37.546  28.656  30.302  1.00  0.00     0.014 A 
ATOM     34  C   UNL A   1      37.977  29.717  28.191  1.00  0.00     0.014 A 
ATOM     35  C   UNL A   1      38.699  27.881  30.148  1.00  0.00     0.010 A 
ATOM     36  C   UNL A   1      39.154  29.019  28.066  1.00  0.00     0.010 A 
ATOM     37  C   UNL A   1      39.535  28.139  29.065  1.00  0.00    -0.014 A 
BRANCH  37  38
ATOM     38  C   UNL A   1      40.840  27.544  28.870  1.00  0.00     0.031 A 
ATOM     39  C   UNL A   1      40.936  26.124  28.518  1.00  0.00     0.074 A 
ATOM     40  C   UNL A   1      41.939  28.325  28.904  1.00  0.00     0.049 A 
ATOM     41  N   UNL A   1      41.864  25.344  28.949  1.00  0.00    -0.248 NA
ATOM     42  C   UNL A   1      39.975  25.473  27.636  1.00  0.00     0.031 C 
ATOM     43  C   UNL A   1      43.309  27.949  28.581  1.00  0.00     0.029 A 
ATOM     44  N   UNL A   1      42.044  29.617  29.432  1.00  0.00    -0.354 N 
ATOM     45  C   UNL A   1      41.798  24.196  28.200  1.00  0.00     0.074 A 
ATOM     46  C   UNL A   1      40.556  24.283  27.461  1.00  0.00     0.031 C 
ATOM     47  C   UNL A   1      44.141  28.806  29.195  1.00  0.00     0.029 A 
ATOM     48  C   UNL A   1      43.330  29.693  30.013  1.00  0.00     0.049 A 
ATOM     49  H   UNL A   1      41.362  30.327  29.405  1.00  0.00     0.167 HD
ATOM     50  C   UNL A   1      42.879  23.368  28.145  1.00  0.00     0.037 A 
ATOM     51  C   UNL A   1      43.456  29.876  31.360  1.00  0.00     0.037 A 
ATOM     52  C   UNL A   1      44.001  23.922  28.900  1.00  0.00     0.049 A 
ATOM     53  C   UNL A   1      44.073  28.694  32.066  1.00  0.00     0.074 A 
ATOM     54  C   UNL A   1      45.095  24.675  28.500  1.00  0.00     0.029 A 
ATOM     55  N   UNL A   1      43.902  24.083  30.279  1.00  0.00    -0.354 N 
ATOM     56  N   UNL A   1      44.204  27.514  31.526  1.00  0.00    -0.248 NA
ATOM     57  C   UNL A   1      44.571  28.738  33.438  1.00  0.00     0.031 C 
ATOM     58  C   UNL A   1      45.614  25.342  29.635  1.00  0.00     0.029 A 
ATOM     59  C   UNL A   1      44.855  24.979  30.734  1.00  0.00     0.049 A 
ATOM     60  H   UNL A   1      43.246  23.624  30.852  1.00  0.00     0.167 HD
ATOM     61  C   UNL A   1      44.754  26.650  32.435  1.00  0.00     0.074 A 
ATOM     62  C   UNL A   1      44.994  27.473  33.607  1.00  0.00     0.031 C 
ATOM     63  C   UNL A   1      44.954  25.328  32.145  1.00  0.00     0.037 A 
BRANCH  50  64
ATOM     64  C   UNL A   1      42.985  22.269  27.119  1.00  0.00     0.064 A 
ATOM     65  C   UNL A   1      42.293  21.051  27.269  1.00  0.00     0.173 A 
ATOM     66  C   UNL A   1      43.810  22.353  25.982  1.00  0.00     0.173 A 
ATOM     67  F   UNL A   1      41.405  20.866  28.253  1.00  0.00    -0.203 F 
ATOM     68  C   UNL A   1      42.503  19.964  26.417  1.00  0.00     0.198 A 
ATOM     69  C   UNL A   1      44.060  21.250  25.159  1.00  0.00     0.198 A 
ATOM     70  F   UNL A   1      44.389  23.514  25.637  1.00  0.00    -0.203 F 
ATOM     71  F   UNL A   1      41.832  18.821  26.621  1.00  0.00    -0.200 F 
ATOM     72  C   UNL A   1      43.415  20.051  25.385  1.00  0.00     0.200 A 
ATOM     73  F   UNL A   1      44.942  21.354  24.154  1.00  0.00    -0.200 F 
ATOM     74  F   UNL A   1      43.658  18.990  24.604  1.00  0.00    -0.200 F 
ENDBRANCH  50  64
BRANCH  51  75
ATOM     75  C   UNL A   1      42.389  30.773  31.890  1.00  0.00     0.064 A 
ATOM     76  C   UNL A   1      42.442  32.122  31.481  1.00  0.00     0.173 A 
ATOM     77  C   UNL A   1      41.147  30.270  32.299  1.00  0.00     0.173 A 
ATOM     78  F   UNL A   1      43.615  32.660  31.108  1.00  0.00    -0.203 F 
ATOM     79  C   UNL A   1      41.279  32.861  31.283  1.00  0.00     0.198 A 
ATOM     80  C   UNL A   1      39.987  31.034  32.141  1.00  0.00     0.198 A 
ATOM     81  F   UNL A   1      41.034  29.002  32.721  1.00  0.00    -0.203 F 
ATOM     82  F   UNL A   1      41.348  34.074  30.716  1.00  0.00    -0.200 F 
ATOM     83  C   UNL A   1      40.048  32.299  31.571  1.00  0.00     0.200 A 
ATOM     84  F   UNL A   1      38.796  30.511  32.463  1.00  0.00    -0.200 F 
ATOM     85  F   UNL A   1      38.924  32.960  31.261  1.00  0.00    -0.200 F 
ENDBRANCH  51  75
BRANCH  63  86
ATOM     86  C   UNL A   1      45.364  24.255  33.125  1.00  0.00     0.064 A 
ATOM     87  C   UNL A   1      44.547  23.178  33.503  1.00  0.00     0.173 A 
ATOM     88  C   UNL A   1      46.690  24.216  33.624  1.00  0.00     0.173 A 
ATOM     89  F   UNL A   1      43.316  23.025  32.999  1.00  0.00    -0.203 F 
ATOM     90  C   UNL A   1      44.996  22.179  34.373  1.00  0.00     0.198 A 
ATOM     91  C   UNL A   1      47.155  23.182  34.435  1.00  0.00     0.198 A 
ATOM     92  F   UNL A   1      47.585  25.168  33.321  1.00  0.00    -0.203 F 
ATOM     93  F   UNL A   1      44.159  21.202  34.747  1.00  0.00    -0.200 F 
ATOM     94  C   UNL A   1      46.301  22.175  34.828  1.00  0.00     0.200 A 
ATOM     95  F   UNL A   1      48.440  23.163  34.816  1.00  0.00    -0.200 F 
ATOM     96  F   UNL A   1      46.740  21.190  35.623  1.00  0.00    -0.200 F 
ENDBRANCH  63  86
ENDBRANCH  37  38
ENDBRANCH  29  32
ENDBRANCH  27  28
ENDBRANCH  26  27
ENDBRANCH  25  26
ENDBRANCH   1  25
TORSDOF 15
ENDMDL
