MODEL 1
REMARK VINA RESULT:     -13.1      0.000      0.000
REMARK SMILES Cc1ccc(Nc2c(Cl)cc(Cl)cc2Cl)c(CC(=O)NCCCCCCNC(=O)c2ccc(-c3c4nc(c(-c5c(F)c(F)c(F)c(F)c5F)c5ccc([nH]5)c(-c5c(F)c(F)c(F)c(F)c5F)c5nc(c(-c6c(F)c(F)c(F)c(F)c6F)c6ccc3[nH]6)C=C5)C=C4)cc2)c1
REMARK SMILES IDX 23 1 22 2 21 3 20 4 18 5 19 6 17 8 16 9 1 10 2 11 3 12 93 13
REMARK SMILES IDX 4 14 5 15 6 16 7 18 8 19 14 20 9 21 10 22 13 23 15 24 11 25
REMARK SMILES IDX 12 26 24 27 25 28 26 29 27 30 28 31 29 33 30 34 31 35 92 36
REMARK SMILES IDX 32 37 91 38 33 39 34 40 35 41 85 42 36 43 90 44 84 45 86 46
REMARK SMILES IDX 37 47 89 48 83 49 82 50 38 52 70 53 50 54 69 55 51 56 54 57
REMARK SMILES IDX 68 58 87 59 52 60 53 61 67 63 88 64 55 65 39 66 40 67 48 68
REMARK SMILES IDX 41 69 42 70 46 71 49 72 43 73 44 74 47 75 45 76 71 77 72 78
REMARK SMILES IDX 80 79 73 80 74 81 78 82 81 83 75 84 76 85 79 86 77 87 56 88
REMARK SMILES IDX 57 89 65 90 58 91 59 92 63 93 66 94 60 95 61 96 64 97 62 98
REMARK H PARENT 20 7 6 17 27 32 86 51 54 62
REMARK Flexibility Score: inf
ROOT
ATOM      1  C   UNL A   1      32.433  28.802  25.532  1.00  0.00     0.002 C 
ENDROOT
BRANCH   1   2
ATOM      2  C   UNL A   1      32.919  29.169  24.122  1.00  0.00     0.021 C 
BRANCH   2   3
ATOM      3  C   UNL A   1      34.019  28.265  23.556  1.00  0.00     0.116 C 
BRANCH   3   4
ATOM      4  N   UNL A   1      33.618  27.645  22.311  1.00  0.00    -0.356 N 
ATOM      5  C   UNL A   1      33.476  26.320  22.025  1.00  0.00     0.224 C 
ATOM      6  O   UNL A   1      33.282  25.987  20.854  1.00  0.00    -0.275 OA
ATOM      7  H   UNL A   1      33.420  28.263  21.572  1.00  0.00     0.163 HD
BRANCH   5   8
ATOM      8  C   UNL A   1      33.584  25.272  23.117  1.00  0.00     0.137 C 
BRANCH   8   9
ATOM      9  C   UNL A   1      32.438  25.301  24.106  1.00  0.00    -0.015 A 
ATOM     10  C   UNL A   1      28.824  26.562  24.059  1.00  0.00     0.044 C 
ATOM     11  C   UNL A   1      30.116  25.962  24.528  1.00  0.00    -0.051 A 
ATOM     12  C   UNL A   1      30.253  25.531  25.844  1.00  0.00     0.005 A 
ATOM     13  C   UNL A   1      31.202  25.822  23.663  1.00  0.00     0.009 A 
ATOM     14  C   UNL A   1      31.456  24.971  26.283  1.00  0.00     0.026 A 
ATOM     15  C   UNL A   1      32.569  24.847  25.435  1.00  0.00     0.042 A 
BRANCH  15  16
ATOM     16  N   UNL A   1      33.760  24.230  25.882  1.00  0.00    -0.353 N 
ATOM     17  H   UNL A   1      34.289  24.751  26.528  1.00  0.00     0.167 HD
BRANCH  16  18
ATOM     18  C   UNL A   1      34.298  22.969  25.530  1.00  0.00     0.076 A 
ATOM     19  C   UNL A   1      33.494  21.844  25.253  1.00  0.00     0.067 A 
ATOM     20  C   UNL A   1      35.698  22.789  25.522  1.00  0.00     0.067 A 
ATOM     21  Cl  UNL A   1      31.770  21.956  25.127  1.00  0.00    -0.082 Cl
ATOM     22  C   UNL A   1      34.065  20.591  25.008  1.00  0.00     0.043 A 
ATOM     23  C   UNL A   1      36.271  21.540  25.274  1.00  0.00     0.043 A 
ATOM     24  Cl  UNL A   1      36.766  24.111  25.859  1.00  0.00    -0.082 Cl
ATOM     25  C   UNL A   1      35.448  20.447  25.028  1.00  0.00     0.044 A 
ATOM     26  Cl  UNL A   1      36.147  18.901  24.744  1.00  0.00    -0.084 Cl
ENDBRANCH  16  18
ENDBRANCH  15  16
ENDBRANCH   8   9
ENDBRANCH   5   8
ENDBRANCH   3   4
ENDBRANCH   2   3
ENDBRANCH   1   2
BRANCH   1  27
ATOM     27  C   UNL A   1      33.521  28.500  26.575  1.00  0.00     0.002 C 
BRANCH  27  28
ATOM     28  C   UNL A   1      33.651  29.509  27.718  1.00  0.00     0.021 C 
BRANCH  28  29
ATOM     29  C   UNL A   1      34.104  30.897  27.285  1.00  0.00     0.116 C 
BRANCH  29  30
ATOM     30  N   UNL A   1      34.706  31.677  28.356  1.00  0.00    -0.352 N 
ATOM     31  C   UNL A   1      35.735  31.362  29.229  1.00  0.00     0.251 C 
ATOM     32  H   UNL A   1      34.319  32.574  28.481  1.00  0.00     0.163 HD
ATOM     33  O   UNL A   1      36.034  32.136  30.117  1.00  0.00    -0.269 OA
BRANCH  31  34
ATOM     34  C   UNL A   1      36.574  30.158  28.981  1.00  0.00     0.039 A 
ATOM     35  C   UNL A   1      36.738  29.261  30.047  1.00  0.00     0.014 A 
ATOM     36  C   UNL A   1      37.343  30.017  27.833  1.00  0.00     0.014 A 
ATOM     37  C   UNL A   1      37.849  28.422  30.070  1.00  0.00     0.010 A 
ATOM     38  C   UNL A   1      38.496  29.262  27.893  1.00  0.00     0.010 A 
ATOM     39  C   UNL A   1      38.791  28.538  29.053  1.00  0.00    -0.014 A 
BRANCH  39  40
ATOM     40  C   UNL A   1      40.177  28.107  29.183  1.00  0.00     0.031 A 
ATOM     41  C   UNL A   1      40.596  26.753  28.773  1.00  0.00     0.074 A 
ATOM     42  C   UNL A   1      41.104  29.039  29.507  1.00  0.00     0.049 A 
ATOM     43  N   UNL A   1      41.777  26.278  28.975  1.00  0.00    -0.248 NA
ATOM     44  C   UNL A   1      39.690  25.786  28.155  1.00  0.00     0.031 C 
ATOM     45  C   UNL A   1      42.550  28.971  29.312  1.00  0.00     0.029 A 
ATOM     46  N   UNL A   1      40.918  30.186  30.301  1.00  0.00    -0.354 N 
ATOM     47  C   UNL A   1      41.882  25.103  28.275  1.00  0.00     0.074 A 
ATOM     48  C   UNL A   1      40.529  24.775  27.902  1.00  0.00     0.031 C 
ATOM     49  C   UNL A   1      43.143  29.802  30.183  1.00  0.00     0.029 A 
ATOM     50  C   UNL A   1      42.106  30.296  31.069  1.00  0.00     0.049 A 
ATOM     51  H   UNL A   1      40.135  30.782  30.319  1.00  0.00     0.167 HD
ATOM     52  C   UNL A   1      43.127  24.626  27.994  1.00  0.00     0.037 A 
ATOM     53  C   UNL A   1      42.077  30.104  32.421  1.00  0.00     0.037 A 
ATOM     54  C   UNL A   1      44.133  25.263  28.847  1.00  0.00     0.049 A 
ATOM     55  C   UNL A   1      42.908  28.936  32.919  1.00  0.00     0.074 A 
ATOM     56  C   UNL A   1      45.142  26.192  28.670  1.00  0.00     0.029 A 
ATOM     57  N   UNL A   1      44.003  25.100  30.217  1.00  0.00    -0.354 N 
ATOM     58  N   UNL A   1      43.549  28.103  32.148  1.00  0.00    -0.248 NA
ATOM     59  C   UNL A   1      42.992  28.561  34.332  1.00  0.00     0.031 C 
ATOM     60  C   UNL A   1      45.554  26.642  29.964  1.00  0.00     0.029 A 
ATOM     61  C   UNL A   1      44.819  25.960  30.918  1.00  0.00     0.049 A 
ATOM     62  H   UNL A   1      43.399  24.446  30.639  1.00  0.00     0.167 HD
ATOM     63  C   UNL A   1      44.055  27.083  32.905  1.00  0.00     0.074 A 
ATOM     64  C   UNL A   1      43.688  27.413  34.268  1.00  0.00     0.031 C 
ATOM     65  C   UNL A   1      44.698  26.008  32.366  1.00  0.00     0.037 A 
BRANCH  52  66
ATOM     66  C   UNL A   1      43.472  23.669  26.874  1.00  0.00     0.064 A 
ATOM     67  C   UNL A   1      43.094  22.310  26.965  1.00  0.00     0.173 A 
ATOM     68  C   UNL A   1      44.276  23.978  25.755  1.00  0.00     0.173 A 
ATOM     69  F   UNL A   1      42.342  21.863  27.981  1.00  0.00    -0.203 F 
ATOM     70  C   UNL A   1      43.500  21.351  26.028  1.00  0.00     0.198 A 
ATOM     71  C   UNL A   1      44.634  23.030  24.791  1.00  0.00     0.198 A 
ATOM     72  F   UNL A   1      44.810  25.188  25.570  1.00  0.00    -0.203 F 
ATOM     73  F   UNL A   1      43.163  20.065  26.204  1.00  0.00    -0.200 F 
ATOM     74  C   UNL A   1      44.260  21.713  24.936  1.00  0.00     0.200 A 
ATOM     75  F   UNL A   1      45.377  23.406  23.741  1.00  0.00    -0.200 F 
ATOM     76  F   UNL A   1      44.650  20.798  24.039  1.00  0.00    -0.200 F 
ENDBRANCH  52  66
BRANCH  53  77
ATOM     77  C   UNL A   1      40.803  30.561  33.037  1.00  0.00     0.064 A 
ATOM     78  C   UNL A   1      40.581  31.946  33.172  1.00  0.00     0.173 A 
ATOM     79  C   UNL A   1      39.693  29.714  33.138  1.00  0.00     0.173 A 
ATOM     80  F   UNL A   1      41.611  32.801  33.082  1.00  0.00    -0.203 F 
ATOM     81  C   UNL A   1      39.293  32.465  33.278  1.00  0.00     0.198 A 
ATOM     82  C   UNL A   1      38.406  30.239  33.264  1.00  0.00     0.198 A 
ATOM     83  F   UNL A   1      39.834  28.389  32.995  1.00  0.00    -0.203 F 
ATOM     84  F   UNL A   1      39.105  33.793  33.284  1.00  0.00    -0.200 F 
ATOM     85  C   UNL A   1      38.205  31.610  33.296  1.00  0.00     0.200 A 
ATOM     86  F   UNL A   1      37.351  29.412  33.253  1.00  0.00    -0.200 F 
ATOM     87  F   UNL A   1      36.960  32.106  33.303  1.00  0.00    -0.200 F 
ENDBRANCH  53  77
BRANCH  65  88
ATOM     88  C   UNL A   1      45.246  24.896  33.204  1.00  0.00     0.064 A 
ATOM     89  C   UNL A   1      44.409  23.962  33.832  1.00  0.00     0.173 A 
ATOM     90  C   UNL A   1      46.623  24.803  33.492  1.00  0.00     0.173 A 
ATOM     91  F   UNL A   1      43.082  23.994  33.635  1.00  0.00    -0.203 F 
ATOM     92  C   UNL A   1      44.921  22.982  34.684  1.00  0.00     0.198 A 
ATOM     93  C   UNL A   1      47.124  23.855  34.380  1.00  0.00     0.198 A 
ATOM     94  F   UNL A   1      47.512  25.614  32.898  1.00  0.00    -0.203 F 
ATOM     95  F   UNL A   1      44.096  22.080  35.231  1.00  0.00    -0.200 F 
ATOM     96  C   UNL A   1      46.275  22.939  34.970  1.00  0.00     0.200 A 
ATOM     97  F   UNL A   1      48.437  23.831  34.655  1.00  0.00    -0.200 F 
ATOM     98  F   UNL A   1      46.761  22.013  35.808  1.00  0.00    -0.200 F 
ENDBRANCH  65  88
ENDBRANCH  39  40
ENDBRANCH  31  34
ENDBRANCH  29  30
ENDBRANCH  28  29
ENDBRANCH  27  28
ENDBRANCH   1  27
TORSDOF 16
ENDMDL
MODEL 2
REMARK VINA RESULT:     -13.1      1.290      2.143
REMARK SMILES Cc1ccc(Nc2c(Cl)cc(Cl)cc2Cl)c(CC(=O)NCCCCCCNC(=O)c2ccc(-c3c4nc(c(-c5c(F)c(F)c(F)c(F)c5F)c5ccc([nH]5)c(-c5c(F)c(F)c(F)c(F)c5F)c5nc(c(-c6c(F)c(F)c(F)c(F)c6F)c6ccc3[nH]6)C=C5)C=C4)cc2)c1
REMARK SMILES IDX 23 1 22 2 21 3 20 4 18 5 19 6 17 8 16 9 1 10 2 11 3 12 93 13
REMARK SMILES IDX 4 14 5 15 6 16 7 18 8 19 14 20 9 21 10 22 13 23 15 24 11 25
REMARK SMILES IDX 12 26 24 27 25 28 26 29 27 30 28 31 29 33 30 34 31 35 92 36
REMARK SMILES IDX 32 37 91 38 33 39 34 40 35 41 85 42 36 43 90 44 84 45 86 46
REMARK SMILES IDX 37 47 89 48 83 49 82 50 38 52 70 53 50 54 69 55 51 56 54 57
REMARK SMILES IDX 68 58 87 59 52 60 53 61 67 63 88 64 55 65 39 66 40 67 48 68
REMARK SMILES IDX 41 69 42 70 46 71 49 72 43 73 44 74 47 75 45 76 71 77 72 78
REMARK SMILES IDX 80 79 73 80 74 81 78 82 81 83 75 84 76 85 79 86 77 87 56 88
REMARK SMILES IDX 57 89 65 90 58 91 59 92 63 93 66 94 60 95 61 96 64 97 62 98
REMARK H PARENT 20 7 6 17 27 32 86 51 54 62
REMARK Flexibility Score: inf
ROOT
ATOM      1  C   UNL A   1      31.941  29.689  25.559  1.00  0.00     0.002 C 
ENDROOT
BRANCH   1   2
ATOM      2  C   UNL A   1      31.915  28.189  25.888  1.00  0.00     0.021 C 
BRANCH   2   3
ATOM      3  C   UNL A   1      33.086  27.378  25.323  1.00  0.00     0.116 C 
BRANCH   3   4
ATOM      4  N   UNL A   1      33.638  27.987  24.132  1.00  0.00    -0.356 N 
ATOM      5  C   UNL A   1      33.433  27.649  22.828  1.00  0.00     0.224 C 
ATOM      6  O   UNL A   1      34.126  28.191  21.962  1.00  0.00    -0.275 OA
ATOM      7  H   UNL A   1      34.241  28.750  24.284  1.00  0.00     0.163 HD
BRANCH   5   8
ATOM      8  C   UNL A   1      32.398  26.607  22.446  1.00  0.00     0.137 C 
BRANCH   8   9
ATOM      9  C   UNL A   1      30.973  27.028  22.737  1.00  0.00    -0.015 A 
ATOM     10  C   UNL A   1      28.979  30.284  22.461  1.00  0.00     0.044 C 
ATOM     11  C   UNL A   1      29.341  28.857  22.743  1.00  0.00    -0.051 A 
ATOM     12  C   UNL A   1      28.411  27.997  23.321  1.00  0.00     0.005 A 
ATOM     13  C   UNL A   1      30.608  28.359  22.434  1.00  0.00     0.009 A 
ATOM     14  C   UNL A   1      28.745  26.667  23.583  1.00  0.00     0.026 A 
ATOM     15  C   UNL A   1      30.023  26.154  23.305  1.00  0.00     0.042 A 
BRANCH  15  16
ATOM     16  N   UNL A   1      30.326  24.791  23.529  1.00  0.00    -0.353 N 
ATOM     17  H   UNL A   1      29.912  24.158  22.899  1.00  0.00     0.167 HD
BRANCH  16  18
ATOM     18  C   UNL A   1      31.141  24.210  24.529  1.00  0.00     0.076 A 
ATOM     19  C   UNL A   1      30.930  24.424  25.907  1.00  0.00     0.067 A 
ATOM     20  C   UNL A   1      32.262  23.440  24.152  1.00  0.00     0.067 A 
ATOM     21  Cl  UNL A   1      29.535  25.260  26.503  1.00  0.00    -0.082 Cl
ATOM     22  C   UNL A   1      31.817  23.913  26.861  1.00  0.00     0.043 A 
ATOM     23  C   UNL A   1      33.147  22.926  25.102  1.00  0.00     0.043 A 
ATOM     24  Cl  UNL A   1      32.607  23.130  22.482  1.00  0.00    -0.082 Cl
ATOM     25  C   UNL A   1      32.922  23.175  26.451  1.00  0.00     0.044 A 
ATOM     26  Cl  UNL A   1      34.021  22.565  27.625  1.00  0.00    -0.084 Cl
ENDBRANCH  16  18
ENDBRANCH  15  16
ENDBRANCH   8   9
ENDBRANCH   5   8
ENDBRANCH   3   4
ENDBRANCH   2   3
ENDBRANCH   1   2
BRANCH   1  27
ATOM     27  C   UNL A   1      32.181  30.646  26.739  1.00  0.00     0.002 C 
BRANCH  27  28
ATOM     28  C   UNL A   1      33.389  30.328  27.623  1.00  0.00     0.021 C 
BRANCH  28  29
ATOM     29  C   UNL A   1      34.582  31.251  27.415  1.00  0.00     0.116 C 
BRANCH  29  30
ATOM     30  N   UNL A   1      35.085  31.844  28.646  1.00  0.00    -0.352 N 
ATOM     31  C   UNL A   1      35.994  31.357  29.572  1.00  0.00     0.251 C 
ATOM     32  H   UNL A   1      34.720  32.734  28.853  1.00  0.00     0.163 HD
ATOM     33  O   UNL A   1      36.217  31.985  30.588  1.00  0.00    -0.269 OA
BRANCH  31  34
ATOM     34  C   UNL A   1      36.809  30.154  29.249  1.00  0.00     0.039 A 
ATOM     35  C   UNL A   1      36.923  29.171  30.243  1.00  0.00     0.014 A 
ATOM     36  C   UNL A   1      37.605  30.086  28.113  1.00  0.00     0.014 A 
ATOM     37  C   UNL A   1      38.012  28.304  30.226  1.00  0.00     0.010 A 
ATOM     38  C   UNL A   1      38.737  29.297  28.140  1.00  0.00     0.010 A 
ATOM     39  C   UNL A   1      38.983  28.475  29.245  1.00  0.00    -0.014 A 
BRANCH  39  40
ATOM     40  C   UNL A   1      40.354  27.999  29.375  1.00  0.00     0.031 A 
ATOM     41  C   UNL A   1      40.738  26.649  28.917  1.00  0.00     0.074 A 
ATOM     42  C   UNL A   1      41.304  28.890  29.744  1.00  0.00     0.049 A 
ATOM     43  N   UNL A   1      41.902  26.132  29.115  1.00  0.00    -0.248 NA
ATOM     44  C   UNL A   1      39.812  25.735  28.253  1.00  0.00     0.031 C 
ATOM     45  C   UNL A   1      42.749  28.786  29.564  1.00  0.00     0.029 A 
ATOM     46  N   UNL A   1      41.142  30.011  30.580  1.00  0.00    -0.354 N 
ATOM     47  C   UNL A   1      41.981  24.982  28.372  1.00  0.00     0.074 A 
ATOM     48  C   UNL A   1      40.624  24.709  27.971  1.00  0.00     0.031 C 
ATOM     49  C   UNL A   1      43.356  29.565  30.473  1.00  0.00     0.029 A 
ATOM     50  C   UNL A   1      42.322  30.057  31.365  1.00  0.00     0.049 A 
ATOM     51  H   UNL A   1      40.376  30.629  30.612  1.00  0.00     0.167 HD
ATOM     52  C   UNL A   1      43.215  24.480  28.087  1.00  0.00     0.037 A 
ATOM     53  C   UNL A   1      42.271  29.814  32.708  1.00  0.00     0.037 A 
ATOM     54  C   UNL A   1      44.229  25.053  28.975  1.00  0.00     0.049 A 
ATOM     55  C   UNL A   1      43.061  28.604  33.170  1.00  0.00     0.074 A 
ATOM     56  C   UNL A   1      45.267  25.958  28.845  1.00  0.00     0.029 A 
ATOM     57  N   UNL A   1      44.077  24.842  30.336  1.00  0.00    -0.354 N 
ATOM     58  N   UNL A   1      43.687  27.781  32.375  1.00  0.00    -0.248 NA
ATOM     59  C   UNL A   1      43.116  28.172  34.569  1.00  0.00     0.031 C 
ATOM     60  C   UNL A   1      45.676  26.346  30.161  1.00  0.00     0.029 A 
ATOM     61  C   UNL A   1      44.909  25.650  31.079  1.00  0.00     0.049 A 
ATOM     62  H   UNL A   1      43.448  24.191  30.726  1.00  0.00     0.167 HD
ATOM     63  C   UNL A   1      44.153  26.719  33.098  1.00  0.00     0.074 A 
ATOM     64  C   UNL A   1      43.779  27.008  34.469  1.00  0.00     0.031 C 
ATOM     65  C   UNL A   1      44.771  25.647  32.526  1.00  0.00     0.037 A 
BRANCH  52  66
ATOM     66  C   UNL A   1      43.546  23.555  26.934  1.00  0.00     0.064 A 
ATOM     67  C   UNL A   1      43.080  22.221  26.943  1.00  0.00     0.173 A 
ATOM     68  C   UNL A   1      44.414  23.864  25.864  1.00  0.00     0.173 A 
ATOM     69  F   UNL A   1      42.260  21.777  27.907  1.00  0.00    -0.203 F 
ATOM     70  C   UNL A   1      43.464  21.284  25.977  1.00  0.00     0.198 A 
ATOM     71  C   UNL A   1      44.751  22.942  24.869  1.00  0.00     0.198 A 
ATOM     72  F   UNL A   1      45.030  25.045  25.760  1.00  0.00    -0.203 F 
ATOM     73  F   UNL A   1      43.041  20.015  26.075  1.00  0.00    -0.200 F 
ATOM     74  C   UNL A   1      44.290  21.646  24.934  1.00  0.00     0.200 A 
ATOM     75  F   UNL A   1      45.560  23.318  23.868  1.00  0.00    -0.200 F 
ATOM     76  F   UNL A   1      44.660  20.751  24.008  1.00  0.00    -0.200 F 
ENDBRANCH  52  66
BRANCH  53  77
ATOM     77  C   UNL A   1      41.003  30.284  33.327  1.00  0.00     0.064 A 
ATOM     78  C   UNL A   1      40.855  31.661  33.589  1.00  0.00     0.173 A 
ATOM     79  C   UNL A   1      39.845  29.500  33.311  1.00  0.00     0.173 A 
ATOM     80  F   UNL A   1      41.934  32.458  33.615  1.00  0.00    -0.203 F 
ATOM     81  C   UNL A   1      39.595  32.244  33.706  1.00  0.00     0.198 A 
ATOM     82  C   UNL A   1      38.585  30.085  33.448  1.00  0.00     0.198 A 
ATOM     83  F   UNL A   1      39.916  28.188  33.044  1.00  0.00    -0.203 F 
ATOM     84  F   UNL A   1      39.482  33.573  33.837  1.00  0.00    -0.200 F 
ATOM     85  C   UNL A   1      38.460  31.457  33.608  1.00  0.00     0.200 A 
ATOM     86  F   UNL A   1      37.486  29.328  33.324  1.00  0.00    -0.200 F 
ATOM     87  F   UNL A   1      37.246  32.023  33.625  1.00  0.00    -0.200 F 
ENDBRANCH  53  77
BRANCH  65  88
ATOM     88  C   UNL A   1      45.276  24.488  33.327  1.00  0.00     0.064 A 
ATOM     89  C   UNL A   1      46.613  24.403  33.742  1.00  0.00     0.173 A 
ATOM     90  C   UNL A   1      44.458  23.375  33.606  1.00  0.00     0.173 A 
ATOM     91  F   UNL A   1      47.469  25.407  33.495  1.00  0.00    -0.203 F 
ATOM     92  C   UNL A   1      47.099  23.279  34.412  1.00  0.00     0.198 A 
ATOM     93  C   UNL A   1      44.957  22.235  34.230  1.00  0.00     0.198 A 
ATOM     94  F   UNL A   1      43.151  23.380  33.300  1.00  0.00    -0.203 F 
ATOM     95  F   UNL A   1      48.371  23.253  34.831  1.00  0.00    -0.200 F 
ATOM     96  C   UNL A   1      46.276  22.190  34.641  1.00  0.00     0.200 A 
ATOM     97  F   UNL A   1      44.151  21.183  34.438  1.00  0.00    -0.200 F 
ATOM     98  F   UNL A   1      46.750  21.101  35.262  1.00  0.00    -0.200 F 
ENDBRANCH  65  88
ENDBRANCH  39  40
ENDBRANCH  31  34
ENDBRANCH  29  30
ENDBRANCH  28  29
ENDBRANCH  27  28
ENDBRANCH   1  27
TORSDOF 16
ENDMDL
MODEL 3
REMARK VINA RESULT:     -12.8      3.884      9.847
REMARK SMILES Cc1ccc(Nc2c(Cl)cc(Cl)cc2Cl)c(CC(=O)NCCCCCCNC(=O)c2ccc(-c3c4nc(c(-c5c(F)c(F)c(F)c(F)c5F)c5ccc([nH]5)c(-c5c(F)c(F)c(F)c(F)c5F)c5nc(c(-c6c(F)c(F)c(F)c(F)c6F)c6ccc3[nH]6)C=C5)C=C4)cc2)c1
REMARK SMILES IDX 23 1 22 2 21 3 20 4 18 5 19 6 17 8 16 9 1 10 2 11 3 12 93 13
REMARK SMILES IDX 4 14 5 15 6 16 7 18 8 19 14 20 9 21 10 22 13 23 15 24 11 25
REMARK SMILES IDX 12 26 24 27 25 28 26 29 27 30 28 31 29 33 30 34 31 35 92 36
REMARK SMILES IDX 32 37 91 38 33 39 34 40 35 41 85 42 36 43 90 44 84 45 86 46
REMARK SMILES IDX 37 47 89 48 83 49 82 50 38 52 70 53 50 54 69 55 51 56 54 57
REMARK SMILES IDX 68 58 87 59 52 60 53 61 67 63 88 64 55 65 39 66 40 67 48 68
REMARK SMILES IDX 41 69 42 70 46 71 49 72 43 73 44 74 47 75 45 76 71 77 72 78
REMARK SMILES IDX 80 79 73 80 74 81 78 82 81 83 75 84 76 85 79 86 77 87 56 88
REMARK SMILES IDX 57 89 65 90 58 91 59 92 63 93 66 94 60 95 61 96 64 97 62 98
REMARK H PARENT 20 7 6 17 27 32 86 51 54 62
REMARK Flexibility Score: inf
ROOT
ATOM      1  C   UNL A   1      36.017  23.945  25.547  1.00  0.00     0.002 C 
ENDROOT
BRANCH   1   2
ATOM      2  C   UNL A   1      34.743  24.405  24.822  1.00  0.00     0.021 C 
BRANCH   2   3
ATOM      3  C   UNL A   1      33.661  25.007  25.725  1.00  0.00     0.116 C 
BRANCH   3   4
ATOM      4  N   UNL A   1      33.293  24.108  26.798  1.00  0.00    -0.356 N 
ATOM      5  C   UNL A   1      32.162  23.361  26.936  1.00  0.00     0.224 C 
ATOM      6  O   UNL A   1      31.965  22.781  28.006  1.00  0.00    -0.275 OA
ATOM      7  H   UNL A   1      33.950  24.022  27.526  1.00  0.00     0.163 HD
BRANCH   5   8
ATOM      8  C   UNL A   1      31.148  23.268  25.810  1.00  0.00     0.137 C 
BRANCH   8   9
ATOM      9  C   UNL A   1      31.532  22.285  24.724  1.00  0.00    -0.015 A 
ATOM     10  C   UNL A   1      32.978  18.742  24.638  1.00  0.00     0.044 C 
ATOM     11  C   UNL A   1      32.444  20.072  24.198  1.00  0.00    -0.051 A 
ATOM     12  C   UNL A   1      32.388  20.393  22.845  1.00  0.00     0.005 A 
ATOM     13  C   UNL A   1      31.994  21.012  25.126  1.00  0.00     0.009 A 
ATOM     14  C   UNL A   1      31.890  21.632  22.432  1.00  0.00     0.026 A 
ATOM     15  C   UNL A   1      31.457  22.602  23.352  1.00  0.00     0.042 A 
BRANCH  15  16
ATOM     16  N   UNL A   1      30.907  23.828  22.914  1.00  0.00    -0.353 N 
ATOM     17  H   UNL A   1      29.957  23.797  22.658  1.00  0.00     0.167 HD
BRANCH  16  18
ATOM     18  C   UNL A   1      31.530  25.093  22.791  1.00  0.00     0.076 A 
ATOM     19  C   UNL A   1      32.689  25.303  22.017  1.00  0.00     0.067 A 
ATOM     20  C   UNL A   1      31.028  26.188  23.526  1.00  0.00     0.067 A 
ATOM     21  Cl  UNL A   1      33.342  24.071  20.988  1.00  0.00    -0.082 Cl
ATOM     22  C   UNL A   1      33.332  26.545  22.001  1.00  0.00     0.043 A 
ATOM     23  C   UNL A   1      31.665  27.430  23.510  1.00  0.00     0.043 A 
ATOM     24  Cl  UNL A   1      29.613  26.024  24.513  1.00  0.00    -0.082 Cl
ATOM     25  C   UNL A   1      32.820  27.597  22.753  1.00  0.00     0.044 A 
ATOM     26  Cl  UNL A   1      33.623  29.118  22.747  1.00  0.00    -0.084 Cl
ENDBRANCH  16  18
ENDBRANCH  15  16
ENDBRANCH   8   9
ENDBRANCH   5   8
ENDBRANCH   3   4
ENDBRANCH   2   3
ENDBRANCH   1   2
BRANCH   1  27
ATOM     27  C   UNL A   1      36.240  22.426  25.642  1.00  0.00     0.002 C 
BRANCH  27  28
ATOM     28  C   UNL A   1      37.696  21.971  25.766  1.00  0.00     0.021 C 
BRANCH  28  29
ATOM     29  C   UNL A   1      38.723  23.064  25.502  1.00  0.00     0.116 C 
BRANCH  29  30
ATOM     30  N   UNL A   1      39.937  22.929  26.292  1.00  0.00    -0.352 N 
ATOM     31  C   UNL A   1      40.657  23.877  27.003  1.00  0.00     0.251 C 
ATOM     32  H   UNL A   1      40.307  22.018  26.327  1.00  0.00     0.163 HD
ATOM     33  O   UNL A   1      41.705  23.566  27.535  1.00  0.00    -0.269 OA
BRANCH  31  34
ATOM     34  C   UNL A   1      40.071  25.223  27.248  1.00  0.00     0.039 A 
ATOM     35  C   UNL A   1      40.517  26.274  26.435  1.00  0.00     0.014 A 
ATOM     36  C   UNL A   1      39.285  25.493  28.361  1.00  0.00     0.014 A 
ATOM     37  C   UNL A   1      40.415  27.585  26.893  1.00  0.00     0.010 A 
ATOM     38  C   UNL A   1      39.268  26.777  28.866  1.00  0.00     0.010 A 
ATOM     39  C   UNL A   1      39.916  27.805  28.173  1.00  0.00    -0.014 A 
BRANCH  39  40
ATOM     40  C   UNL A   1      40.189  29.007  28.950  1.00  0.00     0.031 A 
ATOM     41  C   UNL A   1      39.202  30.101  29.032  1.00  0.00     0.074 A 
ATOM     42  C   UNL A   1      41.281  29.012  29.750  1.00  0.00     0.049 A 
ATOM     43  N   UNL A   1      39.436  31.233  29.603  1.00  0.00    -0.248 NA
ATOM     44  C   UNL A   1      37.880  30.036  28.412  1.00  0.00     0.031 C 
ATOM     45  C   UNL A   1      41.554  29.883  30.889  1.00  0.00     0.029 A 
ATOM     46  N   UNL A   1      42.497  28.336  29.536  1.00  0.00    -0.354 N 
ATOM     47  C   UNL A   1      38.247  31.910  29.692  1.00  0.00     0.074 A 
ATOM     48  C   UNL A   1      37.348  31.194  28.822  1.00  0.00     0.031 C 
ATOM     49  C   UNL A   1      42.881  29.937  31.085  1.00  0.00     0.029 A 
ATOM     50  C   UNL A   1      43.500  29.237  29.975  1.00  0.00     0.049 A 
ATOM     51  H   UNL A   1      42.623  27.433  29.163  1.00  0.00     0.167 HD
ATOM     52  C   UNL A   1      38.146  32.924  30.597  1.00  0.00     0.037 A 
ATOM     53  C   UNL A   1      44.364  29.803  29.080  1.00  0.00     0.037 A 
ATOM     54  C   UNL A   1      39.472  33.364  31.036  1.00  0.00     0.049 A 
ATOM     55  C   UNL A   1      44.284  31.314  28.982  1.00  0.00     0.074 A 
ATOM     56  C   UNL A   1      40.223  33.258  32.193  1.00  0.00     0.029 A 
ATOM     57  N   UNL A   1      40.334  33.852  30.067  1.00  0.00    -0.354 N 
ATOM     58  N   UNL A   1      43.419  32.052  29.620  1.00  0.00    -0.248 NA
ATOM     59  C   UNL A   1      45.117  32.100  28.069  1.00  0.00     0.031 C 
ATOM     60  C   UNL A   1      41.572  33.613  31.873  1.00  0.00     0.029 A 
ATOM     61  C   UNL A   1      41.625  33.966  30.536  1.00  0.00     0.049 A 
ATOM     62  H   UNL A   1      40.058  34.090  29.152  1.00  0.00     0.167 HD
ATOM     63  C   UNL A   1      43.515  33.344  29.182  1.00  0.00     0.074 A 
ATOM     64  C   UNL A   1      44.597  33.330  28.216  1.00  0.00     0.031 C 
ATOM     65  C   UNL A   1      42.675  34.333  29.599  1.00  0.00     0.037 A 
BRANCH  52  66
ATOM     66  C   UNL A   1      36.856  33.454  31.186  1.00  0.00     0.064 A 
ATOM     67  C   UNL A   1      36.537  33.192  32.538  1.00  0.00     0.173 A 
ATOM     68  C   UNL A   1      35.835  34.106  30.461  1.00  0.00     0.173 A 
ATOM     69  F   UNL A   1      37.403  32.566  33.348  1.00  0.00    -0.203 F 
ATOM     70  C   UNL A   1      35.303  33.539  33.101  1.00  0.00     0.198 A 
ATOM     71  C   UNL A   1      34.625  34.501  31.040  1.00  0.00     0.198 A 
ATOM     72  F   UNL A   1      35.924  34.335  29.148  1.00  0.00    -0.203 F 
ATOM     73  F   UNL A   1      35.034  33.206  34.372  1.00  0.00    -0.200 F 
ATOM     74  C   UNL A   1      34.352  34.203  32.355  1.00  0.00     0.200 A 
ATOM     75  F   UNL A   1      33.715  35.142  30.292  1.00  0.00    -0.200 F 
ATOM     76  F   UNL A   1      33.170  34.536  32.891  1.00  0.00    -0.200 F 
ENDBRANCH  52  66
BRANCH  53  77
ATOM     77  C   UNL A   1      44.688  28.896  27.947  1.00  0.00     0.064 A 
ATOM     78  C   UNL A   1      45.545  27.803  28.186  1.00  0.00     0.173 A 
ATOM     79  C   UNL A   1      43.907  28.865  26.787  1.00  0.00     0.173 A 
ATOM     80  F   UNL A   1      46.315  27.782  29.285  1.00  0.00    -0.203 F 
ATOM     81  C   UNL A   1      45.526  26.676  27.366  1.00  0.00     0.198 A 
ATOM     82  C   UNL A   1      43.907  27.743  25.957  1.00  0.00     0.198 A 
ATOM     83  F   UNL A   1      43.055  29.863  26.514  1.00  0.00    -0.203 F 
ATOM     84  F   UNL A   1      46.264  25.604  27.686  1.00  0.00    -0.200 F 
ATOM     85  C   UNL A   1      44.685  26.638  26.267  1.00  0.00     0.200 A 
ATOM     86  F   UNL A   1      43.071  27.694  24.910  1.00  0.00    -0.200 F 
ATOM     87  F   UNL A   1      44.593  25.523  25.530  1.00  0.00    -0.200 F 
ENDBRANCH  53  77
BRANCH  65  88
ATOM     88  C   UNL A   1      42.789  35.743  29.113  1.00  0.00     0.064 A 
ATOM     89  C   UNL A   1      43.440  36.733  29.863  1.00  0.00     0.173 A 
ATOM     90  C   UNL A   1      42.150  36.167  27.931  1.00  0.00     0.173 A 
ATOM     91  F   UNL A   1      44.053  36.423  31.016  1.00  0.00    -0.203 F 
ATOM     92  C   UNL A   1      43.467  38.065  29.446  1.00  0.00     0.198 A 
ATOM     93  C   UNL A   1      42.135  37.504  27.542  1.00  0.00     0.198 A 
ATOM     94  F   UNL A   1      41.547  35.289  27.114  1.00  0.00    -0.203 F 
ATOM     95  F   UNL A   1      44.136  38.975  30.166  1.00  0.00    -0.200 F 
ATOM     96  C   UNL A   1      42.801  38.453  28.295  1.00  0.00     0.200 A 
ATOM     97  F   UNL A   1      41.479  37.867  26.430  1.00  0.00    -0.200 F 
ATOM     98  F   UNL A   1      42.805  39.736  27.909  1.00  0.00    -0.200 F 
ENDBRANCH  65  88
ENDBRANCH  39  40
ENDBRANCH  31  34
ENDBRANCH  29  30
ENDBRANCH  28  29
ENDBRANCH  27  28
ENDBRANCH   1  27
TORSDOF 16
ENDMDL
