MODEL 1
REMARK VINA RESULT:     -12.8      0.000      0.000
REMARK SMILES Cc1cccc2c(C(=O)NCCCCCCNC(=O)c3ccc(-c4c5nc(c(-c6c(F)c(F)c(F)c(F)c6F)c6ccc([nH]6)c(-c6c(F)c(F)c(F)c(F)c6F)c6nc(c(-c7c(F)c(F)c(F)c(F)c7F)c7ccc4[nH]7)C=C6)C=C5)cc3)cc(=O)[nH]c12
REMARK SMILES IDX 14 1 13 2 12 3 11 4 10 5 8 6 9 7 7 9 1 10 2 11 3 12 87 13
REMARK SMILES IDX 4 14 6 15 86 16 5 17 84 18 83 20 85 21 15 22 16 23 17 24
REMARK SMILES IDX 18 25 19 27 20 28 21 29 82 30 22 31 81 32 23 33 24 34 25 35
REMARK SMILES IDX 75 36 26 37 80 38 74 39 76 40 27 41 79 42 73 43 72 44 28 46
REMARK SMILES IDX 60 47 40 48 59 49 41 50 44 51 58 52 77 53 42 54 43 55 57 57
REMARK SMILES IDX 78 58 45 59 29 60 30 61 38 62 31 63 32 64 36 65 39 66 33 67
REMARK SMILES IDX 34 68 37 69 35 70 61 71 62 72 70 73 63 74 64 75 68 76 71 77
REMARK SMILES IDX 65 78 66 79 69 80 67 81 46 82 47 83 55 84 48 85 49 86 53 87
REMARK SMILES IDX 56 88 50 89 51 90 54 91 52 92
REMARK H PARENT 10 8 86 19 17 26 76 45 44 56
REMARK Flexibility Score: inf
ROOT
ATOM      1  C   UNL A   1      31.771  30.680  26.181  1.00  0.00     0.002 C 
ENDROOT
BRANCH   1   2
ATOM      2  C   UNL A   1      32.358  29.803  27.294  1.00  0.00     0.002 C 
BRANCH   2   3
ATOM      3  C   UNL A   1      33.792  29.309  27.036  1.00  0.00     0.021 C 
BRANCH   3   4
ATOM      4  C   UNL A   1      33.836  27.927  26.376  1.00  0.00     0.116 C 
BRANCH   4   5
ATOM      5  N   UNL A   1      32.622  27.206  26.703  1.00  0.00    -0.352 N 
ATOM      6  C   UNL A   1      31.489  26.862  26.039  1.00  0.00     0.252 C 
ATOM      7  O   UNL A   1      30.594  26.441  26.774  1.00  0.00    -0.269 OA
ATOM      8  H   UNL A   1      32.620  26.888  27.635  1.00  0.00     0.163 HD
BRANCH   6   9
ATOM      9  C   UNL A   1      31.328  26.892  24.537  1.00  0.00     0.054 A 
ATOM     10  C   UNL A   1      32.576  25.413  19.852  1.00  0.00     0.046 C 
ATOM     11  C   UNL A   1      32.590  25.202  21.340  1.00  0.00    -0.027 A 
ATOM     12  C   UNL A   1      33.197  24.051  21.852  1.00  0.00     0.005 A 
ATOM     13  C   UNL A   1      31.971  26.099  22.237  1.00  0.00     0.052 A 
ATOM     14  C   UNL A   1      33.218  23.820  23.222  1.00  0.00     0.001 A 
ATOM     15  C   UNL A   1      32.010  25.904  23.636  1.00  0.00     0.011 A 
ATOM     16  N   UNL A   1      31.249  27.185  21.725  1.00  0.00    -0.322 N 
ATOM     17  C   UNL A   1      32.647  24.743  24.099  1.00  0.00     0.011 A 
ATOM     18  C   UNL A   1      30.488  28.008  22.489  1.00  0.00     0.249 A 
ATOM     19  H   UNL A   1      31.297  27.360  20.757  1.00  0.00     0.170 HD
ATOM     20  C   UNL A   1      30.509  27.778  23.945  1.00  0.00     0.086 A 
ATOM     21  O   UNL A   1      29.826  28.922  22.015  1.00  0.00    -0.270 OA
ENDBRANCH   6   9
ENDBRANCH   4   5
ENDBRANCH   3   4
ENDBRANCH   2   3
ENDBRANCH   1   2
BRANCH   1  22
ATOM     22  C   UNL A   1      31.465  32.116  26.604  1.00  0.00     0.021 C 
BRANCH  22  23
ATOM     23  C   UNL A   1      32.601  32.776  27.373  1.00  0.00     0.116 C 
BRANCH  23  24
ATOM     24  N   UNL A   1      32.340  34.189  27.616  1.00  0.00    -0.352 N 
ATOM     25  C   UNL A   1      32.908  35.019  28.551  1.00  0.00     0.251 C 
ATOM     26  H   UNL A   1      31.665  34.605  27.032  1.00  0.00     0.163 HD
ATOM     27  O   UNL A   1      32.431  36.126  28.784  1.00  0.00    -0.269 OA
BRANCH  25  28
ATOM     28  C   UNL A   1      34.091  34.547  29.295  1.00  0.00     0.039 A 
ATOM     29  C   UNL A   1      35.356  34.626  28.708  1.00  0.00     0.014 A 
ATOM     30  C   UNL A   1      33.931  33.968  30.557  1.00  0.00     0.014 A 
ATOM     31  C   UNL A   1      36.423  33.965  29.295  1.00  0.00     0.010 A 
ATOM     32  C   UNL A   1      35.035  33.399  31.197  1.00  0.00     0.010 A 
ATOM     33  C   UNL A   1      36.279  33.348  30.549  1.00  0.00    -0.014 A 
BRANCH  33  34
ATOM     34  C   UNL A   1      37.453  32.670  31.157  1.00  0.00     0.031 A 
ATOM     35  C   UNL A   1      37.926  33.029  32.538  1.00  0.00     0.074 A 
ATOM     36  C   UNL A   1      38.050  31.675  30.474  1.00  0.00     0.049 A 
ATOM     37  N   UNL A   1      38.913  32.515  33.230  1.00  0.00    -0.248 NA
ATOM     38  C   UNL A   1      37.205  34.104  33.238  1.00  0.00     0.031 C 
ATOM     39  C   UNL A   1      37.668  31.231  29.132  1.00  0.00     0.029 A 
ATOM     40  N   UNL A   1      39.078  30.835  30.819  1.00  0.00    -0.354 N 
ATOM     41  C   UNL A   1      38.939  33.209  34.432  1.00  0.00     0.074 A 
ATOM     42  C   UNL A   1      37.895  34.209  34.366  1.00  0.00     0.031 C 
ATOM     43  C   UNL A   1      38.402  30.163  28.794  1.00  0.00     0.029 A 
ATOM     44  C   UNL A   1      39.362  29.894  29.859  1.00  0.00     0.049 A 
ATOM     45  H   UNL A   1      39.565  30.900  31.672  1.00  0.00     0.167 HD
ATOM     46  C   UNL A   1      39.751  33.016  35.500  1.00  0.00     0.037 A 
ATOM     47  C   UNL A   1      40.301  28.931  29.828  1.00  0.00     0.037 A 
ATOM     48  C   UNL A   1      40.776  32.006  35.564  1.00  0.00     0.049 A 
ATOM     49  C   UNL A   1      41.226  28.780  31.001  1.00  0.00     0.074 A 
ATOM     50  C   UNL A   1      41.639  31.721  36.608  1.00  0.00     0.029 A 
ATOM     51  N   UNL A   1      41.076  31.114  34.545  1.00  0.00    -0.354 N 
ATOM     52  N   UNL A   1      41.233  29.436  32.137  1.00  0.00    -0.248 NA
ATOM     53  C   UNL A   1      42.280  27.764  30.887  1.00  0.00     0.031 C 
ATOM     54  C   UNL A   1      42.497  30.697  36.200  1.00  0.00     0.029 A 
ATOM     55  C   UNL A   1      42.130  30.297  34.925  1.00  0.00     0.049 A 
ATOM     56  H   UNL A   1      40.610  31.068  33.678  1.00  0.00     0.167 HD
ATOM     57  C   UNL A   1      42.275  28.901  32.880  1.00  0.00     0.074 A 
ATOM     58  C   UNL A   1      42.866  27.852  32.075  1.00  0.00     0.031 C 
ATOM     59  C   UNL A   1      42.704  29.252  34.117  1.00  0.00     0.037 A 
BRANCH  46  60
ATOM     60  C   UNL A   1      39.578  33.913  36.693  1.00  0.00     0.064 A 
ATOM     61  C   UNL A   1      38.804  33.527  37.797  1.00  0.00     0.173 A 
ATOM     62  C   UNL A   1      40.264  35.135  36.770  1.00  0.00     0.173 A 
ATOM     63  F   UNL A   1      38.119  32.374  37.772  1.00  0.00    -0.203 F 
ATOM     64  C   UNL A   1      38.712  34.336  38.927  1.00  0.00     0.198 A 
ATOM     65  C   UNL A   1      40.195  35.928  37.914  1.00  0.00     0.198 A 
ATOM     66  F   UNL A   1      41.025  35.549  35.745  1.00  0.00    -0.203 F 
ATOM     67  F   UNL A   1      37.941  33.962  39.956  1.00  0.00    -0.200 F 
ATOM     68  C   UNL A   1      39.417  35.529  38.989  1.00  0.00     0.200 A 
ATOM     69  F   UNL A   1      40.891  37.071  37.978  1.00  0.00    -0.200 F 
ATOM     70  F   UNL A   1      39.345  36.296  40.086  1.00  0.00    -0.200 F 
ENDBRANCH  46  60
BRANCH  47  71
ATOM     71  C   UNL A   1      40.399  28.040  28.644  1.00  0.00     0.064 A 
ATOM     72  C   UNL A   1      41.159  28.409  27.526  1.00  0.00     0.173 A 
ATOM     73  C   UNL A   1      39.767  26.786  28.619  1.00  0.00     0.173 A 
ATOM     74  F   UNL A   1      41.767  29.604  27.493  1.00  0.00    -0.203 F 
ATOM     75  C   UNL A   1      41.280  27.560  26.427  1.00  0.00     0.198 A 
ATOM     76  C   UNL A   1      39.917  25.926  27.535  1.00  0.00     0.198 A 
ATOM     77  F   UNL A   1      39.032  26.384  29.666  1.00  0.00    -0.203 F 
ATOM     78  F   UNL A   1      41.986  27.950  25.357  1.00  0.00    -0.200 F 
ATOM     79  C   UNL A   1      40.668  26.315  26.438  1.00  0.00     0.200 A 
ATOM     80  F   UNL A   1      39.342  24.714  27.560  1.00  0.00    -0.200 F 
ATOM     81  F   UNL A   1      40.801  25.492  25.389  1.00  0.00    -0.200 F 
ENDBRANCH  47  71
BRANCH  59  82
ATOM     82  C   UNL A   1      43.857  28.485  34.695  1.00  0.00     0.064 A 
ATOM     83  C   UNL A   1      45.178  28.941  34.570  1.00  0.00     0.173 A 
ATOM     84  C   UNL A   1      43.630  27.326  35.452  1.00  0.00     0.173 A 
ATOM     85  F   UNL A   1      45.449  30.036  33.845  1.00  0.00    -0.203 F 
ATOM     86  C   UNL A   1      46.229  28.255  35.173  1.00  0.00     0.198 A 
ATOM     87  C   UNL A   1      44.681  26.662  36.080  1.00  0.00     0.198 A 
ATOM     88  F   UNL A   1      42.384  26.853  35.609  1.00  0.00    -0.203 F 
ATOM     89  F   UNL A   1      47.488  28.689  35.011  1.00  0.00    -0.200 F 
ATOM     90  C   UNL A   1      45.979  27.126  35.936  1.00  0.00     0.200 A 
ATOM     91  F   UNL A   1      44.434  25.581  36.833  1.00  0.00    -0.200 F 
ATOM     92  F   UNL A   1      46.991  26.481  36.533  1.00  0.00    -0.200 F 
ENDBRANCH  59  82
ENDBRANCH  33  34
ENDBRANCH  25  28
ENDBRANCH  23  24
ENDBRANCH  22  23
ENDBRANCH   1  22
TORSDOF 13
ENDMDL
MODEL 2
REMARK VINA RESULT:     -12.8      1.973      3.153
REMARK SMILES Cc1cccc2c(C(=O)NCCCCCCNC(=O)c3ccc(-c4c5nc(c(-c6c(F)c(F)c(F)c(F)c6F)c6ccc([nH]6)c(-c6c(F)c(F)c(F)c(F)c6F)c6nc(c(-c7c(F)c(F)c(F)c(F)c7F)c7ccc4[nH]7)C=C6)C=C5)cc3)cc(=O)[nH]c12
REMARK SMILES IDX 14 1 13 2 12 3 11 4 10 5 8 6 9 7 7 9 1 10 2 11 3 12 87 13
REMARK SMILES IDX 4 14 6 15 86 16 5 17 84 18 83 20 85 21 15 22 16 23 17 24
REMARK SMILES IDX 18 25 19 27 20 28 21 29 82 30 22 31 81 32 23 33 24 34 25 35
REMARK SMILES IDX 75 36 26 37 80 38 74 39 76 40 27 41 79 42 73 43 72 44 28 46
REMARK SMILES IDX 60 47 40 48 59 49 41 50 44 51 58 52 77 53 42 54 43 55 57 57
REMARK SMILES IDX 78 58 45 59 29 60 30 61 38 62 31 63 32 64 36 65 39 66 33 67
REMARK SMILES IDX 34 68 37 69 35 70 61 71 62 72 70 73 63 74 64 75 68 76 71 77
REMARK SMILES IDX 65 78 66 79 69 80 67 81 46 82 47 83 55 84 48 85 49 86 53 87
REMARK SMILES IDX 56 88 50 89 51 90 54 91 52 92
REMARK H PARENT 10 8 86 19 17 26 76 45 44 56
REMARK Flexibility Score: inf
ROOT
ATOM      1  C   UNL A   1      32.048  27.186  26.803  1.00  0.00     0.002 C 
ENDROOT
BRANCH   1   2
ATOM      2  C   UNL A   1      33.370  26.719  26.178  1.00  0.00     0.002 C 
BRANCH   2   3
ATOM      3  C   UNL A   1      33.635  25.208  26.287  1.00  0.00     0.021 C 
BRANCH   3   4
ATOM      4  C   UNL A   1      32.394  24.363  25.985  1.00  0.00     0.116 C 
BRANCH   4   5
ATOM      5  N   UNL A   1      32.503  23.820  24.646  1.00  0.00    -0.352 N 
ATOM      6  C   UNL A   1      32.323  24.297  23.387  1.00  0.00     0.252 C 
ATOM      7  O   UNL A   1      32.298  23.418  22.524  1.00  0.00    -0.269 OA
ATOM      8  H   UNL A   1      32.774  22.873  24.650  1.00  0.00     0.163 HD
BRANCH   6   9
ATOM      9  C   UNL A   1      32.247  25.762  23.024  1.00  0.00     0.054 A 
ATOM     10  C   UNL A   1      29.680  30.019  22.030  1.00  0.00     0.046 C 
ATOM     11  C   UNL A   1      29.747  28.635  22.613  1.00  0.00    -0.027 A 
ATOM     12  C   UNL A   1      28.621  28.122  23.265  1.00  0.00     0.005 A 
ATOM     13  C   UNL A   1      30.920  27.851  22.568  1.00  0.00     0.052 A 
ATOM     14  C   UNL A   1      28.653  26.851  23.824  1.00  0.00     0.001 A 
ATOM     15  C   UNL A   1      30.966  26.542  23.098  1.00  0.00     0.011 A 
ATOM     16  N   UNL A   1      32.090  28.407  22.034  1.00  0.00    -0.322 N 
ATOM     17  C   UNL A   1      29.805  26.068  23.726  1.00  0.00     0.011 A 
ATOM     18  C   UNL A   1      33.302  27.800  22.090  1.00  0.00     0.249 A 
ATOM     19  H   UNL A   1      32.027  29.284  21.592  1.00  0.00     0.170 HD
ATOM     20  C   UNL A   1      33.347  26.447  22.673  1.00  0.00     0.086 A 
ATOM     21  O   UNL A   1      34.322  28.325  21.659  1.00  0.00    -0.270 OA
ENDBRANCH   6   9
ENDBRANCH   4   5
ENDBRANCH   3   4
ENDBRANCH   2   3
ENDBRANCH   1   2
BRANCH   1  22
ATOM     22  C   UNL A   1      31.658  28.621  26.454  1.00  0.00     0.021 C 
BRANCH  22  23
ATOM     23  C   UNL A   1      32.848  29.510  26.121  1.00  0.00     0.116 C 
BRANCH  23  24
ATOM     24  N   UNL A   1      32.571  30.912  26.402  1.00  0.00    -0.352 N 
ATOM     25  C   UNL A   1      33.254  31.774  27.224  1.00  0.00     0.251 C 
ATOM     26  H   UNL A   1      31.789  31.293  25.941  1.00  0.00     0.163 HD
ATOM     27  O   UNL A   1      32.776  32.862  27.532  1.00  0.00    -0.269 OA
BRANCH  25  28
ATOM     28  C   UNL A   1      34.567  31.360  27.754  1.00  0.00     0.039 A 
ATOM     29  C   UNL A   1      34.763  30.040  28.164  1.00  0.00     0.014 A 
ATOM     30  C   UNL A   1      35.585  32.306  27.899  1.00  0.00     0.014 A 
ATOM     31  C   UNL A   1      35.901  29.712  28.885  1.00  0.00     0.010 A 
ATOM     32  C   UNL A   1      36.777  31.941  28.529  1.00  0.00     0.010 A 
ATOM     33  C   UNL A   1      36.925  30.655  29.071  1.00  0.00    -0.014 A 
BRANCH  33  34
ATOM     34  C   UNL A   1      38.141  30.258  29.828  1.00  0.00     0.031 A 
ATOM     35  C   UNL A   1      38.366  30.732  31.237  1.00  0.00     0.074 A 
ATOM     36  C   UNL A   1      39.010  29.406  29.253  1.00  0.00     0.049 A 
ATOM     37  N   UNL A   1      39.356  30.456  32.050  1.00  0.00    -0.248 NA
ATOM     38  C   UNL A   1      37.357  31.636  31.812  1.00  0.00     0.031 C 
ATOM     39  C   UNL A   1      38.887  28.869  27.896  1.00  0.00     0.029 A 
ATOM     40  N   UNL A   1      40.149  28.816  29.739  1.00  0.00    -0.354 N 
ATOM     41  C   UNL A   1      39.096  31.158  33.220  1.00  0.00     0.074 A 
ATOM     42  C   UNL A   1      37.876  31.905  33.003  1.00  0.00     0.031 C 
ATOM     43  C   UNL A   1      39.867  27.981  27.681  1.00  0.00     0.029 A 
ATOM     44  C   UNL A   1      40.735  27.944  28.854  1.00  0.00     0.049 A 
ATOM     45  H   UNL A   1      40.511  28.997  30.636  1.00  0.00     0.167 HD
ATOM     46  C   UNL A   1      39.804  31.162  34.375  1.00  0.00     0.037 A 
ATOM     47  C   UNL A   1      41.856  27.208  28.962  1.00  0.00     0.037 A 
ATOM     48  C   UNL A   1      41.008  30.400  34.589  1.00  0.00     0.049 A 
ATOM     49  C   UNL A   1      42.653  27.280  30.232  1.00  0.00     0.074 A 
ATOM     50  C   UNL A   1      41.788  30.326  35.730  1.00  0.00     0.029 A 
ATOM     51  N   UNL A   1      41.606  29.579  33.644  1.00  0.00    -0.354 N 
ATOM     52  N   UNL A   1      42.390  27.939  31.335  1.00  0.00    -0.248 NA
ATOM     53  C   UNL A   1      43.906  26.515  30.272  1.00  0.00     0.031 C 
ATOM     54  C   UNL A   1      42.886  29.507  35.457  1.00  0.00     0.029 A 
ATOM     55  C   UNL A   1      42.759  29.017  34.167  1.00  0.00     0.049 A 
ATOM     56  H   UNL A   1      41.261  29.420  32.735  1.00  0.00     0.167 HD
ATOM     57  C   UNL A   1      43.431  27.654  32.206  1.00  0.00     0.074 A 
ATOM     58  C   UNL A   1      44.321  26.747  31.511  1.00  0.00     0.031 C 
ATOM     59  C   UNL A   1      43.632  28.109  33.467  1.00  0.00     0.037 A 
BRANCH  46  60
ATOM     60  C   UNL A   1      39.309  32.019  35.506  1.00  0.00     0.064 A 
ATOM     61  C   UNL A   1      38.461  31.506  36.500  1.00  0.00     0.173 A 
ATOM     62  C   UNL A   1      39.756  33.342  35.647  1.00  0.00     0.173 A 
ATOM     63  F   UNL A   1      37.996  30.252  36.409  1.00  0.00    -0.203 F 
ATOM     64  C   UNL A   1      38.069  32.290  37.582  1.00  0.00     0.198 A 
ATOM     65  C   UNL A   1      39.388  34.113  36.746  1.00  0.00     0.198 A 
ATOM     66  F   UNL A   1      40.575  33.879  34.729  1.00  0.00    -0.203 F 
ATOM     67  F   UNL A   1      37.233  31.790  38.502  1.00  0.00    -0.200 F 
ATOM     68  C   UNL A   1      38.543  33.588  37.711  1.00  0.00     0.200 A 
ATOM     69  F   UNL A   1      39.860  35.360  36.878  1.00  0.00    -0.200 F 
ATOM     70  F   UNL A   1      38.182  34.333  38.765  1.00  0.00    -0.200 F 
ENDBRANCH  46  60
BRANCH  47  71
ATOM     71  C   UNL A   1      42.275  26.341  27.831  1.00  0.00     0.064 A 
ATOM     72  C   UNL A   1      41.731  25.061  27.664  1.00  0.00     0.173 A 
ATOM     73  C   UNL A   1      43.199  26.788  26.872  1.00  0.00     0.173 A 
ATOM     74  F   UNL A   1      40.859  24.581  28.562  1.00  0.00    -0.203 F 
ATOM     75  C   UNL A   1      42.098  24.259  26.585  1.00  0.00     0.198 A 
ATOM     76  C   UNL A   1      43.539  25.999  25.777  1.00  0.00     0.198 A 
ATOM     77  F   UNL A   1      43.746  28.007  26.983  1.00  0.00    -0.203 F 
ATOM     78  F   UNL A   1      41.588  23.026  26.466  1.00  0.00    -0.200 F 
ATOM     79  C   UNL A   1      42.993  24.733  25.637  1.00  0.00     0.200 A 
ATOM     80  F   UNL A   1      44.387  26.470  24.852  1.00  0.00    -0.200 F 
ATOM     81  F   UNL A   1      43.330  23.968  24.589  1.00  0.00    -0.200 F 
ENDBRANCH  47  71
BRANCH  59  82
ATOM     82  C   UNL A   1      44.849  27.621  34.196  1.00  0.00     0.064 A 
ATOM     83  C   UNL A   1      46.047  28.351  34.196  1.00  0.00     0.173 A 
ATOM     84  C   UNL A   1      44.792  26.451  34.969  1.00  0.00     0.173 A 
ATOM     85  F   UNL A   1      46.158  29.468  33.461  1.00  0.00    -0.203 F 
ATOM     86  C   UNL A   1      47.146  27.920  34.934  1.00  0.00     0.198 A 
ATOM     87  C   UNL A   1      45.883  26.041  35.732  1.00  0.00     0.198 A 
ATOM     88  F   UNL A   1      43.667  25.721  35.009  1.00  0.00    -0.203 F 
ATOM     89  F   UNL A   1      48.293  28.614  34.892  1.00  0.00    -0.200 F 
ATOM     90  C   UNL A   1      47.059  26.774  35.710  1.00  0.00     0.200 A 
ATOM     91  F   UNL A   1      45.790  24.944  36.495  1.00  0.00    -0.200 F 
ATOM     92  F   UNL A   1      48.112  26.374  36.437  1.00  0.00    -0.200 F 
ENDBRANCH  59  82
ENDBRANCH  33  34
ENDBRANCH  25  28
ENDBRANCH  23  24
ENDBRANCH  22  23
ENDBRANCH   1  22
TORSDOF 13
ENDMDL
MODEL 3
REMARK VINA RESULT:     -12.6      5.786     11.132
REMARK SMILES Cc1cccc2c(C(=O)NCCCCCCNC(=O)c3ccc(-c4c5nc(c(-c6c(F)c(F)c(F)c(F)c6F)c6ccc([nH]6)c(-c6c(F)c(F)c(F)c(F)c6F)c6nc(c(-c7c(F)c(F)c(F)c(F)c7F)c7ccc4[nH]7)C=C6)C=C5)cc3)cc(=O)[nH]c12
REMARK SMILES IDX 14 1 13 2 12 3 11 4 10 5 8 6 9 7 7 9 1 10 2 11 3 12 87 13
REMARK SMILES IDX 4 14 6 15 86 16 5 17 84 18 83 20 85 21 15 22 16 23 17 24
REMARK SMILES IDX 18 25 19 27 20 28 21 29 82 30 22 31 81 32 23 33 24 34 25 35
REMARK SMILES IDX 75 36 26 37 80 38 74 39 76 40 27 41 79 42 73 43 72 44 28 46
REMARK SMILES IDX 60 47 40 48 59 49 41 50 44 51 58 52 77 53 42 54 43 55 57 57
REMARK SMILES IDX 78 58 45 59 29 60 30 61 38 62 31 63 32 64 36 65 39 66 33 67
REMARK SMILES IDX 34 68 37 69 35 70 61 71 62 72 70 73 63 74 64 75 68 76 71 77
REMARK SMILES IDX 65 78 66 79 69 80 67 81 46 82 47 83 55 84 48 85 49 86 53 87
REMARK SMILES IDX 56 88 50 89 51 90 54 91 52 92
REMARK H PARENT 10 8 86 19 17 26 76 45 44 56
REMARK Flexibility Score: inf
ROOT
ATOM      1  C   UNL A   1      37.399  21.066  24.448  1.00  0.00     0.002 C 
ENDROOT
BRANCH   1   2
ATOM      2  C   UNL A   1      37.147  22.188  25.465  1.00  0.00     0.002 C 
BRANCH   2   3
ATOM      3  C   UNL A   1      35.664  22.454  25.775  1.00  0.00     0.021 C 
BRANCH   3   4
ATOM      4  C   UNL A   1      34.795  21.197  25.652  1.00  0.00     0.116 C 
BRANCH   4   5
ATOM      5  N   UNL A   1      33.956  21.313  24.476  1.00  0.00    -0.352 N 
ATOM      6  C   UNL A   1      32.766  21.900  24.188  1.00  0.00     0.252 C 
ATOM      7  O   UNL A   1      32.294  21.553  23.104  1.00  0.00    -0.269 OA
ATOM      8  H   UNL A   1      34.345  20.855  23.696  1.00  0.00     0.163 HD
BRANCH   6   9
ATOM      9  C   UNL A   1      32.093  22.948  25.042  1.00  0.00     0.054 A 
ATOM     10  C   UNL A   1      31.853  27.550  27.155  1.00  0.00     0.046 C 
ATOM     11  C   UNL A   1      32.413  26.608  26.126  1.00  0.00    -0.027 A 
ATOM     12  C   UNL A   1      33.327  27.099  25.189  1.00  0.00     0.005 A 
ATOM     13  C   UNL A   1      32.014  25.257  26.041  1.00  0.00     0.052 A 
ATOM     14  C   UNL A   1      33.856  26.258  24.219  1.00  0.00     0.001 A 
ATOM     15  C   UNL A   1      32.563  24.373  25.085  1.00  0.00     0.011 A 
ATOM     16  N   UNL A   1      31.003  24.791  26.891  1.00  0.00    -0.322 N 
ATOM     17  C   UNL A   1      33.489  24.911  24.179  1.00  0.00     0.011 A 
ATOM     18  C   UNL A   1      30.437  23.562  26.782  1.00  0.00     0.249 A 
ATOM     19  H   UNL A   1      30.686  25.387  27.608  1.00  0.00     0.170 HD
ATOM     20  C   UNL A   1      30.996  22.657  25.761  1.00  0.00     0.086 A 
ATOM     21  O   UNL A   1      29.521  23.192  27.505  1.00  0.00    -0.270 OA
ENDBRANCH   6   9
ENDBRANCH   4   5
ENDBRANCH   3   4
ENDBRANCH   2   3
ENDBRANCH   1   2
BRANCH   1  22
ATOM     22  C   UNL A   1      38.149  19.861  25.011  1.00  0.00     0.021 C 
BRANCH  22  23
ATOM     23  C   UNL A   1      39.369  20.238  25.839  1.00  0.00     0.116 C 
BRANCH  23  24
ATOM     24  N   UNL A   1      40.317  19.136  25.939  1.00  0.00    -0.352 N 
ATOM     25  C   UNL A   1      41.681  19.187  26.088  1.00  0.00     0.251 C 
ATOM     26  H   UNL A   1      39.928  18.233  25.892  1.00  0.00     0.163 HD
ATOM     27  O   UNL A   1      42.370  18.183  25.936  1.00  0.00    -0.269 OA
BRANCH  25  28
ATOM     28  C   UNL A   1      42.313  20.481  26.412  1.00  0.00     0.039 A 
ATOM     29  C   UNL A   1      42.331  20.932  27.733  1.00  0.00     0.014 A 
ATOM     30  C   UNL A   1      42.834  21.273  25.386  1.00  0.00     0.014 A 
ATOM     31  C   UNL A   1      42.696  22.242  28.001  1.00  0.00     0.010 A 
ATOM     32  C   UNL A   1      43.306  22.555  25.679  1.00  0.00     0.010 A 
ATOM     33  C   UNL A   1      43.194  23.068  26.980  1.00  0.00    -0.014 A 
BRANCH  33  34
ATOM     34  C   UNL A   1      43.599  24.459  27.313  1.00  0.00     0.031 A 
ATOM     35  C   UNL A   1      44.996  24.944  27.047  1.00  0.00     0.074 A 
ATOM     36  C   UNL A   1      42.668  25.304  27.796  1.00  0.00     0.049 A 
ATOM     37  N   UNL A   1      45.507  26.134  27.247  1.00  0.00    -0.248 NA
ATOM     38  C   UNL A   1      45.950  23.973  26.488  1.00  0.00     0.031 C 
ATOM     39  C   UNL A   1      41.277  24.948  28.081  1.00  0.00     0.029 A 
ATOM     40  N   UNL A   1      42.738  26.639  28.104  1.00  0.00    -0.354 N 
ATOM     41  C   UNL A   1      46.836  26.051  26.854  1.00  0.00     0.074 A 
ATOM     42  C   UNL A   1      47.069  24.685  26.437  1.00  0.00     0.031 C 
ATOM     43  C   UNL A   1      40.608  26.046  28.457  1.00  0.00     0.029 A 
ATOM     44  C   UNL A   1      41.539  27.168  28.518  1.00  0.00     0.049 A 
ATOM     45  H   UNL A   1      43.565  27.168  28.035  1.00  0.00     0.167 HD
ATOM     46  C   UNL A   1      47.770  27.032  26.827  1.00  0.00     0.037 A 
ATOM     47  C   UNL A   1      41.223  28.413  28.919  1.00  0.00     0.037 A 
ATOM     48  C   UNL A   1      47.525  28.393  27.226  1.00  0.00     0.049 A 
ATOM     49  C   UNL A   1      42.295  29.464  28.937  1.00  0.00     0.074 A 
ATOM     50  C   UNL A   1      48.403  29.464  27.219  1.00  0.00     0.029 A 
ATOM     51  N   UNL A   1      46.313  28.875  27.702  1.00  0.00    -0.354 N 
ATOM     52  N   UNL A   1      43.545  29.375  28.551  1.00  0.00    -0.248 NA
ATOM     53  C   UNL A   1      41.917  30.787  29.453  1.00  0.00     0.031 C 
ATOM     54  C   UNL A   1      47.740  30.577  27.743  1.00  0.00     0.029 A 
ATOM     55  C   UNL A   1      46.430  30.220  28.017  1.00  0.00     0.049 A 
ATOM     56  H   UNL A   1      45.492  28.340  27.800  1.00  0.00     0.167 HD
ATOM     57  C   UNL A   1      44.098  30.631  28.758  1.00  0.00     0.074 A 
ATOM     58  C   UNL A   1      43.042  31.470  29.285  1.00  0.00     0.031 C 
ATOM     59  C   UNL A   1      45.368  31.046  28.534  1.00  0.00     0.037 A 
BRANCH  46  60
ATOM     60  C   UNL A   1      49.153  26.680  26.355  1.00  0.00     0.064 A 
ATOM     61  C   UNL A   1      49.549  26.877  25.024  1.00  0.00     0.173 A 
ATOM     62  C   UNL A   1      50.121  26.223  27.264  1.00  0.00     0.173 A 
ATOM     63  F   UNL A   1      48.662  27.302  24.112  1.00  0.00    -0.203 F 
ATOM     64  C   UNL A   1      50.855  26.616  24.618  1.00  0.00     0.198 A 
ATOM     65  C   UNL A   1      51.434  25.993  26.862  1.00  0.00     0.198 A 
ATOM     66  F   UNL A   1      49.798  26.025  28.552  1.00  0.00    -0.203 F 
ATOM     67  F   UNL A   1      51.202  26.780  23.334  1.00  0.00    -0.200 F 
ATOM     68  C   UNL A   1      51.800  26.186  25.539  1.00  0.00     0.200 A 
ATOM     69  F   UNL A   1      52.348  25.594  27.758  1.00  0.00    -0.200 F 
ATOM     70  F   UNL A   1      53.061  25.957  25.151  1.00  0.00    -0.200 F 
ENDBRANCH  46  60
BRANCH  47  71
ATOM     71  C   UNL A   1      39.829  28.719  29.330  1.00  0.00     0.064 A 
ATOM     72  C   UNL A   1      38.899  29.216  28.408  1.00  0.00     0.173 A 
ATOM     73  C   UNL A   1      39.387  28.486  30.642  1.00  0.00     0.173 A 
ATOM     74  F   UNL A   1      39.277  29.472  27.147  1.00  0.00    -0.203 F 
ATOM     75  C   UNL A   1      37.581  29.472  28.782  1.00  0.00     0.198 A 
ATOM     76  C   UNL A   1      38.062  28.711  31.006  1.00  0.00     0.198 A 
ATOM     77  F   UNL A   1      40.236  28.007  31.563  1.00  0.00    -0.203 F 
ATOM     78  F   UNL A   1      36.720  29.977  27.889  1.00  0.00    -0.200 F 
ATOM     79  C   UNL A   1      37.161  29.209  30.078  1.00  0.00     0.200 A 
ATOM     80  F   UNL A   1      37.656  28.434  32.254  1.00  0.00    -0.200 F 
ATOM     81  F   UNL A   1      35.889  29.438  30.432  1.00  0.00    -0.200 F 
ENDBRANCH  47  71
BRANCH  59  82
ATOM     82  C   UNL A   1      45.693  32.479  28.836  1.00  0.00     0.064 A 
ATOM     83  C   UNL A   1      46.222  32.867  30.076  1.00  0.00     0.173 A 
ATOM     84  C   UNL A   1      45.551  33.463  27.845  1.00  0.00     0.173 A 
ATOM     85  F   UNL A   1      46.365  31.967  31.061  1.00  0.00    -0.203 F 
ATOM     86  C   UNL A   1      46.583  34.190  30.316  1.00  0.00     0.198 A 
ATOM     87  C   UNL A   1      45.944  34.778  28.078  1.00  0.00     0.198 A 
ATOM     88  F   UNL A   1      45.057  33.143  26.639  1.00  0.00    -0.203 F 
ATOM     89  F   UNL A   1      47.054  34.546  31.520  1.00  0.00    -0.200 F 
ATOM     90  C   UNL A   1      46.457  35.140  29.314  1.00  0.00     0.200 A 
ATOM     91  F   UNL A   1      45.838  35.690  27.103  1.00  0.00    -0.200 F 
ATOM     92  F   UNL A   1      46.826  36.409  29.542  1.00  0.00    -0.200 F 
ENDBRANCH  59  82
ENDBRANCH  33  34
ENDBRANCH  25  28
ENDBRANCH  23  24
ENDBRANCH  22  23
ENDBRANCH   1  22
TORSDOF 13
ENDMDL
