MODEL 1
REMARK VINA RESULT:     -12.9      0.000      0.000
REMARK SMILES COc1ccc2c(c1)C(=O)N(c1ccccc1C(=O)NCCCCCCNC(=O)c1ccc(-c3c4nc(c(-c5c(F)c(F)c(F)c(F)c5F)c5ccc([nH]5)c(-c5c(F)c(F)c(F)c(F)c5F)c5nc(c(-c6c(F)c(F)c(F)c(F)c6F)c6ccc3[nH]6)C=C5)C=C4)cc1)C2=O
REMARK SMILES IDX 23 1 22 2 21 3 20 4 18 5 19 6 17 8 12 9 13 10 14 11 16 12
REMARK SMILES IDX 15 13 11 14 3 15 4 16 8 17 5 18 7 19 6 20 9 21 93 22 10 23
REMARK SMILES IDX 94 24 2 25 1 26 24 27 25 28 26 29 27 30 28 31 29 33 30 34
REMARK SMILES IDX 31 35 92 36 32 37 91 38 33 39 34 40 35 41 85 42 36 43 90 44
REMARK SMILES IDX 84 45 86 46 37 47 89 48 83 49 82 50 38 52 70 53 50 54 69 55
REMARK SMILES IDX 51 56 54 57 68 58 87 59 52 60 53 61 67 63 88 64 55 65 39 66
REMARK SMILES IDX 40 67 48 68 41 69 42 70 46 71 49 72 43 73 44 74 47 75 45 76
REMARK SMILES IDX 71 77 72 78 80 79 73 80 74 81 78 82 81 83 75 84 76 85 79 86
REMARK SMILES IDX 77 87 56 88 57 89 65 90 58 91 59 92 63 93 66 94 60 95 61 96
REMARK SMILES IDX 64 97 62 98
REMARK H PARENT 20 7 27 32 86 51 54 62
REMARK Flexibility Score: inf
ROOT
ATOM      1  C   UNL A   1      29.964  27.726  23.048  1.00  0.00     0.002 C 
ENDROOT
BRANCH   1   2
ATOM      2  C   UNL A   1      29.259  26.656  23.888  1.00  0.00     0.021 C 
BRANCH   2   3
ATOM      3  C   UNL A   1      29.855  25.254  23.955  1.00  0.00     0.116 C 
BRANCH   3   4
ATOM      4  N   UNL A   1      29.904  24.603  25.234  1.00  0.00    -0.352 N 
ATOM      5  C   UNL A   1      30.955  24.385  26.099  1.00  0.00     0.253 C 
ATOM      6  O   UNL A   1      30.648  23.948  27.213  1.00  0.00    -0.269 OA
ATOM      7  H   UNL A   1      29.039  24.251  25.546  1.00  0.00     0.163 HD
BRANCH   5   8
ATOM      8  C   UNL A   1      32.421  24.491  25.768  1.00  0.00     0.064 A 
ATOM      9  C   UNL A   1      33.351  23.510  25.366  1.00  0.00     0.065 A 
ATOM     10  C   UNL A   1      34.711  23.873  25.199  1.00  0.00     0.028 A 
ATOM     11  C   UNL A   1      35.159  25.178  25.377  1.00  0.00     0.002 A 
ATOM     12  C   UNL A   1      32.912  25.813  25.946  1.00  0.00     0.016 A 
ATOM     13  C   UNL A   1      34.254  26.155  25.750  1.00  0.00     0.001 A 
BRANCH   9  14
ATOM     14  N   UNL A   1      33.067  22.154  25.103  1.00  0.00    -0.241 N 
ATOM     15  C   UNL A   1      32.800  17.613  24.546  1.00  0.00     0.119 A 
ATOM     16  C   UNL A   1      32.448  18.029  23.241  1.00  0.00     0.047 A 
ATOM     17  C   UNL A   1      32.984  18.555  25.566  1.00  0.00     0.061 A 
ATOM     18  C   UNL A   1      32.311  19.379  22.920  1.00  0.00     0.018 A 
ATOM     19  C   UNL A   1      32.871  19.891  25.220  1.00  0.00     0.057 A 
ATOM     20  C   UNL A   1      32.528  20.282  23.939  1.00  0.00     0.053 A 
ATOM     21  C   UNL A   1      33.216  21.106  25.976  1.00  0.00     0.266 C 
ATOM     22  C   UNL A   1      32.592  21.734  23.878  1.00  0.00     0.266 C 
ATOM     23  O   UNL A   1      33.568  21.088  27.140  1.00  0.00    -0.268 OA
ATOM     24  O   UNL A   1      32.351  22.358  22.862  1.00  0.00    -0.268 OA
BRANCH  15  25
ATOM     25  O   UNL A   1      32.976  16.262  24.659  1.00  0.00    -0.497 OA
ATOM     26  C   UNL A   1      34.115  15.792  25.369  1.00  0.00     0.278 C 
ENDBRANCH  15  25
ENDBRANCH   9  14
ENDBRANCH   5   8
ENDBRANCH   3   4
ENDBRANCH   2   3
ENDBRANCH   1   2
BRANCH   1  27
ATOM     27  C   UNL A   1      30.821  28.784  23.755  1.00  0.00     0.002 C 
BRANCH  27  28
ATOM     28  C   UNL A   1      32.331  28.765  23.514  1.00  0.00     0.021 C 
BRANCH  28  29
ATOM     29  C   UNL A   1      33.236  29.330  24.605  1.00  0.00     0.116 C 
BRANCH  29  30
ATOM     30  N   UNL A   1      32.582  30.354  25.399  1.00  0.00    -0.352 N 
ATOM     31  C   UNL A   1      32.889  30.921  26.613  1.00  0.00     0.251 C 
ATOM     32  H   UNL A   1      31.761  30.710  24.989  1.00  0.00     0.163 HD
ATOM     33  O   UNL A   1      32.045  31.656  27.128  1.00  0.00    -0.269 OA
BRANCH  31  34
ATOM     34  C   UNL A   1      34.168  30.691  27.345  1.00  0.00     0.039 A 
ATOM     35  C   UNL A   1      34.385  29.412  27.884  1.00  0.00     0.014 A 
ATOM     36  C   UNL A   1      35.102  31.691  27.624  1.00  0.00     0.014 A 
ATOM     37  C   UNL A   1      35.523  29.134  28.655  1.00  0.00     0.010 A 
ATOM     38  C   UNL A   1      36.276  31.397  28.340  1.00  0.00     0.010 A 
ATOM     39  C   UNL A   1      36.499  30.118  28.876  1.00  0.00    -0.014 A 
BRANCH  39  40
ATOM     40  C   UNL A   1      37.719  29.816  29.685  1.00  0.00     0.031 A 
ATOM     41  C   UNL A   1      38.800  28.907  29.149  1.00  0.00     0.074 A 
ATOM     42  C   UNL A   1      37.875  30.357  30.911  1.00  0.00     0.049 A 
ATOM     43  N   UNL A   1      39.914  28.513  29.720  1.00  0.00    -0.248 NA
ATOM     44  C   UNL A   1      38.597  28.359  27.800  1.00  0.00     0.031 C 
ATOM     45  C   UNL A   1      36.915  31.243  31.570  1.00  0.00     0.029 A 
ATOM     46  N   UNL A   1      38.899  30.243  31.822  1.00  0.00    -0.354 N 
ATOM     47  C   UNL A   1      40.539  27.674  28.804  1.00  0.00     0.074 A 
ATOM     48  C   UNL A   1      39.656  27.573  27.662  1.00  0.00     0.031 C 
ATOM     49  C   UNL A   1      37.408  31.617  32.763  1.00  0.00     0.029 A 
ATOM     50  C   UNL A   1      38.697  30.963  32.976  1.00  0.00     0.049 A 
ATOM     51  H   UNL A   1      39.702  29.697  31.663  1.00  0.00     0.167 HD
ATOM     52  C   UNL A   1      41.747  27.062  28.891  1.00  0.00     0.037 A 
ATOM     53  C   UNL A   1      39.454  31.077  34.086  1.00  0.00     0.037 A 
ATOM     54  C   UNL A   1      42.647  27.168  30.012  1.00  0.00     0.049 A 
ATOM     55  C   UNL A   1      40.767  30.343  34.177  1.00  0.00     0.074 A 
ATOM     56  C   UNL A   1      43.900  26.599  30.170  1.00  0.00     0.029 A 
ATOM     57  N   UNL A   1      42.393  27.893  31.166  1.00  0.00    -0.354 N 
ATOM     58  N   UNL A   1      41.359  29.587  33.286  1.00  0.00    -0.248 NA
ATOM     59  C   UNL A   1      41.519  30.483  35.433  1.00  0.00     0.031 C 
ATOM     60  C   UNL A   1      44.385  26.941  31.436  1.00  0.00     0.029 A 
ATOM     61  C   UNL A   1      43.458  27.768  32.046  1.00  0.00     0.049 A 
ATOM     62  H   UNL A   1      41.577  28.417  31.336  1.00  0.00     0.167 HD
ATOM     63  C   UNL A   1      42.564  29.196  33.856  1.00  0.00     0.074 A 
ATOM     64  C   UNL A   1      42.627  29.808  35.165  1.00  0.00     0.031 C 
ATOM     65  C   UNL A   1      43.530  28.398  33.339  1.00  0.00     0.037 A 
BRANCH  52  66
ATOM     66  C   UNL A   1      42.186  26.218  27.727  1.00  0.00     0.064 A 
ATOM     67  C   UNL A   1      43.096  26.703  26.774  1.00  0.00     0.173 A 
ATOM     68  C   UNL A   1      41.749  24.891  27.600  1.00  0.00     0.173 A 
ATOM     69  F   UNL A   1      43.540  27.967  26.847  1.00  0.00    -0.203 F 
ATOM     70  C   UNL A   1      43.533  25.897  25.726  1.00  0.00     0.198 A 
ATOM     71  C   UNL A   1      42.211  24.079  26.567  1.00  0.00     0.198 A 
ATOM     72  F   UNL A   1      40.888  24.374  28.490  1.00  0.00    -0.203 F 
ATOM     73  F   UNL A   1      44.370  26.395  24.805  1.00  0.00    -0.200 F 
ATOM     74  C   UNL A   1      43.097  24.585  25.627  1.00  0.00     0.200 A 
ATOM     75  F   UNL A   1      41.802  22.806  26.484  1.00  0.00    -0.200 F 
ATOM     76  F   UNL A   1      43.528  23.807  24.625  1.00  0.00    -0.200 F 
ENDBRANCH  52  66
BRANCH  53  77
ATOM     77  C   UNL A   1      38.999  31.926  35.221  1.00  0.00     0.064 A 
ATOM     78  C   UNL A   1      39.303  33.296  35.262  1.00  0.00     0.173 A 
ATOM     79  C   UNL A   1      38.303  31.382  36.309  1.00  0.00     0.173 A 
ATOM     80  F   UNL A   1      39.993  33.858  34.259  1.00  0.00    -0.203 F 
ATOM     81  C   UNL A   1      38.954  34.079  36.361  1.00  0.00     0.198 A 
ATOM     82  C   UNL A   1      37.924  32.172  37.392  1.00  0.00     0.198 A 
ATOM     83  F   UNL A   1      37.989  30.078  36.321  1.00  0.00    -0.203 F 
ATOM     84  F   UNL A   1      39.315  35.368  36.403  1.00  0.00    -0.200 F 
ATOM     85  C   UNL A   1      38.262  33.518  37.423  1.00  0.00     0.200 A 
ATOM     86  F   UNL A   1      37.245  31.629  38.411  1.00  0.00    -0.200 F 
ATOM     87  F   UNL A   1      37.933  34.268  38.482  1.00  0.00    -0.200 F 
ENDBRANCH  53  77
BRANCH  65  88
ATOM     88  C   UNL A   1      44.768  28.181  34.164  1.00  0.00     0.064 A 
ATOM     89  C   UNL A   1      45.869  29.047  34.088  1.00  0.00     0.173 A 
ATOM     90  C   UNL A   1      44.839  27.110  35.068  1.00  0.00     0.173 A 
ATOM     91  F   UNL A   1      45.858  30.078  33.229  1.00  0.00    -0.203 F 
ATOM     92  C   UNL A   1      47.006  28.831  34.863  1.00  0.00     0.198 A 
ATOM     93  C   UNL A   1      45.965  26.916  35.865  1.00  0.00     0.198 A 
ATOM     94  F   UNL A   1      43.813  26.255  35.187  1.00  0.00    -0.203 F 
ATOM     95  F   UNL A   1      48.066  29.643  34.734  1.00  0.00    -0.200 F 
ATOM     96  C   UNL A   1      47.051  27.771  35.755  1.00  0.00     0.200 A 
ATOM     97  F   UNL A   1      46.000  25.898  36.736  1.00  0.00    -0.200 F 
ATOM     98  F   UNL A   1      48.143  27.569  36.505  1.00  0.00    -0.200 F 
ENDBRANCH  65  88
ENDBRANCH  39  40
ENDBRANCH  31  34
ENDBRANCH  29  30
ENDBRANCH  28  29
ENDBRANCH  27  28
ENDBRANCH   1  27
TORSDOF 15
ENDMDL
MODEL 2
REMARK VINA RESULT:     -12.8      1.324      7.997
REMARK SMILES COc1ccc2c(c1)C(=O)N(c1ccccc1C(=O)NCCCCCCNC(=O)c1ccc(-c3c4nc(c(-c5c(F)c(F)c(F)c(F)c5F)c5ccc([nH]5)c(-c5c(F)c(F)c(F)c(F)c5F)c5nc(c(-c6c(F)c(F)c(F)c(F)c6F)c6ccc3[nH]6)C=C5)C=C4)cc1)C2=O
REMARK SMILES IDX 23 1 22 2 21 3 20 4 18 5 19 6 17 8 12 9 13 10 14 11 16 12
REMARK SMILES IDX 15 13 11 14 3 15 4 16 8 17 5 18 7 19 6 20 9 21 93 22 10 23
REMARK SMILES IDX 94 24 2 25 1 26 24 27 25 28 26 29 27 30 28 31 29 33 30 34
REMARK SMILES IDX 31 35 92 36 32 37 91 38 33 39 34 40 35 41 85 42 36 43 90 44
REMARK SMILES IDX 84 45 86 46 37 47 89 48 83 49 82 50 38 52 70 53 50 54 69 55
REMARK SMILES IDX 51 56 54 57 68 58 87 59 52 60 53 61 67 63 88 64 55 65 39 66
REMARK SMILES IDX 40 67 48 68 41 69 42 70 46 71 49 72 43 73 44 74 47 75 45 76
REMARK SMILES IDX 71 77 72 78 80 79 73 80 74 81 78 82 81 83 75 84 76 85 79 86
REMARK SMILES IDX 77 87 56 88 57 89 65 90 58 91 59 92 63 93 66 94 60 95 61 96
REMARK SMILES IDX 64 97 62 98
REMARK H PARENT 20 7 27 32 86 51 54 62
REMARK Flexibility Score: inf
ROOT
ATOM      1  C   UNL A   1      34.078  26.834  25.731  1.00  0.00     0.002 C 
ENDROOT
BRANCH   1   2
ATOM      2  C   UNL A   1      33.249  25.602  26.109  1.00  0.00     0.021 C 
BRANCH   2   3
ATOM      3  C   UNL A   1      33.967  24.333  26.552  1.00  0.00     0.116 C 
BRANCH   3   4
ATOM      4  N   UNL A   1      35.132  23.925  25.818  1.00  0.00    -0.352 N 
ATOM      5  C   UNL A   1      35.292  22.982  24.825  1.00  0.00     0.253 C 
ATOM      6  O   UNL A   1      36.390  22.983  24.260  1.00  0.00    -0.269 OA
ATOM      7  H   UNL A   1      35.958  24.400  26.067  1.00  0.00     0.163 HD
BRANCH   5   8
ATOM      8  C   UNL A   1      34.324  21.881  24.474  1.00  0.00     0.064 A 
ATOM      9  C   UNL A   1      33.005  21.935  23.978  1.00  0.00     0.065 A 
ATOM     10  C   UNL A   1      32.278  20.729  23.812  1.00  0.00     0.028 A 
ATOM     11  C   UNL A   1      32.836  19.483  24.083  1.00  0.00     0.002 A 
ATOM     12  C   UNL A   1      34.862  20.594  24.745  1.00  0.00     0.016 A 
ATOM     13  C   UNL A   1      34.136  19.415  24.550  1.00  0.00     0.001 A 
BRANCH   9  14
ATOM     14  N   UNL A   1      32.300  23.102  23.615  1.00  0.00    -0.241 N 
ATOM     15  C   UNL A   1      30.672  27.207  22.393  1.00  0.00     0.119 A 
ATOM     16  C   UNL A   1      29.838  26.947  23.505  1.00  0.00     0.047 A 
ATOM     17  C   UNL A   1      31.565  26.231  21.931  1.00  0.00     0.061 A 
ATOM     18  C   UNL A   1      29.902  25.737  24.195  1.00  0.00     0.018 A 
ATOM     19  C   UNL A   1      31.632  25.047  22.646  1.00  0.00     0.057 A 
ATOM     20  C   UNL A   1      30.811  24.809  23.733  1.00  0.00     0.053 A 
ATOM     21  C   UNL A   1      32.595  23.938  22.567  1.00  0.00     0.266 C 
ATOM     22  C   UNL A   1      31.196  23.534  24.317  1.00  0.00     0.266 C 
ATOM     23  O   UNL A   1      33.459  23.865  21.714  1.00  0.00    -0.268 OA
ATOM     24  O   UNL A   1      30.648  23.073  25.301  1.00  0.00    -0.268 OA
BRANCH  15  25
ATOM     25  O   UNL A   1      30.539  28.473  21.896  1.00  0.00    -0.497 OA
ATOM     26  C   UNL A   1      29.642  29.360  22.553  1.00  0.00     0.278 C 
ENDBRANCH  15  25
ENDBRANCH   9  14
ENDBRANCH   5   8
ENDBRANCH   3   4
ENDBRANCH   2   3
ENDBRANCH   1   2
BRANCH   1  27
ATOM     27  C   UNL A   1      33.642  27.687  24.533  1.00  0.00     0.002 C 
BRANCH  27  28
ATOM     28  C   UNL A   1      33.242  29.140  24.791  1.00  0.00     0.021 C 
BRANCH  28  29
ATOM     29  C   UNL A   1      32.403  29.441  26.030  1.00  0.00     0.116 C 
BRANCH  29  30
ATOM     30  N   UNL A   1      32.281  30.864  26.290  1.00  0.00    -0.352 N 
ATOM     31  C   UNL A   1      33.017  31.731  27.062  1.00  0.00     0.251 C 
ATOM     32  H   UNL A   1      31.526  31.290  25.823  1.00  0.00     0.163 HD
ATOM     33  O   UNL A   1      32.570  32.866  27.228  1.00  0.00    -0.269 OA
BRANCH  31  34
ATOM     34  C   UNL A   1      34.310  31.376  27.717  1.00  0.00     0.039 A 
ATOM     35  C   UNL A   1      34.440  30.076  28.232  1.00  0.00     0.014 A 
ATOM     36  C   UNL A   1      35.345  32.284  27.951  1.00  0.00     0.014 A 
ATOM     37  C   UNL A   1      35.590  29.686  28.934  1.00  0.00     0.010 A 
ATOM     38  C   UNL A   1      36.526  31.875  28.595  1.00  0.00     0.010 A 
ATOM     39  C   UNL A   1      36.661  30.574  29.107  1.00  0.00    -0.014 A 
BRANCH  39  40
ATOM     40  C   UNL A   1      37.893  30.152  29.841  1.00  0.00     0.031 A 
ATOM     41  C   UNL A   1      38.176  30.657  31.237  1.00  0.00     0.074 A 
ATOM     42  C   UNL A   1      38.774  29.308  29.265  1.00  0.00     0.049 A 
ATOM     43  N   UNL A   1      39.205  30.418  32.015  1.00  0.00    -0.248 NA
ATOM     44  C   UNL A   1      37.177  31.558  31.831  1.00  0.00     0.031 C 
ATOM     45  C   UNL A   1      38.647  28.744  27.921  1.00  0.00     0.029 A 
ATOM     46  N   UNL A   1      39.950  28.773  29.738  1.00  0.00    -0.354 N 
ATOM     47  C   UNL A   1      38.978  31.138  33.183  1.00  0.00     0.074 A 
ATOM     48  C   UNL A   1      37.741  31.864  32.992  1.00  0.00     0.031 C 
ATOM     49  C   UNL A   1      39.684  27.921  27.690  1.00  0.00     0.029 A 
ATOM     50  C   UNL A   1      40.574  27.931  28.848  1.00  0.00     0.049 A 
ATOM     51  H   UNL A   1      40.312  28.974  30.632  1.00  0.00     0.167 HD
ATOM     52  C   UNL A   1      39.716  31.174  34.321  1.00  0.00     0.037 A 
ATOM     53  C   UNL A   1      41.735  27.252  28.944  1.00  0.00     0.037 A 
ATOM     54  C   UNL A   1      40.940  30.443  34.535  1.00  0.00     0.049 A 
ATOM     55  C   UNL A   1      42.561  27.354  30.201  1.00  0.00     0.074 A 
ATOM     56  C   UNL A   1      41.737  30.407  35.668  1.00  0.00     0.029 A 
ATOM     57  N   UNL A   1      41.543  29.617  33.599  1.00  0.00    -0.354 N 
ATOM     58  N   UNL A   1      42.310  28.007  31.308  1.00  0.00    -0.248 NA
ATOM     59  C   UNL A   1      43.834  26.617  30.218  1.00  0.00     0.031 C 
ATOM     60  C   UNL A   1      42.845  29.596  35.403  1.00  0.00     0.029 A 
ATOM     61  C   UNL A   1      42.711  29.084  34.124  1.00  0.00     0.049 A 
ATOM     62  H   UNL A   1      41.195  29.437  32.697  1.00  0.00     0.167 HD
ATOM     63  C   UNL A   1      43.370  27.729  32.163  1.00  0.00     0.074 A 
ATOM     64  C   UNL A   1      44.260  26.838  31.453  1.00  0.00     0.031 C 
ATOM     65  C   UNL A   1      43.585  28.177  33.424  1.00  0.00     0.037 A 
BRANCH  52  66
ATOM     66  C   UNL A   1      39.216  32.033  35.448  1.00  0.00     0.064 A 
ATOM     67  C   UNL A   1      38.413  31.505  36.471  1.00  0.00     0.173 A 
ATOM     68  C   UNL A   1      39.598  33.380  35.546  1.00  0.00     0.173 A 
ATOM     69  F   UNL A   1      38.015  30.225  36.422  1.00  0.00    -0.203 F 
ATOM     70  C   UNL A   1      37.994  32.298  37.536  1.00  0.00     0.198 A 
ATOM     71  C   UNL A   1      39.201  34.162  36.628  1.00  0.00     0.198 A 
ATOM     72  F   UNL A   1      40.375  33.933  34.601  1.00  0.00    -0.203 F 
ATOM     73  F   UNL A   1      37.193  31.781  38.479  1.00  0.00    -0.200 F 
ATOM     74  C   UNL A   1      38.394  33.623  37.618  1.00  0.00     0.200 A 
ATOM     75  F   UNL A   1      39.604  35.437  36.714  1.00  0.00    -0.200 F 
ATOM     76  F   UNL A   1      38.000  34.381  38.650  1.00  0.00    -0.200 F 
ENDBRANCH  52  66
BRANCH  53  77
ATOM     77  C   UNL A   1      42.203  26.401  27.816  1.00  0.00     0.064 A 
ATOM     78  C   UNL A   1      43.112  26.897  26.869  1.00  0.00     0.173 A 
ATOM     79  C   UNL A   1      41.712  25.101  27.628  1.00  0.00     0.173 A 
ATOM     80  F   UNL A   1      43.587  28.145  26.988  1.00  0.00    -0.203 F 
ATOM     81  C   UNL A   1      43.489  26.136  25.764  1.00  0.00     0.198 A 
ATOM     82  C   UNL A   1      42.116  24.329  26.542  1.00  0.00     0.198 A 
ATOM     83  F   UNL A   1      40.839  24.580  28.502  1.00  0.00    -0.203 F 
ATOM     84  F   UNL A   1      44.307  26.659  24.842  1.00  0.00    -0.200 F 
ATOM     85  C   UNL A   1      42.994  24.852  25.603  1.00  0.00     0.200 A 
ATOM     86  F   UNL A   1      41.644  23.083  26.396  1.00  0.00    -0.200 F 
ATOM     87  F   UNL A   1      43.350  24.122  24.538  1.00  0.00    -0.200 F 
ENDBRANCH  53  77
BRANCH  65  88
ATOM     88  C   UNL A   1      44.802  27.670  34.145  1.00  0.00     0.064 A 
ATOM     89  C   UNL A   1      44.775  26.491  34.905  1.00  0.00     0.173 A 
ATOM     90  C   UNL A   1      46.023  28.356  34.045  1.00  0.00     0.173 A 
ATOM     91  F   UNL A   1      43.630  25.805  35.045  1.00  0.00    -0.203 F 
ATOM     92  C   UNL A   1      45.915  26.035  35.562  1.00  0.00     0.198 A 
ATOM     93  C   UNL A   1      47.169  27.879  34.677  1.00  0.00     0.198 A 
ATOM     94  F   UNL A   1      46.108  29.484  33.325  1.00  0.00    -0.203 F 
ATOM     95  F   UNL A   1      45.851  24.935  36.326  1.00  0.00    -0.200 F 
ATOM     96  C   UNL A   1      47.112  26.725  35.443  1.00  0.00     0.200 A 
ATOM     97  F   UNL A   1      48.328  28.541  34.549  1.00  0.00    -0.200 F 
ATOM     98  F   UNL A   1      48.209  26.280  36.071  1.00  0.00    -0.200 F 
ENDBRANCH  65  88
ENDBRANCH  39  40
ENDBRANCH  31  34
ENDBRANCH  29  30
ENDBRANCH  28  29
ENDBRANCH  27  28
ENDBRANCH   1  27
TORSDOF 15
ENDMDL
MODEL 3
REMARK VINA RESULT:     -12.7      1.020      3.608
REMARK SMILES COc1ccc2c(c1)C(=O)N(c1ccccc1C(=O)NCCCCCCNC(=O)c1ccc(-c3c4nc(c(-c5c(F)c(F)c(F)c(F)c5F)c5ccc([nH]5)c(-c5c(F)c(F)c(F)c(F)c5F)c5nc(c(-c6c(F)c(F)c(F)c(F)c6F)c6ccc3[nH]6)C=C5)C=C4)cc1)C2=O
REMARK SMILES IDX 23 1 22 2 21 3 20 4 18 5 19 6 17 8 12 9 13 10 14 11 16 12
REMARK SMILES IDX 15 13 11 14 3 15 4 16 8 17 5 18 7 19 6 20 9 21 93 22 10 23
REMARK SMILES IDX 94 24 2 25 1 26 24 27 25 28 26 29 27 30 28 31 29 33 30 34
REMARK SMILES IDX 31 35 92 36 32 37 91 38 33 39 34 40 35 41 85 42 36 43 90 44
REMARK SMILES IDX 84 45 86 46 37 47 89 48 83 49 82 50 38 52 70 53 50 54 69 55
REMARK SMILES IDX 51 56 54 57 68 58 87 59 52 60 53 61 67 63 88 64 55 65 39 66
REMARK SMILES IDX 40 67 48 68 41 69 42 70 46 71 49 72 43 73 44 74 47 75 45 76
REMARK SMILES IDX 71 77 72 78 80 79 73 80 74 81 78 82 81 83 75 84 76 85 79 86
REMARK SMILES IDX 77 87 56 88 57 89 65 90 58 91 59 92 63 93 66 94 60 95 61 96
REMARK SMILES IDX 64 97 62 98
REMARK H PARENT 20 7 27 32 86 51 54 62
REMARK Flexibility Score: inf
ROOT
ATOM      1  C   UNL A   1      33.960  25.490  25.754  1.00  0.00     0.002 C 
ENDROOT
BRANCH   1   2
ATOM      2  C   UNL A   1      35.025  24.809  24.889  1.00  0.00     0.021 C 
BRANCH   2   3
ATOM      3  C   UNL A   1      35.381  23.352  25.161  1.00  0.00     0.116 C 
BRANCH   3   4
ATOM      4  N   UNL A   1      34.662  22.664  26.196  1.00  0.00    -0.352 N 
ATOM      5  C   UNL A   1      33.896  21.518  26.158  1.00  0.00     0.253 C 
ATOM      6  O   UNL A   1      33.548  21.072  27.256  1.00  0.00    -0.269 OA
ATOM      7  H   UNL A   1      34.726  23.083  27.084  1.00  0.00     0.163 HD
BRANCH   5   8
ATOM      8  C   UNL A   1      33.337  20.858  24.924  1.00  0.00     0.064 A 
ATOM      9  C   UNL A   1      32.535  21.372  23.884  1.00  0.00     0.065 A 
ATOM     10  C   UNL A   1      32.072  20.497  22.870  1.00  0.00     0.028 A 
ATOM     11  C   UNL A   1      32.415  19.148  22.839  1.00  0.00     0.002 A 
ATOM     12  C   UNL A   1      33.665  19.476  24.866  1.00  0.00     0.016 A 
ATOM     13  C   UNL A   1      33.219  18.636  23.841  1.00  0.00     0.001 A 
BRANCH   9  14
ATOM     14  N   UNL A   1      32.126  22.714  23.736  1.00  0.00    -0.241 N 
ATOM     15  C   UNL A   1      30.115  26.807  23.294  1.00  0.00     0.119 A 
ATOM     16  C   UNL A   1      31.017  26.873  22.207  1.00  0.00     0.047 A 
ATOM     17  C   UNL A   1      30.150  25.725  24.182  1.00  0.00     0.061 A 
ATOM     18  C   UNL A   1      31.936  25.853  21.963  1.00  0.00     0.018 A 
ATOM     19  C   UNL A   1      31.051  24.710  23.907  1.00  0.00     0.057 A 
ATOM     20  C   UNL A   1      31.926  24.788  22.838  1.00  0.00     0.053 A 
ATOM     21  C   UNL A   1      31.185  23.367  24.492  1.00  0.00     0.266 C 
ATOM     22  C   UNL A   1      32.659  23.534  22.764  1.00  0.00     0.266 C 
ATOM     23  O   UNL A   1      30.537  22.990  25.449  1.00  0.00    -0.268 OA
ATOM     24  O   UNL A   1      33.494  23.314  21.907  1.00  0.00    -0.268 OA
BRANCH  15  25
ATOM     25  O   UNL A   1      29.228  27.847  23.329  1.00  0.00    -0.497 OA
ATOM     26  C   UNL A   1      29.591  29.060  22.683  1.00  0.00     0.278 C 
ENDBRANCH  15  25
ENDBRANCH   9  14
ENDBRANCH   5   8
ENDBRANCH   3   4
ENDBRANCH   2   3
ENDBRANCH   1   2
BRANCH   1  27
ATOM     27  C   UNL A   1      34.048  27.003  25.992  1.00  0.00     0.002 C 
BRANCH  27  28
ATOM     28  C   UNL A   1      32.931  27.886  25.433  1.00  0.00     0.021 C 
BRANCH  28  29
ATOM     29  C   UNL A   1      33.317  29.238  24.841  1.00  0.00     0.116 C 
BRANCH  29  30
ATOM     30  N   UNL A   1      32.721  30.352  25.556  1.00  0.00    -0.352 N 
ATOM     31  C   UNL A   1      33.069  31.000  26.717  1.00  0.00     0.251 C 
ATOM     32  H   UNL A   1      31.912  30.713  25.126  1.00  0.00     0.163 HD
ATOM     33  O   UNL A   1      32.268  31.813  27.178  1.00  0.00    -0.269 OA
BRANCH  31  34
ATOM     34  C   UNL A   1      34.346  30.769  27.454  1.00  0.00     0.039 A 
ATOM     35  C   UNL A   1      34.492  29.547  28.130  1.00  0.00     0.014 A 
ATOM     36  C   UNL A   1      35.347  31.731  27.607  1.00  0.00     0.014 A 
ATOM     37  C   UNL A   1      35.625  29.283  28.913  1.00  0.00     0.010 A 
ATOM     38  C   UNL A   1      36.514  31.441  28.336  1.00  0.00     0.010 A 
ATOM     39  C   UNL A   1      36.665  30.218  29.009  1.00  0.00    -0.014 A 
BRANCH  39  40
ATOM     40  C   UNL A   1      37.880  29.929  29.831  1.00  0.00     0.031 A 
ATOM     41  C   UNL A   1      38.976  29.030  29.308  1.00  0.00     0.074 A 
ATOM     42  C   UNL A   1      38.017  30.473  31.058  1.00  0.00     0.049 A 
ATOM     43  N   UNL A   1      40.087  28.647  29.891  1.00  0.00    -0.248 NA
ATOM     44  C   UNL A   1      38.792  28.478  27.957  1.00  0.00     0.031 C 
ATOM     45  C   UNL A   1      37.042  31.350  31.707  1.00  0.00     0.029 A 
ATOM     46  N   UNL A   1      39.033  30.370  31.981  1.00  0.00    -0.354 N 
ATOM     47  C   UNL A   1      40.730  27.814  28.982  1.00  0.00     0.074 A 
ATOM     48  C   UNL A   1      39.860  27.703  27.831  1.00  0.00     0.031 C 
ATOM     49  C   UNL A   1      37.520  31.729  32.904  1.00  0.00     0.029 A 
ATOM     50  C   UNL A   1      38.812  31.088  33.132  1.00  0.00     0.049 A 
ATOM     51  H   UNL A   1      39.843  29.831  31.831  1.00  0.00     0.167 HD
ATOM     52  C   UNL A   1      41.943  27.213  29.083  1.00  0.00     0.037 A 
ATOM     53  C   UNL A   1      39.556  31.210  34.250  1.00  0.00     0.037 A 
ATOM     54  C   UNL A   1      42.829  27.329  30.213  1.00  0.00     0.049 A 
ATOM     55  C   UNL A   1      40.875  30.489  34.355  1.00  0.00     0.074 A 
ATOM     56  C   UNL A   1      44.086  26.772  30.385  1.00  0.00     0.029 A 
ATOM     57  N   UNL A   1      42.556  28.052  31.364  1.00  0.00    -0.354 N 
ATOM     58  N   UNL A   1      41.484  29.738  33.471  1.00  0.00    -0.248 NA
ATOM     59  C   UNL A   1      41.613  30.638  35.619  1.00  0.00     0.031 C 
ATOM     60  C   UNL A   1      44.554  27.120  31.656  1.00  0.00     0.029 A 
ATOM     61  C   UNL A   1      43.613  27.939  32.255  1.00  0.00     0.049 A 
ATOM     62  H   UNL A   1      41.734  28.569  31.525  1.00  0.00     0.167 HD
ATOM     63  C   UNL A   1      42.687  29.359  34.054  1.00  0.00     0.074 A 
ATOM     64  C   UNL A   1      42.730  29.973  35.363  1.00  0.00     0.031 C 
ATOM     65  C   UNL A   1      43.665  28.570  33.549  1.00  0.00     0.037 A 
BRANCH  52  66
ATOM     66  C   UNL A   1      42.402  26.373  27.925  1.00  0.00     0.064 A 
ATOM     67  C   UNL A   1      41.991  25.039  27.780  1.00  0.00     0.173 A 
ATOM     68  C   UNL A   1      43.205  26.924  26.914  1.00  0.00     0.173 A 
ATOM     69  F   UNL A   1      41.228  24.462  28.721  1.00  0.00    -0.203 F 
ATOM     70  C   UNL A   1      42.384  24.282  26.679  1.00  0.00     0.198 A 
ATOM     71  C   UNL A   1      43.572  26.173  25.800  1.00  0.00     0.198 A 
ATOM     72  F   UNL A   1      43.617  28.198  26.997  1.00  0.00    -0.203 F 
ATOM     73  F   UNL A   1      42.012  22.998  26.584  1.00  0.00    -0.200 F 
ATOM     74  C   UNL A   1      43.167  24.852  25.686  1.00  0.00     0.200 A 
ATOM     75  F   UNL A   1      44.314  26.731  24.833  1.00  0.00    -0.200 F 
ATOM     76  F   UNL A   1      43.534  24.127  24.621  1.00  0.00    -0.200 F 
ENDBRANCH  52  66
BRANCH  53  77
ATOM     77  C   UNL A   1      39.081  32.056  35.379  1.00  0.00     0.064 A 
ATOM     78  C   UNL A   1      39.401  33.422  35.440  1.00  0.00     0.173 A 
ATOM     79  C   UNL A   1      38.348  31.512  36.443  1.00  0.00     0.173 A 
ATOM     80  F   UNL A   1      40.126  33.983  34.461  1.00  0.00    -0.203 F 
ATOM     81  C   UNL A   1      39.032  34.200  36.535  1.00  0.00     0.198 A 
ATOM     82  C   UNL A   1      37.950  32.299  37.521  1.00  0.00     0.198 A 
ATOM     83  F   UNL A   1      38.018  30.212  36.436  1.00  0.00    -0.203 F 
ATOM     84  F   UNL A   1      39.408  35.484  36.598  1.00  0.00    -0.200 F 
ATOM     85  C   UNL A   1      38.304  33.639  37.573  1.00  0.00     0.200 A 
ATOM     86  F   UNL A   1      37.237  31.756  38.517  1.00  0.00    -0.200 F 
ATOM     87  F   UNL A   1      37.955  34.385  38.629  1.00  0.00    -0.200 F 
ENDBRANCH  53  77
BRANCH  65  88
ATOM     88  C   UNL A   1      44.897  28.366  34.386  1.00  0.00     0.064 A 
ATOM     89  C   UNL A   1      45.999  29.228  34.303  1.00  0.00     0.173 A 
ATOM     90  C   UNL A   1      44.959  27.310  35.309  1.00  0.00     0.173 A 
ATOM     91  F   UNL A   1      45.997  30.245  33.427  1.00  0.00    -0.203 F 
ATOM     92  C   UNL A   1      47.130  29.025  35.091  1.00  0.00     0.198 A 
ATOM     93  C   UNL A   1      46.079  27.129  36.119  1.00  0.00     0.198 A 
ATOM     94  F   UNL A   1      43.930  26.459  35.436  1.00  0.00    -0.203 F 
ATOM     95  F   UNL A   1      48.192  29.832  34.956  1.00  0.00    -0.200 F 
ATOM     96  C   UNL A   1      47.166  27.980  36.002  1.00  0.00     0.200 A 
ATOM     97  F   UNL A   1      46.105  26.126  37.008  1.00  0.00    -0.200 F 
ATOM     98  F   UNL A   1      48.252  27.790  36.763  1.00  0.00    -0.200 F 
ENDBRANCH  65  88
ENDBRANCH  39  40
ENDBRANCH  31  34
ENDBRANCH  29  30
ENDBRANCH  28  29
ENDBRANCH  27  28
ENDBRANCH   1  27
TORSDOF 15
ENDMDL
