MODEL 1
REMARK VINA RESULT:     -11.9      0.000      0.000
REMARK SMILES Cc1nc(C[NH2+][C@@H](C(=O)NCCCCCCNC(=O)c2ccc(-c3c4nc(c(-c5c(F)c(F)c(F)c(F)c5F)c5ccc([nH]5)c(-c5c(F)c(F)c(F)c(F)c5F)c5nc(c(-c6c(F)c(F)c(F)c(F)c6F)c6ccc3[nH]6)C=C5)C=C4)cc2)c2ccccc2)sc1C
REMARK SMILES IDX 13 1 12 2 11 3 10 4 8 5 9 6 7 8 6 9 5 12 4 13 1 14 2 15 3 16
REMARK SMILES IDX 90 17 89 18 91 19 83 20 84 21 88 22 85 23 87 24 86 25 14 26
REMARK SMILES IDX 15 27 16 28 17 29 18 30 19 32 20 33 21 34 82 35 22 36 81 37
REMARK SMILES IDX 23 38 24 39 25 40 75 41 26 42 80 43 74 44 76 45 27 46 79 47
REMARK SMILES IDX 73 48 72 49 28 51 60 52 40 53 59 54 41 55 44 56 58 57 77 58
REMARK SMILES IDX 42 59 43 60 57 62 78 63 45 64 29 65 30 66 38 67 31 68 32 69
REMARK SMILES IDX 36 70 39 71 33 72 34 73 37 74 35 75 61 76 62 77 70 78 63 79
REMARK SMILES IDX 64 80 68 81 71 82 65 83 66 84 69 85 67 86 46 87 47 88 55 89
REMARK SMILES IDX 48 90 49 91 53 92 56 93 50 94 51 95 54 96 52 97
REMARK H PARENT 10 7 6 10 6 11 17 31 76 50 44 61
REMARK Flexibility Score: inf
ROOT
ATOM      1  C   UNL A   1      32.356  30.002  27.109  1.00  0.00     0.002 C 
ENDROOT
BRANCH   1   2
ATOM      2  C   UNL A   1      32.381  28.488  26.875  1.00  0.00     0.021 C 
BRANCH   2   3
ATOM      3  C   UNL A   1      33.655  27.970  26.184  1.00  0.00     0.116 C 
BRANCH   3   4
ATOM      4  N   UNL A   1      33.851  28.690  24.940  1.00  0.00    -0.351 N 
ATOM      5  C   UNL A   1      33.710  28.268  23.647  1.00  0.00     0.283 C 
ATOM      6  O   UNL A   1      34.447  28.827  22.826  1.00  0.00    -0.268 OA
ATOM      7  H   UNL A   1      34.128  29.629  25.044  1.00  0.00     0.163 HD
BRANCH   5   8
ATOM      8  C   UNL A   1      32.679  27.158  23.237  1.00  0.00     0.304 C 
BRANCH   8   9
ATOM      9  N   UNL A   1      33.061  26.510  21.955  1.00  0.00    -0.326 N 
ATOM     10  H   UNL A   1      32.569  26.976  21.192  1.00  0.00     0.347 HD
ATOM     11  H   UNL A   1      34.072  26.596  21.851  1.00  0.00     0.347 HD
BRANCH   9  12
ATOM     12  C   UNL A   1      32.729  25.092  21.929  1.00  0.00     0.330 C 
BRANCH  12  13
ATOM     13  C   UNL A   1      33.560  24.205  22.814  1.00  0.00     0.148 A 
ATOM     14  C   UNL A   1      36.723  22.623  23.444  1.00  0.00     0.068 C 
ATOM     15  C   UNL A   1      35.278  22.970  23.478  1.00  0.00     0.052 A 
ATOM     16  N   UNL A   1      34.860  24.039  22.702  1.00  0.00    -0.240 NA
ATOM     17  C   UNL A   1      34.268  22.318  24.166  1.00  0.00     0.025 A 
ATOM     18  S   UNL A   1      32.783  23.136  23.919  1.00  0.00    -0.118 S 
ATOM     19  C   UNL A   1      34.332  21.095  25.010  1.00  0.00     0.058 C 
ENDBRANCH  12  13
ENDBRANCH   9  12
ENDBRANCH   8   9
BRANCH   8  20
ATOM     20  C   UNL A   1      31.277  27.766  23.099  1.00  0.00     0.019 A 
ATOM     21  C   UNL A   1      31.099  29.069  22.593  1.00  0.00     0.010 A 
ATOM     22  C   UNL A   1      30.136  27.052  23.496  1.00  0.00     0.010 A 
ATOM     23  C   UNL A   1      29.832  29.646  22.509  1.00  0.00     0.001 A 
ATOM     24  C   UNL A   1      28.864  27.630  23.405  1.00  0.00     0.001 A 
ATOM     25  C   UNL A   1      28.714  28.927  22.916  1.00  0.00     0.000 A 
ENDBRANCH   8  20
ENDBRANCH   5   8
ENDBRANCH   3   4
ENDBRANCH   2   3
ENDBRANCH   1   2
BRANCH   1  26
ATOM     26  C   UNL A   1      31.343  30.769  26.256  1.00  0.00     0.002 C 
BRANCH  26  27
ATOM     27  C   UNL A   1      31.405  32.295  26.375  1.00  0.00     0.021 C 
BRANCH  27  28
ATOM     28  C   UNL A   1      32.566  32.834  27.208  1.00  0.00     0.116 C 
BRANCH  28  29
ATOM     29  N   UNL A   1      32.375  34.225  27.584  1.00  0.00    -0.352 N 
ATOM     30  C   UNL A   1      32.984  34.956  28.573  1.00  0.00     0.251 C 
ATOM     31  H   UNL A   1      31.710  34.716  27.050  1.00  0.00     0.163 HD
ATOM     32  O   UNL A   1      32.554  36.062  28.880  1.00  0.00    -0.269 OA
BRANCH  30  33
ATOM     33  C   UNL A   1      34.156  34.405  29.285  1.00  0.00     0.039 A 
ATOM     34  C   UNL A   1      33.962  33.758  30.509  1.00  0.00     0.014 A 
ATOM     35  C   UNL A   1      35.444  34.543  28.760  1.00  0.00     0.014 A 
ATOM     36  C   UNL A   1      35.053  33.199  31.178  1.00  0.00     0.010 A 
ATOM     37  C   UNL A   1      36.521  33.930  29.394  1.00  0.00     0.010 A 
ATOM     38  C   UNL A   1      36.336  33.256  30.611  1.00  0.00    -0.014 A 
BRANCH  38  39
ATOM     39  C   UNL A   1      37.501  32.620  31.278  1.00  0.00     0.031 A 
ATOM     40  C   UNL A   1      38.243  31.505  30.598  1.00  0.00     0.074 A 
ATOM     41  C   UNL A   1      37.848  33.004  32.521  1.00  0.00     0.049 A 
ATOM     42  N   UNL A   1      39.239  30.780  31.041  1.00  0.00    -0.248 NA
ATOM     43  C   UNL A   1      37.787  31.137  29.249  1.00  0.00     0.031 C 
ATOM     44  C   UNL A   1      37.182  34.048  33.300  1.00  0.00     0.029 A 
ATOM     45  N   UNL A   1      38.844  32.552  33.351  1.00  0.00    -0.354 N 
ATOM     46  C   UNL A   1      39.515  29.862  30.037  1.00  0.00     0.074 A 
ATOM     47  C   UNL A   1      38.551  30.088  28.982  1.00  0.00     0.031 C 
ATOM     48  C   UNL A   1      37.804  34.176  34.484  1.00  0.00     0.029 A 
ATOM     49  C   UNL A   1      38.887  33.200  34.561  1.00  0.00     0.049 A 
ATOM     50  H   UNL A   1      39.467  31.833  33.103  1.00  0.00     0.167 HD
ATOM     51  C   UNL A   1      40.495  28.928  29.990  1.00  0.00     0.037 A 
ATOM     52  C   UNL A   1      39.707  33.023  35.614  1.00  0.00     0.037 A 
ATOM     53  C   UNL A   1      41.472  28.727  31.029  1.00  0.00     0.049 A 
ATOM     54  C   UNL A   1      40.779  31.970  35.543  1.00  0.00     0.074 A 
ATOM     55  C   UNL A   1      42.550  27.860  31.046  1.00  0.00     0.029 A 
ATOM     56  N   UNL A   1      41.484  29.404  32.241  1.00  0.00    -0.354 N 
ATOM     57  N   UNL A   1      41.076  31.156  34.560  1.00  0.00    -0.248 NA
ATOM     58  C   UNL A   1      41.633  31.816  36.729  1.00  0.00     0.031 C 
ATOM     59  C   UNL A   1      43.188  27.979  32.286  1.00  0.00     0.029 A 
ATOM     60  C   UNL A   1      42.536  28.954  33.024  1.00  0.00     0.049 A 
ATOM     61  H   UNL A   1      40.841  30.101  32.506  1.00  0.00     0.167 HD
ATOM     62  C   UNL A   1      42.167  30.415  34.994  1.00  0.00     0.074 A 
ATOM     63  C   UNL A   1      42.485  30.884  36.328  1.00  0.00     0.031 C 
ATOM     64  C   UNL A   1      42.844  29.436  34.346  1.00  0.00     0.037 A 
BRANCH  51  65
ATOM     65  C   UNL A   1      40.557  28.052  28.774  1.00  0.00     0.064 A 
ATOM     66  C   UNL A   1      41.325  28.399  27.652  1.00  0.00     0.173 A 
ATOM     67  C   UNL A   1      39.853  26.838  28.735  1.00  0.00     0.173 A 
ATOM     68  F   UNL A   1      42.008  29.553  27.633  1.00  0.00    -0.203 F 
ATOM     69  C   UNL A   1      41.355  27.584  26.524  1.00  0.00     0.198 A 
ATOM     70  C   UNL A   1      39.911  26.010  27.618  1.00  0.00     0.198 A 
ATOM     71  F   UNL A   1      39.109  26.454  29.783  1.00  0.00    -0.203 F 
ATOM     72  F   UNL A   1      42.051  27.965  25.442  1.00  0.00    -0.200 F 
ATOM     73  C   UNL A   1      40.653  26.388  26.509  1.00  0.00     0.200 A 
ATOM     74  F   UNL A   1      39.240  24.850  27.609  1.00  0.00    -0.200 F 
ATOM     75  F   UNL A   1      40.685  25.605  25.422  1.00  0.00    -0.200 F 
ENDBRANCH  51  65
BRANCH  52  76
ATOM     76  C   UNL A   1      39.572  33.890  36.812  1.00  0.00     0.064 A 
ATOM     77  C   UNL A   1      40.210  35.138  36.865  1.00  0.00     0.173 A 
ATOM     78  C   UNL A   1      38.806  33.500  37.920  1.00  0.00     0.173 A 
ATOM     79  F   UNL A   1      40.970  35.543  35.837  1.00  0.00    -0.203 F 
ATOM     80  C   UNL A   1      40.100  35.955  37.987  1.00  0.00     0.198 A 
ATOM     81  C   UNL A   1      38.676  34.331  39.032  1.00  0.00     0.198 A 
ATOM     82  F   UNL A   1      38.173  32.318  37.917  1.00  0.00    -0.203 F 
ATOM     83  F   UNL A   1      40.752  37.125  38.026  1.00  0.00    -0.200 F 
ATOM     84  C   UNL A   1      39.329  35.554  39.067  1.00  0.00     0.200 A 
ATOM     85  F   UNL A   1      37.919  33.946  40.068  1.00  0.00    -0.200 F 
ATOM     86  F   UNL A   1      39.219  36.343  40.144  1.00  0.00    -0.200 F 
ENDBRANCH  52  76
BRANCH  64  87
ATOM     87  C   UNL A   1      44.021  28.831  35.053  1.00  0.00     0.064 A 
ATOM     88  C   UNL A   1      43.886  27.699  35.870  1.00  0.00     0.173 A 
ATOM     89  C   UNL A   1      45.305  29.370  34.883  1.00  0.00     0.173 A 
ATOM     90  F   UNL A   1      42.676  27.158  36.079  1.00  0.00    -0.203 F 
ATOM     91  C   UNL A   1      44.991  27.142  36.508  1.00  0.00     0.198 A 
ATOM     92  C   UNL A   1      46.411  28.794  35.499  1.00  0.00     0.198 A 
ATOM     93  F   UNL A   1      45.487  30.449  34.107  1.00  0.00    -0.203 F 
ATOM     94  F   UNL A   1      44.833  26.088  37.320  1.00  0.00    -0.200 F 
ATOM     95  C   UNL A   1      46.253  27.685  36.317  1.00  0.00     0.200 A 
ATOM     96  F   UNL A   1      47.632  29.312  35.303  1.00  0.00    -0.200 F 
ATOM     97  F   UNL A   1      47.316  27.143  36.926  1.00  0.00    -0.200 F 
ENDBRANCH  64  87
ENDBRANCH  38  39
ENDBRANCH  30  33
ENDBRANCH  28  29
ENDBRANCH  27  28
ENDBRANCH  26  27
ENDBRANCH   1  26
TORSDOF 17
ENDMDL
MODEL 2
REMARK VINA RESULT:     -11.8      0.460      2.044
REMARK SMILES Cc1nc(C[NH2+][C@@H](C(=O)NCCCCCCNC(=O)c2ccc(-c3c4nc(c(-c5c(F)c(F)c(F)c(F)c5F)c5ccc([nH]5)c(-c5c(F)c(F)c(F)c(F)c5F)c5nc(c(-c6c(F)c(F)c(F)c(F)c6F)c6ccc3[nH]6)C=C5)C=C4)cc2)c2ccccc2)sc1C
REMARK SMILES IDX 13 1 12 2 11 3 10 4 8 5 9 6 7 8 6 9 5 12 4 13 1 14 2 15 3 16
REMARK SMILES IDX 90 17 89 18 91 19 83 20 84 21 88 22 85 23 87 24 86 25 14 26
REMARK SMILES IDX 15 27 16 28 17 29 18 30 19 32 20 33 21 34 82 35 22 36 81 37
REMARK SMILES IDX 23 38 24 39 25 40 75 41 26 42 80 43 74 44 76 45 27 46 79 47
REMARK SMILES IDX 73 48 72 49 28 51 60 52 40 53 59 54 41 55 44 56 58 57 77 58
REMARK SMILES IDX 42 59 43 60 57 62 78 63 45 64 29 65 30 66 38 67 31 68 32 69
REMARK SMILES IDX 36 70 39 71 33 72 34 73 37 74 35 75 61 76 62 77 70 78 63 79
REMARK SMILES IDX 64 80 68 81 71 82 65 83 66 84 69 85 67 86 46 87 47 88 55 89
REMARK SMILES IDX 48 90 49 91 53 92 56 93 50 94 51 95 54 96 52 97
REMARK H PARENT 10 7 6 10 6 11 17 31 76 50 44 61
REMARK Flexibility Score: inf
ROOT
ATOM      1  C   UNL A   1      32.460  29.983  26.765  1.00  0.00     0.002 C 
ENDROOT
BRANCH   1   2
ATOM      2  C   UNL A   1      31.928  28.627  27.238  1.00  0.00     0.021 C 
BRANCH   2   3
ATOM      3  C   UNL A   1      32.641  27.411  26.623  1.00  0.00     0.116 C 
BRANCH   3   4
ATOM      4  N   UNL A   1      33.237  27.795  25.358  1.00  0.00    -0.351 N 
ATOM      5  C   UNL A   1      33.119  27.226  24.120  1.00  0.00     0.283 C 
ATOM      6  O   UNL A   1      34.104  27.354  23.384  1.00  0.00    -0.268 OA
ATOM      7  H   UNL A   1      33.817  28.590  25.397  1.00  0.00     0.163 HD
BRANCH   5   8
ATOM      8  C   UNL A   1      31.819  26.471  23.667  1.00  0.00     0.304 C 
BRANCH   8   9
ATOM      9  N   UNL A   1      32.063  25.655  22.449  1.00  0.00    -0.326 N 
ATOM     10  H   UNL A   1      31.361  25.893  21.749  1.00  0.00     0.347 HD
ATOM     11  H   UNL A   1      33.005  25.864  22.117  1.00  0.00     0.347 HD
BRANCH   9  12
ATOM     12  C   UNL A   1      31.993  24.225  22.717  1.00  0.00     0.330 C 
BRANCH  12  13
ATOM     13  C   UNL A   1      33.213  23.611  23.346  1.00  0.00     0.148 A 
ATOM     14  C   UNL A   1      36.730  22.914  23.139  1.00  0.00     0.068 C 
ATOM     15  C   UNL A   1      35.298  22.881  23.534  1.00  0.00     0.052 A 
ATOM     16  N   UNL A   1      34.444  23.779  22.915  1.00  0.00    -0.240 NA
ATOM     17  C   UNL A   1      34.687  22.016  24.427  1.00  0.00     0.025 A 
ATOM     18  S   UNL A   1      33.028  22.418  24.574  1.00  0.00    -0.118 S 
ATOM     19  C   UNL A   1      35.266  20.879  25.193  1.00  0.00     0.058 C 
ENDBRANCH  12  13
ENDBRANCH   9  12
ENDBRANCH   8   9
BRANCH   8  20
ATOM     20  C   UNL A   1      30.697  27.478  23.386  1.00  0.00     0.019 A 
ATOM     21  C   UNL A   1      29.347  27.137  23.599  1.00  0.00     0.010 A 
ATOM     22  C   UNL A   1      30.982  28.759  22.887  1.00  0.00     0.010 A 
ATOM     23  C   UNL A   1      28.318  28.031  23.301  1.00  0.00     0.001 A 
ATOM     24  C   UNL A   1      29.949  29.658  22.595  1.00  0.00     0.001 A 
ATOM     25  C   UNL A   1      28.619  29.292  22.798  1.00  0.00     0.000 A 
ENDBRANCH   8  20
ENDBRANCH   5   8
ENDBRANCH   3   4
ENDBRANCH   2   3
ENDBRANCH   1   2
BRANCH   1  26
ATOM     26  C   UNL A   1      31.440  30.853  26.027  1.00  0.00     0.002 C 
BRANCH  26  27
ATOM     27  C   UNL A   1      31.286  32.281  26.560  1.00  0.00     0.021 C 
BRANCH  27  28
ATOM     28  C   UNL A   1      32.517  32.847  27.265  1.00  0.00     0.116 C 
BRANCH  28  29
ATOM     29  N   UNL A   1      32.355  34.248  27.616  1.00  0.00    -0.352 N 
ATOM     30  C   UNL A   1      32.982  34.984  28.590  1.00  0.00     0.251 C 
ATOM     31  H   UNL A   1      31.698  34.742  27.075  1.00  0.00     0.163 HD
ATOM     32  O   UNL A   1      32.575  36.105  28.878  1.00  0.00    -0.269 OA
BRANCH  30  33
ATOM     33  C   UNL A   1      34.145  34.423  29.308  1.00  0.00     0.039 A 
ATOM     34  C   UNL A   1      33.937  33.770  30.527  1.00  0.00     0.014 A 
ATOM     35  C   UNL A   1      35.438  34.556  28.795  1.00  0.00     0.014 A 
ATOM     36  C   UNL A   1      35.019  33.202  31.203  1.00  0.00     0.010 A 
ATOM     37  C   UNL A   1      36.506  33.934  29.435  1.00  0.00     0.010 A 
ATOM     38  C   UNL A   1      36.307  33.254  30.647  1.00  0.00    -0.014 A 
BRANCH  38  39
ATOM     39  C   UNL A   1      37.462  32.608  31.320  1.00  0.00     0.031 A 
ATOM     40  C   UNL A   1      38.184  31.472  30.654  1.00  0.00     0.074 A 
ATOM     41  C   UNL A   1      37.819  33.003  32.557  1.00  0.00     0.049 A 
ATOM     42  N   UNL A   1      39.169  30.736  31.105  1.00  0.00    -0.248 NA
ATOM     43  C   UNL A   1      37.719  31.093  29.310  1.00  0.00     0.031 C 
ATOM     44  C   UNL A   1      37.172  34.068  33.324  1.00  0.00     0.029 A 
ATOM     45  N   UNL A   1      38.808  32.546  33.391  1.00  0.00    -0.354 N 
ATOM     46  C   UNL A   1      39.427  29.800  30.113  1.00  0.00     0.074 A 
ATOM     47  C   UNL A   1      38.465  30.028  29.057  1.00  0.00     0.031 C 
ATOM     48  C   UNL A   1      37.798  34.202  34.504  1.00  0.00     0.029 A 
ATOM     49  C   UNL A   1      38.865  33.209  34.592  1.00  0.00     0.049 A 
ATOM     50  H   UNL A   1      39.420  31.812  33.152  1.00  0.00     0.167 HD
ATOM     51  C   UNL A   1      40.392  28.850  30.077  1.00  0.00     0.037 A 
ATOM     52  C   UNL A   1      39.685  33.033  35.646  1.00  0.00     0.037 A 
ATOM     53  C   UNL A   1      41.367  28.646  31.117  1.00  0.00     0.049 A 
ATOM     54  C   UNL A   1      40.739  31.961  35.587  1.00  0.00     0.074 A 
ATOM     55  C   UNL A   1      42.431  27.761  31.143  1.00  0.00     0.029 A 
ATOM     56  N   UNL A   1      41.394  29.339  32.319  1.00  0.00    -0.354 N 
ATOM     57  N   UNL A   1      41.019  31.129  34.614  1.00  0.00    -0.248 NA
ATOM     58  C   UNL A   1      41.592  31.809  36.773  1.00  0.00     0.031 C 
ATOM     59  C   UNL A   1      43.073  27.886  32.380  1.00  0.00     0.029 A 
ATOM     60  C   UNL A   1      42.439  28.882  33.106  1.00  0.00     0.049 A 
ATOM     61  H   UNL A   1      40.763  30.050  32.575  1.00  0.00     0.167 HD
ATOM     62  C   UNL A   1      42.099  30.375  35.057  1.00  0.00     0.074 A 
ATOM     63  C   UNL A   1      42.428  30.857  36.383  1.00  0.00     0.031 C 
ATOM     64  C   UNL A   1      42.758  29.377  34.420  1.00  0.00     0.037 A 
BRANCH  51  65
ATOM     65  C   UNL A   1      40.436  27.955  28.873  1.00  0.00     0.064 A 
ATOM     66  C   UNL A   1      39.734  26.741  28.829  1.00  0.00     0.173 A 
ATOM     67  C   UNL A   1      41.177  28.324  27.739  1.00  0.00     0.173 A 
ATOM     68  F   UNL A   1      39.020  26.336  29.890  1.00  0.00    -0.203 F 
ATOM     69  C   UNL A   1      39.801  25.913  27.711  1.00  0.00     0.198 A 
ATOM     70  C   UNL A   1      41.217  27.509  26.611  1.00  0.00     0.198 A 
ATOM     71  F   UNL A   1      41.861  29.478  27.725  1.00  0.00    -0.203 F 
ATOM     72  F   UNL A   1      39.168  24.732  27.715  1.00  0.00    -0.200 F 
ATOM     73  C   UNL A   1      40.538  26.300  26.602  1.00  0.00     0.200 A 
ATOM     74  F   UNL A   1      41.920  27.890  25.535  1.00  0.00    -0.200 F 
ATOM     75  F   UNL A   1      40.601  25.503  25.526  1.00  0.00    -0.200 F 
ENDBRANCH  51  65
BRANCH  52  76
ATOM     76  C   UNL A   1      39.566  33.917  36.832  1.00  0.00     0.064 A 
ATOM     77  C   UNL A   1      38.799  33.527  37.940  1.00  0.00     0.173 A 
ATOM     78  C   UNL A   1      40.213  35.160  36.891  1.00  0.00     0.173 A 
ATOM     79  F   UNL A   1      38.146  32.355  37.920  1.00  0.00    -0.203 F 
ATOM     80  C   UNL A   1      38.671  34.352  39.054  1.00  0.00     0.198 A 
ATOM     81  C   UNL A   1      40.104  35.974  38.018  1.00  0.00     0.198 A 
ATOM     82  F   UNL A   1      40.961  35.578  35.860  1.00  0.00    -0.203 F 
ATOM     83  F   UNL A   1      37.901  33.970  40.082  1.00  0.00    -0.200 F 
ATOM     84  C   UNL A   1      39.328  35.573  39.095  1.00  0.00     0.200 A 
ATOM     85  F   UNL A   1      40.750  37.147  38.059  1.00  0.00    -0.200 F 
ATOM     86  F   UNL A   1      39.209  36.364  40.170  1.00  0.00    -0.200 F 
ENDBRANCH  52  76
BRANCH  64  87
ATOM     87  C   UNL A   1      43.926  28.762  35.133  1.00  0.00     0.064 A 
ATOM     88  C   UNL A   1      45.226  29.269  34.989  1.00  0.00     0.173 A 
ATOM     89  C   UNL A   1      43.737  27.675  36.000  1.00  0.00     0.173 A 
ATOM     90  F   UNL A   1      45.461  30.296  34.158  1.00  0.00    -0.203 F 
ATOM     91  C   UNL A   1      46.297  28.695  35.669  1.00  0.00     0.198 A 
ATOM     92  C   UNL A   1      44.806  27.123  36.700  1.00  0.00     0.198 A 
ATOM     93  F   UNL A   1      42.513  27.157  36.177  1.00  0.00    -0.203 F 
ATOM     94  F   UNL A   1      47.538  29.167  35.481  1.00  0.00    -0.200 F 
ATOM     95  C   UNL A   1      46.085  27.628  36.529  1.00  0.00     0.200 A 
ATOM     96  F   UNL A   1      44.597  26.099  37.540  1.00  0.00    -0.200 F 
ATOM     97  F   UNL A   1      47.116  27.082  37.187  1.00  0.00    -0.200 F 
ENDBRANCH  64  87
ENDBRANCH  38  39
ENDBRANCH  30  33
ENDBRANCH  28  29
ENDBRANCH  27  28
ENDBRANCH  26  27
ENDBRANCH   1  26
TORSDOF 17
ENDMDL
MODEL 3
REMARK VINA RESULT:     -11.8      0.515      7.330
REMARK SMILES Cc1nc(C[NH2+][C@@H](C(=O)NCCCCCCNC(=O)c2ccc(-c3c4nc(c(-c5c(F)c(F)c(F)c(F)c5F)c5ccc([nH]5)c(-c5c(F)c(F)c(F)c(F)c5F)c5nc(c(-c6c(F)c(F)c(F)c(F)c6F)c6ccc3[nH]6)C=C5)C=C4)cc2)c2ccccc2)sc1C
REMARK SMILES IDX 13 1 12 2 11 3 10 4 8 5 9 6 7 8 6 9 5 12 4 13 1 14 2 15 3 16
REMARK SMILES IDX 90 17 89 18 91 19 83 20 84 21 88 22 85 23 87 24 86 25 14 26
REMARK SMILES IDX 15 27 16 28 17 29 18 30 19 32 20 33 21 34 82 35 22 36 81 37
REMARK SMILES IDX 23 38 24 39 25 40 75 41 26 42 80 43 74 44 76 45 27 46 79 47
REMARK SMILES IDX 73 48 72 49 28 51 60 52 40 53 59 54 41 55 44 56 58 57 77 58
REMARK SMILES IDX 42 59 43 60 57 62 78 63 45 64 29 65 30 66 38 67 31 68 32 69
REMARK SMILES IDX 36 70 39 71 33 72 34 73 37 74 35 75 61 76 62 77 70 78 63 79
REMARK SMILES IDX 64 80 68 81 71 82 65 83 66 84 69 85 67 86 46 87 47 88 55 89
REMARK SMILES IDX 48 90 49 91 53 92 56 93 50 94 51 95 54 96 52 97
REMARK H PARENT 10 7 6 10 6 11 17 31 76 50 44 61
REMARK Flexibility Score: inf
ROOT
ATOM      1  C   UNL A   1      32.503  29.980  26.976  1.00  0.00     0.002 C 
ENDROOT
BRANCH   1   2
ATOM      2  C   UNL A   1      32.358  28.457  26.912  1.00  0.00     0.021 C 
BRANCH   2   3
ATOM      3  C   UNL A   1      33.399  27.753  26.024  1.00  0.00     0.116 C 
BRANCH   3   4
ATOM      4  N   UNL A   1      33.655  28.566  24.851  1.00  0.00    -0.351 N 
ATOM      5  C   UNL A   1      33.522  28.263  23.523  1.00  0.00     0.283 C 
ATOM      6  O   UNL A   1      34.301  28.853  22.767  1.00  0.00    -0.268 OA
ATOM      7  H   UNL A   1      33.974  29.478  25.039  1.00  0.00     0.163 HD
BRANCH   5   8
ATOM      8  C   UNL A   1      32.448  27.243  23.002  1.00  0.00     0.304 C 
BRANCH   8   9
ATOM      9  N   UNL A   1      32.813  26.711  21.663  1.00  0.00    -0.326 N 
ATOM     10  H   UNL A   1      32.307  27.238  20.951  1.00  0.00     0.347 HD
ATOM     11  H   UNL A   1      33.822  26.811  21.551  1.00  0.00     0.347 HD
BRANCH   9  12
ATOM     12  C   UNL A   1      32.486  25.298  21.520  1.00  0.00     0.330 C 
BRANCH  12  13
ATOM     13  C   UNL A   1      33.198  24.360  22.455  1.00  0.00     0.148 A 
ATOM     14  C   UNL A   1      36.281  22.824  23.475  1.00  0.00     0.068 C 
ATOM     15  C   UNL A   1      34.836  23.123  23.292  1.00  0.00     0.052 A 
ATOM     16  N   UNL A   1      34.505  24.244  22.550  1.00  0.00    -0.240 NA
ATOM     17  C   UNL A   1      33.756  22.380  23.742  1.00  0.00     0.025 A 
ATOM     18  S   UNL A   1      32.297  23.172  23.318  1.00  0.00    -0.118 S 
ATOM     19  C   UNL A   1      33.735  21.087  24.479  1.00  0.00     0.058 C 
ENDBRANCH  12  13
ENDBRANCH   9  12
ENDBRANCH   8   9
BRANCH   8  20
ATOM     20  C   UNL A   1      31.075  27.921  22.921  1.00  0.00     0.019 A 
ATOM     21  C   UNL A   1      30.944  29.241  22.447  1.00  0.00     0.010 A 
ATOM     22  C   UNL A   1      29.912  27.253  23.339  1.00  0.00     0.010 A 
ATOM     23  C   UNL A   1      29.704  29.880  22.415  1.00  0.00     0.001 A 
ATOM     24  C   UNL A   1      28.668  27.893  23.299  1.00  0.00     0.001 A 
ATOM     25  C   UNL A   1      28.566  29.206  22.843  1.00  0.00     0.000 A 
ENDBRANCH   8  20
ENDBRANCH   5   8
ENDBRANCH   3   4
ENDBRANCH   2   3
ENDBRANCH   1   2
BRANCH   1  26
ATOM     26  C   UNL A   1      31.398  30.763  26.262  1.00  0.00     0.002 C 
BRANCH  26  27
ATOM     27  C   UNL A   1      31.318  32.252  26.610  1.00  0.00     0.021 C 
BRANCH  27  28
ATOM     28  C   UNL A   1      32.628  32.879  27.084  1.00  0.00     0.116 C 
BRANCH  28  29
ATOM     29  N   UNL A   1      32.438  34.224  27.602  1.00  0.00    -0.352 N 
ATOM     30  C   UNL A   1      33.045  34.846  28.666  1.00  0.00     0.251 C 
ATOM     31  H   UNL A   1      31.777  34.770  27.120  1.00  0.00     0.163 HD
ATOM     32  O   UNL A   1      32.616  35.915  29.084  1.00  0.00    -0.269 OA
BRANCH  30  33
ATOM     33  C   UNL A   1      34.212  34.220  29.320  1.00  0.00     0.039 A 
ATOM     34  C   UNL A   1      33.999  33.321  30.370  1.00  0.00     0.014 A 
ATOM     35  C   UNL A   1      35.514  34.532  28.917  1.00  0.00     0.014 A 
ATOM     36  C   UNL A   1      35.088  32.692  30.977  1.00  0.00     0.010 A 
ATOM     37  C   UNL A   1      36.595  33.857  29.477  1.00  0.00     0.010 A 
ATOM     38  C   UNL A   1      36.392  32.934  30.516  1.00  0.00    -0.014 A 
BRANCH  38  39
ATOM     39  C   UNL A   1      37.560  32.234  31.108  1.00  0.00     0.031 A 
ATOM     40  C   UNL A   1      38.052  32.614  32.476  1.00  0.00     0.074 A 
ATOM     41  C   UNL A   1      38.214  31.303  30.389  1.00  0.00     0.049 A 
ATOM     42  N   UNL A   1      39.091  32.170  33.137  1.00  0.00    -0.248 NA
ATOM     43  C   UNL A   1      37.290  33.653  33.186  1.00  0.00     0.031 C 
ATOM     44  C   UNL A   1      37.857  30.875  29.036  1.00  0.00     0.029 A 
ATOM     45  N   UNL A   1      39.324  30.555  30.693  1.00  0.00    -0.354 N 
ATOM     46  C   UNL A   1      39.118  32.885  34.326  1.00  0.00     0.074 A 
ATOM     47  C   UNL A   1      38.020  33.827  34.277  1.00  0.00     0.031 C 
ATOM     48  C   UNL A   1      38.713  29.921  28.637  1.00  0.00     0.029 A 
ATOM     49  C   UNL A   1      39.701  29.697  29.689  1.00  0.00     0.049 A 
ATOM     50  H   UNL A   1      39.805  30.627  31.549  1.00  0.00     0.167 HD
ATOM     51  C   UNL A   1      39.968  32.755  35.373  1.00  0.00     0.037 A 
ATOM     52  C   UNL A   1      40.729  28.830  29.626  1.00  0.00     0.037 A 
ATOM     53  C   UNL A   1      41.040  31.796  35.431  1.00  0.00     0.049 A 
ATOM     54  C   UNL A   1      41.667  28.714  30.797  1.00  0.00     0.074 A 
ATOM     55  C   UNL A   1      41.909  31.533  36.475  1.00  0.00     0.029 A 
ATOM     56  N   UNL A   1      41.390  30.941  34.394  1.00  0.00    -0.354 N 
ATOM     57  N   UNL A   1      41.640  29.345  31.945  1.00  0.00    -0.248 NA
ATOM     58  C   UNL A   1      42.778  27.761  30.661  1.00  0.00     0.031 C 
ATOM     59  C   UNL A   1      42.814  30.552  36.054  1.00  0.00     0.029 A 
ATOM     60  C   UNL A   1      42.480  30.170  34.765  1.00  0.00     0.049 A 
ATOM     61  H   UNL A   1      40.932  30.891  33.524  1.00  0.00     0.167 HD
ATOM     62  C   UNL A   1      42.707  28.846  32.680  1.00  0.00     0.074 A 
ATOM     63  C   UNL A   1      43.357  27.852  31.850  1.00  0.00     0.031 C 
ATOM     64  C   UNL A   1      43.110  29.180  33.930  1.00  0.00     0.037 A 
BRANCH  51  65
ATOM     65  C   UNL A   1      39.771  33.677  36.541  1.00  0.00     0.064 A 
ATOM     66  C   UNL A   1      40.423  34.917  36.619  1.00  0.00     0.173 A 
ATOM     67  C   UNL A   1      38.907  33.324  37.588  1.00  0.00     0.173 A 
ATOM     68  F   UNL A   1      41.269  35.298  35.651  1.00  0.00    -0.203 F 
ATOM     69  C   UNL A   1      40.245  35.752  37.720  1.00  0.00     0.198 A 
ATOM     70  C   UNL A   1      38.707  34.175  38.672  1.00  0.00     0.198 A 
ATOM     71  F   UNL A   1      38.254  32.153  37.561  1.00  0.00    -0.203 F 
ATOM     72  F   UNL A   1      40.922  36.907  37.799  1.00  0.00    -0.200 F 
ATOM     73  C   UNL A   1      39.384  35.383  38.742  1.00  0.00     0.200 A 
ATOM     74  F   UNL A   1      37.866  33.822  39.654  1.00  0.00    -0.200 F 
ATOM     75  F   UNL A   1      39.213  36.189  39.799  1.00  0.00    -0.200 F 
ENDBRANCH  51  65
BRANCH  52  76
ATOM     76  C   UNL A   1      40.903  27.974  28.426  1.00  0.00     0.064 A 
ATOM     77  C   UNL A   1      40.304  26.707  28.360  1.00  0.00     0.173 A 
ATOM     78  C   UNL A   1      41.659  28.396  27.323  1.00  0.00     0.173 A 
ATOM     79  F   UNL A   1      39.588  26.253  29.400  1.00  0.00    -0.203 F 
ATOM     80  C   UNL A   1      40.468  25.890  27.245  1.00  0.00     0.198 A 
ATOM     81  C   UNL A   1      41.802  27.587  26.197  1.00  0.00     0.198 A 
ATOM     82  F   UNL A   1      42.250  29.601  27.335  1.00  0.00    -0.203 F 
ATOM     83  F   UNL A   1      39.916  24.669  27.225  1.00  0.00    -0.200 F 
ATOM     84  C   UNL A   1      41.212  26.333  26.161  1.00  0.00     0.200 A 
ATOM     85  F   UNL A   1      42.510  28.024  25.147  1.00  0.00    -0.200 F 
ATOM     86  F   UNL A   1      41.365  25.548  25.086  1.00  0.00    -0.200 F 
ENDBRANCH  52  76
BRANCH  64  87
ATOM     87  C   UNL A   1      44.287  28.438  34.493  1.00  0.00     0.064 A 
ATOM     88  C   UNL A   1      45.594  28.931  34.371  1.00  0.00     0.173 A 
ATOM     89  C   UNL A   1      44.099  27.236  35.193  1.00  0.00     0.173 A 
ATOM     90  F   UNL A   1      45.827  30.066  33.695  1.00  0.00    -0.203 F 
ATOM     91  C   UNL A   1      46.673  28.237  34.912  1.00  0.00     0.198 A 
ATOM     92  C   UNL A   1      45.177  26.560  35.757  1.00  0.00     0.198 A 
ATOM     93  F   UNL A   1      42.868  26.726  35.342  1.00  0.00    -0.203 F 
ATOM     94  F   UNL A   1      47.918  28.703  34.745  1.00  0.00    -0.200 F 
ATOM     95  C   UNL A   1      46.464  27.056  35.610  1.00  0.00     0.200 A 
ATOM     96  F   UNL A   1      44.971  25.426  36.442  1.00  0.00    -0.200 F 
ATOM     97  F   UNL A   1      47.503  26.393  36.135  1.00  0.00    -0.200 F 
ENDBRANCH  64  87
ENDBRANCH  38  39
ENDBRANCH  30  33
ENDBRANCH  28  29
ENDBRANCH  27  28
ENDBRANCH  26  27
ENDBRANCH   1  26
TORSDOF 17
ENDMDL
