MODEL 1
REMARK VINA RESULT:     -11.6      0.000      0.000
REMARK SMILES C[C@H]([NH2+]CC1(O)CCCC1)[C@H](C)C(=O)NCCCCCCNC(=O)c1ccc(-c2c3nc(c(-c4c(F)c(F)c(F)c(F)c4F)c4ccc([nH]4)c(-c4c(F)c(F)c(F)c(F)c4F)c4nc(c(-c5c(F)c(F)c(F)c(F)c5F)c5ccc2[nH]5)C=C4)C=C3)cc1
REMARK SMILES IDX 17 1 16 2 15 3 13 4 14 5 11 7 12 8 2 9 1 10 3 11 4 14 5 15
REMARK SMILES IDX 7 16 10 17 8 18 9 19 6 20 18 22 19 23 20 24 21 25 22 26
REMARK SMILES IDX 23 27 24 29 25 30 26 31 87 32 27 33 86 34 28 35 29 36 30 37
REMARK SMILES IDX 80 38 31 39 85 40 79 41 81 42 32 43 84 44 78 45 77 46 33 48
REMARK SMILES IDX 65 49 45 50 64 51 46 52 49 53 63 54 82 55 47 56 48 57 62 59
REMARK SMILES IDX 83 60 50 61 34 62 35 63 43 64 36 65 37 66 41 67 44 68 38 69
REMARK SMILES IDX 39 70 42 71 40 72 66 73 67 74 75 75 68 76 69 77 73 78 76 79
REMARK SMILES IDX 70 80 71 81 74 82 72 83 51 84 52 85 60 86 53 87 54 88 58 89
REMARK SMILES IDX 61 90 55 91 56 92 59 93 57 94
REMARK H PARENT 15 6 3 12 3 13 6 21 22 28 81 47 49 58
REMARK Flexibility Score: inf
ROOT
ATOM      1  C   UNL A   1      33.424  28.638  26.519  1.00  0.00     0.021 C 
ENDROOT
BRANCH   1   2
ATOM      2  C   UNL A   1      33.076  27.163  26.648  1.00  0.00     0.116 C 
BRANCH   2   3
ATOM      3  N   UNL A   1      31.929  26.785  25.848  1.00  0.00    -0.356 N 
ATOM      4  C   UNL A   1      31.875  26.314  24.572  1.00  0.00     0.228 C 
ATOM      5  O   UNL A   1      30.790  25.897  24.161  1.00  0.00    -0.275 OA
ATOM      6  H   UNL A   1      31.057  26.885  26.294  1.00  0.00     0.163 HD
BRANCH   4   7
ATOM      7  C   UNL A   1      33.099  26.326  23.664  1.00  0.00     0.133 C 
ATOM      8  C   UNL A   1      33.473  24.894  23.257  1.00  0.00     0.024 C 
BRANCH   7   9
ATOM      9  C   UNL A   1      33.134  27.481  22.604  1.00  0.00     0.191 C 
ATOM     10  C   UNL A   1      34.180  28.594  22.733  1.00  0.00     0.076 C 
BRANCH   9  11
ATOM     11  N   UNL A   1      31.825  28.012  22.172  1.00  0.00    -0.341 N 
ATOM     12  H   UNL A   1      31.144  27.255  22.231  1.00  0.00     0.346 HD
ATOM     13  H   UNL A   1      31.964  28.367  21.226  1.00  0.00     0.346 HD
BRANCH  11  14
ATOM     14  C   UNL A   1      31.312  29.143  22.955  1.00  0.00     0.296 C 
BRANCH  14  15
ATOM     15  C   UNL A   1      29.863  29.586  22.631  1.00  0.00     0.113 C 
ATOM     16  C   UNL A   1      29.335  30.770  23.448  1.00  0.00     0.041 C 
ATOM     17  C   UNL A   1      28.823  28.500  22.896  1.00  0.00     0.041 C 
ATOM     18  C   UNL A   1      27.814  30.690  23.317  1.00  0.00     0.003 C 
ATOM     19  C   UNL A   1      27.490  29.248  22.926  1.00  0.00     0.003 C 
BRANCH  15  20
ATOM     20  O   UNL A   1      29.842  29.934  21.236  1.00  0.00    -0.384 OA
ATOM     21  H   UNL A   1      30.740  29.878  20.874  1.00  0.00     0.211 HD
ENDBRANCH  15  20
ENDBRANCH  14  15
ENDBRANCH  11  14
ENDBRANCH   9  11
ENDBRANCH   7   9
ENDBRANCH   4   7
ENDBRANCH   2   3
ENDBRANCH   1   2
BRANCH   1  22
ATOM     22  C   UNL A   1      32.377  29.578  27.124  1.00  0.00     0.002 C 
BRANCH  22  23
ATOM     23  C   UNL A   1      31.773  30.599  26.152  1.00  0.00     0.002 C 
BRANCH  23  24
ATOM     24  C   UNL A   1      31.480  31.979  26.748  1.00  0.00     0.021 C 
BRANCH  24  25
ATOM     25  C   UNL A   1      32.710  32.735  27.237  1.00  0.00     0.116 C 
BRANCH  25  26
ATOM     26  N   UNL A   1      32.407  34.116  27.575  1.00  0.00    -0.352 N 
ATOM     27  C   UNL A   1      32.945  34.920  28.546  1.00  0.00     0.251 C 
ATOM     28  H   UNL A   1      31.710  34.538  27.022  1.00  0.00     0.163 HD
ATOM     29  O   UNL A   1      32.434  36.001  28.809  1.00  0.00    -0.269 OA
BRANCH  27  30
ATOM     30  C   UNL A   1      34.134  34.465  29.298  1.00  0.00     0.039 A 
ATOM     31  C   UNL A   1      33.951  33.903  30.563  1.00  0.00     0.014 A 
ATOM     32  C   UNL A   1      35.416  34.583  28.755  1.00  0.00     0.014 A 
ATOM     33  C   UNL A   1      35.049  33.388  31.253  1.00  0.00     0.010 A 
ATOM     34  C   UNL A   1      36.499  34.006  29.413  1.00  0.00     0.010 A 
ATOM     35  C   UNL A   1      36.323  33.393  30.662  1.00  0.00    -0.014 A 
BRANCH  35  36
ATOM     36  C   UNL A   1      37.468  32.712  31.315  1.00  0.00     0.031 A 
ATOM     37  C   UNL A   1      38.136  31.538  30.658  1.00  0.00     0.074 A 
ATOM     38  C   UNL A   1      37.858  33.114  32.541  1.00  0.00     0.049 A 
ATOM     39  N   UNL A   1      39.105  30.781  31.108  1.00  0.00    -0.248 NA
ATOM     40  C   UNL A   1      37.635  31.149  29.331  1.00  0.00     0.031 C 
ATOM     41  C   UNL A   1      37.253  34.212  33.298  1.00  0.00     0.029 A 
ATOM     42  N   UNL A   1      38.843  32.641  33.371  1.00  0.00    -0.354 N 
ATOM     43  C   UNL A   1      39.325  29.826  30.125  1.00  0.00     0.074 A 
ATOM     44  C   UNL A   1      38.354  30.064  29.079  1.00  0.00     0.031 C 
ATOM     45  C   UNL A   1      37.894  34.342  34.470  1.00  0.00     0.029 A 
ATOM     46  C   UNL A   1      38.919  33.308  34.570  1.00  0.00     0.049 A 
ATOM     47  H   UNL A   1      39.438  31.895  33.131  1.00  0.00     0.167 HD
ATOM     48  C   UNL A   1      40.265  28.851  30.093  1.00  0.00     0.037 A 
ATOM     49  C   UNL A   1      39.712  33.099  35.636  1.00  0.00     0.037 A 
ATOM     50  C   UNL A   1      41.234  28.627  31.136  1.00  0.00     0.049 A 
ATOM     51  C   UNL A   1      40.722  31.984  35.590  1.00  0.00     0.074 A 
ATOM     52  C   UNL A   1      42.272  27.711  31.165  1.00  0.00     0.029 A 
ATOM     53  N   UNL A   1      41.275  29.316  32.339  1.00  0.00    -0.354 N 
ATOM     54  N   UNL A   1      40.978  31.141  34.619  1.00  0.00    -0.248 NA
ATOM     55  C   UNL A   1      41.551  31.791  36.787  1.00  0.00     0.031 C 
ATOM     56  C   UNL A   1      42.898  27.802  32.412  1.00  0.00     0.029 A 
ATOM     57  C   UNL A   1      42.291  28.814  33.138  1.00  0.00     0.049 A 
ATOM     58  H   UNL A   1      40.670  30.052  32.590  1.00  0.00     0.167 HD
ATOM     59  C   UNL A   1      42.005  30.330  35.080  1.00  0.00     0.074 A 
ATOM     60  C   UNL A   1      42.344  30.799  36.408  1.00  0.00     0.031 C 
ATOM     61  C   UNL A   1      42.609  29.285  34.462  1.00  0.00     0.037 A 
BRANCH  48  62
ATOM     62  C   UNL A   1      40.291  27.946  28.895  1.00  0.00     0.064 A 
ATOM     63  C   UNL A   1      41.039  28.257  27.748  1.00  0.00     0.173 A 
ATOM     64  C   UNL A   1      39.595  26.727  28.909  1.00  0.00     0.173 A 
ATOM     65  F   UNL A   1      41.716  29.413  27.678  1.00  0.00    -0.203 F 
ATOM     66  C   UNL A   1      41.064  27.400  26.652  1.00  0.00     0.198 A 
ATOM     67  C   UNL A   1      39.650  25.856  27.824  1.00  0.00     0.198 A 
ATOM     68  F   UNL A   1      38.870  26.373  29.981  1.00  0.00    -0.203 F 
ATOM     69  F   UNL A   1      41.745  27.744  25.550  1.00  0.00    -0.200 F 
ATOM     70  C   UNL A   1      40.377  26.196  26.694  1.00  0.00     0.200 A 
ATOM     71  F   UNL A   1      38.998  24.686  27.872  1.00  0.00    -0.200 F 
ATOM     72  F   UNL A   1      40.410  25.366  25.642  1.00  0.00    -0.200 F 
ENDBRANCH  48  62
BRANCH  49  73
ATOM     73  C   UNL A   1      39.583  33.964  36.838  1.00  0.00     0.064 A 
ATOM     74  C   UNL A   1      38.801  33.567  37.932  1.00  0.00     0.173 A 
ATOM     75  C   UNL A   1      40.235  35.204  36.919  1.00  0.00     0.173 A 
ATOM     76  F   UNL A   1      38.141  32.400  37.895  1.00  0.00    -0.203 F 
ATOM     77  C   UNL A   1      38.662  34.385  39.052  1.00  0.00     0.198 A 
ATOM     78  C   UNL A   1      40.120  36.006  38.053  1.00  0.00     0.198 A 
ATOM     79  F   UNL A   1      40.998  35.630  35.902  1.00  0.00    -0.203 F 
ATOM     80  F   UNL A   1      37.871  34.002  40.063  1.00  0.00    -0.200 F 
ATOM     81  C   UNL A   1      39.327  35.600  39.114  1.00  0.00     0.200 A 
ATOM     82  F   UNL A   1      40.779  37.171  38.115  1.00  0.00    -0.200 F 
ATOM     83  F   UNL A   1      39.197  36.383  40.194  1.00  0.00    -0.200 F 
ENDBRANCH  49  73
BRANCH  61  84
ATOM     84  C   UNL A   1      43.703  28.579  35.214  1.00  0.00     0.064 A 
ATOM     85  C   UNL A   1      45.048  28.944  35.062  1.00  0.00     0.173 A 
ATOM     86  C   UNL A   1      43.397  27.560  36.130  1.00  0.00     0.173 A 
ATOM     87  F   UNL A   1      45.394  29.900  34.187  1.00  0.00    -0.203 F 
ATOM     88  C   UNL A   1      46.050  28.299  35.782  1.00  0.00     0.198 A 
ATOM     89  C   UNL A   1      44.398  26.942  36.873  1.00  0.00     0.198 A 
ATOM     90  F   UNL A   1      42.125  27.178  36.317  1.00  0.00    -0.203 F 
ATOM     91  F   UNL A   1      47.333  28.631  35.586  1.00  0.00    -0.200 F 
ATOM     92  C   UNL A   1      45.724  27.306  36.693  1.00  0.00     0.200 A 
ATOM     93  F   UNL A   1      44.080  25.993  37.765  1.00  0.00    -0.200 F 
ATOM     94  F   UNL A   1      46.688  26.695  37.395  1.00  0.00    -0.200 F 
ENDBRANCH  61  84
ENDBRANCH  35  36
ENDBRANCH  27  30
ENDBRANCH  25  26
ENDBRANCH  24  25
ENDBRANCH  23  24
ENDBRANCH  22  23
ENDBRANCH   1  22
TORSDOF 18
ENDMDL
MODEL 2
REMARK VINA RESULT:     -11.4      6.230     11.710
REMARK SMILES C[C@H]([NH2+]CC1(O)CCCC1)[C@H](C)C(=O)NCCCCCCNC(=O)c1ccc(-c2c3nc(c(-c4c(F)c(F)c(F)c(F)c4F)c4ccc([nH]4)c(-c4c(F)c(F)c(F)c(F)c4F)c4nc(c(-c5c(F)c(F)c(F)c(F)c5F)c5ccc2[nH]5)C=C4)C=C3)cc1
REMARK SMILES IDX 17 1 16 2 15 3 13 4 14 5 11 7 12 8 2 9 1 10 3 11 4 14 5 15
REMARK SMILES IDX 7 16 10 17 8 18 9 19 6 20 18 22 19 23 20 24 21 25 22 26
REMARK SMILES IDX 23 27 24 29 25 30 26 31 87 32 27 33 86 34 28 35 29 36 30 37
REMARK SMILES IDX 80 38 31 39 85 40 79 41 81 42 32 43 84 44 78 45 77 46 33 48
REMARK SMILES IDX 65 49 45 50 64 51 46 52 49 53 63 54 82 55 47 56 48 57 62 59
REMARK SMILES IDX 83 60 50 61 34 62 35 63 43 64 36 65 37 66 41 67 44 68 38 69
REMARK SMILES IDX 39 70 42 71 40 72 66 73 67 74 75 75 68 76 69 77 73 78 76 79
REMARK SMILES IDX 70 80 71 81 74 82 72 83 51 84 52 85 60 86 53 87 54 88 58 89
REMARK SMILES IDX 61 90 55 91 56 92 59 93 57 94
REMARK H PARENT 15 6 3 12 3 13 6 21 22 28 81 47 49 58
REMARK Flexibility Score: inf
ROOT
ATOM      1  C   UNL A   1      36.273  23.239  25.413  1.00  0.00     0.021 C 
ENDROOT
BRANCH   1   2
ATOM      2  C   UNL A   1      35.582  24.132  24.393  1.00  0.00     0.116 C 
BRANCH   2   3
ATOM      3  N   UNL A   1      34.548  23.441  23.650  1.00  0.00    -0.356 N 
ATOM      4  C   UNL A   1      33.244  23.223  23.973  1.00  0.00     0.228 C 
ATOM      5  O   UNL A   1      32.509  22.756  23.100  1.00  0.00    -0.275 OA
ATOM      6  H   UNL A   1      34.832  23.074  22.782  1.00  0.00     0.163 HD
BRANCH   4   7
ATOM      7  C   UNL A   1      32.707  23.511  25.370  1.00  0.00     0.133 C 
ATOM      8  C   UNL A   1      31.621  24.594  25.309  1.00  0.00     0.024 C 
BRANCH   7   9
ATOM      9  C   UNL A   1      32.516  22.253  26.286  1.00  0.00     0.191 C 
ATOM     10  C   UNL A   1      33.458  22.034  27.476  1.00  0.00     0.076 C 
BRANCH   9  11
ATOM     11  N   UNL A   1      32.205  20.984  25.597  1.00  0.00    -0.341 N 
ATOM     12  H   UNL A   1      32.023  21.195  24.616  1.00  0.00     0.346 HD
ATOM     13  H   UNL A   1      31.406  20.587  26.088  1.00  0.00     0.346 HD
BRANCH  11  14
ATOM     14  C   UNL A   1      33.259  19.962  25.650  1.00  0.00     0.296 C 
BRANCH  14  15
ATOM     15  C   UNL A   1      33.032  18.714  24.759  1.00  0.00     0.113 C 
ATOM     16  C   UNL A   1      34.293  17.918  24.404  1.00  0.00     0.041 C 
ATOM     17  C   UNL A   1      32.444  19.045  23.389  1.00  0.00     0.041 C 
ATOM     18  C   UNL A   1      33.903  17.092  23.179  1.00  0.00     0.003 C 
ATOM     19  C   UNL A   1      32.698  17.791  22.553  1.00  0.00     0.003 C 
BRANCH  15  20
ATOM     20  O   UNL A   1      32.124  17.859  25.472  1.00  0.00    -0.384 OA
ATOM     21  H   UNL A   1      31.740  17.211  24.860  1.00  0.00     0.211 HD
ENDBRANCH  15  20
ENDBRANCH  14  15
ENDBRANCH  11  14
ENDBRANCH   9  11
ENDBRANCH   7   9
ENDBRANCH   4   7
ENDBRANCH   2   3
ENDBRANCH   1   2
BRANCH   1  22
ATOM     22  C   UNL A   1      37.241  22.226  24.796  1.00  0.00     0.002 C 
BRANCH  22  23
ATOM     23  C   UNL A   1      36.854  20.753  24.976  1.00  0.00     0.002 C 
BRANCH  23  24
ATOM     24  C   UNL A   1      38.017  19.758  24.929  1.00  0.00     0.021 C 
BRANCH  24  25
ATOM     25  C   UNL A   1      39.252  20.183  25.715  1.00  0.00     0.116 C 
BRANCH  25  26
ATOM     26  N   UNL A   1      40.210  19.100  25.859  1.00  0.00    -0.352 N 
ATOM     27  C   UNL A   1      41.561  19.149  26.092  1.00  0.00     0.251 C 
ATOM     28  H   UNL A   1      39.832  18.194  25.779  1.00  0.00     0.163 HD
ATOM     29  O   UNL A   1      42.242  18.136  25.997  1.00  0.00    -0.269 OA
BRANCH  27  30
ATOM     30  C   UNL A   1      42.199  20.438  26.432  1.00  0.00     0.039 A 
ATOM     31  C   UNL A   1      42.752  21.203  25.403  1.00  0.00     0.014 A 
ATOM     32  C   UNL A   1      42.244  20.892  27.753  1.00  0.00     0.014 A 
ATOM     33  C   UNL A   1      43.282  22.462  25.688  1.00  0.00     0.010 A 
ATOM     34  C   UNL A   1      42.708  22.175  28.026  1.00  0.00     0.010 A 
ATOM     35  C   UNL A   1      43.220  22.977  26.994  1.00  0.00    -0.014 A 
BRANCH  35  36
ATOM     36  C   UNL A   1      43.637  24.371  27.284  1.00  0.00     0.031 A 
ATOM     37  C   UNL A   1      42.642  25.379  27.784  1.00  0.00     0.074 A 
ATOM     38  C   UNL A   1      44.906  24.743  27.024  1.00  0.00     0.049 A 
ATOM     39  N   UNL A   1      42.810  26.654  28.028  1.00  0.00    -0.248 NA
ATOM     40  C   UNL A   1      41.273  24.897  28.019  1.00  0.00     0.031 C 
ATOM     41  C   UNL A   1      45.949  23.863  26.492  1.00  0.00     0.029 A 
ATOM     42  N   UNL A   1      45.532  25.957  27.159  1.00  0.00    -0.354 N 
ATOM     43  C   UNL A   1      41.571  27.126  28.439  1.00  0.00     0.074 A 
ATOM     44  C   UNL A   1      40.648  26.015  28.360  1.00  0.00     0.031 C 
ATOM     45  C   UNL A   1      47.089  24.560  26.367  1.00  0.00     0.029 A 
ATOM     46  C   UNL A   1      46.847  25.944  26.761  1.00  0.00     0.049 A 
ATOM     47  H   UNL A   1      45.082  26.760  27.509  1.00  0.00     0.167 HD
ATOM     48  C   UNL A   1      41.241  28.371  28.861  1.00  0.00     0.037 A 
ATOM     49  C   UNL A   1      47.751  26.939  26.703  1.00  0.00     0.037 A 
ATOM     50  C   UNL A   1      42.170  29.469  28.944  1.00  0.00     0.049 A 
ATOM     51  C   UNL A   1      47.347  28.321  27.141  1.00  0.00     0.074 A 
ATOM     52  C   UNL A   1      41.950  30.748  29.426  1.00  0.00     0.029 A 
ATOM     53  N   UNL A   1      43.491  29.422  28.524  1.00  0.00    -0.354 N 
ATOM     54  N   UNL A   1      46.195  28.736  27.609  1.00  0.00    -0.248 NA
ATOM     55  C   UNL A   1      48.369  29.373  27.041  1.00  0.00     0.031 C 
ATOM     56  C   UNL A   1      43.119  31.493  29.234  1.00  0.00     0.029 A 
ATOM     57  C   UNL A   1      44.086  30.663  28.691  1.00  0.00     0.049 A 
ATOM     58  H   UNL A   1      43.940  28.625  28.159  1.00  0.00     0.167 HD
ATOM     59  C   UNL A   1      46.356  30.089  27.873  1.00  0.00     0.074 A 
ATOM     60  C   UNL A   1      47.727  30.419  27.539  1.00  0.00     0.031 C 
ATOM     61  C   UNL A   1      45.448  30.980  28.344  1.00  0.00     0.037 A 
BRANCH  48  62
ATOM     62  C   UNL A   1      39.815  28.617  29.260  1.00  0.00     0.064 A 
ATOM     63  C   UNL A   1      39.371  28.423  30.577  1.00  0.00     0.173 A 
ATOM     64  C   UNL A   1      38.886  29.097  28.323  1.00  0.00     0.173 A 
ATOM     65  F   UNL A   1      40.214  27.957  31.512  1.00  0.00    -0.203 F 
ATOM     66  C   UNL A   1      38.048  28.670  30.935  1.00  0.00     0.198 A 
ATOM     67  C   UNL A   1      37.573  29.375  28.690  1.00  0.00     0.198 A 
ATOM     68  F   UNL A   1      39.256  29.308  27.051  1.00  0.00    -0.203 F 
ATOM     69  F   UNL A   1      37.638  28.429  32.187  1.00  0.00    -0.200 F 
ATOM     70  C   UNL A   1      37.152  29.154  29.993  1.00  0.00     0.200 A 
ATOM     71  F   UNL A   1      36.712  29.858  27.783  1.00  0.00    -0.200 F 
ATOM     72  F   UNL A   1      35.881  29.401  30.340  1.00  0.00    -0.200 F 
ENDBRANCH  48  62
BRANCH  49  73
ATOM     73  C   UNL A   1      49.126  26.664  26.209  1.00  0.00     0.064 A 
ATOM     74  C   UNL A   1      49.478  26.916  24.876  1.00  0.00     0.173 A 
ATOM     75  C   UNL A   1      50.116  26.145  27.057  1.00  0.00     0.173 A 
ATOM     76  F   UNL A   1      48.562  27.393  24.020  1.00  0.00    -0.203 F 
ATOM     77  C   UNL A   1      50.761  26.641  24.405  1.00  0.00     0.198 A 
ATOM     78  C   UNL A   1      51.406  25.901  26.594  1.00  0.00     0.198 A 
ATOM     79  F   UNL A   1      49.833  25.889  28.343  1.00  0.00    -0.203 F 
ATOM     80  F   UNL A   1      51.056  26.846  23.115  1.00  0.00    -0.200 F 
ATOM     81  C   UNL A   1      51.726  26.140  25.266  1.00  0.00     0.200 A 
ATOM     82  F   UNL A   1      52.339  25.433  27.434  1.00  0.00    -0.200 F 
ATOM     83  F   UNL A   1      52.960  25.881  24.814  1.00  0.00    -0.200 F 
ENDBRANCH  49  73
BRANCH  61  84
ATOM     84  C   UNL A   1      45.909  32.398  28.531  1.00  0.00     0.064 A 
ATOM     85  C   UNL A   1      45.748  33.358  27.522  1.00  0.00     0.173 A 
ATOM     86  C   UNL A   1      46.475  32.810  29.747  1.00  0.00     0.173 A 
ATOM     87  F   UNL A   1      45.228  33.011  26.335  1.00  0.00    -0.203 F 
ATOM     88  C   UNL A   1      46.157  34.675  27.716  1.00  0.00     0.198 A 
ATOM     89  C   UNL A   1      46.851  34.135  29.949  1.00  0.00     0.198 A 
ATOM     90  F   UNL A   1      46.646  31.932  30.746  1.00  0.00    -0.203 F 
ATOM     91  F   UNL A   1      46.036  35.565  26.721  1.00  0.00    -0.200 F 
ATOM     92  C   UNL A   1      46.699  35.064  28.931  1.00  0.00     0.200 A 
ATOM     93  F   UNL A   1      47.361  34.513  31.129  1.00  0.00    -0.200 F 
ATOM     94  F   UNL A   1      47.081  36.335  29.120  1.00  0.00    -0.200 F 
ENDBRANCH  61  84
ENDBRANCH  35  36
ENDBRANCH  27  30
ENDBRANCH  25  26
ENDBRANCH  24  25
ENDBRANCH  23  24
ENDBRANCH  22  23
ENDBRANCH   1  22
TORSDOF 18
ENDMDL
MODEL 3
REMARK VINA RESULT:     -11.4      0.873      7.461
REMARK SMILES C[C@H]([NH2+]CC1(O)CCCC1)[C@H](C)C(=O)NCCCCCCNC(=O)c1ccc(-c2c3nc(c(-c4c(F)c(F)c(F)c(F)c4F)c4ccc([nH]4)c(-c4c(F)c(F)c(F)c(F)c4F)c4nc(c(-c5c(F)c(F)c(F)c(F)c5F)c5ccc2[nH]5)C=C4)C=C3)cc1
REMARK SMILES IDX 17 1 16 2 15 3 13 4 14 5 11 7 12 8 2 9 1 10 3 11 4 14 5 15
REMARK SMILES IDX 7 16 10 17 8 18 9 19 6 20 18 22 19 23 20 24 21 25 22 26
REMARK SMILES IDX 23 27 24 29 25 30 26 31 87 32 27 33 86 34 28 35 29 36 30 37
REMARK SMILES IDX 80 38 31 39 85 40 79 41 81 42 32 43 84 44 78 45 77 46 33 48
REMARK SMILES IDX 65 49 45 50 64 51 46 52 49 53 63 54 82 55 47 56 48 57 62 59
REMARK SMILES IDX 83 60 50 61 34 62 35 63 43 64 36 65 37 66 41 67 44 68 38 69
REMARK SMILES IDX 39 70 42 71 40 72 66 73 67 74 75 75 68 76 69 77 73 78 76 79
REMARK SMILES IDX 70 80 71 81 74 82 72 83 51 84 52 85 60 86 53 87 54 88 58 89
REMARK SMILES IDX 61 90 55 91 56 92 59 93 57 94
REMARK H PARENT 15 6 3 12 3 13 6 21 22 28 81 47 49 58
REMARK Flexibility Score: inf
ROOT
ATOM      1  C   UNL A   1      33.494  29.003  26.758  1.00  0.00     0.021 C 
ENDROOT
BRANCH   1   2
ATOM      2  C   UNL A   1      33.276  27.527  26.460  1.00  0.00     0.116 C 
BRANCH   2   3
ATOM      3  N   UNL A   1      31.907  27.107  26.672  1.00  0.00    -0.356 N 
ATOM      4  C   UNL A   1      31.109  26.320  25.898  1.00  0.00     0.228 C 
ATOM      5  O   UNL A   1      30.029  25.959  26.371  1.00  0.00    -0.275 OA
ATOM      6  H   UNL A   1      31.490  27.441  27.499  1.00  0.00     0.163 HD
BRANCH   4   7
ATOM      7  C   UNL A   1      31.511  25.921  24.483  1.00  0.00     0.133 C 
ATOM      8  C   UNL A   1      31.698  24.400  24.394  1.00  0.00     0.024 C 
BRANCH   7   9
ATOM      9  C   UNL A   1      30.775  26.694  23.335  1.00  0.00     0.191 C 
ATOM     10  C   UNL A   1      31.375  26.701  21.924  1.00  0.00     0.076 C 
BRANCH   9  11
ATOM     11  N   UNL A   1      30.208  28.010  23.692  1.00  0.00    -0.341 N 
ATOM     12  H   UNL A   1      30.964  28.694  23.674  1.00  0.00     0.346 HD
ATOM     13  H   UNL A   1      29.782  27.892  24.611  1.00  0.00     0.346 HD
BRANCH  11  14
ATOM     14  C   UNL A   1      29.138  28.497  22.813  1.00  0.00     0.296 C 
BRANCH  14  15
ATOM     15  C   UNL A   1      29.254  29.976  22.365  1.00  0.00     0.113 C 
ATOM     16  C   UNL A   1      29.081  31.019  23.475  1.00  0.00     0.041 C 
ATOM     17  C   UNL A   1      28.194  30.387  21.346  1.00  0.00     0.041 C 
ATOM     18  C   UNL A   1      28.747  32.318  22.744  1.00  0.00     0.003 C 
ATOM     19  C   UNL A   1      28.216  31.916  21.369  1.00  0.00     0.003 C 
BRANCH  15  20
ATOM     20  O   UNL A   1      30.559  30.127  21.781  1.00  0.00    -0.384 OA
ATOM     21  H   UNL A   1      31.092  29.339  21.970  1.00  0.00     0.211 HD
ENDBRANCH  15  20
ENDBRANCH  14  15
ENDBRANCH  11  14
ENDBRANCH   9  11
ENDBRANCH   7   9
ENDBRANCH   4   7
ENDBRANCH   2   3
ENDBRANCH   1   2
BRANCH   1  22
ATOM     22  C   UNL A   1      32.228  29.738  27.207  1.00  0.00     0.002 C 
BRANCH  22  23
ATOM     23  C   UNL A   1      31.649  30.730  26.191  1.00  0.00     0.002 C 
BRANCH  23  24
ATOM     24  C   UNL A   1      31.437  32.154  26.710  1.00  0.00     0.021 C 
BRANCH  24  25
ATOM     25  C   UNL A   1      32.695  32.837  27.233  1.00  0.00     0.116 C 
BRANCH  25  26
ATOM     26  N   UNL A   1      32.450  34.214  27.626  1.00  0.00    -0.352 N 
ATOM     27  C   UNL A   1      33.019  34.953  28.632  1.00  0.00     0.251 C 
ATOM     28  H   UNL A   1      31.776  34.688  27.089  1.00  0.00     0.163 HD
ATOM     29  O   UNL A   1      32.553  36.044  28.937  1.00  0.00    -0.269 OA
BRANCH  27  30
ATOM     30  C   UNL A   1      34.182  34.416  29.368  1.00  0.00     0.039 A 
ATOM     31  C   UNL A   1      33.963  33.764  30.583  1.00  0.00     0.014 A 
ATOM     32  C   UNL A   1      35.478  34.549  28.860  1.00  0.00     0.014 A 
ATOM     33  C   UNL A   1      35.036  33.173  31.251  1.00  0.00     0.010 A 
ATOM     34  C   UNL A   1      36.535  33.899  29.491  1.00  0.00     0.010 A 
ATOM     35  C   UNL A   1      36.322  33.196  30.686  1.00  0.00    -0.014 A 
BRANCH  35  36
ATOM     36  C   UNL A   1      37.440  32.443  31.305  1.00  0.00     0.031 A 
ATOM     37  C   UNL A   1      37.963  32.825  32.660  1.00  0.00     0.074 A 
ATOM     38  C   UNL A   1      38.031  31.454  30.605  1.00  0.00     0.049 A 
ATOM     39  N   UNL A   1      38.972  32.324  33.328  1.00  0.00    -0.248 NA
ATOM     40  C   UNL A   1      37.277  33.930  33.346  1.00  0.00     0.031 C 
ATOM     41  C   UNL A   1      37.641  31.025  29.261  1.00  0.00     0.029 A 
ATOM     42  N   UNL A   1      39.091  30.640  30.919  1.00  0.00    -0.354 N 
ATOM     43  C   UNL A   1      39.045  33.055  34.506  1.00  0.00     0.074 A 
ATOM     44  C   UNL A   1      38.014  34.068  34.439  1.00  0.00     0.031 C 
ATOM     45  C   UNL A   1      38.435  30.013  28.875  1.00  0.00     0.029 A 
ATOM     46  C   UNL A   1      39.419  29.756  29.921  1.00  0.00     0.049 A 
ATOM     47  H   UNL A   1      39.569  30.685  31.779  1.00  0.00     0.167 HD
ATOM     48  C   UNL A   1      39.885  32.881  35.554  1.00  0.00     0.037 A 
ATOM     49  C   UNL A   1      40.413  28.852  29.847  1.00  0.00     0.037 A 
ATOM     50  C   UNL A   1      40.903  31.863  35.615  1.00  0.00     0.049 A 
ATOM     51  C   UNL A   1      41.357  28.706  31.010  1.00  0.00     0.074 A 
ATOM     52  C   UNL A   1      41.757  31.561  36.661  1.00  0.00     0.029 A 
ATOM     53  N   UNL A   1      41.213  30.992  34.581  1.00  0.00    -0.354 N 
ATOM     54  N   UNL A   1      41.362  29.345  32.155  1.00  0.00    -0.248 NA
ATOM     55  C   UNL A   1      42.433  27.715  30.871  1.00  0.00     0.031 C 
ATOM     56  C   UNL A   1      42.627  30.552  36.236  1.00  0.00     0.029 A 
ATOM     57  C   UNL A   1      42.277  30.182  34.947  1.00  0.00     0.049 A 
ATOM     58  H   UNL A   1      40.747  30.955  33.714  1.00  0.00     0.167 HD
ATOM     59  C   UNL A   1      42.428  28.825  32.877  1.00  0.00     0.074 A 
ATOM     60  C   UNL A   1      43.030  27.798  32.051  1.00  0.00     0.031 C 
ATOM     61  C   UNL A   1      42.873  29.171  34.110  1.00  0.00     0.037 A 
BRANCH  48  62
ATOM     62  C   UNL A   1      39.746  33.815  36.722  1.00  0.00     0.064 A 
ATOM     63  C   UNL A   1      40.384  35.064  36.750  1.00  0.00     0.173 A 
ATOM     64  C   UNL A   1      38.925  33.476  37.810  1.00  0.00     0.173 A 
ATOM     65  F   UNL A   1      41.186  35.436  35.741  1.00  0.00    -0.203 F 
ATOM     66  C   UNL A   1      40.232  35.925  37.835  1.00  0.00     0.198 A 
ATOM     67  C   UNL A   1      38.748  34.352  38.876  1.00  0.00     0.198 A 
ATOM     68  F   UNL A   1      38.284  32.298  37.833  1.00  0.00    -0.203 F 
ATOM     69  F   UNL A   1      40.892  37.091  37.860  1.00  0.00    -0.200 F 
ATOM     70  C   UNL A   1      39.407  35.572  38.893  1.00  0.00     0.200 A 
ATOM     71  F   UNL A   1      37.939  34.017  39.891  1.00  0.00    -0.200 F 
ATOM     72  F   UNL A   1      39.254  36.405  39.931  1.00  0.00    -0.200 F 
ENDBRANCH  48  62
BRANCH  49  73
ATOM     73  C   UNL A   1      40.567  28.015  28.628  1.00  0.00     0.064 A 
ATOM     74  C   UNL A   1      41.374  28.435  27.562  1.00  0.00     0.173 A 
ATOM     75  C   UNL A   1      39.912  26.781  28.502  1.00  0.00     0.173 A 
ATOM     76  F   UNL A   1      42.005  29.618  27.625  1.00  0.00    -0.203 F 
ATOM     77  C   UNL A   1      41.504  27.663  26.409  1.00  0.00     0.198 A 
ATOM     78  C   UNL A   1      40.069  25.994  27.363  1.00  0.00     0.198 A 
ATOM     79  F   UNL A   1      39.131  26.330  29.495  1.00  0.00    -0.203 F 
ATOM     80  F   UNL A   1      42.244  28.110  25.386  1.00  0.00    -0.200 F 
ATOM     81  C   UNL A   1      40.858  26.439  26.314  1.00  0.00     0.200 A 
ATOM     82  F   UNL A   1      39.456  24.806  27.284  1.00  0.00    -0.200 F 
ATOM     83  F   UNL A   1      40.988  25.695  25.208  1.00  0.00    -0.200 F 
ENDBRANCH  49  73
BRANCH  61  84
ATOM     84  C   UNL A   1      44.066  28.431  34.644  1.00  0.00     0.064 A 
ATOM     85  C   UNL A   1      45.368  28.922  34.475  1.00  0.00     0.173 A 
ATOM     86  C   UNL A   1      43.902  27.242  35.373  1.00  0.00     0.173 A 
ATOM     87  F   UNL A   1      45.580  30.045  33.771  1.00  0.00    -0.203 F 
ATOM     88  C   UNL A   1      46.465  28.239  34.995  1.00  0.00     0.198 A 
ATOM     89  C   UNL A   1      44.997  26.581  35.921  1.00  0.00     0.198 A 
ATOM     90  F   UNL A   1      42.677  26.733  35.569  1.00  0.00    -0.203 F 
ATOM     91  F   UNL A   1      47.703  28.702  34.780  1.00  0.00    -0.200 F 
ATOM     92  C   UNL A   1      46.278  27.076  35.725  1.00  0.00     0.200 A 
ATOM     93  F   UNL A   1      44.813  25.465  36.640  1.00  0.00    -0.200 F 
ATOM     94  F   UNL A   1      47.333  26.426  36.236  1.00  0.00    -0.200 F 
ENDBRANCH  61  84
ENDBRANCH  35  36
ENDBRANCH  27  30
ENDBRANCH  25  26
ENDBRANCH  24  25
ENDBRANCH  23  24
ENDBRANCH  22  23
ENDBRANCH   1  22
TORSDOF 18
ENDMDL
