MODEL 1
REMARK VINA RESULT:     -12.8      0.000      0.000
REMARK SMILES Cc1[nH]c2ccccc2c1[C@@H](C(=O)NCCCCCCNC(=O)c1ccc(-c2c3nc(c(-c4c(F)c(F)c(F)c(F)c4F)c4ccc([nH]4)c(-c4c(F)c(F)c(F)c(F)c4F)c4nc(c(-c5c(F)c(F)c(F)c(F)c5F)c5ccc2[nH]5)C=C4)C=C3)cc1)[NH+]1CCCC1
REMARK SMILES IDX 18 1 17 2 16 3 15 4 14 5 12 6 13 7 11 9 10 10 1 11 2 12 3 13
REMARK SMILES IDX 4 14 9 16 5 17 8 18 6 19 7 20 87 21 88 22 91 23 89 25 90 26
REMARK SMILES IDX 19 27 20 28 21 29 22 30 23 32 24 33 25 34 86 35 26 36 85 37
REMARK SMILES IDX 27 38 28 39 29 40 79 41 30 42 84 43 78 44 80 45 31 46 83 47
REMARK SMILES IDX 77 48 76 49 32 51 64 52 44 53 63 54 45 55 48 56 62 57 81 58
REMARK SMILES IDX 46 59 47 60 61 62 82 63 49 64 33 65 34 66 42 67 35 68 36 69
REMARK SMILES IDX 40 70 43 71 37 72 38 73 41 74 39 75 65 76 66 77 74 78 67 79
REMARK SMILES IDX 68 80 72 81 75 82 69 83 70 84 73 85 71 86 50 87 51 88 59 89
REMARK SMILES IDX 52 90 53 91 57 92 60 93 54 94 55 95 58 96 56 97
REMARK H PARENT 14 8 3 15 87 24 21 31 80 50 48 61
REMARK Flexibility Score: inf
ROOT
ATOM      1  C   UNL A   1      31.506  30.799  26.015  1.00  0.00     0.002 C 
ENDROOT
BRANCH   1   2
ATOM      2  C   UNL A   1      32.190  29.849  27.005  1.00  0.00     0.002 C 
BRANCH   2   3
ATOM      3  C   UNL A   1      33.568  29.340  26.567  1.00  0.00     0.021 C 
BRANCH   3   4
ATOM      4  C   UNL A   1      33.682  27.815  26.542  1.00  0.00     0.116 C 
BRANCH   4   5
ATOM      5  N   UNL A   1      32.394  27.191  26.764  1.00  0.00    -0.351 N 
ATOM      6  C   UNL A   1      31.499  26.707  25.841  1.00  0.00     0.283 C 
ATOM      7  O   UNL A   1      30.406  26.342  26.286  1.00  0.00    -0.268 OA
ATOM      8  H   UNL A   1      32.124  27.100  27.706  1.00  0.00     0.163 HD
BRANCH   6   9
ATOM      9  C   UNL A   1      31.931  26.592  24.346  1.00  0.00     0.307 C 
BRANCH   9  10
ATOM     10  C   UNL A   1      31.584  27.817  23.517  1.00  0.00     0.047 A 
ATOM     11  C   UNL A   1      33.989  28.733  22.935  1.00  0.00     0.065 C 
ATOM     12  C   UNL A   1      32.502  28.681  22.914  1.00  0.00     0.022 A 
ATOM     13  N   UNL A   1      31.798  29.603  22.184  1.00  0.00    -0.358 N 
ATOM     14  C   UNL A   1      30.449  29.404  22.323  1.00  0.00     0.046 A 
ATOM     15  H   UNL A   1      32.205  30.311  21.636  1.00  0.00     0.166 HD
ATOM     16  C   UNL A   1      30.276  28.340  23.207  1.00  0.00     0.009 A 
ATOM     17  C   UNL A   1      29.381  30.090  21.731  1.00  0.00     0.027 A 
ATOM     18  C   UNL A   1      28.955  27.996  23.567  1.00  0.00     0.011 A 
ATOM     19  C   UNL A   1      28.087  29.688  22.063  1.00  0.00     0.002 A 
ATOM     20  C   UNL A   1      27.874  28.665  22.981  1.00  0.00     0.001 A 
ENDBRANCH   9  10
BRANCH   9  21
ATOM     21  N   UNL A   1      31.531  25.299  23.729  1.00  0.00    -0.321 N 
ATOM     22  C   UNL A   1      32.055  24.103  24.388  1.00  0.00     0.263 C 
ATOM     23  C   UNL A   1      31.796  25.117  22.303  1.00  0.00     0.263 C 
ATOM     24  H   UNL A   1      30.525  25.390  23.866  1.00  0.00     0.349 HD
ATOM     25  C   UNL A   1      33.264  23.669  23.577  1.00  0.00     0.067 C 
ATOM     26  C   UNL A   1      33.001  24.195  22.177  1.00  0.00     0.067 C 
ENDBRANCH   9  21
ENDBRANCH   6   9
ENDBRANCH   4   5
ENDBRANCH   3   4
ENDBRANCH   2   3
ENDBRANCH   1   2
BRANCH   1  27
ATOM     27  C   UNL A   1      31.327  32.235  26.513  1.00  0.00     0.021 C 
BRANCH  27  28
ATOM     28  C   UNL A   1      32.531  32.803  27.258  1.00  0.00     0.116 C 
BRANCH  28  29
ATOM     29  N   UNL A   1      32.349  34.204  27.603  1.00  0.00    -0.352 N 
ATOM     30  C   UNL A   1      32.972  34.954  28.568  1.00  0.00     0.251 C 
ATOM     31  H   UNL A   1      31.680  34.685  27.064  1.00  0.00     0.163 HD
ATOM     32  O   UNL A   1      32.552  36.071  28.852  1.00  0.00    -0.269 OA
BRANCH  30  33
ATOM     33  C   UNL A   1      34.146  34.408  29.284  1.00  0.00     0.039 A 
ATOM     34  C   UNL A   1      33.945  33.719  30.482  1.00  0.00     0.014 A 
ATOM     35  C   UNL A   1      35.440  34.593  28.786  1.00  0.00     0.014 A 
ATOM     36  C   UNL A   1      35.036  33.165  31.154  1.00  0.00     0.010 A 
ATOM     37  C   UNL A   1      36.518  33.984  29.421  1.00  0.00     0.010 A 
ATOM     38  C   UNL A   1      36.329  33.267  30.612  1.00  0.00    -0.014 A 
BRANCH  38  39
ATOM     39  C   UNL A   1      37.492  32.629  31.278  1.00  0.00     0.031 A 
ATOM     40  C   UNL A   1      38.220  31.498  30.609  1.00  0.00     0.074 A 
ATOM     41  C   UNL A   1      37.848  33.025  32.515  1.00  0.00     0.049 A 
ATOM     42  N   UNL A   1      39.207  30.766  31.060  1.00  0.00    -0.248 NA
ATOM     43  C   UNL A   1      37.761  31.121  29.263  1.00  0.00     0.031 C 
ATOM     44  C   UNL A   1      37.190  34.079  33.287  1.00  0.00     0.029 A 
ATOM     45  N   UNL A   1      38.844  32.577  33.346  1.00  0.00    -0.354 N 
ATOM     46  C   UNL A   1      39.473  29.835  30.065  1.00  0.00     0.074 A 
ATOM     47  C   UNL A   1      38.514  30.062  29.006  1.00  0.00     0.031 C 
ATOM     48  C   UNL A   1      37.809  34.208  34.472  1.00  0.00     0.029 A 
ATOM     49  C   UNL A   1      38.884  33.224  34.557  1.00  0.00     0.049 A 
ATOM     50  H   UNL A   1      39.472  31.860  33.098  1.00  0.00     0.167 HD
ATOM     51  C   UNL A   1      40.444  28.891  30.030  1.00  0.00     0.037 A 
ATOM     52  C   UNL A   1      39.689  33.037  35.619  1.00  0.00     0.037 A 
ATOM     53  C   UNL A   1      41.415  28.688  31.073  1.00  0.00     0.049 A 
ATOM     54  C   UNL A   1      40.762  31.985  35.552  1.00  0.00     0.074 A 
ATOM     55  C   UNL A   1      42.478  27.803  31.101  1.00  0.00     0.029 A 
ATOM     56  N   UNL A   1      41.439  29.381  32.274  1.00  0.00    -0.354 N 
ATOM     57  N   UNL A   1      41.050  31.157  34.577  1.00  0.00    -0.248 NA
ATOM     58  C   UNL A   1      41.630  31.846  36.731  1.00  0.00     0.031 C 
ATOM     59  C   UNL A   1      43.119  27.929  32.339  1.00  0.00     0.029 A 
ATOM     60  C   UNL A   1      42.486  28.927  33.061  1.00  0.00     0.049 A 
ATOM     61  H   UNL A   1      40.806  30.090  32.531  1.00  0.00     0.167 HD
ATOM     62  C   UNL A   1      42.143  30.421  35.010  1.00  0.00     0.074 A 
ATOM     63  C   UNL A   1      42.479  30.910  36.331  1.00  0.00     0.031 C 
ATOM     64  C   UNL A   1      42.811  29.430  34.370  1.00  0.00     0.037 A 
BRANCH  51  65
ATOM     65  C   UNL A   1      40.507  28.002  28.821  1.00  0.00     0.064 A 
ATOM     66  C   UNL A   1      39.795  26.795  28.756  1.00  0.00     0.173 A 
ATOM     67  C   UNL A   1      41.259  28.382  27.698  1.00  0.00     0.173 A 
ATOM     68  F   UNL A   1      39.070  26.382  29.806  1.00  0.00    -0.203 F 
ATOM     69  C   UNL A   1      39.853  25.989  27.622  1.00  0.00     0.198 A 
ATOM     70  C   UNL A   1      41.289  27.587  26.555  1.00  0.00     0.198 A 
ATOM     71  F   UNL A   1      41.954  29.528  27.705  1.00  0.00    -0.203 F 
ATOM     72  F   UNL A   1      39.201  24.818  27.602  1.00  0.00    -0.200 F 
ATOM     73  C   UNL A   1      40.593  26.389  26.520  1.00  0.00     0.200 A 
ATOM     74  F   UNL A   1      41.995  27.981  25.485  1.00  0.00    -0.200 F 
ATOM     75  F   UNL A   1      40.642  25.615  25.427  1.00  0.00    -0.200 F 
ENDBRANCH  51  65
BRANCH  52  76
ATOM     76  C   UNL A   1      39.527  33.882  36.831  1.00  0.00     0.064 A 
ATOM     77  C   UNL A   1      38.762  33.441  37.919  1.00  0.00     0.173 A 
ATOM     78  C   UNL A   1      40.128  35.145  36.926  1.00  0.00     0.173 A 
ATOM     79  F   UNL A   1      38.151  32.248  37.868  1.00  0.00    -0.203 F 
ATOM     80  C   UNL A   1      38.586  34.240  39.048  1.00  0.00     0.198 A 
ATOM     81  C   UNL A   1      39.976  35.932  38.065  1.00  0.00     0.198 A 
ATOM     82  F   UNL A   1      40.875  35.612  35.914  1.00  0.00    -0.203 F 
ATOM     83  F   UNL A   1      37.812  33.812  40.055  1.00  0.00    -0.200 F 
ATOM     84  C   UNL A   1      39.198  35.481  39.122  1.00  0.00     0.200 A 
ATOM     85  F   UNL A   1      40.581  37.126  38.140  1.00  0.00    -0.200 F 
ATOM     86  F   UNL A   1      39.032  36.248  40.208  1.00  0.00    -0.200 F 
ENDBRANCH  52  76
BRANCH  64  87
ATOM     87  C   UNL A   1      43.993  28.831  35.075  1.00  0.00     0.064 A 
ATOM     88  C   UNL A   1      45.282  29.364  34.935  1.00  0.00     0.173 A 
ATOM     89  C   UNL A   1      43.826  27.734  35.934  1.00  0.00     0.173 A 
ATOM     90  F   UNL A   1      45.498  30.404  34.114  1.00  0.00    -0.203 F 
ATOM     91  C   UNL A   1      46.365  28.808  35.611  1.00  0.00     0.198 A 
ATOM     92  C   UNL A   1      44.904  27.198  36.630  1.00  0.00     0.198 A 
ATOM     93  F   UNL A   1      42.611  27.189  36.106  1.00  0.00    -0.203 F 
ATOM     94  F   UNL A   1      47.595  29.306  35.428  1.00  0.00    -0.200 F 
ATOM     95  C   UNL A   1      46.173  27.730  36.464  1.00  0.00     0.200 A 
ATOM     96  F   UNL A   1      44.715  26.165  37.463  1.00  0.00    -0.200 F 
ATOM     97  F   UNL A   1      47.215  27.200  37.119  1.00  0.00    -0.200 F 
ENDBRANCH  64  87
ENDBRANCH  38  39
ENDBRANCH  30  33
ENDBRANCH  28  29
ENDBRANCH  27  28
ENDBRANCH   1  27
TORSDOF 15
ENDMDL
MODEL 2
REMARK VINA RESULT:     -12.8      0.067      1.576
REMARK SMILES Cc1[nH]c2ccccc2c1[C@@H](C(=O)NCCCCCCNC(=O)c1ccc(-c2c3nc(c(-c4c(F)c(F)c(F)c(F)c4F)c4ccc([nH]4)c(-c4c(F)c(F)c(F)c(F)c4F)c4nc(c(-c5c(F)c(F)c(F)c(F)c5F)c5ccc2[nH]5)C=C4)C=C3)cc1)[NH+]1CCCC1
REMARK SMILES IDX 18 1 17 2 16 3 15 4 14 5 12 6 13 7 11 9 10 10 1 11 2 12 3 13
REMARK SMILES IDX 4 14 9 16 5 17 8 18 6 19 7 20 87 21 88 22 91 23 89 25 90 26
REMARK SMILES IDX 19 27 20 28 21 29 22 30 23 32 24 33 25 34 86 35 26 36 85 37
REMARK SMILES IDX 27 38 28 39 29 40 79 41 30 42 84 43 78 44 80 45 31 46 83 47
REMARK SMILES IDX 77 48 76 49 32 51 64 52 44 53 63 54 45 55 48 56 62 57 81 58
REMARK SMILES IDX 46 59 47 60 61 62 82 63 49 64 33 65 34 66 42 67 35 68 36 69
REMARK SMILES IDX 40 70 43 71 37 72 38 73 41 74 39 75 65 76 66 77 74 78 67 79
REMARK SMILES IDX 68 80 72 81 75 82 69 83 70 84 73 85 71 86 50 87 51 88 59 89
REMARK SMILES IDX 52 90 53 91 57 92 60 93 54 94 55 95 58 96 56 97
REMARK H PARENT 14 8 3 15 87 24 21 31 80 50 48 61
REMARK Flexibility Score: inf
ROOT
ATOM      1  C   UNL A   1      31.544  30.824  25.968  1.00  0.00     0.002 C 
ENDROOT
BRANCH   1   2
ATOM      2  C   UNL A   1      32.178  29.826  26.942  1.00  0.00     0.002 C 
BRANCH   2   3
ATOM      3  C   UNL A   1      33.551  29.292  26.521  1.00  0.00     0.021 C 
BRANCH   3   4
ATOM      4  C   UNL A   1      33.648  27.766  26.523  1.00  0.00     0.116 C 
BRANCH   4   5
ATOM      5  N   UNL A   1      32.347  27.160  26.719  1.00  0.00    -0.351 N 
ATOM      6  C   UNL A   1      31.452  26.714  25.777  1.00  0.00     0.283 C 
ATOM      7  O   UNL A   1      30.348  26.359  26.204  1.00  0.00    -0.268 OA
ATOM      8  H   UNL A   1      32.066  27.054  27.657  1.00  0.00     0.163 HD
BRANCH   6   9
ATOM      9  C   UNL A   1      31.896  26.625  24.284  1.00  0.00     0.307 C 
BRANCH   9  10
ATOM     10  C   UNL A   1      31.538  27.855  23.469  1.00  0.00     0.047 A 
ATOM     11  C   UNL A   1      33.936  28.797  22.895  1.00  0.00     0.065 C 
ATOM     12  C   UNL A   1      32.449  28.733  22.875  1.00  0.00     0.022 A 
ATOM     13  N   UNL A   1      31.736  29.657  22.155  1.00  0.00    -0.358 N 
ATOM     14  C   UNL A   1      30.389  29.445  22.293  1.00  0.00     0.046 A 
ATOM     15  H   UNL A   1      32.137  30.374  21.614  1.00  0.00     0.166 HD
ATOM     16  C   UNL A   1      30.226  28.371  23.165  1.00  0.00     0.009 A 
ATOM     17  C   UNL A   1      29.315  30.129  21.709  1.00  0.00     0.027 A 
ATOM     18  C   UNL A   1      28.908  28.012  23.523  1.00  0.00     0.011 A 
ATOM     19  C   UNL A   1      28.025  29.713  22.038  1.00  0.00     0.002 A 
ATOM     20  C   UNL A   1      27.821  28.678  22.945  1.00  0.00     0.001 A 
ENDBRANCH   9  10
BRANCH   9  21
ATOM     21  N   UNL A   1      31.519  25.334  23.648  1.00  0.00    -0.321 N 
ATOM     22  C   UNL A   1      32.097  24.140  24.264  1.00  0.00     0.263 C 
ATOM     23  C   UNL A   1      31.750  25.193  22.211  1.00  0.00     0.263 C 
ATOM     24  H   UNL A   1      30.515  25.391  23.814  1.00  0.00     0.349 HD
ATOM     25  C   UNL A   1      33.296  23.763  23.410  1.00  0.00     0.067 C 
ATOM     26  C   UNL A   1      32.979  24.312  22.031  1.00  0.00     0.067 C 
ENDBRANCH   9  21
ENDBRANCH   6   9
ENDBRANCH   4   5
ENDBRANCH   3   4
ENDBRANCH   2   3
ENDBRANCH   1   2
BRANCH   1  27
ATOM     27  C   UNL A   1      31.338  32.234  26.528  1.00  0.00     0.021 C 
BRANCH  27  28
ATOM     28  C   UNL A   1      32.549  32.812  27.253  1.00  0.00     0.116 C 
BRANCH  28  29
ATOM     29  N   UNL A   1      32.360  34.210  27.605  1.00  0.00    -0.352 N 
ATOM     30  C   UNL A   1      32.976  34.956  28.578  1.00  0.00     0.251 C 
ATOM     31  H   UNL A   1      31.692  34.692  27.067  1.00  0.00     0.163 HD
ATOM     32  O   UNL A   1      32.549  36.069  28.867  1.00  0.00    -0.269 OA
BRANCH  30  33
ATOM     33  C   UNL A   1      34.148  34.412  29.296  1.00  0.00     0.039 A 
ATOM     34  C   UNL A   1      33.946  33.717  30.491  1.00  0.00     0.014 A 
ATOM     35  C   UNL A   1      35.443  34.602  28.803  1.00  0.00     0.014 A 
ATOM     36  C   UNL A   1      35.036  33.164  31.164  1.00  0.00     0.010 A 
ATOM     37  C   UNL A   1      36.522  33.994  29.439  1.00  0.00     0.010 A 
ATOM     38  C   UNL A   1      36.330  33.271  30.627  1.00  0.00    -0.014 A 
BRANCH  38  39
ATOM     39  C   UNL A   1      37.494  32.634  31.294  1.00  0.00     0.031 A 
ATOM     40  C   UNL A   1      38.226  31.507  30.624  1.00  0.00     0.074 A 
ATOM     41  C   UNL A   1      37.845  33.028  32.534  1.00  0.00     0.049 A 
ATOM     42  N   UNL A   1      39.213  30.776  31.076  1.00  0.00    -0.248 NA
ATOM     43  C   UNL A   1      37.771  31.133  29.275  1.00  0.00     0.031 C 
ATOM     44  C   UNL A   1      37.182  34.078  33.307  1.00  0.00     0.029 A 
ATOM     45  N   UNL A   1      38.840  32.579  33.366  1.00  0.00    -0.354 N 
ATOM     46  C   UNL A   1      39.485  29.848  30.078  1.00  0.00     0.074 A 
ATOM     47  C   UNL A   1      38.528  30.076  29.017  1.00  0.00     0.031 C 
ATOM     48  C   UNL A   1      37.798  34.205  34.494  1.00  0.00     0.029 A 
ATOM     49  C   UNL A   1      38.874  33.223  34.579  1.00  0.00     0.049 A 
ATOM     50  H   UNL A   1      39.470  31.865  33.117  1.00  0.00     0.167 HD
ATOM     51  C   UNL A   1      40.457  28.907  30.043  1.00  0.00     0.037 A 
ATOM     52  C   UNL A   1      39.678  33.035  35.643  1.00  0.00     0.037 A 
ATOM     53  C   UNL A   1      41.426  28.704  31.088  1.00  0.00     0.049 A 
ATOM     54  C   UNL A   1      40.753  31.986  35.575  1.00  0.00     0.074 A 
ATOM     55  C   UNL A   1      42.492  27.821  31.116  1.00  0.00     0.029 A 
ATOM     56  N   UNL A   1      41.445  29.393  32.292  1.00  0.00    -0.354 N 
ATOM     57  N   UNL A   1      41.045  31.161  34.598  1.00  0.00    -0.248 NA
ATOM     58  C   UNL A   1      41.618  31.845  36.756  1.00  0.00     0.031 C 
ATOM     59  C   UNL A   1      43.129  27.944  32.357  1.00  0.00     0.029 A 
ATOM     60  C   UNL A   1      42.492  28.939  33.080  1.00  0.00     0.049 A 
ATOM     61  H   UNL A   1      40.809  30.099  32.548  1.00  0.00     0.167 HD
ATOM     62  C   UNL A   1      42.140  30.427  35.033  1.00  0.00     0.074 A 
ATOM     63  C   UNL A   1      42.470  30.912  36.356  1.00  0.00     0.031 C 
ATOM     64  C   UNL A   1      42.811  29.439  34.392  1.00  0.00     0.037 A 
BRANCH  51  65
ATOM     65  C   UNL A   1      40.526  28.022  28.832  1.00  0.00     0.064 A 
ATOM     66  C   UNL A   1      39.815  26.815  28.760  1.00  0.00     0.173 A 
ATOM     67  C   UNL A   1      41.282  28.406  27.713  1.00  0.00     0.173 A 
ATOM     68  F   UNL A   1      39.086  26.398  29.807  1.00  0.00    -0.203 F 
ATOM     69  C   UNL A   1      39.878  26.012  27.624  1.00  0.00     0.198 A 
ATOM     70  C   UNL A   1      41.318  27.614  26.568  1.00  0.00     0.198 A 
ATOM     71  F   UNL A   1      41.976  29.553  27.726  1.00  0.00    -0.203 F 
ATOM     72  F   UNL A   1      39.227  24.840  27.598  1.00  0.00    -0.200 F 
ATOM     73  C   UNL A   1      40.623  26.416  26.527  1.00  0.00     0.200 A 
ATOM     74  F   UNL A   1      42.028  28.012  25.502  1.00  0.00    -0.200 F 
ATOM     75  F   UNL A   1      40.676  25.645  25.431  1.00  0.00    -0.200 F 
ENDBRANCH  51  65
BRANCH  52  76
ATOM     76  C   UNL A   1      39.509  33.876  36.857  1.00  0.00     0.064 A 
ATOM     77  C   UNL A   1      40.091  35.148  36.936  1.00  0.00     0.173 A 
ATOM     78  C   UNL A   1      38.769  33.427  37.959  1.00  0.00     0.173 A 
ATOM     79  F   UNL A   1      40.826  35.614  35.914  1.00  0.00    -0.203 F 
ATOM     80  C   UNL A   1      39.957  35.932  38.081  1.00  0.00     0.198 A 
ATOM     81  C   UNL A   1      38.611  34.222  39.092  1.00  0.00     0.198 A 
ATOM     82  F   UNL A   1      38.187  32.219  37.931  1.00  0.00    -0.203 F 
ATOM     83  F   UNL A   1      40.563  37.126  38.148  1.00  0.00    -0.200 F 
ATOM     84  C   UNL A   1      39.212  35.470  39.156  1.00  0.00     0.200 A 
ATOM     85  F   UNL A   1      37.878  33.778  40.123  1.00  0.00    -0.200 F 
ATOM     86  F   UNL A   1      39.080  36.224  40.255  1.00  0.00    -0.200 F 
ENDBRANCH  52  76
BRANCH  64  87
ATOM     87  C   UNL A   1      43.993  28.840  35.098  1.00  0.00     0.064 A 
ATOM     88  C   UNL A   1      43.861  27.727  35.940  1.00  0.00     0.173 A 
ATOM     89  C   UNL A   1      45.279  29.363  34.895  1.00  0.00     0.173 A 
ATOM     90  F   UNL A   1      42.651  27.200  36.178  1.00  0.00    -0.203 F 
ATOM     91  C   UNL A   1      44.971  27.173  36.573  1.00  0.00     0.198 A 
ATOM     92  C   UNL A   1      46.390  28.788  35.506  1.00  0.00     0.198 A 
ATOM     93  F   UNL A   1      45.460  30.424  34.094  1.00  0.00    -0.203 F 
ATOM     94  F   UNL A   1      44.815  26.137  37.409  1.00  0.00    -0.200 F 
ATOM     95  C   UNL A   1      46.235  27.699  36.349  1.00  0.00     0.200 A 
ATOM     96  F   UNL A   1      47.612  29.290  35.278  1.00  0.00    -0.200 F 
ATOM     97  F   UNL A   1      47.302  27.160  36.953  1.00  0.00    -0.200 F 
ENDBRANCH  64  87
ENDBRANCH  38  39
ENDBRANCH  30  33
ENDBRANCH  28  29
ENDBRANCH  27  28
ENDBRANCH   1  27
TORSDOF 15
ENDMDL
MODEL 3
REMARK VINA RESULT:     -12.5      5.779     11.178
REMARK SMILES Cc1[nH]c2ccccc2c1[C@@H](C(=O)NCCCCCCNC(=O)c1ccc(-c2c3nc(c(-c4c(F)c(F)c(F)c(F)c4F)c4ccc([nH]4)c(-c4c(F)c(F)c(F)c(F)c4F)c4nc(c(-c5c(F)c(F)c(F)c(F)c5F)c5ccc2[nH]5)C=C4)C=C3)cc1)[NH+]1CCCC1
REMARK SMILES IDX 18 1 17 2 16 3 15 4 14 5 12 6 13 7 11 9 10 10 1 11 2 12 3 13
REMARK SMILES IDX 4 14 9 16 5 17 8 18 6 19 7 20 87 21 88 22 91 23 89 25 90 26
REMARK SMILES IDX 19 27 20 28 21 29 22 30 23 32 24 33 25 34 86 35 26 36 85 37
REMARK SMILES IDX 27 38 28 39 29 40 79 41 30 42 84 43 78 44 80 45 31 46 83 47
REMARK SMILES IDX 77 48 76 49 32 51 64 52 44 53 63 54 45 55 48 56 62 57 81 58
REMARK SMILES IDX 46 59 47 60 61 62 82 63 49 64 33 65 34 66 42 67 35 68 36 69
REMARK SMILES IDX 40 70 43 71 37 72 38 73 41 74 39 75 65 76 66 77 74 78 67 79
REMARK SMILES IDX 68 80 72 81 75 82 69 83 70 84 73 85 71 86 50 87 51 88 59 89
REMARK SMILES IDX 52 90 53 91 57 92 60 93 54 94 55 95 58 96 56 97
REMARK H PARENT 14 8 3 15 87 24 21 31 80 50 48 61
REMARK Flexibility Score: inf
ROOT
ATOM      1  C   UNL A   1      36.791  20.451  24.983  1.00  0.00     0.002 C 
ENDROOT
BRANCH   1   2
ATOM      2  C   UNL A   1      37.049  21.838  24.384  1.00  0.00     0.002 C 
BRANCH   2   3
ATOM      3  C   UNL A   1      37.100  22.984  25.401  1.00  0.00     0.021 C 
BRANCH   3   4
ATOM      4  C   UNL A   1      36.072  24.085  25.141  1.00  0.00     0.116 C 
BRANCH   4   5
ATOM      5  N   UNL A   1      35.449  23.924  23.843  1.00  0.00    -0.351 N 
ATOM      6  C   UNL A   1      34.194  23.455  23.541  1.00  0.00     0.283 C 
ATOM      7  O   UNL A   1      33.953  23.288  22.341  1.00  0.00    -0.268 OA
ATOM      8  H   UNL A   1      36.003  24.186  23.073  1.00  0.00     0.163 HD
BRANCH   6   9
ATOM      9  C   UNL A   1      33.164  23.234  24.692  1.00  0.00     0.307 C 
BRANCH   9  10
ATOM     10  C   UNL A   1      33.214  21.840  25.294  1.00  0.00     0.047 A 
ATOM     11  C   UNL A   1      34.023  22.378  27.747  1.00  0.00     0.065 C 
ATOM     12  C   UNL A   1      33.561  21.533  26.612  1.00  0.00     0.022 A 
ATOM     13  N   UNL A   1      33.398  20.184  26.788  1.00  0.00    -0.358 N 
ATOM     14  C   UNL A   1      33.001  19.586  25.620  1.00  0.00     0.046 A 
ATOM     15  H   UNL A   1      33.546  19.709  27.637  1.00  0.00     0.166 HD
ATOM     16  C   UNL A   1      32.945  20.581  24.645  1.00  0.00     0.009 A 
ATOM     17  C   UNL A   1      32.691  18.244  25.366  1.00  0.00     0.027 A 
ATOM     18  C   UNL A   1      32.628  20.187  23.326  1.00  0.00     0.011 A 
ATOM     19  C   UNL A   1      32.327  17.898  24.064  1.00  0.00     0.002 A 
ATOM     20  C   UNL A   1      32.310  18.852  23.053  1.00  0.00     0.001 A 
ENDBRANCH   9  10
BRANCH   9  21
ATOM     21  N   UNL A   1      31.796  23.702  24.338  1.00  0.00    -0.321 N 
ATOM     22  C   UNL A   1      31.683  25.127  24.031  1.00  0.00     0.263 C 
ATOM     23  C   UNL A   1      30.715  23.409  25.277  1.00  0.00     0.263 C 
ATOM     24  H   UNL A   1      31.671  23.129  23.504  1.00  0.00     0.349 HD
ATOM     25  C   UNL A   1      31.160  25.791  25.293  1.00  0.00     0.067 C 
ATOM     26  C   UNL A   1      30.390  24.701  26.015  1.00  0.00     0.067 C 
ENDBRANCH   9  21
ENDBRANCH   6   9
ENDBRANCH   4   5
ENDBRANCH   3   4
ENDBRANCH   2   3
ENDBRANCH   1   2
BRANCH   1  27
ATOM     27  C   UNL A   1      37.999  19.511  24.984  1.00  0.00     0.021 C 
BRANCH  27  28
ATOM     28  C   UNL A   1      39.215  20.041  25.737  1.00  0.00     0.116 C 
BRANCH  28  29
ATOM     29  N   UNL A   1      40.252  19.030  25.880  1.00  0.00    -0.352 N 
ATOM     30  C   UNL A   1      41.600  19.186  26.084  1.00  0.00     0.251 C 
ATOM     31  H   UNL A   1      39.941  18.099  25.822  1.00  0.00     0.163 HD
ATOM     32  O   UNL A   1      42.356  18.226  25.982  1.00  0.00    -0.269 OA
BRANCH  30  33
ATOM     33  C   UNL A   1      42.148  20.519  26.413  1.00  0.00     0.039 A 
ATOM     34  C   UNL A   1      42.559  21.355  25.371  1.00  0.00     0.014 A 
ATOM     35  C   UNL A   1      42.276  20.937  27.741  1.00  0.00     0.014 A 
ATOM     36  C   UNL A   1      43.046  22.631  25.658  1.00  0.00     0.010 A 
ATOM     37  C   UNL A   1      42.698  22.232  28.022  1.00  0.00     0.010 A 
ATOM     38  C   UNL A   1      43.090  23.092  26.985  1.00  0.00    -0.014 A 
BRANCH  38  39
ATOM     39  C   UNL A   1      43.543  24.469  27.305  1.00  0.00     0.031 A 
ATOM     40  C   UNL A   1      42.570  25.480  27.840  1.00  0.00     0.074 A 
ATOM     41  C   UNL A   1      44.816  24.826  27.046  1.00  0.00     0.049 A 
ATOM     42  N   UNL A   1      42.755  26.749  28.107  1.00  0.00    -0.248 NA
ATOM     43  C   UNL A   1      41.196  25.011  28.083  1.00  0.00     0.031 C 
ATOM     44  C   UNL A   1      45.842  23.948  26.483  1.00  0.00     0.029 A 
ATOM     45  N   UNL A   1      45.460  26.027  27.213  1.00  0.00    -0.354 N 
ATOM     46  C   UNL A   1      41.523  27.230  28.531  1.00  0.00     0.074 A 
ATOM     47  C   UNL A   1      40.586  26.132  28.441  1.00  0.00     0.031 C 
ATOM     48  C   UNL A   1      46.991  24.634  26.365  1.00  0.00     0.029 A 
ATOM     49  C   UNL A   1      46.773  26.007  26.811  1.00  0.00     0.049 A 
ATOM     50  H   UNL A   1      45.023  26.826  27.586  1.00  0.00     0.167 HD
ATOM     51  C   UNL A   1      41.209  28.470  28.976  1.00  0.00     0.037 A 
ATOM     52  C   UNL A   1      47.695  26.989  26.795  1.00  0.00     0.037 A 
ATOM     53  C   UNL A   1      42.152  29.552  29.092  1.00  0.00     0.049 A 
ATOM     54  C   UNL A   1      47.321  28.355  27.299  1.00  0.00     0.074 A 
ATOM     55  C   UNL A   1      41.947  30.825  29.595  1.00  0.00     0.029 A 
ATOM     56  N   UNL A   1      43.481  29.486  28.700  1.00  0.00    -0.354 N 
ATOM     57  N   UNL A   1      46.171  28.781  27.764  1.00  0.00    -0.248 NA
ATOM     58  C   UNL A   1      48.376  29.379  27.284  1.00  0.00     0.031 C 
ATOM     59  C   UNL A   1      43.140  31.545  29.463  1.00  0.00     0.029 A 
ATOM     60  C   UNL A   1      44.102  30.705  28.927  1.00  0.00     0.049 A 
ATOM     61  H   UNL A   1      43.918  28.692  28.315  1.00  0.00     0.167 HD
ATOM     62  C   UNL A   1      46.370  30.106  28.122  1.00  0.00     0.074 A 
ATOM     63  C   UNL A   1      47.755  30.413  27.834  1.00  0.00     0.031 C 
ATOM     64  C   UNL A   1      45.484  30.991  28.643  1.00  0.00     0.037 A 
BRANCH  51  65
ATOM     65  C   UNL A   1      39.784  28.727  29.373  1.00  0.00     0.064 A 
ATOM     66  C   UNL A   1      39.334  28.507  30.684  1.00  0.00     0.173 A 
ATOM     67  C   UNL A   1      38.867  29.238  28.442  1.00  0.00     0.173 A 
ATOM     68  F   UNL A   1      40.169  28.009  31.609  1.00  0.00    -0.203 F 
ATOM     69  C   UNL A   1      38.014  28.763  31.041  1.00  0.00     0.198 A 
ATOM     70  C   UNL A   1      37.555  29.521  28.811  1.00  0.00     0.198 A 
ATOM     71  F   UNL A   1      39.246  29.472  27.177  1.00  0.00    -0.203 F 
ATOM     72  F   UNL A   1      37.596  28.501  32.287  1.00  0.00    -0.200 F 
ATOM     73  C   UNL A   1      37.127  29.277  30.107  1.00  0.00     0.200 A 
ATOM     74  F   UNL A   1      36.702  30.030  27.910  1.00  0.00    -0.200 F 
ATOM     75  F   UNL A   1      35.858  29.531  30.454  1.00  0.00    -0.200 F 
ENDBRANCH  51  65
BRANCH  52  76
ATOM     76  C   UNL A   1      49.070  26.707  26.305  1.00  0.00     0.064 A 
ATOM     77  C   UNL A   1      50.050  26.198  27.166  1.00  0.00     0.173 A 
ATOM     78  C   UNL A   1      49.430  26.942  24.971  1.00  0.00     0.173 A 
ATOM     79  F   UNL A   1      49.758  25.975  28.457  1.00  0.00    -0.203 F 
ATOM     80  C   UNL A   1      51.347  25.955  26.718  1.00  0.00     0.198 A 
ATOM     81  C   UNL A   1      50.719  26.673  24.516  1.00  0.00     0.198 A 
ATOM     82  F   UNL A   1      48.527  27.424  24.104  1.00  0.00    -0.203 F 
ATOM     83  F   UNL A   1      52.278  25.512  27.575  1.00  0.00    -0.200 F 
ATOM     84  C   UNL A   1      51.679  26.187  25.392  1.00  0.00     0.200 A 
ATOM     85  F   UNL A   1      51.033  26.884  23.230  1.00  0.00    -0.200 F 
ATOM     86  F   UNL A   1      52.925  25.950  24.960  1.00  0.00    -0.200 F 
ENDBRANCH  52  76
BRANCH  64  87
ATOM     87  C   UNL A   1      45.994  32.364  28.969  1.00  0.00     0.064 A 
ATOM     88  C   UNL A   1      45.928  33.414  28.041  1.00  0.00     0.173 A 
ATOM     89  C   UNL A   1      46.518  32.643  30.240  1.00  0.00     0.173 A 
ATOM     90  F   UNL A   1      45.449  33.195  26.807  1.00  0.00    -0.203 F 
ATOM     91  C   UNL A   1      46.388  34.687  28.367  1.00  0.00     0.198 A 
ATOM     92  C   UNL A   1      46.951  33.923  30.573  1.00  0.00     0.198 A 
ATOM     93  F   UNL A   1      46.598  31.674  31.166  1.00  0.00    -0.203 F 
ATOM     94  F   UNL A   1      46.357  35.663  27.450  1.00  0.00    -0.200 F 
ATOM     95  C   UNL A   1      46.892  34.941  29.635  1.00  0.00     0.200 A 
ATOM     96  F   UNL A   1      47.425  34.170  31.801  1.00  0.00    -0.200 F 
ATOM     97  F   UNL A   1      47.328  36.169  29.948  1.00  0.00    -0.200 F 
ENDBRANCH  64  87
ENDBRANCH  38  39
ENDBRANCH  30  33
ENDBRANCH  28  29
ENDBRANCH  27  28
ENDBRANCH   1  27
TORSDOF 15
ENDMDL
