MODEL 1
REMARK VINA RESULT:     -12.6      0.000      0.000
REMARK SMILES Cc1nc(CC(=O)N2Cc3nc[nH]c3C[C@H]2C(=O)NCCCCCCNC(=O)c2ccc(-c3c4nc(c(-c5c(F)c(F)c(F)c(F)c5F)c5ccc([nH]5)c(-c5c(F)c(F)c(F)c(F)c5F)c5nc(c(-c6c(F)c(F)c(F)c(F)c6F)c6ccc3[nH]6)C=C5)C=C4)cc2)cs1
REMARK SMILES IDX 22 1 21 2 20 3 19 4 17 5 18 6 16 8 8 9 9 10 10 11 15 12
REMARK SMILES IDX 11 13 14 14 12 15 13 16 6 18 7 19 5 20 4 21 1 22 2 23 3 24
REMARK SMILES IDX 93 25 92 26 23 27 24 28 25 29 26 30 27 31 28 33 29 34 30 35
REMARK SMILES IDX 91 36 31 37 90 38 32 39 33 40 34 41 84 42 35 43 89 44 83 45
REMARK SMILES IDX 85 46 36 47 88 48 82 49 81 50 37 52 69 53 49 54 68 55 50 56
REMARK SMILES IDX 53 57 67 58 86 59 51 60 52 61 66 63 87 64 54 65 38 66 39 67
REMARK SMILES IDX 47 68 40 69 41 70 45 71 48 72 42 73 43 74 46 75 44 76 70 77
REMARK SMILES IDX 71 78 79 79 72 80 73 81 77 82 80 83 74 84 75 85 78 86 76 87
REMARK SMILES IDX 55 88 56 89 64 90 57 91 58 92 62 93 65 94 59 95 60 96 63 97
REMARK SMILES IDX 61 98
REMARK H PARENT 19 7 13 17 26 32 85 51 53 62
REMARK Flexibility Score: inf
ROOT
ATOM      1  C   UNL A   1      39.422  21.484  26.068  1.00  0.00     0.002 C 
ENDROOT
BRANCH   1   2
ATOM      2  C   UNL A   1      39.116  22.932  26.450  1.00  0.00     0.021 C 
BRANCH   2   3
ATOM      3  C   UNL A   1      37.758  23.409  25.951  1.00  0.00     0.116 C 
BRANCH   3   4
ATOM      4  N   UNL A   1      37.471  22.999  24.603  1.00  0.00    -0.354 N 
ATOM      5  C   UNL A   1      36.325  23.022  23.878  1.00  0.00     0.243 C 
ATOM      6  O   UNL A   1      36.474  22.813  22.666  1.00  0.00    -0.273 OA
ATOM      7  H   UNL A   1      38.247  22.637  24.118  1.00  0.00     0.163 HD
BRANCH   5   8
ATOM      8  C   UNL A   1      34.905  23.319  24.441  1.00  0.00     0.180 C 
ATOM      9  N   UNL A   1      33.742  23.410  23.489  1.00  0.00    -0.324 N 
ATOM     10  C   UNL A   1      33.022  22.165  23.140  1.00  0.00     0.178 C 
ATOM     11  C   UNL A   1      32.972  21.237  24.307  1.00  0.00     0.081 A 
ATOM     12  C   UNL A   1      34.555  22.578  25.765  1.00  0.00     0.091 C 
ATOM     13  N   UNL A   1      32.473  19.960  24.262  1.00  0.00    -0.240 NA
ATOM     14  C   UNL A   1      33.662  21.432  25.482  1.00  0.00     0.042 A 
ATOM     15  C   UNL A   1      32.807  19.417  25.413  1.00  0.00     0.197 A 
ATOM     16  N   UNL A   1      33.501  20.290  26.209  1.00  0.00    -0.348 N 
ATOM     17  H   UNL A   1      33.819  20.126  27.127  1.00  0.00     0.167 HD
BRANCH   9  18
ATOM     18  C   UNL A   1      33.214  24.587  22.963  1.00  0.00     0.229 C 
ATOM     19  O   UNL A   1      33.666  25.064  21.913  1.00  0.00    -0.274 OA
BRANCH  18  20
ATOM     20  C   UNL A   1      32.169  25.399  23.711  1.00  0.00     0.157 C 
BRANCH  20  21
ATOM     21  C   UNL A   1      32.564  26.773  24.118  1.00  0.00     0.061 A 
ATOM     22  C   UNL A   1      34.107  28.568  26.890  1.00  0.00     0.079 C 
ATOM     23  C   UNL A   1      33.461  28.135  25.624  1.00  0.00     0.090 A 
ATOM     24  N   UNL A   1      33.308  26.879  25.281  1.00  0.00    -0.246 NA
ATOM     25  S   UNL A   1      32.812  29.275  24.516  1.00  0.00    -0.127 S 
ATOM     26  C   UNL A   1      32.248  27.984  23.530  1.00  0.00     0.091 A 
ENDBRANCH  20  21
ENDBRANCH  18  20
ENDBRANCH   9  18
ENDBRANCH   5   8
ENDBRANCH   3   4
ENDBRANCH   2   3
ENDBRANCH   1   2
BRANCH   1  27
ATOM     27  C   UNL A   1      40.539  20.804  26.878  1.00  0.00     0.002 C 
BRANCH  27  28
ATOM     28  C   UNL A   1      41.324  19.688  26.171  1.00  0.00     0.021 C 
BRANCH  28  29
ATOM     29  C   UNL A   1      42.722  19.484  26.729  1.00  0.00     0.116 C 
BRANCH  29  30
ATOM     30  N   UNL A   1      43.730  19.395  25.670  1.00  0.00    -0.352 N 
ATOM     31  C   UNL A   1      44.270  20.398  24.901  1.00  0.00     0.251 C 
ATOM     32  H   UNL A   1      44.068  18.489  25.483  1.00  0.00     0.163 HD
ATOM     33  O   UNL A   1      44.844  20.138  23.842  1.00  0.00    -0.269 OA
BRANCH  31  34
ATOM     34  C   UNL A   1      44.160  21.789  25.356  1.00  0.00     0.039 A 
ATOM     35  C   UNL A   1      43.139  22.625  24.893  1.00  0.00     0.014 A 
ATOM     36  C   UNL A   1      45.096  22.252  26.277  1.00  0.00     0.014 A 
ATOM     37  C   UNL A   1      43.033  23.904  25.424  1.00  0.00     0.010 A 
ATOM     38  C   UNL A   1      44.886  23.439  26.926  1.00  0.00     0.010 A 
ATOM     39  C   UNL A   1      43.901  24.295  26.458  1.00  0.00    -0.014 A 
BRANCH  39  40
ATOM     40  C   UNL A   1      43.702  25.553  27.162  1.00  0.00     0.031 A 
ATOM     41  C   UNL A   1      44.688  26.592  26.771  1.00  0.00     0.074 A 
ATOM     42  C   UNL A   1      42.608  25.812  27.915  1.00  0.00     0.049 A 
ATOM     43  N   UNL A   1      45.666  27.044  27.479  1.00  0.00    -0.248 NA
ATOM     44  C   UNL A   1      44.713  27.049  25.371  1.00  0.00     0.031 C 
ATOM     45  C   UNL A   1      41.412  24.974  28.073  1.00  0.00     0.029 A 
ATOM     46  N   UNL A   1      42.280  26.931  28.625  1.00  0.00    -0.354 N 
ATOM     47  C   UNL A   1      46.266  28.036  26.704  1.00  0.00     0.074 A 
ATOM     48  C   UNL A   1      45.800  27.826  25.363  1.00  0.00     0.031 C 
ATOM     49  C   UNL A   1      40.410  25.701  28.615  1.00  0.00     0.029 A 
ATOM     50  C   UNL A   1      40.945  26.988  29.018  1.00  0.00     0.049 A 
ATOM     51  H   UNL A   1      42.932  27.637  28.842  1.00  0.00     0.167 HD
ATOM     52  C   UNL A   1      46.800  29.131  27.314  1.00  0.00     0.037 A 
ATOM     53  C   UNL A   1      40.323  28.025  29.630  1.00  0.00     0.037 A 
ATOM     54  C   UNL A   1      46.922  28.891  28.732  1.00  0.00     0.049 A 
ATOM     55  C   UNL A   1      41.376  28.854  30.257  1.00  0.00     0.074 A 
ATOM     56  C   UNL A   1      47.748  28.170  29.564  1.00  0.00     0.029 A 
ATOM     57  N   UNL A   1      45.765  29.144  29.420  1.00  0.00    -0.354 N 
ATOM     58  N   UNL A   1      42.109  28.445  31.255  1.00  0.00    -0.248 NA
ATOM     59  C   UNL A   1      41.879  30.021  29.543  1.00  0.00     0.031 C 
ATOM     60  C   UNL A   1      46.983  27.883  30.734  1.00  0.00     0.029 A 
ATOM     61  C   UNL A   1      45.732  28.483  30.615  1.00  0.00     0.049 A 
ATOM     62  H   UNL A   1      45.047  29.731  29.094  1.00  0.00     0.167 HD
ATOM     63  C   UNL A   1      43.344  29.013  31.019  1.00  0.00     0.074 A 
ATOM     64  C   UNL A   1      43.101  30.099  30.079  1.00  0.00     0.031 C 
ATOM     65  C   UNL A   1      44.486  28.335  31.330  1.00  0.00     0.037 A 
BRANCH  52  66
ATOM     66  C   UNL A   1      46.700  30.560  26.799  1.00  0.00     0.064 A 
ATOM     67  C   UNL A   1      47.851  31.378  26.866  1.00  0.00     0.173 A 
ATOM     68  C   UNL A   1      45.491  31.252  26.568  1.00  0.00     0.173 A 
ATOM     69  F   UNL A   1      49.062  30.840  27.080  1.00  0.00    -0.203 F 
ATOM     70  C   UNL A   1      47.780  32.773  26.806  1.00  0.00     0.198 A 
ATOM     71  C   UNL A   1      45.430  32.642  26.465  1.00  0.00     0.198 A 
ATOM     72  F   UNL A   1      44.305  30.639  26.537  1.00  0.00    -0.203 F 
ATOM     73  F   UNL A   1      48.884  33.507  27.002  1.00  0.00    -0.200 F 
ATOM     74  C   UNL A   1      46.567  33.406  26.618  1.00  0.00     0.200 A 
ATOM     75  F   UNL A   1      44.240  33.236  26.300  1.00  0.00    -0.200 F 
ATOM     76  F   UNL A   1      46.482  34.742  26.625  1.00  0.00    -0.200 F 
ENDBRANCH  52  66
BRANCH  53  77
ATOM     77  C   UNL A   1      38.921  28.492  29.525  1.00  0.00     0.064 A 
ATOM     78  C   UNL A   1      38.124  28.651  30.670  1.00  0.00     0.173 A 
ATOM     79  C   UNL A   1      38.448  29.091  28.343  1.00  0.00     0.173 A 
ATOM     80  F   UNL A   1      38.519  28.136  31.843  1.00  0.00    -0.203 F 
ATOM     81  C   UNL A   1      36.949  29.410  30.648  1.00  0.00     0.198 A 
ATOM     82  C   UNL A   1      37.274  29.848  28.321  1.00  0.00     0.198 A 
ATOM     83  F   UNL A   1      39.170  29.040  27.214  1.00  0.00    -0.203 F 
ATOM     84  F   UNL A   1      36.255  29.602  31.779  1.00  0.00    -0.200 F 
ATOM     85  C   UNL A   1      36.535  30.023  29.477  1.00  0.00     0.200 A 
ATOM     86  F   UNL A   1      36.901  30.465  27.191  1.00  0.00    -0.200 F 
ATOM     87  F   UNL A   1      35.453  30.815  29.473  1.00  0.00    -0.200 F 
ENDBRANCH  53  77
BRANCH  65  88
ATOM     88  C   UNL A   1      44.397  27.277  32.383  1.00  0.00     0.064 A 
ATOM     89  C   UNL A   1      44.292  27.520  33.761  1.00  0.00     0.173 A 
ATOM     90  C   UNL A   1      44.335  25.946  31.950  1.00  0.00     0.173 A 
ATOM     91  F   UNL A   1      44.274  28.769  34.243  1.00  0.00    -0.203 F 
ATOM     92  C   UNL A   1      44.159  26.467  34.666  1.00  0.00     0.198 A 
ATOM     93  C   UNL A   1      44.166  24.902  32.850  1.00  0.00     0.198 A 
ATOM     94  F   UNL A   1      44.398  25.664  30.639  1.00  0.00    -0.203 F 
ATOM     95  F   UNL A   1      44.074  26.716  35.981  1.00  0.00    -0.200 F 
ATOM     96  C   UNL A   1      44.087  25.160  34.207  1.00  0.00     0.200 A 
ATOM     97  F   UNL A   1      44.057  23.645  32.396  1.00  0.00    -0.200 F 
ATOM     98  F   UNL A   1      43.923  24.150  35.073  1.00  0.00    -0.200 F 
ENDBRANCH  65  88
ENDBRANCH  39  40
ENDBRANCH  31  34
ENDBRANCH  29  30
ENDBRANCH  28  29
ENDBRANCH  27  28
ENDBRANCH   1  27
TORSDOF 16
ENDMDL
MODEL 2
REMARK VINA RESULT:     -12.6      1.217      1.835
REMARK SMILES Cc1nc(CC(=O)N2Cc3nc[nH]c3C[C@H]2C(=O)NCCCCCCNC(=O)c2ccc(-c3c4nc(c(-c5c(F)c(F)c(F)c(F)c5F)c5ccc([nH]5)c(-c5c(F)c(F)c(F)c(F)c5F)c5nc(c(-c6c(F)c(F)c(F)c(F)c6F)c6ccc3[nH]6)C=C5)C=C4)cc2)cs1
REMARK SMILES IDX 22 1 21 2 20 3 19 4 17 5 18 6 16 8 8 9 9 10 10 11 15 12
REMARK SMILES IDX 11 13 14 14 12 15 13 16 6 18 7 19 5 20 4 21 1 22 2 23 3 24
REMARK SMILES IDX 93 25 92 26 23 27 24 28 25 29 26 30 27 31 28 33 29 34 30 35
REMARK SMILES IDX 91 36 31 37 90 38 32 39 33 40 34 41 84 42 35 43 89 44 83 45
REMARK SMILES IDX 85 46 36 47 88 48 82 49 81 50 37 52 69 53 49 54 68 55 50 56
REMARK SMILES IDX 53 57 67 58 86 59 51 60 52 61 66 63 87 64 54 65 38 66 39 67
REMARK SMILES IDX 47 68 40 69 41 70 45 71 48 72 42 73 43 74 46 75 44 76 70 77
REMARK SMILES IDX 71 78 79 79 72 80 73 81 77 82 80 83 74 84 75 85 78 86 76 87
REMARK SMILES IDX 55 88 56 89 64 90 57 91 58 92 62 93 65 94 59 95 60 96 63 97
REMARK SMILES IDX 61 98
REMARK H PARENT 19 7 13 17 26 32 85 51 53 62
REMARK Flexibility Score: inf
ROOT
ATOM      1  C   UNL A   1      39.133  21.632  26.030  1.00  0.00     0.002 C 
ENDROOT
BRANCH   1   2
ATOM      2  C   UNL A   1      38.923  23.144  26.123  1.00  0.00     0.021 C 
BRANCH   2   3
ATOM      3  C   UNL A   1      37.473  23.560  25.919  1.00  0.00     0.116 C 
BRANCH   3   4
ATOM      4  N   UNL A   1      36.530  22.642  26.500  1.00  0.00    -0.354 N 
ATOM      5  C   UNL A   1      35.200  22.467  26.297  1.00  0.00     0.243 C 
ATOM      6  O   UNL A   1      34.734  21.430  26.789  1.00  0.00    -0.273 OA
ATOM      7  H   UNL A   1      36.920  22.031  27.165  1.00  0.00     0.163 HD
BRANCH   5   8
ATOM      8  C   UNL A   1      34.274  23.423  25.491  1.00  0.00     0.180 C 
ATOM      9  N   UNL A   1      33.642  22.929  24.216  1.00  0.00    -0.324 N 
ATOM     10  C   UNL A   1      32.343  22.225  24.305  1.00  0.00     0.178 C 
ATOM     11  C   UNL A   1      31.501  22.802  25.392  1.00  0.00     0.081 A 
ATOM     12  C   UNL A   1      33.314  24.292  26.354  1.00  0.00     0.091 C 
ATOM     13  N   UNL A   1      30.293  22.289  25.792  1.00  0.00    -0.240 NA
ATOM     14  C   UNL A   1      31.945  23.731  26.306  1.00  0.00     0.042 A 
ATOM     15  C   UNL A   1      29.989  22.939  26.895  1.00  0.00     0.197 A 
ATOM     16  N   UNL A   1      30.949  23.859  27.229  1.00  0.00    -0.348 N 
ATOM     17  H   UNL A   1      30.923  24.490  27.985  1.00  0.00     0.167 HD
BRANCH   9  18
ATOM     18  C   UNL A   1      34.127  23.153  22.930  1.00  0.00     0.229 C 
ATOM     19  O   UNL A   1      35.321  22.956  22.665  1.00  0.00    -0.274 OA
BRANCH  18  20
ATOM     20  C   UNL A   1      33.260  23.767  21.843  1.00  0.00     0.157 C 
BRANCH  20  21
ATOM     21  C   UNL A   1      32.773  25.151  22.086  1.00  0.00     0.061 A 
ATOM     22  C   UNL A   1      33.999  28.573  22.358  1.00  0.00     0.079 C 
ATOM     23  C   UNL A   1      33.207  27.317  22.304  1.00  0.00     0.090 A 
ATOM     24  N   UNL A   1      33.699  26.166  21.913  1.00  0.00    -0.246 NA
ATOM     25  S   UNL A   1      31.566  27.272  22.805  1.00  0.00    -0.127 S 
ATOM     26  C   UNL A   1      31.531  25.578  22.516  1.00  0.00     0.091 A 
ENDBRANCH  20  21
ENDBRANCH  18  20
ENDBRANCH   9  18
ENDBRANCH   5   8
ENDBRANCH   3   4
ENDBRANCH   2   3
ENDBRANCH   1   2
BRANCH   1  27
ATOM     27  C   UNL A   1      40.376  21.087  26.753  1.00  0.00     0.002 C 
BRANCH  27  28
ATOM     28  C   UNL A   1      41.067  19.871  26.118  1.00  0.00     0.021 C 
BRANCH  28  29
ATOM     29  C   UNL A   1      42.429  19.565  26.720  1.00  0.00     0.116 C 
BRANCH  29  30
ATOM     30  N   UNL A   1      43.467  19.442  25.695  1.00  0.00    -0.352 N 
ATOM     31  C   UNL A   1      44.073  20.427  24.951  1.00  0.00     0.251 C 
ATOM     32  H   UNL A   1      43.775  18.525  25.513  1.00  0.00     0.163 HD
ATOM     33  O   UNL A   1      44.673  20.151  23.911  1.00  0.00    -0.269 OA
BRANCH  31  34
ATOM     34  C   UNL A   1      44.003  21.819  25.412  1.00  0.00     0.039 A 
ATOM     35  C   UNL A   1      43.090  22.721  24.858  1.00  0.00     0.014 A 
ATOM     36  C   UNL A   1      44.865  22.215  26.431  1.00  0.00     0.014 A 
ATOM     37  C   UNL A   1      43.009  24.001  25.394  1.00  0.00     0.010 A 
ATOM     38  C   UNL A   1      44.663  23.407  27.072  1.00  0.00     0.010 A 
ATOM     39  C   UNL A   1      43.787  24.327  26.517  1.00  0.00    -0.014 A 
BRANCH  39  40
ATOM     40  C   UNL A   1      43.594  25.591  27.215  1.00  0.00     0.031 A 
ATOM     41  C   UNL A   1      44.582  26.624  26.814  1.00  0.00     0.074 A 
ATOM     42  C   UNL A   1      42.504  25.857  27.970  1.00  0.00     0.049 A 
ATOM     43  N   UNL A   1      45.565  27.077  27.516  1.00  0.00    -0.248 NA
ATOM     44  C   UNL A   1      44.603  27.072  25.411  1.00  0.00     0.031 C 
ATOM     45  C   UNL A   1      41.306  25.024  28.138  1.00  0.00     0.029 A 
ATOM     46  N   UNL A   1      42.183  26.981  28.675  1.00  0.00    -0.354 N 
ATOM     47  C   UNL A   1      46.164  28.063  26.733  1.00  0.00     0.074 A 
ATOM     48  C   UNL A   1      45.693  27.847  25.395  1.00  0.00     0.031 C 
ATOM     49  C   UNL A   1      40.308  25.757  28.679  1.00  0.00     0.029 A 
ATOM     50  C   UNL A   1      40.848  27.044  29.072  1.00  0.00     0.049 A 
ATOM     51  H   UNL A   1      42.837  27.686  28.885  1.00  0.00     0.167 HD
ATOM     52  C   UNL A   1      46.703  29.160  27.334  1.00  0.00     0.037 A 
ATOM     53  C   UNL A   1      40.233  28.087  29.681  1.00  0.00     0.037 A 
ATOM     54  C   UNL A   1      46.830  28.927  28.753  1.00  0.00     0.049 A 
ATOM     55  C   UNL A   1      41.290  28.916  30.299  1.00  0.00     0.074 A 
ATOM     56  C   UNL A   1      47.658  28.209  29.586  1.00  0.00     0.029 A 
ATOM     57  N   UNL A   1      45.677  29.188  29.444  1.00  0.00    -0.354 N 
ATOM     58  N   UNL A   1      42.026  28.511  31.297  1.00  0.00    -0.248 NA
ATOM     59  C   UNL A   1      41.794  30.078  29.577  1.00  0.00     0.031 C 
ATOM     60  C   UNL A   1      46.896  27.931  30.761  1.00  0.00     0.029 A 
ATOM     61  C   UNL A   1      45.646  28.534  30.643  1.00  0.00     0.049 A 
ATOM     62  H   UNL A   1      44.959  29.775  29.117  1.00  0.00     0.167 HD
ATOM     63  C   UNL A   1      43.262  29.073  31.053  1.00  0.00     0.074 A 
ATOM     64  C   UNL A   1      43.018  30.155  30.107  1.00  0.00     0.031 C 
ATOM     65  C   UNL A   1      44.402  28.394  31.364  1.00  0.00     0.037 A 
BRANCH  52  66
ATOM     66  C   UNL A   1      46.606  30.586  26.812  1.00  0.00     0.064 A 
ATOM     67  C   UNL A   1      47.755  31.407  26.888  1.00  0.00     0.173 A 
ATOM     68  C   UNL A   1      45.399  31.273  26.563  1.00  0.00     0.173 A 
ATOM     69  F   UNL A   1      48.964  30.874  27.120  1.00  0.00    -0.203 F 
ATOM     70  C   UNL A   1      47.680  32.802  26.822  1.00  0.00     0.198 A 
ATOM     71  C   UNL A   1      45.335  32.663  26.453  1.00  0.00     0.198 A 
ATOM     72  F   UNL A   1      44.214  30.658  26.520  1.00  0.00    -0.203 F 
ATOM     73  F   UNL A   1      48.780  33.540  27.027  1.00  0.00    -0.200 F 
ATOM     74  C   UNL A   1      46.468  33.430  26.615  1.00  0.00     0.200 A 
ATOM     75  F   UNL A   1      44.145  33.253  26.271  1.00  0.00    -0.200 F 
ATOM     76  F   UNL A   1      46.379  34.766  26.615  1.00  0.00    -0.200 F 
ENDBRANCH  52  66
BRANCH  53  77
ATOM     77  C   UNL A   1      38.831  28.558  29.578  1.00  0.00     0.064 A 
ATOM     78  C   UNL A   1      38.057  28.782  30.728  1.00  0.00     0.173 A 
ATOM     79  C   UNL A   1      38.339  29.098  28.376  1.00  0.00     0.173 A 
ATOM     80  F   UNL A   1      38.472  28.326  31.919  1.00  0.00    -0.203 F 
ATOM     81  C   UNL A   1      36.887  29.546  30.690  1.00  0.00     0.198 A 
ATOM     82  C   UNL A   1      37.169  29.861  28.337  1.00  0.00     0.198 A 
ATOM     83  F   UNL A   1      39.039  28.982  27.237  1.00  0.00    -0.203 F 
ATOM     84  F   UNL A   1      36.216  29.802  31.822  1.00  0.00    -0.200 F 
ATOM     85  C   UNL A   1      36.454  30.101  29.496  1.00  0.00     0.200 A 
ATOM     86  F   UNL A   1      36.778  30.420  27.183  1.00  0.00    -0.200 F 
ATOM     87  F   UNL A   1      35.377  30.899  29.471  1.00  0.00    -0.200 F 
ENDBRANCH  53  77
BRANCH  65  88
ATOM     88  C   UNL A   1      44.315  27.342  32.423  1.00  0.00     0.064 A 
ATOM     89  C   UNL A   1      44.170  25.967  32.181  1.00  0.00     0.173 A 
ATOM     90  C   UNL A   1      44.470  27.757  33.752  1.00  0.00     0.173 A 
ATOM     91  F   UNL A   1      44.085  25.491  30.932  1.00  0.00    -0.203 F 
ATOM     92  C   UNL A   1      44.153  25.053  33.234  1.00  0.00     0.198 A 
ATOM     93  C   UNL A   1      44.489  26.841  34.796  1.00  0.00     0.198 A 
ATOM     94  F   UNL A   1      44.645  29.058  34.033  1.00  0.00    -0.203 F 
ATOM     95  F   UNL A   1      43.999  23.744  32.986  1.00  0.00    -0.200 F 
ATOM     96  C   UNL A   1      44.321  25.491  34.539  1.00  0.00     0.200 A 
ATOM     97  F   UNL A   1      44.693  27.268  36.050  1.00  0.00    -0.200 F 
ATOM     98  F   UNL A   1      44.342  24.610  35.549  1.00  0.00    -0.200 F 
ENDBRANCH  65  88
ENDBRANCH  39  40
ENDBRANCH  31  34
ENDBRANCH  29  30
ENDBRANCH  28  29
ENDBRANCH  27  28
ENDBRANCH   1  27
TORSDOF 16
ENDMDL
MODEL 3
REMARK VINA RESULT:     -12.2      2.914      8.638
REMARK SMILES Cc1nc(CC(=O)N2Cc3nc[nH]c3C[C@H]2C(=O)NCCCCCCNC(=O)c2ccc(-c3c4nc(c(-c5c(F)c(F)c(F)c(F)c5F)c5ccc([nH]5)c(-c5c(F)c(F)c(F)c(F)c5F)c5nc(c(-c6c(F)c(F)c(F)c(F)c6F)c6ccc3[nH]6)C=C5)C=C4)cc2)cs1
REMARK SMILES IDX 22 1 21 2 20 3 19 4 17 5 18 6 16 8 8 9 9 10 10 11 15 12
REMARK SMILES IDX 11 13 14 14 12 15 13 16 6 18 7 19 5 20 4 21 1 22 2 23 3 24
REMARK SMILES IDX 93 25 92 26 23 27 24 28 25 29 26 30 27 31 28 33 29 34 30 35
REMARK SMILES IDX 91 36 31 37 90 38 32 39 33 40 34 41 84 42 35 43 89 44 83 45
REMARK SMILES IDX 85 46 36 47 88 48 82 49 81 50 37 52 69 53 49 54 68 55 50 56
REMARK SMILES IDX 53 57 67 58 86 59 51 60 52 61 66 63 87 64 54 65 38 66 39 67
REMARK SMILES IDX 47 68 40 69 41 70 45 71 48 72 42 73 43 74 46 75 44 76 70 77
REMARK SMILES IDX 71 78 79 79 72 80 73 81 77 82 80 83 74 84 75 85 78 86 76 87
REMARK SMILES IDX 55 88 56 89 64 90 57 91 58 92 62 93 65 94 59 95 60 96 63 97
REMARK SMILES IDX 61 98
REMARK H PARENT 19 7 13 17 26 32 85 51 53 62
REMARK Flexibility Score: inf
ROOT
ATOM      1  C   UNL A   1      33.931  28.668  26.862  1.00  0.00     0.002 C 
ENDROOT
BRANCH   1   2
ATOM      2  C   UNL A   1      33.284  28.730  25.478  1.00  0.00     0.021 C 
BRANCH   2   3
ATOM      3  C   UNL A   1      32.989  27.355  24.893  1.00  0.00     0.116 C 
BRANCH   3   4
ATOM      4  N   UNL A   1      33.572  27.151  23.595  1.00  0.00    -0.354 N 
ATOM      5  C   UNL A   1      33.435  26.148  22.692  1.00  0.00     0.243 C 
ATOM      6  O   UNL A   1      33.897  26.395  21.570  1.00  0.00    -0.273 OA
ATOM      7  H   UNL A   1      34.182  27.869  23.309  1.00  0.00     0.163 HD
BRANCH   5   8
ATOM      8  C   UNL A   1      32.731  24.785  22.954  1.00  0.00     0.180 C 
ATOM      9  N   UNL A   1      33.325  23.835  23.959  1.00  0.00    -0.324 N 
ATOM     10  C   UNL A   1      32.929  23.977  25.378  1.00  0.00     0.178 C 
ATOM     11  C   UNL A   1      31.504  24.401  25.490  1.00  0.00     0.081 A 
ATOM     12  C   UNL A   1      31.177  24.849  23.016  1.00  0.00     0.091 C 
ATOM     13  N   UNL A   1      30.882  24.726  26.669  1.00  0.00    -0.240 NA
ATOM     14  C   UNL A   1      30.724  24.789  24.424  1.00  0.00     0.042 A 
ATOM     15  C   UNL A   1      29.725  25.246  26.318  1.00  0.00     0.197 A 
ATOM     16  N   UNL A   1      29.565  25.269  24.957  1.00  0.00    -0.348 N 
ATOM     17  H   UNL A   1      28.770  25.572  24.462  1.00  0.00     0.167 HD
BRANCH   9  18
ATOM     18  C   UNL A   1      34.160  22.759  23.665  1.00  0.00     0.229 C 
ATOM     19  O   UNL A   1      33.765  21.596  23.822  1.00  0.00    -0.274 OA
BRANCH  18  20
ATOM     20  C   UNL A   1      35.615  22.959  23.273  1.00  0.00     0.157 C 
BRANCH  20  21
ATOM     21  C   UNL A   1      36.628  22.695  24.328  1.00  0.00     0.061 A 
ATOM     22  C   UNL A   1      38.527  24.418  26.920  1.00  0.00     0.079 C 
ATOM     23  C   UNL A   1      37.915  23.451  25.972  1.00  0.00     0.090 A 
ATOM     24  N   UNL A   1      36.903  23.743  25.191  1.00  0.00    -0.246 NA
ATOM     25  S   UNL A   1      38.535  21.860  25.793  1.00  0.00    -0.127 S 
ATOM     26  C   UNL A   1      37.388  21.562  24.548  1.00  0.00     0.091 A 
ENDBRANCH  20  21
ENDBRANCH  18  20
ENDBRANCH   9  18
ENDBRANCH   5   8
ENDBRANCH   3   4
ENDBRANCH   2   3
ENDBRANCH   1   2
BRANCH   1  27
ATOM     27  C   UNL A   1      34.689  29.932  27.300  1.00  0.00     0.002 C 
BRANCH  27  28
ATOM     28  C   UNL A   1      33.838  31.156  27.668  1.00  0.00     0.021 C 
BRANCH  28  29
ATOM     29  C   UNL A   1      34.662  32.372  28.061  1.00  0.00     0.116 C 
BRANCH  29  30
ATOM     30  N   UNL A   1      34.559  32.667  29.491  1.00  0.00    -0.352 N 
ATOM     31  C   UNL A   1      35.267  32.133  30.541  1.00  0.00     0.251 C 
ATOM     32  H   UNL A   1      33.887  33.345  29.735  1.00  0.00     0.163 HD
ATOM     33  O   UNL A   1      34.848  32.227  31.695  1.00  0.00    -0.269 OA
BRANCH  31  34
ATOM     34  C   UNL A   1      36.538  31.447  30.273  1.00  0.00     0.039 A 
ATOM     35  C   UNL A   1      37.711  32.165  30.027  1.00  0.00     0.014 A 
ATOM     36  C   UNL A   1      36.544  30.055  30.286  1.00  0.00     0.014 A 
ATOM     37  C   UNL A   1      38.900  31.464  29.867  1.00  0.00     0.010 A 
ATOM     38  C   UNL A   1      37.734  29.378  30.306  1.00  0.00     0.010 A 
ATOM     39  C   UNL A   1      38.903  30.068  30.029  1.00  0.00    -0.014 A 
BRANCH  39  40
ATOM     40  C   UNL A   1      40.155  29.324  30.051  1.00  0.00     0.031 A 
ATOM     41  C   UNL A   1      40.703  29.166  31.422  1.00  0.00     0.074 A 
ATOM     42  C   UNL A   1      40.639  28.662  28.976  1.00  0.00     0.049 A 
ATOM     43  N   UNL A   1      41.740  29.752  31.919  1.00  0.00    -0.248 NA
ATOM     44  C   UNL A   1      39.912  28.424  32.418  1.00  0.00     0.031 C 
ATOM     45  C   UNL A   1      39.984  28.469  27.675  1.00  0.00     0.029 A 
ATOM     46  N   UNL A   1      41.781  27.927  28.843  1.00  0.00    -0.354 N 
ATOM     47  C   UNL A   1      41.879  29.241  33.208  1.00  0.00     0.074 A 
ATOM     48  C   UNL A   1      40.620  28.633  33.532  1.00  0.00     0.031 C 
ATOM     49  C   UNL A   1      40.609  27.488  26.987  1.00  0.00     0.029 A 
ATOM     50  C   UNL A   1      41.813  27.120  27.707  1.00  0.00     0.049 A 
ATOM     51  H   UNL A   1      42.520  27.964  29.493  1.00  0.00     0.167 HD
ATOM     52  C   UNL A   1      43.126  29.067  33.729  1.00  0.00     0.037 A 
ATOM     53  C   UNL A   1      42.764  26.210  27.386  1.00  0.00     0.037 A 
ATOM     54  C   UNL A   1      44.095  29.769  32.922  1.00  0.00     0.049 A 
ATOM     55  C   UNL A   1      43.982  26.567  28.145  1.00  0.00     0.074 A 
ATOM     56  C   UNL A   1      44.487  31.075  32.727  1.00  0.00     0.029 A 
ATOM     57  N   UNL A   1      44.512  29.049  31.835  1.00  0.00    -0.354 N 
ATOM     58  N   UNL A   1      44.667  27.656  27.929  1.00  0.00    -0.248 NA
ATOM     59  C   UNL A   1      44.252  25.896  29.411  1.00  0.00     0.031 C 
ATOM     60  C   UNL A   1      45.037  31.132  31.411  1.00  0.00     0.029 A 
ATOM     61  C   UNL A   1      45.022  29.854  30.858  1.00  0.00     0.049 A 
ATOM     62  H   UNL A   1      44.452  28.069  31.768  1.00  0.00     0.167 HD
ATOM     63  C   UNL A   1      45.108  28.030  29.182  1.00  0.00     0.074 A 
ATOM     64  C   UNL A   1      44.986  26.838  30.010  1.00  0.00     0.031 C 
ATOM     65  C   UNL A   1      45.198  29.348  29.516  1.00  0.00     0.037 A 
BRANCH  52  66
ATOM     66  C   UNL A   1      43.569  27.881  34.573  1.00  0.00     0.064 A 
ATOM     67  C   UNL A   1      43.433  26.583  34.028  1.00  0.00     0.173 A 
ATOM     68  C   UNL A   1      43.794  27.921  35.966  1.00  0.00     0.173 A 
ATOM     69  F   UNL A   1      43.216  26.411  32.715  1.00  0.00    -0.203 F 
ATOM     70  C   UNL A   1      43.422  25.435  34.828  1.00  0.00     0.198 A 
ATOM     71  C   UNL A   1      43.826  26.770  36.755  1.00  0.00     0.198 A 
ATOM     72  F   UNL A   1      43.885  29.065  36.649  1.00  0.00    -0.203 F 
ATOM     73  F   UNL A   1      43.162  24.241  34.278  1.00  0.00    -0.200 F 
ATOM     74  C   UNL A   1      43.607  25.531  36.193  1.00  0.00     0.200 A 
ATOM     75  F   UNL A   1      43.990  26.887  38.080  1.00  0.00    -0.200 F 
ATOM     76  F   UNL A   1      43.534  24.444  36.972  1.00  0.00    -0.200 F 
ENDBRANCH  52  66
BRANCH  53  77
ATOM     77  C   UNL A   1      42.646  24.924  26.660  1.00  0.00     0.064 A 
ATOM     78  C   UNL A   1      43.342  24.703  25.460  1.00  0.00     0.173 A 
ATOM     79  C   UNL A   1      42.110  23.787  27.292  1.00  0.00     0.173 A 
ATOM     80  F   UNL A   1      43.910  25.731  24.812  1.00  0.00    -0.203 F 
ATOM     81  C   UNL A   1      43.537  23.416  24.949  1.00  0.00     0.198 A 
ATOM     82  C   UNL A   1      42.303  22.501  26.780  1.00  0.00     0.198 A 
ATOM     83  F   UNL A   1      41.478  23.894  28.470  1.00  0.00    -0.203 F 
ATOM     84  F   UNL A   1      44.272  23.240  23.841  1.00  0.00    -0.200 F 
ATOM     85  C   UNL A   1      43.033  22.314  25.620  1.00  0.00     0.200 A 
ATOM     86  F   UNL A   1      41.840  21.440  27.456  1.00  0.00    -0.200 F 
ATOM     87  F   UNL A   1      43.285  21.076  25.175  1.00  0.00    -0.200 F 
ENDBRANCH  53  77
BRANCH  65  88
ATOM     88  C   UNL A   1      45.348  30.336  28.404  1.00  0.00     0.064 A 
ATOM     89  C   UNL A   1      44.286  30.998  27.768  1.00  0.00     0.173 A 
ATOM     90  C   UNL A   1      46.652  30.684  28.026  1.00  0.00     0.173 A 
ATOM     91  F   UNL A   1      43.016  30.769  28.124  1.00  0.00    -0.203 F 
ATOM     92  C   UNL A   1      44.527  31.948  26.774  1.00  0.00     0.198 A 
ATOM     93  C   UNL A   1      46.889  31.655  27.063  1.00  0.00     0.198 A 
ATOM     94  F   UNL A   1      47.701  30.103  28.629  1.00  0.00    -0.203 F 
ATOM     95  F   UNL A   1      43.500  32.560  26.167  1.00  0.00    -0.200 F 
ATOM     96  C   UNL A   1      45.828  32.280  26.430  1.00  0.00     0.200 A 
ATOM     97  F   UNL A   1      48.150  32.000  26.764  1.00  0.00    -0.200 F 
ATOM     98  F   UNL A   1      46.061  33.218  25.501  1.00  0.00    -0.200 F 
ENDBRANCH  65  88
ENDBRANCH  39  40
ENDBRANCH  31  34
ENDBRANCH  29  30
ENDBRANCH  28  29
ENDBRANCH  27  28
ENDBRANCH   1  27
TORSDOF 16
ENDMDL
