MODEL 1
REMARK VINA RESULT:     -12.6      0.000      0.000
REMARK SMILES Cc1oc(C)c(C(=O)Nc2cc(C(=O)NCCCCCCNC(=O)c3ccc(-c4c5nc(c(-c6c(F)c(F)c(F)c(F)c6F)c6ccc([nH]6)c(-c6c(F)c(F)c(F)c(F)c6F)c6nc(c(-c7c(F)c(F)c(F)c(F)c7F)c7ccc4[nH]7)C=C6)C=C5)cc3)ccc2Cl)c1C
REMARK SMILES IDX 18 1 17 2 16 3 15 4 13 5 14 6 12 8 10 9 11 10 90 11 89 12
REMARK SMILES IDX 91 13 88 14 9 15 7 16 8 17 6 19 1 20 2 21 3 22 92 23 4 24
REMARK SMILES IDX 93 25 5 26 19 27 20 28 21 29 22 30 23 31 24 33 25 34 26 35
REMARK SMILES IDX 87 36 27 37 86 38 28 39 29 40 30 41 80 42 31 43 85 44 79 45
REMARK SMILES IDX 81 46 32 47 84 48 78 49 77 50 33 52 65 53 45 54 64 55 46 56
REMARK SMILES IDX 49 57 63 58 82 59 47 60 48 61 62 63 83 64 50 65 34 66 35 67
REMARK SMILES IDX 43 68 36 69 37 70 41 71 44 72 38 73 39 74 42 75 40 76 66 77
REMARK SMILES IDX 67 78 75 79 68 80 69 81 73 82 76 83 70 84 71 85 74 86 72 87
REMARK SMILES IDX 51 88 52 89 60 90 53 91 54 92 58 93 61 94 55 95 56 96 59 97
REMARK SMILES IDX 57 98
REMARK H PARENT 15 7 9 18 22 32 81 51 49 62
REMARK Flexibility Score: inf
ROOT
ATOM      1  C   UNL A   1      41.053  20.679  27.442  1.00  0.00     0.002 C 
ENDROOT
BRANCH   1   2
ATOM      2  C   UNL A   1      40.525  20.986  26.032  1.00  0.00     0.021 C 
BRANCH   2   3
ATOM      3  C   UNL A   1      39.043  21.364  25.999  1.00  0.00     0.116 C 
BRANCH   3   4
ATOM      4  N   UNL A   1      38.847  22.736  26.406  1.00  0.00    -0.352 N 
ATOM      5  C   UNL A   1      37.947  23.719  26.103  1.00  0.00     0.251 C 
ATOM      6  O   UNL A   1      38.111  24.789  26.695  1.00  0.00    -0.269 OA
ATOM      7  H   UNL A   1      39.522  23.034  27.056  1.00  0.00     0.163 HD
BRANCH   5   8
ATOM      8  C   UNL A   1      36.774  23.591  25.181  1.00  0.00     0.041 A 
ATOM      9  C   UNL A   1      34.341  23.883  25.038  1.00  0.00     0.061 A 
ATOM     10  C   UNL A   1      35.568  24.137  25.668  1.00  0.00     0.041 A 
ATOM     11  C   UNL A   1      34.333  23.259  23.785  1.00  0.00     0.064 A 
ATOM     12  C   UNL A   1      35.527  22.763  23.259  1.00  0.00     0.023 A 
ATOM     13  Cl  UNL A   1      32.919  23.161  22.800  1.00  0.00    -0.082 Cl
ATOM     14  C   UNL A   1      36.734  22.910  23.961  1.00  0.00     0.015 A 
BRANCH   9  15
ATOM     15  N   UNL A   1      33.196  24.175  25.800  1.00  0.00    -0.320 N 
ATOM     16  C   UNL A   1      32.549  25.388  25.977  1.00  0.00     0.259 C 
ATOM     17  O   UNL A   1      31.628  25.430  26.793  1.00  0.00    -0.269 OA
ATOM     18  H   UNL A   1      32.797  23.410  26.275  1.00  0.00     0.170 HD
BRANCH  16  19
ATOM     19  C   UNL A   1      32.929  26.556  25.179  1.00  0.00     0.084 A 
ATOM     20  C   UNL A   1      34.072  28.589  22.305  1.00  0.00     0.088 C 
ATOM     21  C   UNL A   1      33.579  27.946  23.539  1.00  0.00     0.104 A 
ATOM     22  O   UNL A   1      34.001  28.484  24.709  1.00  0.00    -0.466 OA
ATOM     23  C   UNL A   1      32.723  26.890  23.790  1.00  0.00     0.003 A 
ATOM     24  C   UNL A   1      33.513  27.698  25.709  1.00  0.00     0.114 A 
ATOM     25  C   UNL A   1      31.810  26.276  22.795  1.00  0.00     0.049 C 
ATOM     26  C   UNL A   1      33.705  28.228  27.074  1.00  0.00     0.088 C 
ENDBRANCH  16  19
ENDBRANCH   9  15
ENDBRANCH   5   8
ENDBRANCH   3   4
ENDBRANCH   2   3
ENDBRANCH   1   2
BRANCH   1  27
ATOM     27  C   UNL A   1      42.222  19.682  27.518  1.00  0.00     0.002 C 
BRANCH  27  28
ATOM     28  C   UNL A   1      42.547  18.914  26.227  1.00  0.00     0.021 C 
BRANCH  28  29
ATOM     29  C   UNL A   1      44.006  18.506  26.116  1.00  0.00     0.116 C 
BRANCH  29  30
ATOM     30  N   UNL A   1      44.514  18.653  24.755  1.00  0.00    -0.352 N 
ATOM     31  C   UNL A   1      44.586  19.791  23.978  1.00  0.00     0.251 C 
ATOM     32  H   UNL A   1      44.850  17.828  24.335  1.00  0.00     0.163 HD
ATOM     33  O   UNL A   1      44.682  19.718  22.766  1.00  0.00    -0.269 OA
BRANCH  31  34
ATOM     34  C   UNL A   1      44.552  21.106  24.643  1.00  0.00     0.039 A 
ATOM     35  C   UNL A   1      43.553  22.038  24.340  1.00  0.00     0.014 A 
ATOM     36  C   UNL A   1      45.544  21.405  25.574  1.00  0.00     0.014 A 
ATOM     37  C   UNL A   1      43.526  23.243  25.035  1.00  0.00     0.010 A 
ATOM     38  C   UNL A   1      45.430  22.519  26.363  1.00  0.00     0.010 A 
ATOM     39  C   UNL A   1      44.461  23.466  26.058  1.00  0.00    -0.014 A 
BRANCH  39  40
ATOM     40  C   UNL A   1      44.369  24.638  26.916  1.00  0.00     0.031 A 
ATOM     41  C   UNL A   1      45.443  25.642  26.687  1.00  0.00     0.074 A 
ATOM     42  C   UNL A   1      43.277  24.896  27.669  1.00  0.00     0.049 A 
ATOM     43  N   UNL A   1      46.343  26.028  27.528  1.00  0.00    -0.248 NA
ATOM     44  C   UNL A   1      45.635  26.179  25.329  1.00  0.00     0.031 C 
ATOM     45  C   UNL A   1      42.022  24.139  27.741  1.00  0.00     0.029 A 
ATOM     46  N   UNL A   1      43.013  25.973  28.457  1.00  0.00    -0.354 N 
ATOM     47  C   UNL A   1      47.102  26.992  26.873  1.00  0.00     0.074 A 
ATOM     48  C   UNL A   1      46.737  26.916  25.483  1.00  0.00     0.031 C 
ATOM     49  C   UNL A   1      41.066  24.899  28.321  1.00  0.00     0.029 A 
ATOM     50  C   UNL A   1      41.672  26.129  28.798  1.00  0.00     0.049 A 
ATOM     51  H   UNL A   1      43.714  26.594  28.761  1.00  0.00     0.167 HD
ATOM     52  C   UNL A   1      47.799  27.927  27.578  1.00  0.00     0.037 A 
ATOM     53  C   UNL A   1      41.110  27.218  29.383  1.00  0.00     0.037 A 
ATOM     54  C   UNL A   1      47.922  27.535  28.960  1.00  0.00     0.049 A 
ATOM     55  C   UNL A   1      42.214  27.996  30.008  1.00  0.00     0.074 A 
ATOM     56  C   UNL A   1      48.478  26.445  29.604  1.00  0.00     0.029 A 
ATOM     57  N   UNL A   1      47.068  28.112  29.869  1.00  0.00    -0.354 N 
ATOM     58  N   UNL A   1      42.891  27.579  31.042  1.00  0.00    -0.248 NA
ATOM     59  C   UNL A   1      42.886  28.988  29.179  1.00  0.00     0.031 C 
ATOM     60  C   UNL A   1      47.559  26.132  30.648  1.00  0.00     0.029 A 
ATOM     61  C   UNL A   1      46.557  27.103  30.646  1.00  0.00     0.049 A 
ATOM     62  H   UNL A   1      46.860  29.071  29.949  1.00  0.00     0.167 HD
ATOM     63  C   UNL A   1      44.208  27.894  30.746  1.00  0.00     0.074 A 
ATOM     64  C   UNL A   1      44.136  28.826  29.620  1.00  0.00     0.031 C 
ATOM     65  C   UNL A   1      45.239  27.141  31.229  1.00  0.00     0.037 A 
BRANCH  52  66
ATOM     66  C   UNL A   1      48.046  29.347  27.131  1.00  0.00     0.064 A 
ATOM     67  C   UNL A   1      49.353  29.871  27.215  1.00  0.00     0.173 A 
ATOM     68  C   UNL A   1      47.024  30.297  26.921  1.00  0.00     0.173 A 
ATOM     69  F   UNL A   1      50.402  29.062  27.425  1.00  0.00    -0.203 F 
ATOM     70  C   UNL A   1      49.603  31.246  27.186  1.00  0.00     0.198 A 
ATOM     71  C   UNL A   1      47.284  31.664  26.837  1.00  0.00     0.198 A 
ATOM     72  F   UNL A   1      45.730  29.964  26.901  1.00  0.00    -0.203 F 
ATOM     73  F   UNL A   1      50.843  31.701  27.407  1.00  0.00    -0.200 F 
ATOM     74  C   UNL A   1      48.566  32.142  27.005  1.00  0.00     0.200 A 
ATOM     75  F   UNL A   1      46.263  32.519  26.677  1.00  0.00    -0.200 F 
ATOM     76  F   UNL A   1      48.793  33.461  27.041  1.00  0.00    -0.200 F 
ENDBRANCH  52  66
BRANCH  53  77
ATOM     77  C   UNL A   1      39.750  27.785  29.195  1.00  0.00     0.064 A 
ATOM     78  C   UNL A   1      38.874  27.945  30.283  1.00  0.00     0.173 A 
ATOM     79  C   UNL A   1      39.383  28.439  28.003  1.00  0.00     0.173 A 
ATOM     80  F   UNL A   1      39.164  27.393  31.470  1.00  0.00    -0.203 F 
ATOM     81  C   UNL A   1      37.722  28.737  30.192  1.00  0.00     0.198 A 
ATOM     82  C   UNL A   1      38.231  29.223  27.911  1.00  0.00     0.198 A 
ATOM     83  F   UNL A   1      40.184  28.415  26.927  1.00  0.00    -0.203 F 
ATOM     84  F   UNL A   1      36.948  28.920  31.272  1.00  0.00    -0.200 F 
ATOM     85  C   UNL A   1      37.409  29.385  29.009  1.00  0.00     0.200 A 
ATOM     86  F   UNL A   1      37.960  29.873  26.770  1.00  0.00    -0.200 F 
ATOM     87  F   UNL A   1      36.343  30.196  28.940  1.00  0.00    -0.200 F 
ENDBRANCH  53  77
BRANCH  65  88
ATOM     88  C   UNL A   1      44.941  26.116  32.291  1.00  0.00     0.064 A 
ATOM     89  C   UNL A   1      44.515  24.801  32.032  1.00  0.00     0.173 A 
ATOM     90  C   UNL A   1      45.260  26.437  33.617  1.00  0.00     0.173 A 
ATOM     91  F   UNL A   1      44.294  24.377  30.781  1.00  0.00    -0.203 F 
ATOM     92  C   UNL A   1      44.372  23.872  33.060  1.00  0.00     0.198 A 
ATOM     93  C   UNL A   1      45.157  25.496  34.636  1.00  0.00     0.198 A 
ATOM     94  F   UNL A   1      45.726  27.660  33.919  1.00  0.00    -0.203 F 
ATOM     95  F   UNL A   1      43.950  22.627  32.789  1.00  0.00    -0.200 F 
ATOM     96  C   UNL A   1      44.702  24.217  34.360  1.00  0.00     0.200 A 
ATOM     97  F   UNL A   1      45.530  25.821  35.881  1.00  0.00    -0.200 F 
ATOM     98  F   UNL A   1      44.607  23.311  35.343  1.00  0.00    -0.200 F 
ENDBRANCH  65  88
ENDBRANCH  39  40
ENDBRANCH  31  34
ENDBRANCH  29  30
ENDBRANCH  28  29
ENDBRANCH  27  28
ENDBRANCH   1  27
TORSDOF 15
ENDMDL
MODEL 2
REMARK VINA RESULT:     -12.3      3.081      8.956
REMARK SMILES Cc1oc(C)c(C(=O)Nc2cc(C(=O)NCCCCCCNC(=O)c3ccc(-c4c5nc(c(-c6c(F)c(F)c(F)c(F)c6F)c6ccc([nH]6)c(-c6c(F)c(F)c(F)c(F)c6F)c6nc(c(-c7c(F)c(F)c(F)c(F)c7F)c7ccc4[nH]7)C=C6)C=C5)cc3)ccc2Cl)c1C
REMARK SMILES IDX 18 1 17 2 16 3 15 4 13 5 14 6 12 8 10 9 11 10 90 11 89 12
REMARK SMILES IDX 91 13 88 14 9 15 7 16 8 17 6 19 1 20 2 21 3 22 92 23 4 24
REMARK SMILES IDX 93 25 5 26 19 27 20 28 21 29 22 30 23 31 24 33 25 34 26 35
REMARK SMILES IDX 87 36 27 37 86 38 28 39 29 40 30 41 80 42 31 43 85 44 79 45
REMARK SMILES IDX 81 46 32 47 84 48 78 49 77 50 33 52 65 53 45 54 64 55 46 56
REMARK SMILES IDX 49 57 63 58 82 59 47 60 48 61 62 63 83 64 50 65 34 66 35 67
REMARK SMILES IDX 43 68 36 69 37 70 41 71 44 72 38 73 39 74 42 75 40 76 66 77
REMARK SMILES IDX 67 78 75 79 68 80 69 81 73 82 76 83 70 84 71 85 74 86 72 87
REMARK SMILES IDX 51 88 52 89 60 90 53 91 54 92 58 93 61 94 55 95 56 96 59 97
REMARK SMILES IDX 57 98
REMARK H PARENT 15 7 9 18 22 32 81 51 49 62
REMARK Flexibility Score: inf
ROOT
ATOM      1  C   UNL A   1      33.747  28.254  25.610  1.00  0.00     0.002 C 
ENDROOT
BRANCH   1   2
ATOM      2  C   UNL A   1      33.306  29.284  24.560  1.00  0.00     0.021 C 
BRANCH   2   3
ATOM      3  C   UNL A   1      33.395  28.772  23.121  1.00  0.00     0.116 C 
BRANCH   3   4
ATOM      4  N   UNL A   1      32.081  28.626  22.539  1.00  0.00    -0.352 N 
ATOM      5  C   UNL A   1      31.045  27.749  22.691  1.00  0.00     0.251 C 
ATOM      6  O   UNL A   1      30.048  27.981  22.001  1.00  0.00    -0.269 OA
ATOM      7  H   UNL A   1      31.886  29.324  21.874  1.00  0.00     0.163 HD
BRANCH   5   8
ATOM      8  C   UNL A   1      30.995  26.594  23.642  1.00  0.00     0.041 A 
ATOM      9  C   UNL A   1      31.045  24.143  23.770  1.00  0.00     0.061 A 
ATOM     10  C   UNL A   1      31.286  25.336  23.074  1.00  0.00     0.041 A 
ATOM     11  C   UNL A   1      30.714  24.200  25.129  1.00  0.00     0.064 A 
ATOM     12  C   UNL A   1      30.479  25.439  25.725  1.00  0.00     0.023 A 
ATOM     13  Cl  UNL A   1      30.681  22.802  26.141  1.00  0.00    -0.082 Cl
ATOM     14  C   UNL A   1      30.598  26.625  24.982  1.00  0.00     0.015 A 
BRANCH   9  15
ATOM     15  N   UNL A   1      31.036  22.975  22.987  1.00  0.00    -0.320 N 
ATOM     16  C   UNL A   1      32.045  22.044  22.793  1.00  0.00     0.259 C 
ATOM     17  O   UNL A   1      31.851  21.157  21.961  1.00  0.00    -0.269 OA
ATOM     18  H   UNL A   1      30.195  22.792  22.508  1.00  0.00     0.170 HD
BRANCH  16  19
ATOM     19  C   UNL A   1      33.270  22.101  23.591  1.00  0.00     0.084 A 
ATOM     20  C   UNL A   1      36.803  22.714  24.512  1.00  0.00     0.088 C 
ATOM     21  C   UNL A   1      35.366  22.428  24.331  1.00  0.00     0.104 A 
ATOM     22  O   UNL A   1      34.884  21.334  24.970  1.00  0.00    -0.466 OA
ATOM     23  C   UNL A   1      34.343  23.065  23.653  1.00  0.00     0.003 A 
ATOM     24  C   UNL A   1      33.579  21.201  24.603  1.00  0.00     0.114 A 
ATOM     25  C   UNL A   1      34.402  24.450  23.126  1.00  0.00     0.049 C 
ATOM     26  C   UNL A   1      32.820  20.173  25.344  1.00  0.00     0.088 C 
ENDBRANCH  16  19
ENDBRANCH   9  15
ENDBRANCH   5   8
ENDBRANCH   3   4
ENDBRANCH   2   3
ENDBRANCH   1   2
BRANCH   1  27
ATOM     27  C   UNL A   1      33.889  28.782  27.048  1.00  0.00     0.002 C 
BRANCH  27  28
ATOM     28  C   UNL A   1      33.576  30.271  27.262  1.00  0.00     0.021 C 
BRANCH  28  29
ATOM     29  C   UNL A   1      34.796  31.100  27.626  1.00  0.00     0.116 C 
BRANCH  29  30
ATOM     30  N   UNL A   1      34.555  31.947  28.790  1.00  0.00    -0.352 N 
ATOM     31  C   UNL A   1      35.101  31.854  30.054  1.00  0.00     0.251 C 
ATOM     32  H   UNL A   1      33.916  32.684  28.656  1.00  0.00     0.163 HD
ATOM     33  O   UNL A   1      34.558  32.375  31.012  1.00  0.00    -0.269 OA
BRANCH  31  34
ATOM     34  C   UNL A   1      36.365  31.114  30.228  1.00  0.00     0.039 A 
ATOM     35  C   UNL A   1      36.364  29.736  30.463  1.00  0.00     0.014 A 
ATOM     36  C   UNL A   1      37.562  31.824  30.161  1.00  0.00     0.014 A 
ATOM     37  C   UNL A   1      37.582  29.070  30.562  1.00  0.00     0.010 A 
ATOM     38  C   UNL A   1      38.754  31.151  30.104  1.00  0.00     0.010 A 
ATOM     39  C   UNL A   1      38.772  29.787  30.364  1.00  0.00    -0.014 A 
BRANCH  39  40
ATOM     40  C   UNL A   1      40.057  29.104  30.297  1.00  0.00     0.031 A 
ATOM     41  C   UNL A   1      40.705  28.904  31.621  1.00  0.00     0.074 A 
ATOM     42  C   UNL A   1      40.493  28.499  29.171  1.00  0.00     0.049 A 
ATOM     43  N   UNL A   1      41.834  29.389  32.019  1.00  0.00    -0.248 NA
ATOM     44  C   UNL A   1      39.957  28.203  32.679  1.00  0.00     0.031 C 
ATOM     45  C   UNL A   1      39.800  28.360  27.885  1.00  0.00     0.029 A 
ATOM     46  N   UNL A   1      41.622  27.767  28.973  1.00  0.00    -0.354 N 
ATOM     47  C   UNL A   1      42.033  28.907  33.309  1.00  0.00     0.074 A 
ATOM     48  C   UNL A   1      40.778  28.336  33.724  1.00  0.00     0.031 C 
ATOM     49  C   UNL A   1      40.402  27.402  27.146  1.00  0.00     0.029 A 
ATOM     50  C   UNL A   1      41.605  26.969  27.832  1.00  0.00     0.049 A 
ATOM     51  H   UNL A   1      42.390  27.797  29.588  1.00  0.00     0.167 HD
ATOM     52  C   UNL A   1      43.287  28.817  33.833  1.00  0.00     0.037 A 
ATOM     53  C   UNL A   1      42.496  25.993  27.516  1.00  0.00     0.037 A 
ATOM     54  C   UNL A   1      44.219  29.599  33.058  1.00  0.00     0.049 A 
ATOM     55  C   UNL A   1      43.716  26.237  28.333  1.00  0.00     0.074 A 
ATOM     56  C   UNL A   1      44.310  30.939  32.730  1.00  0.00     0.029 A 
ATOM     57  N   UNL A   1      45.016  28.938  32.155  1.00  0.00    -0.354 N 
ATOM     58  N   UNL A   1      44.510  27.256  28.152  1.00  0.00    -0.248 NA
ATOM     59  C   UNL A   1      43.767  25.631  29.657  1.00  0.00     0.031 C 
ATOM     60  C   UNL A   1      44.724  30.952  31.366  1.00  0.00     0.029 A 
ATOM     61  C   UNL A   1      44.960  29.634  30.975  1.00  0.00     0.049 A 
ATOM     62  H   UNL A   1      45.531  28.115  32.322  1.00  0.00     0.167 HD
ATOM     63  C   UNL A   1      44.807  27.697  29.432  1.00  0.00     0.074 A 
ATOM     64  C   UNL A   1      44.381  26.614  30.320  1.00  0.00     0.031 C 
ATOM     65  C   UNL A   1      45.079  29.011  29.680  1.00  0.00     0.037 A 
BRANCH  52  66
ATOM     66  C   UNL A   1      43.752  27.755  34.799  1.00  0.00     0.064 A 
ATOM     67  C   UNL A   1      43.646  26.400  34.424  1.00  0.00     0.173 A 
ATOM     68  C   UNL A   1      44.003  27.989  36.167  1.00  0.00     0.173 A 
ATOM     69  F   UNL A   1      43.397  26.059  33.151  1.00  0.00    -0.203 F 
ATOM     70  C   UNL A   1      43.693  25.366  35.364  1.00  0.00     0.198 A 
ATOM     71  C   UNL A   1      44.105  26.952  37.093  1.00  0.00     0.198 A 
ATOM     72  F   UNL A   1      44.048  29.220  36.687  1.00  0.00    -0.203 F 
ATOM     73  F   UNL A   1      43.451  24.106  34.980  1.00  0.00    -0.200 F 
ATOM     74  C   UNL A   1      43.915  25.645  36.700  1.00  0.00     0.200 A 
ATOM     75  F   UNL A   1      44.305  27.244  38.387  1.00  0.00    -0.200 F 
ATOM     76  F   UNL A   1      43.896  24.664  37.611  1.00  0.00    -0.200 F 
ENDBRANCH  52  66
BRANCH  53  77
ATOM     77  C   UNL A   1      42.269  24.716  26.793  1.00  0.00     0.064 A 
ATOM     78  C   UNL A   1      43.097  24.330  25.724  1.00  0.00     0.173 A 
ATOM     79  C   UNL A   1      41.418  23.719  27.309  1.00  0.00     0.173 A 
ATOM     80  F   UNL A   1      43.969  25.202  25.197  1.00  0.00    -0.203 F 
ATOM     81  C   UNL A   1      43.097  23.021  25.227  1.00  0.00     0.198 A 
ATOM     82  C   UNL A   1      41.414  22.416  26.807  1.00  0.00     0.198 A 
ATOM     83  F   UNL A   1      40.642  23.958  28.376  1.00  0.00    -0.203 F 
ATOM     84  F   UNL A   1      43.950  22.675  24.252  1.00  0.00    -0.200 F 
ATOM     85  C   UNL A   1      42.264  22.062  25.777  1.00  0.00     0.200 A 
ATOM     86  F   UNL A   1      40.628  21.490  27.375  1.00  0.00    -0.200 F 
ATOM     87  F   UNL A   1      42.310  20.793  25.347  1.00  0.00    -0.200 F 
ENDBRANCH  53  77
BRANCH  65  88
ATOM     88  C   UNL A   1      45.302  29.930  28.508  1.00  0.00     0.064 A 
ATOM     89  C   UNL A   1      44.280  30.615  27.828  1.00  0.00     0.173 A 
ATOM     90  C   UNL A   1      46.624  30.249  28.169  1.00  0.00     0.173 A 
ATOM     91  F   UNL A   1      42.994  30.452  28.161  1.00  0.00    -0.203 F 
ATOM     92  C   UNL A   1      44.572  31.540  26.827  1.00  0.00     0.198 A 
ATOM     93  C   UNL A   1      46.914  31.204  27.199  1.00  0.00     0.198 A 
ATOM     94  F   UNL A   1      47.644  29.670  28.822  1.00  0.00    -0.203 F 
ATOM     95  F   UNL A   1      43.578  32.171  26.183  1.00  0.00    -0.200 F 
ATOM     96  C   UNL A   1      45.889  31.840  26.519  1.00  0.00     0.200 A 
ATOM     97  F   UNL A   1      48.188  31.528  26.947  1.00  0.00    -0.200 F 
ATOM     98  F   UNL A   1      46.171  32.761  25.588  1.00  0.00    -0.200 F 
ENDBRANCH  65  88
ENDBRANCH  39  40
ENDBRANCH  31  34
ENDBRANCH  29  30
ENDBRANCH  28  29
ENDBRANCH  27  28
ENDBRANCH   1  27
TORSDOF 15
ENDMDL
MODEL 3
REMARK VINA RESULT:     -12.2      1.360      2.523
REMARK SMILES Cc1oc(C)c(C(=O)Nc2cc(C(=O)NCCCCCCNC(=O)c3ccc(-c4c5nc(c(-c6c(F)c(F)c(F)c(F)c6F)c6ccc([nH]6)c(-c6c(F)c(F)c(F)c(F)c6F)c6nc(c(-c7c(F)c(F)c(F)c(F)c7F)c7ccc4[nH]7)C=C6)C=C5)cc3)ccc2Cl)c1C
REMARK SMILES IDX 18 1 17 2 16 3 15 4 13 5 14 6 12 8 10 9 11 10 90 11 89 12
REMARK SMILES IDX 91 13 88 14 9 15 7 16 8 17 6 19 1 20 2 21 3 22 92 23 4 24
REMARK SMILES IDX 93 25 5 26 19 27 20 28 21 29 22 30 23 31 24 33 25 34 26 35
REMARK SMILES IDX 87 36 27 37 86 38 28 39 29 40 30 41 80 42 31 43 85 44 79 45
REMARK SMILES IDX 81 46 32 47 84 48 78 49 77 50 33 52 65 53 45 54 64 55 46 56
REMARK SMILES IDX 49 57 63 58 82 59 47 60 48 61 62 63 83 64 50 65 34 66 35 67
REMARK SMILES IDX 43 68 36 69 37 70 41 71 44 72 38 73 39 74 42 75 40 76 66 77
REMARK SMILES IDX 67 78 75 79 68 80 69 81 73 82 76 83 70 84 71 85 74 86 72 87
REMARK SMILES IDX 51 88 52 89 60 90 53 91 54 92 58 93 61 94 55 95 56 96 59 97
REMARK SMILES IDX 57 98
REMARK H PARENT 15 7 9 18 22 32 81 51 49 62
REMARK Flexibility Score: inf
ROOT
ATOM      1  C   UNL A   1      40.816  20.853  26.476  1.00  0.00     0.002 C 
ENDROOT
BRANCH   1   2
ATOM      2  C   UNL A   1      39.731  19.970  25.843  1.00  0.00     0.021 C 
BRANCH   2   3
ATOM      3  C   UNL A   1      38.488  20.744  25.401  1.00  0.00     0.116 C 
BRANCH   3   4
ATOM      4  N   UNL A   1      38.420  22.033  26.049  1.00  0.00    -0.352 N 
ATOM      5  C   UNL A   1      37.721  23.188  25.842  1.00  0.00     0.251 C 
ATOM      6  O   UNL A   1      37.935  24.092  26.654  1.00  0.00    -0.269 OA
ATOM      7  H   UNL A   1      39.021  22.094  26.825  1.00  0.00     0.163 HD
BRANCH   5   8
ATOM      8  C   UNL A   1      36.697  23.422  24.774  1.00  0.00     0.041 A 
ATOM      9  C   UNL A   1      34.327  23.938  24.397  1.00  0.00     0.061 A 
ATOM     10  C   UNL A   1      35.452  23.902  25.233  1.00  0.00     0.041 A 
ATOM     11  C   UNL A   1      34.486  23.700  23.027  1.00  0.00     0.064 A 
ATOM     12  C   UNL A   1      35.726  23.280  22.544  1.00  0.00     0.023 A 
ATOM     13  Cl  UNL A   1      33.235  24.000  21.876  1.00  0.00    -0.082 Cl
ATOM     14  C   UNL A   1      36.817  23.124  23.414  1.00  0.00     0.015 A 
BRANCH   9  15
ATOM     15  N   UNL A   1      33.091  24.092  25.050  1.00  0.00    -0.320 N 
ATOM     16  C   UNL A   1      32.190  23.120  25.458  1.00  0.00     0.259 C 
ATOM     17  O   UNL A   1      31.107  23.498  25.907  1.00  0.00    -0.269 OA
ATOM     18  H   UNL A   1      32.829  25.020  25.247  1.00  0.00     0.170 HD
BRANCH  16  19
ATOM     19  C   UNL A   1      32.548  21.702  25.394  1.00  0.00     0.084 A 
ATOM     20  C   UNL A   1      32.363  18.095  24.581  1.00  0.00     0.088 C 
ATOM     21  C   UNL A   1      32.613  19.497  24.973  1.00  0.00     0.104 A 
ATOM     22  O   UNL A   1      33.194  19.689  26.183  1.00  0.00    -0.466 OA
ATOM     23  C   UNL A   1      32.411  20.715  24.350  1.00  0.00     0.003 A 
ATOM     24  C   UNL A   1      33.252  21.035  26.388  1.00  0.00     0.114 A 
ATOM     25  C   UNL A   1      32.117  20.896  22.908  1.00  0.00     0.049 C 
ATOM     26  C   UNL A   1      34.027  21.457  27.572  1.00  0.00     0.088 C 
ENDBRANCH  16  19
ENDBRANCH   9  15
ENDBRANCH   5   8
ENDBRANCH   3   4
ENDBRANCH   2   3
ENDBRANCH   1   2
BRANCH   1  27
ATOM     27  C   UNL A   1      42.089  20.124  26.940  1.00  0.00     0.002 C 
BRANCH  27  28
ATOM     28  C   UNL A   1      42.469  18.855  26.160  1.00  0.00     0.021 C 
BRANCH  28  29
ATOM     29  C   UNL A   1      43.967  18.604  26.104  1.00  0.00     0.116 C 
BRANCH  29  30
ATOM     30  N   UNL A   1      44.496  18.745  24.752  1.00  0.00    -0.352 N 
ATOM     31  C   UNL A   1      44.591  19.883  23.976  1.00  0.00     0.251 C 
ATOM     32  H   UNL A   1      44.830  17.918  24.336  1.00  0.00     0.163 HD
ATOM     33  O   UNL A   1      44.704  19.809  22.765  1.00  0.00    -0.269 OA
BRANCH  31  34
ATOM     34  C   UNL A   1      44.559  21.199  24.639  1.00  0.00     0.039 A 
ATOM     35  C   UNL A   1      43.606  22.159  24.286  1.00  0.00     0.014 A 
ATOM     36  C   UNL A   1      45.509  21.468  25.622  1.00  0.00     0.014 A 
ATOM     37  C   UNL A   1      43.577  23.365  24.980  1.00  0.00     0.010 A 
ATOM     38  C   UNL A   1      45.387  22.585  26.406  1.00  0.00     0.010 A 
ATOM     39  C   UNL A   1      44.463  23.560  26.051  1.00  0.00    -0.014 A 
BRANCH  39  40
ATOM     40  C   UNL A   1      44.360  24.735  26.905  1.00  0.00     0.031 A 
ATOM     41  C   UNL A   1      45.421  25.751  26.667  1.00  0.00     0.074 A 
ATOM     42  C   UNL A   1      43.269  24.981  27.662  1.00  0.00     0.049 A 
ATOM     43  N   UNL A   1      46.320  26.151  27.502  1.00  0.00    -0.248 NA
ATOM     44  C   UNL A   1      45.599  26.285  25.306  1.00  0.00     0.031 C 
ATOM     45  C   UNL A   1      42.024  24.209  27.743  1.00  0.00     0.029 A 
ATOM     46  N   UNL A   1      42.995  26.058  28.447  1.00  0.00    -0.354 N 
ATOM     47  C   UNL A   1      47.064  27.123  26.840  1.00  0.00     0.074 A 
ATOM     48  C   UNL A   1      46.694  27.036  25.452  1.00  0.00     0.031 C 
ATOM     49  C   UNL A   1      41.062  24.960  28.325  1.00  0.00     0.029 A 
ATOM     50  C   UNL A   1      41.654  26.199  28.794  1.00  0.00     0.049 A 
ATOM     51  H   UNL A   1      43.690  26.689  28.745  1.00  0.00     0.167 HD
ATOM     52  C   UNL A   1      47.752  28.069  27.537  1.00  0.00     0.037 A 
ATOM     53  C   UNL A   1      41.081  27.283  29.377  1.00  0.00     0.037 A 
ATOM     54  C   UNL A   1      47.886  27.684  28.921  1.00  0.00     0.049 A 
ATOM     55  C   UNL A   1      42.178  28.077  29.993  1.00  0.00     0.074 A 
ATOM     56  C   UNL A   1      48.459  26.604  29.566  1.00  0.00     0.029 A 
ATOM     57  N   UNL A   1      47.029  28.254  29.832  1.00  0.00    -0.354 N 
ATOM     58  N   UNL A   1      42.865  27.673  31.026  1.00  0.00    -0.248 NA
ATOM     59  C   UNL A   1      42.833  29.074  29.157  1.00  0.00     0.031 C 
ATOM     60  C   UNL A   1      47.549  26.284  30.616  1.00  0.00     0.029 A 
ATOM     61  C   UNL A   1      46.535  27.242  30.615  1.00  0.00     0.049 A 
ATOM     62  H   UNL A   1      46.810  29.211  29.908  1.00  0.00     0.167 HD
ATOM     63  C   UNL A   1      44.176  28.004  30.723  1.00  0.00     0.074 A 
ATOM     64  C   UNL A   1      44.088  28.930  29.593  1.00  0.00     0.031 C 
ATOM     65  C   UNL A   1      45.219  27.265  31.203  1.00  0.00     0.037 A 
BRANCH  52  66
ATOM     66  C   UNL A   1      47.979  29.490  27.084  1.00  0.00     0.064 A 
ATOM     67  C   UNL A   1      49.279  30.032  27.163  1.00  0.00     0.173 A 
ATOM     68  C   UNL A   1      46.944  30.425  26.872  1.00  0.00     0.173 A 
ATOM     69  F   UNL A   1      50.339  29.238  27.374  1.00  0.00    -0.203 F 
ATOM     70  C   UNL A   1      49.510  31.410  27.127  1.00  0.00     0.198 A 
ATOM     71  C   UNL A   1      47.186  31.796  26.781  1.00  0.00     0.198 A 
ATOM     72  F   UNL A   1      45.654  30.075  26.856  1.00  0.00    -0.203 F 
ATOM     73  F   UNL A   1      50.745  31.882  27.344  1.00  0.00    -0.200 F 
ATOM     74  C   UNL A   1      48.462  32.291  26.944  1.00  0.00     0.200 A 
ATOM     75  F   UNL A   1      46.153  32.636  26.619  1.00  0.00    -0.200 F 
ATOM     76  F   UNL A   1      48.671  33.613  26.974  1.00  0.00    -0.200 F 
ENDBRANCH  52  66
BRANCH  53  77
ATOM     77  C   UNL A   1      39.713  27.832  29.193  1.00  0.00     0.064 A 
ATOM     78  C   UNL A   1      38.834  27.970  30.282  1.00  0.00     0.173 A 
ATOM     79  C   UNL A   1      39.338  28.492  28.006  1.00  0.00     0.173 A 
ATOM     80  F   UNL A   1      39.131  27.412  31.464  1.00  0.00    -0.203 F 
ATOM     81  C   UNL A   1      37.671  28.747  30.197  1.00  0.00     0.198 A 
ATOM     82  C   UNL A   1      38.174  29.259  27.921  1.00  0.00     0.198 A 
ATOM     83  F   UNL A   1      40.139  28.488  26.931  1.00  0.00    -0.203 F 
ATOM     84  F   UNL A   1      36.894  28.909  31.278  1.00  0.00    -0.200 F 
ATOM     85  C   UNL A   1      37.349  29.400  29.020  1.00  0.00     0.200 A 
ATOM     86  F   UNL A   1      37.895  29.916  26.785  1.00  0.00    -0.200 F 
ATOM     87  F   UNL A   1      36.272  30.197  28.957  1.00  0.00    -0.200 F 
ENDBRANCH  53  77
BRANCH  65  88
ATOM     88  C   UNL A   1      44.939  26.241  32.271  1.00  0.00     0.064 A 
ATOM     89  C   UNL A   1      44.838  26.529  33.643  1.00  0.00     0.173 A 
ATOM     90  C   UNL A   1      44.601  24.945  31.861  1.00  0.00     0.173 A 
ATOM     91  F   UNL A   1      45.038  27.768  34.109  1.00  0.00    -0.203 F 
ATOM     92  C   UNL A   1      44.461  25.551  34.562  1.00  0.00     0.198 A 
ATOM     93  C   UNL A   1      44.183  23.981  32.774  1.00  0.00     0.198 A 
ATOM     94  F   UNL A   1      44.623  24.625  30.557  1.00  0.00    -0.203 F 
ATOM     95  F   UNL A   1      44.386  25.847  35.868  1.00  0.00    -0.200 F 
ATOM     96  C   UNL A   1      44.125  24.280  34.125  1.00  0.00     0.200 A 
ATOM     97  F   UNL A   1      43.808  22.772  32.338  1.00  0.00    -0.200 F 
ATOM     98  F   UNL A   1      43.720  23.351  35.001  1.00  0.00    -0.200 F 
ENDBRANCH  65  88
ENDBRANCH  39  40
ENDBRANCH  31  34
ENDBRANCH  29  30
ENDBRANCH  28  29
ENDBRANCH  27  28
ENDBRANCH   1  27
TORSDOF 15
ENDMDL
