MODEL 1
REMARK VINA RESULT:     -14.1      0.000      0.000
REMARK SMILES O=C(NCCCCCCNC(=O)[C@H](c1c[nH]c2ccc(Cl)cc12)[NH+]1CCN(c2cccc(Cl)c2)CC1)c1ccc(-c2c3nc(c(-c4c(F)c(F)c(F)c(F)c4F)c4ccc([nH]4)c(-c4c(F)c(F)c(F)c(F)c4F)c4nc(c(-c5c(F)c(F)c(F)c(F)c5F)c5ccc2[nH]5)C=C4)C=C3)cc1
REMARK SMILES IDX 6 1 5 2 4 3 3 4 1 5 2 6 37 8 38 9 99 10 39 11 98 12 40 13
REMARK SMILES IDX 41 14 42 15 92 16 43 17 97 18 91 19 93 20 44 21 96 22 90 23
REMARK SMILES IDX 89 24 45 26 77 27 57 28 76 29 58 30 61 31 75 32 94 33 59 34
REMARK SMILES IDX 60 35 74 37 95 38 62 39 46 40 47 41 55 42 48 43 49 44 53 45
REMARK SMILES IDX 56 46 50 47 51 48 54 49 52 50 78 51 79 52 87 53 80 54 81 55
REMARK SMILES IDX 85 56 88 57 82 58 83 59 86 60 84 61 63 62 64 63 72 64 65 65
REMARK SMILES IDX 66 66 70 67 73 68 67 69 68 70 71 71 69 72 7 73 8 74 9 75
REMARK SMILES IDX 10 76 11 77 12 79 13 80 24 81 25 82 36 83 26 85 35 86 27 87
REMARK SMILES IDX 28 88 29 89 34 90 30 91 32 92 31 93 33 94 14 95 15 96 23 97
REMARK SMILES IDX 16 98 17 99 22 100 18 102 20 103 19 104 21 105
REMARK H PARENT 3 7 93 25 61 36 10 78 24 84 16 101
REMARK Flexibility Score: inf
ROOT
ATOM      1  C   UNL A   1      31.627  30.779  25.993  1.00  0.00     0.002 C 
ENDROOT
BRANCH   1   2
ATOM      2  C   UNL A   1      31.402  32.054  26.811  1.00  0.00     0.021 C 
BRANCH   2   3
ATOM      3  C   UNL A   1      32.664  32.768  27.271  1.00  0.00     0.116 C 
BRANCH   3   4
ATOM      4  N   UNL A   1      32.424  34.164  27.594  1.00  0.00    -0.352 N 
ATOM      5  O   UNL A   1      32.536  36.054  28.818  1.00  0.00    -0.269 OA
ATOM      6  C   UNL A   1      32.995  34.941  28.564  1.00  0.00     0.251 C 
ATOM      7  H   UNL A   1      31.753  34.617  27.032  1.00  0.00     0.163 HD
BRANCH   6   8
ATOM      8  C   UNL A   1      34.168  34.443  29.309  1.00  0.00     0.039 A 
ATOM      9  C   UNL A   1      34.003  33.799  30.540  1.00  0.00     0.014 A 
ATOM     10  C   UNL A   1      35.440  34.573  28.747  1.00  0.00     0.014 A 
ATOM     11  C   UNL A   1      35.115  33.366  31.249  1.00  0.00     0.010 A 
ATOM     12  C   UNL A   1      36.550  34.061  29.421  1.00  0.00     0.010 A 
ATOM     13  C   UNL A   1      36.393  33.451  30.676  1.00  0.00    -0.014 A 
BRANCH  13  14
ATOM     14  C   UNL A   1      37.526  32.753  31.330  1.00  0.00     0.031 A 
ATOM     15  C   UNL A   1      38.205  31.586  30.682  1.00  0.00     0.074 A 
ATOM     16  C   UNL A   1      37.915  33.193  32.543  1.00  0.00     0.049 A 
ATOM     17  N   UNL A   1      39.181  30.846  31.145  1.00  0.00    -0.248 NA
ATOM     18  C   UNL A   1      37.731  31.188  29.347  1.00  0.00     0.031 C 
ATOM     19  C   UNL A   1      37.302  34.310  33.269  1.00  0.00     0.029 A 
ATOM     20  N   UNL A   1      38.907  32.760  33.385  1.00  0.00    -0.354 N 
ATOM     21  C   UNL A   1      39.424  29.885  30.174  1.00  0.00     0.074 A 
ATOM     22  C   UNL A   1      38.488  30.126  29.096  1.00  0.00     0.031 C 
ATOM     23  C   UNL A   1      37.942  34.486  34.432  1.00  0.00     0.029 A 
ATOM     24  C   UNL A   1      38.957  33.451  34.571  1.00  0.00     0.049 A 
ATOM     25  H   UNL A   1      39.522  32.024  33.161  1.00  0.00     0.167 HD
ATOM     26  C   UNL A   1      40.348  28.896  30.193  1.00  0.00     0.037 A 
ATOM     27  C   UNL A   1      39.706  33.247  35.669  1.00  0.00     0.037 A 
ATOM     28  C   UNL A   1      41.283  28.683  31.269  1.00  0.00     0.049 A 
ATOM     29  C   UNL A   1      40.690  32.112  35.667  1.00  0.00     0.074 A 
ATOM     30  C   UNL A   1      42.313  27.760  31.344  1.00  0.00     0.029 A 
ATOM     31  N   UNL A   1      41.292  29.388  32.463  1.00  0.00    -0.354 N 
ATOM     32  N   UNL A   1      40.970  31.264  34.709  1.00  0.00    -0.248 NA
ATOM     33  C   UNL A   1      41.458  31.900  36.901  1.00  0.00     0.031 C 
ATOM     34  C   UNL A   1      42.896  27.858  32.610  1.00  0.00     0.029 A 
ATOM     35  C   UNL A   1      42.274  28.884  33.302  1.00  0.00     0.049 A 
ATOM     36  H   UNL A   1      40.690  30.135  32.683  1.00  0.00     0.167 HD
ATOM     37  C   UNL A   1      41.950  30.425  35.218  1.00  0.00     0.074 A 
ATOM     38  C   UNL A   1      42.242  30.890  36.558  1.00  0.00     0.031 C 
ATOM     39  C   UNL A   1      42.547  29.358  34.634  1.00  0.00     0.037 A 
BRANCH  26  40
ATOM     40  C   UNL A   1      40.398  27.940  29.037  1.00  0.00     0.064 A 
ATOM     41  C   UNL A   1      39.624  26.771  29.007  1.00  0.00     0.173 A 
ATOM     42  C   UNL A   1      41.146  28.260  27.893  1.00  0.00     0.173 A 
ATOM     43  F   UNL A   1      38.896  26.416  30.077  1.00  0.00    -0.203 F 
ATOM     44  C   UNL A   1      39.600  25.957  27.877  1.00  0.00     0.198 A 
ATOM     45  C   UNL A   1      41.100  27.458  26.755  1.00  0.00     0.198 A 
ATOM     46  F   UNL A   1      41.898  29.371  27.866  1.00  0.00    -0.203 F 
ATOM     47  F   UNL A   1      38.866  24.836  27.877  1.00  0.00    -0.200 F 
ATOM     48  C   UNL A   1      40.328  26.307  26.748  1.00  0.00     0.200 A 
ATOM     49  F   UNL A   1      41.791  27.808  25.662  1.00  0.00    -0.200 F 
ATOM     50  F   UNL A   1      40.281  25.537  25.653  1.00  0.00    -0.200 F 
ENDBRANCH  26  40
BRANCH  27  51
ATOM     51  C   UNL A   1      39.512  34.095  36.875  1.00  0.00     0.064 A 
ATOM     52  C   UNL A   1      40.123  35.351  36.984  1.00  0.00     0.173 A 
ATOM     53  C   UNL A   1      38.734  33.652  37.956  1.00  0.00     0.173 A 
ATOM     54  F   UNL A   1      40.890  35.813  35.986  1.00  0.00    -0.203 F 
ATOM     55  C   UNL A   1      39.992  36.116  38.143  1.00  0.00     0.198 A 
ATOM     56  C   UNL A   1      38.571  34.435  39.097  1.00  0.00     0.198 A 
ATOM     57  F   UNL A   1      38.121  32.461  37.901  1.00  0.00    -0.203 F 
ATOM     58  F   UNL A   1      40.640  37.282  38.248  1.00  0.00    -0.200 F 
ATOM     59  C   UNL A   1      39.212  35.659  39.195  1.00  0.00     0.200 A 
ATOM     60  F   UNL A   1      37.800  33.997  40.101  1.00  0.00    -0.200 F 
ATOM     61  F   UNL A   1      39.090  36.393  40.309  1.00  0.00    -0.200 F 
ENDBRANCH  27  51
BRANCH  39  62
ATOM     62  C   UNL A   1      43.579  28.628  35.441  1.00  0.00     0.064 A 
ATOM     63  C   UNL A   1      43.232  27.549  36.268  1.00  0.00     0.173 A 
ATOM     64  C   UNL A   1      44.933  28.984  35.357  1.00  0.00     0.173 A 
ATOM     65  F   UNL A   1      41.947  27.183  36.397  1.00  0.00    -0.203 F 
ATOM     66  C   UNL A   1      44.201  26.868  37.000  1.00  0.00     0.198 A 
ATOM     67  C   UNL A   1      45.903  28.280  36.064  1.00  0.00     0.198 A 
ATOM     68  F   UNL A   1      45.318  30.007  34.578  1.00  0.00    -0.203 F 
ATOM     69  F   UNL A   1      43.840  25.874  37.822  1.00  0.00    -0.200 F 
ATOM     70  C   UNL A   1      45.536  27.228  36.889  1.00  0.00     0.200 A 
ATOM     71  F   UNL A   1      47.194  28.618  35.944  1.00  0.00    -0.200 F 
ATOM     72  F   UNL A   1      46.469  26.563  37.585  1.00  0.00    -0.200 F 
ENDBRANCH  39  62
ENDBRANCH  13  14
ENDBRANCH   6   8
ENDBRANCH   3   4
ENDBRANCH   2   3
ENDBRANCH   1   2
BRANCH   1  73
ATOM     73  C   UNL A   1      33.036  30.173  26.027  1.00  0.00     0.002 C 
BRANCH  73  74
ATOM     74  C   UNL A   1      33.370  29.276  27.215  1.00  0.00     0.021 C 
BRANCH  74  75
ATOM     75  C   UNL A   1      33.091  27.797  27.036  1.00  0.00     0.116 C 
BRANCH  75  76
ATOM     76  N   UNL A   1      31.747  27.366  26.833  1.00  0.00    -0.351 N 
ATOM     77  C   UNL A   1      31.269  26.422  25.954  1.00  0.00     0.283 C 
ATOM     78  H   UNL A   1      31.069  27.803  27.398  1.00  0.00     0.163 HD
ATOM     79  O   UNL A   1      30.153  25.999  26.301  1.00  0.00    -0.268 OA
BRANCH  77  80
ATOM     80  C   UNL A   1      31.936  26.042  24.526  1.00  0.00     0.307 C 
BRANCH  80  81
ATOM     81  N   UNL A   1      31.354  24.902  23.728  1.00  0.00    -0.318 N 
ATOM     82  C   UNL A   1      32.312  24.366  22.687  1.00  0.00     0.284 C 
ATOM     83  C   UNL A   1      30.885  23.715  24.448  1.00  0.00     0.284 C 
ATOM     84  H   UNL A   1      30.540  25.378  23.339  1.00  0.00     0.349 HD
ATOM     85  C   UNL A   1      33.455  23.414  23.183  1.00  0.00     0.178 C 
ATOM     86  C   UNL A   1      32.009  22.854  25.070  1.00  0.00     0.178 C 
ATOM     87  N   UNL A   1      32.874  22.348  24.012  1.00  0.00    -0.360 N 
BRANCH  87  88
ATOM     88  C   UNL A   1      33.441  21.105  24.224  1.00  0.00     0.038 A 
ATOM     89  C   UNL A   1      34.749  21.035  24.741  1.00  0.00     0.026 A 
ATOM     90  C   UNL A   1      32.797  19.900  23.936  1.00  0.00     0.046 A 
ATOM     91  C   UNL A   1      35.406  19.822  24.944  1.00  0.00     0.004 A 
ATOM     92  C   UNL A   1      33.456  18.679  24.135  1.00  0.00     0.043 A 
ATOM     93  C   UNL A   1      34.757  18.636  24.636  1.00  0.00     0.020 A 
ATOM     94  Cl  UNL A   1      32.659  17.204  23.741  1.00  0.00    -0.084 Cl
ENDBRANCH  87  88
ENDBRANCH  80  81
BRANCH  80  95
ATOM     95  C   UNL A   1      31.712  27.273  23.625  1.00  0.00     0.044 A 
ATOM     96  C   UNL A   1      32.721  28.054  23.075  1.00  0.00     0.094 A 
ATOM     97  C   UNL A   1      30.476  27.908  23.261  1.00  0.00     0.011 A 
ATOM     98  N   UNL A   1      32.160  29.080  22.378  1.00  0.00    -0.361 N 
ATOM     99  C   UNL A   1      30.794  29.046  22.510  1.00  0.00     0.046 A 
ATOM    100  C   UNL A   1      29.117  27.653  23.539  1.00  0.00     0.031 A 
ATOM    101  H   UNL A   1      32.661  29.750  21.857  1.00  0.00     0.166 HD
ATOM    102  C   UNL A   1      29.834  29.940  22.027  1.00  0.00     0.028 A 
ATOM    103  C   UNL A   1      28.148  28.549  23.070  1.00  0.00     0.041 A 
ATOM    104  C   UNL A   1      28.497  29.674  22.328  1.00  0.00     0.022 A 
ATOM    105  Cl  UNL A   1      26.490  28.260  23.437  1.00  0.00    -0.084 Cl
ENDBRANCH  80  95
ENDBRANCH  77  80
ENDBRANCH  75  76
ENDBRANCH  74  75
ENDBRANCH  73  74
ENDBRANCH   1  73
TORSDOF 16
ENDMDL
MODEL 2
REMARK VINA RESULT:     -14.0      0.300      1.538
REMARK SMILES O=C(NCCCCCCNC(=O)[C@H](c1c[nH]c2ccc(Cl)cc12)[NH+]1CCN(c2cccc(Cl)c2)CC1)c1ccc(-c2c3nc(c(-c4c(F)c(F)c(F)c(F)c4F)c4ccc([nH]4)c(-c4c(F)c(F)c(F)c(F)c4F)c4nc(c(-c5c(F)c(F)c(F)c(F)c5F)c5ccc2[nH]5)C=C4)C=C3)cc1
REMARK SMILES IDX 6 1 5 2 4 3 3 4 1 5 2 6 37 8 38 9 99 10 39 11 98 12 40 13
REMARK SMILES IDX 41 14 42 15 92 16 43 17 97 18 91 19 93 20 44 21 96 22 90 23
REMARK SMILES IDX 89 24 45 26 77 27 57 28 76 29 58 30 61 31 75 32 94 33 59 34
REMARK SMILES IDX 60 35 74 37 95 38 62 39 46 40 47 41 55 42 48 43 49 44 53 45
REMARK SMILES IDX 56 46 50 47 51 48 54 49 52 50 78 51 79 52 87 53 80 54 81 55
REMARK SMILES IDX 85 56 88 57 82 58 83 59 86 60 84 61 63 62 64 63 72 64 65 65
REMARK SMILES IDX 66 66 70 67 73 68 67 69 68 70 71 71 69 72 7 73 8 74 9 75
REMARK SMILES IDX 10 76 11 77 12 79 13 80 24 81 25 82 36 83 26 85 35 86 27 87
REMARK SMILES IDX 28 88 29 89 34 90 30 91 32 92 31 93 33 94 14 95 15 96 23 97
REMARK SMILES IDX 16 98 17 99 22 100 18 102 20 103 19 104 21 105
REMARK H PARENT 3 7 93 25 61 36 10 78 24 84 16 101
REMARK Flexibility Score: inf
ROOT
ATOM      1  C   UNL A   1      31.569  30.785  26.071  1.00  0.00     0.002 C 
ENDROOT
BRANCH   1   2
ATOM      2  C   UNL A   1      31.351  32.157  26.716  1.00  0.00     0.021 C 
BRANCH   2   3
ATOM      3  C   UNL A   1      32.607  32.846  27.228  1.00  0.00     0.116 C 
BRANCH   3   4
ATOM      4  N   UNL A   1      32.367  34.230  27.598  1.00  0.00    -0.352 N 
ATOM      5  O   UNL A   1      32.494  36.083  28.877  1.00  0.00    -0.269 OA
ATOM      6  C   UNL A   1      32.953  34.981  28.580  1.00  0.00     0.251 C 
ATOM      7  H   UNL A   1      31.683  34.697  27.063  1.00  0.00     0.163 HD
BRANCH   6   8
ATOM      8  C   UNL A   1      34.142  34.466  29.287  1.00  0.00     0.039 A 
ATOM      9  C   UNL A   1      34.002  33.757  30.484  1.00  0.00     0.014 A 
ATOM     10  C   UNL A   1      35.406  34.649  28.720  1.00  0.00     0.014 A 
ATOM     11  C   UNL A   1      35.128  33.308  31.159  1.00  0.00     0.010 A 
ATOM     12  C   UNL A   1      36.532  34.123  29.357  1.00  0.00     0.010 A 
ATOM     13  C   UNL A   1      36.399  33.446  30.579  1.00  0.00    -0.014 A 
BRANCH  13  14
ATOM     14  C   UNL A   1      37.551  32.737  31.185  1.00  0.00     0.031 A 
ATOM     15  C   UNL A   1      38.180  31.552  30.518  1.00  0.00     0.074 A 
ATOM     16  C   UNL A   1      38.005  33.182  32.373  1.00  0.00     0.049 A 
ATOM     17  N   UNL A   1      39.164  30.800  30.941  1.00  0.00    -0.248 NA
ATOM     18  C   UNL A   1      37.635  31.149  29.212  1.00  0.00     0.031 C 
ATOM     19  C   UNL A   1      37.446  34.315  33.116  1.00  0.00     0.029 A 
ATOM     20  N   UNL A   1      39.029  32.740  33.171  1.00  0.00    -0.354 N 
ATOM     21  C   UNL A   1      39.346  29.826  29.970  1.00  0.00     0.074 A 
ATOM     22  C   UNL A   1      38.363  30.072  28.936  1.00  0.00     0.031 C 
ATOM     23  C   UNL A   1      38.144  34.493  34.245  1.00  0.00     0.029 A 
ATOM     24  C   UNL A   1      39.148  33.443  34.346  1.00  0.00     0.049 A 
ATOM     25  H   UNL A   1      39.622  31.993  32.926  1.00  0.00     0.167 HD
ATOM     26  C   UNL A   1      40.253  28.822  29.955  1.00  0.00     0.037 A 
ATOM     27  C   UNL A   1      39.945  33.237  35.409  1.00  0.00     0.037 A 
ATOM     28  C   UNL A   1      41.236  28.605  30.987  1.00  0.00     0.049 A 
ATOM     29  C   UNL A   1      40.910  32.086  35.372  1.00  0.00     0.074 A 
ATOM     30  C   UNL A   1      42.253  27.665  31.022  1.00  0.00     0.029 A 
ATOM     31  N   UNL A   1      41.313  29.321  32.172  1.00  0.00    -0.354 N 
ATOM     32  N   UNL A   1      41.130  31.224  34.411  1.00  0.00    -0.248 NA
ATOM     33  C   UNL A   1      41.733  31.874  36.569  1.00  0.00     0.031 C 
ATOM     34  C   UNL A   1      42.898  27.767  32.258  1.00  0.00     0.029 A 
ATOM     35  C   UNL A   1      42.327  28.809  32.968  1.00  0.00     0.049 A 
ATOM     36  H   UNL A   1      40.734  30.080  32.413  1.00  0.00     0.167 HD
ATOM     37  C   UNL A   1      42.120  30.374  34.880  1.00  0.00     0.074 A 
ATOM     38  C   UNL A   1      42.484  30.848  36.200  1.00  0.00     0.031 C 
ATOM     39  C   UNL A   1      42.671  29.292  34.280  1.00  0.00     0.037 A 
BRANCH  26  40
ATOM     40  C   UNL A   1      40.232  27.854  28.808  1.00  0.00     0.064 A 
ATOM     41  C   UNL A   1      40.968  28.079  27.635  1.00  0.00     0.173 A 
ATOM     42  C   UNL A   1      39.557  26.630  28.934  1.00  0.00     0.173 A 
ATOM     43  F   UNL A   1      41.626  29.235  27.462  1.00  0.00    -0.203 F 
ATOM     44  C   UNL A   1      41.025  27.115  26.631  1.00  0.00     0.198 A 
ATOM     45  C   UNL A   1      39.637  25.658  27.940  1.00  0.00     0.198 A 
ATOM     46  F   UNL A   1      38.845  26.362  30.039  1.00  0.00    -0.203 F 
ATOM     47  F   UNL A   1      41.720  27.358  25.511  1.00  0.00    -0.200 F 
ATOM     48  C   UNL A   1      40.370  25.902  26.789  1.00  0.00     0.200 A 
ATOM     49  F   UNL A   1      39.016  24.482  28.103  1.00  0.00    -0.200 F 
ATOM     50  F   UNL A   1      40.449  24.966  25.833  1.00  0.00    -0.200 F 
ENDBRANCH  26  40
BRANCH  27  51
ATOM     51  C   UNL A   1      39.824  34.100  36.614  1.00  0.00     0.064 A 
ATOM     52  C   UNL A   1      40.573  35.277  36.742  1.00  0.00     0.173 A 
ATOM     53  C   UNL A   1      38.976  33.749  37.676  1.00  0.00     0.173 A 
ATOM     54  F   UNL A   1      41.410  35.649  35.763  1.00  0.00    -0.203 F 
ATOM     55  C   UNL A   1      40.504  36.050  37.901  1.00  0.00     0.198 A 
ATOM     56  C   UNL A   1      38.879  34.543  38.816  1.00  0.00     0.198 A 
ATOM     57  F   UNL A   1      38.231  32.636  37.603  1.00  0.00    -0.203 F 
ATOM     58  F   UNL A   1      41.281  37.134  38.024  1.00  0.00    -0.200 F 
ATOM     59  C   UNL A   1      39.654  35.684  38.933  1.00  0.00     0.200 A 
ATOM     60  F   UNL A   1      38.040  34.196  39.801  1.00  0.00    -0.200 F 
ATOM     61  F   UNL A   1      39.592  36.426  40.047  1.00  0.00    -0.200 F 
ENDBRANCH  27  51
BRANCH  39  62
ATOM     62  C   UNL A   1      43.730  28.553  35.044  1.00  0.00     0.064 A 
ATOM     63  C   UNL A   1      45.083  28.910  34.947  1.00  0.00     0.173 A 
ATOM     64  C   UNL A   1      43.385  27.506  35.910  1.00  0.00     0.173 A 
ATOM     65  F   UNL A   1      45.465  29.893  34.117  1.00  0.00    -0.203 F 
ATOM     66  C   UNL A   1      46.056  28.229  35.673  1.00  0.00     0.198 A 
ATOM     67  C   UNL A   1      44.356  26.848  36.660  1.00  0.00     0.198 A 
ATOM     68  F   UNL A   1      42.104  27.128  36.040  1.00  0.00    -0.203 F 
ATOM     69  F   UNL A   1      47.347  28.553  35.527  1.00  0.00    -0.200 F 
ATOM     70  C   UNL A   1      45.690  27.205  36.536  1.00  0.00     0.200 A 
ATOM     71  F   UNL A   1      44.000  25.871  37.504  1.00  0.00    -0.200 F 
ATOM     72  F   UNL A   1      46.627  26.558  37.243  1.00  0.00    -0.200 F 
ENDBRANCH  39  62
ENDBRANCH  13  14
ENDBRANCH   6   8
ENDBRANCH   3   4
ENDBRANCH   2   3
ENDBRANCH   1   2
BRANCH   1  73
ATOM     73  C   UNL A   1      33.006  30.248  26.053  1.00  0.00     0.002 C 
BRANCH  73  74
ATOM     74  C   UNL A   1      33.407  29.320  27.196  1.00  0.00     0.021 C 
BRANCH  74  75
ATOM     75  C   UNL A   1      33.122  27.845  26.994  1.00  0.00     0.116 C 
BRANCH  75  76
ATOM     76  N   UNL A   1      31.773  27.420  26.808  1.00  0.00    -0.351 N 
ATOM     77  C   UNL A   1      31.278  26.485  25.930  1.00  0.00     0.283 C 
ATOM     78  H   UNL A   1      31.106  27.856  27.387  1.00  0.00     0.163 HD
ATOM     79  O   UNL A   1      30.166  26.063  26.290  1.00  0.00    -0.268 OA
BRANCH  77  80
ATOM     80  C   UNL A   1      31.923  26.114  24.489  1.00  0.00     0.307 C 
BRANCH  80  81
ATOM     81  N   UNL A   1      31.340  24.966  23.702  1.00  0.00    -0.318 N 
ATOM     82  C   UNL A   1      32.297  24.422  22.664  1.00  0.00     0.284 C 
ATOM     83  C   UNL A   1      30.874  23.785  24.433  1.00  0.00     0.284 C 
ATOM     84  H   UNL A   1      30.524  25.437  23.311  1.00  0.00     0.349 HD
ATOM     85  C   UNL A   1      33.441  23.476  23.165  1.00  0.00     0.178 C 
ATOM     86  C   UNL A   1      32.000  22.930  25.061  1.00  0.00     0.178 C 
ATOM     87  N   UNL A   1      32.864  22.416  24.005  1.00  0.00    -0.360 N 
BRANCH  87  88
ATOM     88  C   UNL A   1      33.433  21.176  24.227  1.00  0.00     0.038 A 
ATOM     89  C   UNL A   1      34.749  21.112  24.724  1.00  0.00     0.026 A 
ATOM     90  C   UNL A   1      32.784  19.968  23.967  1.00  0.00     0.046 A 
ATOM     91  C   UNL A   1      35.408  19.902  24.936  1.00  0.00     0.004 A 
ATOM     92  C   UNL A   1      33.444  18.749  24.174  1.00  0.00     0.043 A 
ATOM     93  C   UNL A   1      34.752  18.712  24.655  1.00  0.00     0.020 A 
ATOM     94  Cl  UNL A   1      32.640  17.269  23.814  1.00  0.00    -0.084 Cl
ENDBRANCH  87  88
ENDBRANCH  80  81
BRANCH  80  95
ATOM     95  C   UNL A   1      31.664  27.341  23.592  1.00  0.00     0.044 A 
ATOM     96  C   UNL A   1      32.652  28.143  23.033  1.00  0.00     0.094 A 
ATOM     97  C   UNL A   1      30.412  27.953  23.243  1.00  0.00     0.011 A 
ATOM     98  N   UNL A   1      32.063  29.159  22.344  1.00  0.00    -0.361 N 
ATOM     99  C   UNL A   1      30.700  29.098  22.491  1.00  0.00     0.046 A 
ATOM    100  C   UNL A   1      29.062  27.671  23.535  1.00  0.00     0.031 A 
ATOM    101  H   UNL A   1      32.545  29.839  21.818  1.00  0.00     0.166 HD
ATOM    102  C   UNL A   1      29.717  29.974  22.020  1.00  0.00     0.028 A 
ATOM    103  C   UNL A   1      28.070  28.548  23.079  1.00  0.00     0.041 A 
ATOM    104  C   UNL A   1      28.389  29.681  22.335  1.00  0.00     0.022 A 
ATOM    105  Cl  UNL A   1      26.423  28.226  23.463  1.00  0.00    -0.084 Cl
ENDBRANCH  80  95
ENDBRANCH  77  80
ENDBRANCH  75  76
ENDBRANCH  74  75
ENDBRANCH  73  74
ENDBRANCH   1  73
TORSDOF 16
ENDMDL
MODEL 3
REMARK VINA RESULT:     -13.4      5.502     11.107
REMARK SMILES O=C(NCCCCCCNC(=O)[C@H](c1c[nH]c2ccc(Cl)cc12)[NH+]1CCN(c2cccc(Cl)c2)CC1)c1ccc(-c2c3nc(c(-c4c(F)c(F)c(F)c(F)c4F)c4ccc([nH]4)c(-c4c(F)c(F)c(F)c(F)c4F)c4nc(c(-c5c(F)c(F)c(F)c(F)c5F)c5ccc2[nH]5)C=C4)C=C3)cc1
REMARK SMILES IDX 6 1 5 2 4 3 3 4 1 5 2 6 37 8 38 9 99 10 39 11 98 12 40 13
REMARK SMILES IDX 41 14 42 15 92 16 43 17 97 18 91 19 93 20 44 21 96 22 90 23
REMARK SMILES IDX 89 24 45 26 77 27 57 28 76 29 58 30 61 31 75 32 94 33 59 34
REMARK SMILES IDX 60 35 74 37 95 38 62 39 46 40 47 41 55 42 48 43 49 44 53 45
REMARK SMILES IDX 56 46 50 47 51 48 54 49 52 50 78 51 79 52 87 53 80 54 81 55
REMARK SMILES IDX 85 56 88 57 82 58 83 59 86 60 84 61 63 62 64 63 72 64 65 65
REMARK SMILES IDX 66 66 70 67 73 68 67 69 68 70 71 71 69 72 7 73 8 74 9 75
REMARK SMILES IDX 10 76 11 77 12 79 13 80 24 81 25 82 36 83 26 85 35 86 27 87
REMARK SMILES IDX 28 88 29 89 34 90 30 91 32 92 31 93 33 94 14 95 15 96 23 97
REMARK SMILES IDX 16 98 17 99 22 100 18 102 20 103 19 104 21 105
REMARK H PARENT 3 7 93 25 61 36 10 78 24 84 16 101
REMARK Flexibility Score: inf
ROOT
ATOM      1  C   UNL A   1      37.266  20.850  24.900  1.00  0.00     0.002 C 
ENDROOT
BRANCH   1   2
ATOM      2  C   UNL A   1      38.307  19.735  25.034  1.00  0.00     0.021 C 
BRANCH   2   3
ATOM      3  C   UNL A   1      39.407  19.985  26.055  1.00  0.00     0.116 C 
BRANCH   3   4
ATOM      4  N   UNL A   1      40.473  19.002  25.974  1.00  0.00    -0.352 N 
ATOM      5  O   UNL A   1      42.590  18.258  25.761  1.00  0.00    -0.269 OA
ATOM      6  C   UNL A   1      41.827  19.183  26.038  1.00  0.00     0.251 C 
ATOM      7  H   UNL A   1      40.177  18.070  25.855  1.00  0.00     0.163 HD
BRANCH   6   8
ATOM      8  C   UNL A   1      42.376  20.493  26.440  1.00  0.00     0.039 A 
ATOM      9  C   UNL A   1      42.840  21.392  25.476  1.00  0.00     0.014 A 
ATOM     10  C   UNL A   1      42.376  20.846  27.792  1.00  0.00     0.014 A 
ATOM     11  C   UNL A   1      43.387  22.606  25.867  1.00  0.00     0.010 A 
ATOM     12  C   UNL A   1      42.848  22.103  28.178  1.00  0.00     0.010 A 
ATOM     13  C   UNL A   1      43.353  22.992  27.216  1.00  0.00    -0.014 A 
BRANCH  13  14
ATOM     14  C   UNL A   1      43.700  24.387  27.578  1.00  0.00     0.031 A 
ATOM     15  C   UNL A   1      42.646  25.386  27.946  1.00  0.00     0.074 A 
ATOM     16  C   UNL A   1      45.001  24.737  27.546  1.00  0.00     0.049 A 
ATOM     17  N   UNL A   1      42.786  26.652  28.245  1.00  0.00    -0.248 NA
ATOM     18  C   UNL A   1      41.253  24.912  27.977  1.00  0.00     0.031 C 
ATOM     19  C   UNL A   1      46.103  23.842  27.178  1.00  0.00     0.029 A 
ATOM     20  N   UNL A   1      45.623  25.928  27.816  1.00  0.00    -0.354 N 
ATOM     21  C   UNL A   1      41.506  27.133  28.480  1.00  0.00     0.074 A 
ATOM     22  C   UNL A   1      40.595  26.025  28.279  1.00  0.00     0.031 C 
ATOM     23  C   UNL A   1      47.262  24.507  27.266  1.00  0.00     0.029 A 
ATOM     24  C   UNL A   1      46.982  25.892  27.620  1.00  0.00     0.049 A 
ATOM     25  H   UNL A   1      45.141  26.732  28.121  1.00  0.00     0.167 HD
ATOM     26  C   UNL A   1      41.137  28.387  28.829  1.00  0.00     0.037 A 
ATOM     27  C   UNL A   1      47.898  26.875  27.675  1.00  0.00     0.037 A 
ATOM     28  C   UNL A   1      42.062  29.473  29.041  1.00  0.00     0.049 A 
ATOM     29  C   UNL A   1      47.443  28.263  28.025  1.00  0.00     0.074 A 
ATOM     30  C   UNL A   1      41.793  30.759  29.479  1.00  0.00     0.029 A 
ATOM     31  N   UNL A   1      43.428  29.406  28.813  1.00  0.00    -0.354 N 
ATOM     32  N   UNL A   1      46.241  28.686  28.328  1.00  0.00    -0.248 NA
ATOM     33  C   UNL A   1      48.469  29.313  28.033  1.00  0.00     0.031 C 
ATOM     34  C   UNL A   1      42.984  31.489  29.446  1.00  0.00     0.029 A 
ATOM     35  C   UNL A   1      44.007  30.644  29.050  1.00  0.00     0.049 A 
ATOM     36  H   UNL A   1      43.915  28.601  28.526  1.00  0.00     0.167 HD
ATOM     37  C   UNL A   1      46.366  30.045  28.572  1.00  0.00     0.074 A 
ATOM     38  C   UNL A   1      47.769  30.370  28.417  1.00  0.00     0.031 C 
ATOM     39  C   UNL A   1      45.405  30.948  28.885  1.00  0.00     0.037 A 
BRANCH  26  40
ATOM     40  C   UNL A   1      39.675  28.686  28.989  1.00  0.00     0.064 A 
ATOM     41  C   UNL A   1      39.023  28.560  30.225  1.00  0.00     0.173 A 
ATOM     42  C   UNL A   1      38.945  29.218  27.914  1.00  0.00     0.173 A 
ATOM     43  F   UNL A   1      39.674  28.052  31.282  1.00  0.00    -0.203 F 
ATOM     44  C   UNL A   1      37.695  28.951  30.375  1.00  0.00     0.198 A 
ATOM     45  C   UNL A   1      37.625  29.631  28.075  1.00  0.00     0.198 A 
ATOM     46  F   UNL A   1      39.523  29.366  26.713  1.00  0.00    -0.203 F 
ATOM     47  F   UNL A   1      37.087  28.806  31.561  1.00  0.00    -0.200 F 
ATOM     48  C   UNL A   1      37.001  29.497  29.305  1.00  0.00     0.200 A 
ATOM     49  F   UNL A   1      36.963  30.173  27.043  1.00  0.00    -0.200 F 
ATOM     50  F   UNL A   1      35.731  29.898  29.461  1.00  0.00    -0.200 F 
ENDBRANCH  26  40
BRANCH  27  51
ATOM     51  C   UNL A   1      49.319  26.594  27.334  1.00  0.00     0.064 A 
ATOM     52  C   UNL A   1      50.269  26.348  28.334  1.00  0.00     0.173 A 
ATOM     53  C   UNL A   1      49.759  26.595  26.002  1.00  0.00     0.173 A 
ATOM     54  F   UNL A   1      49.902  26.353  29.623  1.00  0.00    -0.203 F 
ATOM     55  C   UNL A   1      51.612  26.149  28.015  1.00  0.00     0.198 A 
ATOM     56  C   UNL A   1      51.094  26.356  25.682  1.00  0.00     0.198 A 
ATOM     57  F   UNL A   1      48.890  26.818  25.005  1.00  0.00    -0.203 F 
ATOM     58  F   UNL A   1      52.510  25.982  28.994  1.00  0.00    -0.200 F 
ATOM     59  C   UNL A   1      52.021  26.148  26.690  1.00  0.00     0.200 A 
ATOM     60  F   UNL A   1      51.479  26.336  24.400  1.00  0.00    -0.200 F 
ATOM     61  F   UNL A   1      53.312  25.960  26.385  1.00  0.00    -0.200 F 
ENDBRANCH  27  51
BRANCH  39  62
ATOM     62  C   UNL A   1      45.843  32.368  29.087  1.00  0.00     0.064 A 
ATOM     63  C   UNL A   1      46.283  32.826  30.338  1.00  0.00     0.173 A 
ATOM     64  C   UNL A   1      45.860  33.269  28.013  1.00  0.00     0.173 A 
ATOM     65  F   UNL A   1      46.266  32.007  31.401  1.00  0.00    -0.203 F 
ATOM     66  C   UNL A   1      46.703  34.142  30.511  1.00  0.00     0.198 A 
ATOM     67  C   UNL A   1      46.312  34.575  28.181  1.00  0.00     0.198 A 
ATOM     68  F   UNL A   1      45.452  32.880  26.795  1.00  0.00    -0.203 F 
ATOM     69  F   UNL A   1      47.071  34.571  31.725  1.00  0.00    -0.200 F 
ATOM     70  C   UNL A   1      46.726  35.011  29.430  1.00  0.00     0.200 A 
ATOM     71  F   UNL A   1      46.349  35.409  27.133  1.00  0.00    -0.200 F 
ATOM     72  F   UNL A   1      47.142  36.275  29.595  1.00  0.00    -0.200 F 
ENDBRANCH  39  62
ENDBRANCH  13  14
ENDBRANCH   6   8
ENDBRANCH   3   4
ENDBRANCH   2   3
ENDBRANCH   1   2
BRANCH   1  73
ATOM     73  C   UNL A   1      37.639  22.220  25.480  1.00  0.00     0.002 C 
BRANCH  73  74
ATOM     74  C   UNL A   1      36.508  23.234  25.631  1.00  0.00     0.021 C 
BRANCH  74  75
ATOM     75  C   UNL A   1      36.070  23.940  24.363  1.00  0.00     0.116 C 
BRANCH  75  76
ATOM     76  N   UNL A   1      35.262  23.235  23.422  1.00  0.00    -0.351 N 
ATOM     77  C   UNL A   1      33.890  23.138  23.368  1.00  0.00     0.283 C 
ATOM     78  H   UNL A   1      35.751  22.753  22.717  1.00  0.00     0.163 HD
ATOM     79  O   UNL A   1      33.501  22.810  22.235  1.00  0.00    -0.268 OA
BRANCH  77  80
ATOM     80  C   UNL A   1      32.890  23.216  24.642  1.00  0.00     0.307 C 
BRANCH  80  81
ATOM     81  N   UNL A   1      31.412  23.392  24.401  1.00  0.00    -0.318 N 
ATOM     82  C   UNL A   1      30.771  24.360  25.371  1.00  0.00     0.284 C 
ATOM     83  C   UNL A   1      30.971  23.845  23.078  1.00  0.00     0.284 C 
ATOM     84  H   UNL A   1      31.113  22.424  24.519  1.00  0.00     0.349 HD
ATOM     85  C   UNL A   1      30.980  25.891  25.105  1.00  0.00     0.178 C 
ATOM     86  C   UNL A   1      31.314  25.317  22.754  1.00  0.00     0.178 C 
ATOM     87  N   UNL A   1      30.642  26.192  23.707  1.00  0.00    -0.360 N 
BRANCH  87  88
ATOM     88  C   UNL A   1      30.247  27.429  23.232  1.00  0.00     0.038 A 
ATOM     89  C   UNL A   1      31.190  28.232  22.562  1.00  0.00     0.026 A 
ATOM     90  C   UNL A   1      28.960  27.947  23.394  1.00  0.00     0.046 A 
ATOM     91  C   UNL A   1      30.883  29.507  22.089  1.00  0.00     0.004 A 
ATOM     92  C   UNL A   1      28.648  29.230  22.924  1.00  0.00     0.043 A 
ATOM     93  C   UNL A   1      29.604  30.011  22.275  1.00  0.00     0.020 A 
ATOM     94  Cl  UNL A   1      27.066  29.866  23.164  1.00  0.00    -0.084 Cl
ENDBRANCH  87  88
ENDBRANCH  80  81
BRANCH  80  95
ATOM     95  C   UNL A   1      32.988  21.838  25.328  1.00  0.00     0.044 A 
ATOM     96  C   UNL A   1      33.386  21.628  26.643  1.00  0.00     0.094 A 
ATOM     97  C   UNL A   1      32.797  20.534  24.758  1.00  0.00     0.011 A 
ATOM     98  N   UNL A   1      33.402  20.290  26.895  1.00  0.00    -0.361 N 
ATOM     99  C   UNL A   1      33.092  19.594  25.753  1.00  0.00     0.046 A 
ATOM    100  C   UNL A   1      32.451  20.059  23.476  1.00  0.00     0.031 A 
ATOM    101  H   UNL A   1      33.605  19.881  27.768  1.00  0.00     0.166 HD
ATOM    102  C   UNL A   1      33.063  18.212  25.536  1.00  0.00     0.028 A 
ATOM    103  C   UNL A   1      32.430  18.678  23.245  1.00  0.00     0.041 A 
ATOM    104  C   UNL A   1      32.732  17.768  24.256  1.00  0.00     0.022 A 
ATOM    105  Cl  UNL A   1      32.042  18.095  21.672  1.00  0.00    -0.084 Cl
ENDBRANCH  80  95
ENDBRANCH  77  80
ENDBRANCH  75  76
ENDBRANCH  74  75
ENDBRANCH  73  74
ENDBRANCH   1  73
TORSDOF 16
ENDMDL
