MODEL 1
REMARK VINA RESULT:     -11.9      0.000      0.000
REMARK SMILES CCCCOc1ccc(-c2nc(C)c(C(=O)NCCCCCCNC(=O)c3ccc(-c4c5nc(c(-c6c(F)c(F)c(F)c(F)c6F)c6ccc([nH]6)c(-c6c(F)c(F)c(F)c(F)c6F)c6nc(c(-c7c(F)c(F)c(F)c(F)c7F)c7ccc4[nH]7)C=C6)C=C5)cc3)s2)cc1OC
REMARK SMILES IDX 19 1 18 2 17 3 15 4 16 5 14 7 10 8 11 9 90 10 12 11 13 12
REMARK SMILES IDX 9 13 6 14 7 15 92 16 8 17 91 18 5 19 4 20 3 21 2 22 1 23
REMARK SMILES IDX 93 24 94 25 20 26 21 27 22 28 23 29 24 30 25 31 26 33 27 34
REMARK SMILES IDX 28 35 89 36 29 37 88 38 30 39 31 40 32 41 82 42 33 43 87 44
REMARK SMILES IDX 81 45 83 46 34 47 86 48 80 49 79 50 35 52 67 53 47 54 66 55
REMARK SMILES IDX 48 56 51 57 65 58 84 59 49 60 50 61 64 63 85 64 52 65 36 66
REMARK SMILES IDX 37 67 45 68 38 69 39 70 43 71 46 72 40 73 41 74 44 75 42 76
REMARK SMILES IDX 68 77 69 78 77 79 70 80 71 81 75 82 78 83 72 84 73 85 76 86
REMARK SMILES IDX 74 87 53 88 54 89 62 90 55 91 56 92 60 93 63 94 57 95 58 96
REMARK SMILES IDX 61 97 59 98
REMARK H PARENT 17 6 24 32 83 51 51 62
REMARK Flexibility Score: inf
ROOT
ATOM      1  C   UNL A   1      33.571  29.286  25.780  1.00  0.00     0.021 C 
ENDROOT
BRANCH   1   2
ATOM      2  C   UNL A   1      32.636  29.356  24.569  1.00  0.00     0.116 C 
BRANCH   2   3
ATOM      3  N   UNL A   1      33.385  29.092  23.372  1.00  0.00    -0.351 N 
ATOM      4  C   UNL A   1      33.540  27.988  22.583  1.00  0.00     0.263 C 
ATOM      5  O   UNL A   1      34.347  28.173  21.661  1.00  0.00    -0.268 OA
ATOM      6  H   UNL A   1      33.894  29.872  23.053  1.00  0.00     0.163 HD
BRANCH   4   7
ATOM      7  C   UNL A   1      32.824  26.730  22.753  1.00  0.00     0.115 A 
ATOM      8  C   UNL A   1      32.545  24.348  23.280  1.00  0.00     0.124 A 
ATOM      9  N   UNL A   1      31.377  24.911  23.091  1.00  0.00    -0.241 NA
ATOM     10  S   UNL A   1      33.875  25.344  22.923  1.00  0.00    -0.108 S 
ATOM     11  C   UNL A   1      31.510  26.279  22.880  1.00  0.00     0.062 A 
ATOM     12  C   UNL A   1      30.206  26.989  22.914  1.00  0.00     0.068 C 
BRANCH   8  13
ATOM     13  C   UNL A   1      32.710  23.001  23.831  1.00  0.00     0.014 A 
ATOM     14  C   UNL A   1      32.534  20.470  25.025  1.00  0.00     0.161 A 
ATOM     15  C   UNL A   1      32.262  20.624  23.660  1.00  0.00     0.051 A 
ATOM     16  C   UNL A   1      33.034  21.544  25.767  1.00  0.00     0.161 A 
ATOM     17  C   UNL A   1      32.337  21.888  23.070  1.00  0.00     0.015 A 
ATOM     18  C   UNL A   1      33.088  22.807  25.169  1.00  0.00     0.061 A 
BRANCH  14  19
ATOM     19  O   UNL A   1      32.270  19.271  25.630  1.00  0.00    -0.490 OA
BRANCH  19  20
ATOM     20  C   UNL A   1      32.318  18.159  24.718  1.00  0.00     0.230 C 
BRANCH  20  21
ATOM     21  C   UNL A   1      33.264  17.041  25.183  1.00  0.00     0.041 C 
BRANCH  21  22
ATOM     22  C   UNL A   1      34.466  16.736  24.282  1.00  0.00     0.000 C 
ATOM     23  C   UNL A   1      34.160  16.776  22.793  1.00  0.00     0.004 C 
ENDBRANCH  21  22
ENDBRANCH  20  21
ENDBRANCH  19  20
ENDBRANCH  14  19
BRANCH  16  24
ATOM     24  O   UNL A   1      33.358  21.567  27.098  1.00  0.00    -0.493 OA
ATOM     25  C   UNL A   1      34.211  22.608  27.547  1.00  0.00     0.278 C 
ENDBRANCH  16  24
ENDBRANCH   8  13
ENDBRANCH   4   7
ENDBRANCH   2   3
ENDBRANCH   1   2
BRANCH   1  26
ATOM     26  C   UNL A   1      33.065  30.096  26.977  1.00  0.00     0.002 C 
BRANCH  26  27
ATOM     27  C   UNL A   1      31.637  30.629  26.811  1.00  0.00     0.002 C 
BRANCH  27  28
ATOM     28  C   UNL A   1      31.521  32.155  26.839  1.00  0.00     0.021 C 
BRANCH  28  29
ATOM     29  C   UNL A   1      32.790  32.852  27.309  1.00  0.00     0.116 C 
BRANCH  29  30
ATOM     30  N   UNL A   1      32.533  34.245  27.643  1.00  0.00    -0.352 N 
ATOM     31  C   UNL A   1      33.036  34.984  28.685  1.00  0.00     0.251 C 
ATOM     32  H   UNL A   1      31.915  34.722  27.042  1.00  0.00     0.163 HD
ATOM     33  O   UNL A   1      32.530  36.051  29.003  1.00  0.00    -0.269 OA
BRANCH  31  34
ATOM     34  C   UNL A   1      34.204  34.464  29.421  1.00  0.00     0.039 A 
ATOM     35  C   UNL A   1      34.016  33.809  30.639  1.00  0.00     0.014 A 
ATOM     36  C   UNL A   1      35.484  34.617  28.882  1.00  0.00     0.014 A 
ATOM     37  C   UNL A   1      35.117  33.256  31.296  1.00  0.00     0.010 A 
ATOM     38  C   UNL A   1      36.563  33.994  29.493  1.00  0.00     0.010 A 
ATOM     39  C   UNL A   1      36.393  33.320  30.712  1.00  0.00    -0.014 A 
BRANCH  39  40
ATOM     40  C   UNL A   1      37.586  32.728  31.364  1.00  0.00     0.031 A 
ATOM     41  C   UNL A   1      38.307  31.596  30.687  1.00  0.00     0.074 A 
ATOM     42  C   UNL A   1      37.960  33.139  32.590  1.00  0.00     0.049 A 
ATOM     43  N   UNL A   1      39.263  30.829  31.144  1.00  0.00    -0.248 NA
ATOM     44  C   UNL A   1      37.863  31.256  29.325  1.00  0.00     0.031 C 
ATOM     45  C   UNL A   1      37.322  34.210  33.357  1.00  0.00     0.029 A 
ATOM     46  N   UNL A   1      38.957  32.687  33.417  1.00  0.00    -0.354 N 
ATOM     47  C   UNL A   1      39.518  29.908  30.136  1.00  0.00     0.074 A 
ATOM     48  C   UNL A   1      38.576  30.171  29.071  1.00  0.00     0.031 C 
ATOM     49  C   UNL A   1      37.952  34.342  34.536  1.00  0.00     0.029 A 
ATOM     50  C   UNL A   1      39.002  33.332  34.629  1.00  0.00     0.049 A 
ATOM     51  H   UNL A   1      39.580  31.967  33.166  1.00  0.00     0.167 HD
ATOM     52  C   UNL A   1      40.469  28.946  30.094  1.00  0.00     0.037 A 
ATOM     53  C   UNL A   1      39.792  33.119  35.698  1.00  0.00     0.037 A 
ATOM     54  C   UNL A   1      41.417  28.707  31.150  1.00  0.00     0.049 A 
ATOM     55  C   UNL A   1      40.823  32.020  35.638  1.00  0.00     0.074 A 
ATOM     56  C   UNL A   1      42.448  27.787  31.191  1.00  0.00     0.029 A 
ATOM     57  N   UNL A   1      41.447  29.399  32.352  1.00  0.00    -0.354 N 
ATOM     58  N   UNL A   1      41.089  31.185  34.664  1.00  0.00    -0.248 NA
ATOM     59  C   UNL A   1      41.666  31.838  36.829  1.00  0.00     0.031 C 
ATOM     60  C   UNL A   1      43.068  27.883  32.441  1.00  0.00     0.029 A 
ATOM     61  C   UNL A   1      42.468  28.912  33.151  1.00  0.00     0.049 A 
ATOM     62  H   UNL A   1      40.834  30.129  32.601  1.00  0.00     0.167 HD
ATOM     63  C   UNL A   1      42.157  30.412  35.102  1.00  0.00     0.074 A 
ATOM     64  C   UNL A   1      42.491  30.879  36.431  1.00  0.00     0.031 C 
ATOM     65  C   UNL A   1      42.805  29.410  34.460  1.00  0.00     0.037 A 
BRANCH  52  66
ATOM     66  C   UNL A   1      40.530  28.079  28.868  1.00  0.00     0.064 A 
ATOM     67  C   UNL A   1      39.808  26.880  28.776  1.00  0.00     0.173 A 
ATOM     68  C   UNL A   1      41.298  28.467  27.759  1.00  0.00     0.173 A 
ATOM     69  F   UNL A   1      39.068  26.454  29.812  1.00  0.00    -0.203 F 
ATOM     70  C   UNL A   1      39.879  26.084  27.635  1.00  0.00     0.198 A 
ATOM     71  C   UNL A   1      41.338  27.688  26.606  1.00  0.00     0.198 A 
ATOM     72  F   UNL A   1      42.004  29.607  27.790  1.00  0.00    -0.203 F 
ATOM     73  F   UNL A   1      39.228  24.913  27.595  1.00  0.00    -0.200 F 
ATOM     74  C   UNL A   1      40.637  26.493  26.549  1.00  0.00     0.200 A 
ATOM     75  F   UNL A   1      42.057  28.093  25.551  1.00  0.00    -0.200 F 
ATOM     76  F   UNL A   1      40.697  25.731  25.449  1.00  0.00    -0.200 F 
ENDBRANCH  52  66
BRANCH  53  77
ATOM     77  C   UNL A   1      39.655  33.968  36.911  1.00  0.00     0.064 A 
ATOM     78  C   UNL A   1      38.853  33.560  37.986  1.00  0.00     0.173 A 
ATOM     79  C   UNL A   1      40.305  35.207  37.017  1.00  0.00     0.173 A 
ATOM     80  F   UNL A   1      38.197  32.393  37.926  1.00  0.00    -0.203 F 
ATOM     81  C   UNL A   1      38.680  34.371  39.106  1.00  0.00     0.198 A 
ATOM     82  C   UNL A   1      40.158  36.003  38.152  1.00  0.00     0.198 A 
ATOM     83  F   UNL A   1      41.090  35.642  36.021  1.00  0.00    -0.203 F 
ATOM     84  F   UNL A   1      37.861  33.981  40.093  1.00  0.00    -0.200 F 
ATOM     85  C   UNL A   1      39.336  35.589  39.190  1.00  0.00     0.200 A 
ATOM     86  F   UNL A   1      40.807  37.172  38.236  1.00  0.00    -0.200 F 
ATOM     87  F   UNL A   1      39.170  36.370  40.267  1.00  0.00    -0.200 F 
ENDBRANCH  53  77
BRANCH  65  88
ATOM     88  C   UNL A   1      43.990  28.795  35.147  1.00  0.00     0.064 A 
ATOM     89  C   UNL A   1      43.864  27.690  36.001  1.00  0.00     0.173 A 
ATOM     90  C   UNL A   1      45.281  29.283  34.891  1.00  0.00     0.173 A 
ATOM     91  F   UNL A   1      42.651  27.193  36.288  1.00  0.00    -0.203 F 
ATOM     92  C   UNL A   1      44.985  27.110  36.588  1.00  0.00     0.198 A 
ATOM     93  C   UNL A   1      46.401  28.680  35.453  1.00  0.00     0.198 A 
ATOM     94  F   UNL A   1      45.457  30.334  34.075  1.00  0.00    -0.203 F 
ATOM     95  F   UNL A   1      44.838  26.081  37.435  1.00  0.00    -0.200 F 
ATOM     96  C   UNL A   1      46.253  27.598  36.306  1.00  0.00     0.200 A 
ATOM     97  F   UNL A   1      47.626  29.142  35.163  1.00  0.00    -0.200 F 
ATOM     98  F   UNL A   1      47.331  27.026  36.859  1.00  0.00    -0.200 F 
ENDBRANCH  65  88
ENDBRANCH  39  40
ENDBRANCH  31  34
ENDBRANCH  29  30
ENDBRANCH  28  29
ENDBRANCH  27  28
ENDBRANCH  26  27
ENDBRANCH   1  26
TORSDOF 19
ENDMDL
MODEL 2
REMARK VINA RESULT:     -11.2      5.336     11.076
REMARK SMILES CCCCOc1ccc(-c2nc(C)c(C(=O)NCCCCCCNC(=O)c3ccc(-c4c5nc(c(-c6c(F)c(F)c(F)c(F)c6F)c6ccc([nH]6)c(-c6c(F)c(F)c(F)c(F)c6F)c6nc(c(-c7c(F)c(F)c(F)c(F)c7F)c7ccc4[nH]7)C=C6)C=C5)cc3)s2)cc1OC
REMARK SMILES IDX 19 1 18 2 17 3 15 4 16 5 14 7 10 8 11 9 90 10 12 11 13 12
REMARK SMILES IDX 9 13 6 14 7 15 92 16 8 17 91 18 5 19 4 20 3 21 2 22 1 23
REMARK SMILES IDX 93 24 94 25 20 26 21 27 22 28 23 29 24 30 25 31 26 33 27 34
REMARK SMILES IDX 28 35 89 36 29 37 88 38 30 39 31 40 32 41 82 42 33 43 87 44
REMARK SMILES IDX 81 45 83 46 34 47 86 48 80 49 79 50 35 52 67 53 47 54 66 55
REMARK SMILES IDX 48 56 51 57 65 58 84 59 49 60 50 61 64 63 85 64 52 65 36 66
REMARK SMILES IDX 37 67 45 68 38 69 39 70 43 71 46 72 40 73 41 74 44 75 42 76
REMARK SMILES IDX 68 77 69 78 77 79 70 80 71 81 75 82 78 83 72 84 73 85 76 86
REMARK SMILES IDX 74 87 53 88 54 89 62 90 55 91 56 92 60 93 63 94 57 95 58 96
REMARK SMILES IDX 61 97 59 98
REMARK H PARENT 17 6 24 32 83 51 51 62
REMARK Flexibility Score: inf
ROOT
ATOM      1  C   UNL A   1      45.283  22.633  26.071  1.00  0.00     0.021 C 
ENDROOT
BRANCH   1   2
ATOM      2  C   UNL A   1      45.966  23.848  26.705  1.00  0.00     0.116 C 
BRANCH   2   3
ATOM      3  N   UNL A   1      46.706  24.559  25.699  1.00  0.00    -0.351 N 
ATOM      4  C   UNL A   1      46.624  25.821  25.185  1.00  0.00     0.263 C 
ATOM      5  O   UNL A   1      47.429  26.012  24.263  1.00  0.00    -0.268 OA
ATOM      6  H   UNL A   1      47.425  24.021  25.295  1.00  0.00     0.163 HD
BRANCH   4   7
ATOM      7  C   UNL A   1      45.729  26.866  25.669  1.00  0.00     0.115 A 
ATOM      8  C   UNL A   1      45.112  29.049  26.608  1.00  0.00     0.124 A 
ATOM      9  N   UNL A   1      44.040  28.400  26.222  1.00  0.00    -0.241 NA
ATOM     10  S   UNL A   1      46.548  28.144  26.533  1.00  0.00    -0.108 S 
ATOM     11  C   UNL A   1      44.377  27.200  25.606  1.00  0.00     0.062 A 
ATOM     12  C   UNL A   1      43.216  26.561  24.934  1.00  0.00     0.068 C 
BRANCH   8  13
ATOM     13  C   UNL A   1      45.103  30.462  26.995  1.00  0.00     0.014 A 
ATOM     14  C   UNL A   1      44.719  33.212  27.381  1.00  0.00     0.161 A 
ATOM     15  C   UNL A   1      43.995  32.287  28.143  1.00  0.00     0.051 A 
ATOM     16  C   UNL A   1      45.738  32.775  26.530  1.00  0.00     0.161 A 
ATOM     17  C   UNL A   1      44.177  30.917  27.940  1.00  0.00     0.015 A 
ATOM     18  C   UNL A   1      45.898  31.402  26.323  1.00  0.00     0.061 A 
BRANCH  14  19
ATOM     19  O   UNL A   1      44.392  34.539  27.451  1.00  0.00    -0.490 OA
BRANCH  19  20
ATOM     20  C   UNL A   1      43.348  34.910  26.535  1.00  0.00     0.230 C 
BRANCH  20  21
ATOM     21  C   UNL A   1      42.473  36.061  27.054  1.00  0.00     0.041 C 
BRANCH  21  22
ATOM     22  C   UNL A   1      42.063  36.005  28.530  1.00  0.00     0.000 C 
ATOM     23  C   UNL A   1      40.836  35.152  28.808  1.00  0.00     0.004 C 
ENDBRANCH  21  22
ENDBRANCH  20  21
ENDBRANCH  19  20
ENDBRANCH  14  19
BRANCH  16  24
ATOM     24  O   UNL A   1      46.542  33.537  25.724  1.00  0.00    -0.493 OA
ATOM     25  C   UNL A   1      47.194  34.651  26.315  1.00  0.00     0.278 C 
ENDBRANCH  16  24
ENDBRANCH   8  13
ENDBRANCH   4   7
ENDBRANCH   2   3
ENDBRANCH   1   2
BRANCH   1  26
ATOM     26  C   UNL A   1      44.210  23.014  25.047  1.00  0.00     0.002 C 
BRANCH  26  27
ATOM     27  C   UNL A   1      42.800  22.537  25.414  1.00  0.00     0.002 C 
BRANCH  27  28
ATOM     28  C   UNL A   1      42.356  22.898  26.833  1.00  0.00     0.021 C 
BRANCH  28  29
ATOM     29  C   UNL A   1      41.133  22.123  27.304  1.00  0.00     0.116 C 
BRANCH  29  30
ATOM     30  N   UNL A   1      40.022  22.279  26.377  1.00  0.00    -0.352 N 
ATOM     31  C   UNL A   1      39.112  23.305  26.293  1.00  0.00     0.251 C 
ATOM     32  H   UNL A   1      39.906  21.552  25.722  1.00  0.00     0.163 HD
ATOM     33  O   UNL A   1      38.077  23.178  25.654  1.00  0.00    -0.269 OA
BRANCH  31  34
ATOM     34  C   UNL A   1      39.406  24.569  26.993  1.00  0.00     0.039 A 
ATOM     35  C   UNL A   1      39.045  24.716  28.333  1.00  0.00     0.014 A 
ATOM     36  C   UNL A   1      40.059  25.600  26.313  1.00  0.00     0.014 A 
ATOM     37  C   UNL A   1      39.390  25.886  29.011  1.00  0.00     0.010 A 
ATOM     38  C   UNL A   1      40.475  26.725  27.010  1.00  0.00     0.010 A 
ATOM     39  C   UNL A   1      40.133  26.886  28.362  1.00  0.00    -0.014 A 
BRANCH  39  40
ATOM     40  C   UNL A   1      40.538  28.135  29.049  1.00  0.00     0.031 A 
ATOM     41  C   UNL A   1      41.931  28.250  29.603  1.00  0.00     0.074 A 
ATOM     42  C   UNL A   1      39.640  29.115  29.255  1.00  0.00     0.049 A 
ATOM     43  N   UNL A   1      42.446  29.174  30.373  1.00  0.00    -0.248 NA
ATOM     44  C   UNL A   1      42.860  27.154  29.277  1.00  0.00     0.031 C 
ATOM     45  C   UNL A   1      38.253  29.106  28.789  1.00  0.00     0.029 A 
ATOM     46  N   UNL A   1      39.755  30.303  29.933  1.00  0.00    -0.354 N 
ATOM     47  C   UNL A   1      43.744  28.760  30.638  1.00  0.00     0.074 A 
ATOM     48  C   UNL A   1      43.921  27.474  30.000  1.00  0.00     0.031 C 
ATOM     49  C   UNL A   1      37.650  30.241  29.181  1.00  0.00     0.029 A 
ATOM     50  C   UNL A   1      38.590  31.031  29.969  1.00  0.00     0.049 A 
ATOM     51  H   UNL A   1      40.592  30.605  30.353  1.00  0.00     0.167 HD
ATOM     52  C   UNL A   1      44.711  29.407  31.331  1.00  0.00     0.037 A 
ATOM     53  C   UNL A   1      38.312  32.196  30.586  1.00  0.00     0.037 A 
ATOM     54  C   UNL A   1      44.533  30.697  31.943  1.00  0.00     0.049 A 
ATOM     55  C   UNL A   1      39.396  32.881  31.377  1.00  0.00     0.074 A 
ATOM     56  C   UNL A   1      45.458  31.460  32.632  1.00  0.00     0.029 A 
ATOM     57  N   UNL A   1      43.345  31.414  31.937  1.00  0.00    -0.354 N 
ATOM     58  N   UNL A   1      40.635  32.507  31.584  1.00  0.00    -0.248 NA
ATOM     59  C   UNL A   1      39.042  34.155  32.020  1.00  0.00     0.031 C 
ATOM     60  C   UNL A   1      44.816  32.614  33.091  1.00  0.00     0.029 A 
ATOM     61  C   UNL A   1      43.509  32.603  32.628  1.00  0.00     0.049 A 
ATOM     62  H   UNL A   1      42.510  31.121  31.506  1.00  0.00     0.167 HD
ATOM     63  C   UNL A   1      41.221  33.516  32.337  1.00  0.00     0.074 A 
ATOM     64  C   UNL A   1      40.201  34.521  32.550  1.00  0.00     0.031 C 
ATOM     65  C   UNL A   1      42.490  33.606  32.804  1.00  0.00     0.037 A 
BRANCH  52  66
ATOM     66  C   UNL A   1      46.045  28.729  31.464  1.00  0.00     0.064 A 
ATOM     67  C   UNL A   1      46.297  27.790  32.476  1.00  0.00     0.173 A 
ATOM     68  C   UNL A   1      47.077  29.001  30.552  1.00  0.00     0.173 A 
ATOM     69  F   UNL A   1      45.351  27.502  33.383  1.00  0.00    -0.203 F 
ATOM     70  C   UNL A   1      47.541  27.174  32.591  1.00  0.00     0.198 A 
ATOM     71  C   UNL A   1      48.306  28.356  30.648  1.00  0.00     0.198 A 
ATOM     72  F   UNL A   1      46.889  29.886  29.562  1.00  0.00    -0.203 F 
ATOM     73  F   UNL A   1      47.776  26.326  33.601  1.00  0.00    -0.200 F 
ATOM     74  C   UNL A   1      48.542  27.452  31.672  1.00  0.00     0.200 A 
ATOM     75  F   UNL A   1      49.267  28.613  29.749  1.00  0.00    -0.200 F 
ATOM     76  F   UNL A   1      49.735  26.852  31.778  1.00  0.00    -0.200 F 
ENDBRANCH  52  66
BRANCH  53  77
ATOM     77  C   UNL A   1      36.958  32.799  30.470  1.00  0.00     0.064 A 
ATOM     78  C   UNL A   1      36.598  33.543  29.337  1.00  0.00     0.173 A 
ATOM     79  C   UNL A   1      36.004  32.663  31.489  1.00  0.00     0.173 A 
ATOM     80  F   UNL A   1      37.481  33.717  28.343  1.00  0.00    -0.203 F 
ATOM     81  C   UNL A   1      35.349  34.152  29.241  1.00  0.00     0.198 A 
ATOM     82  C   UNL A   1      34.743  33.246  31.377  1.00  0.00     0.198 A 
ATOM     83  F   UNL A   1      36.293  31.956  32.591  1.00  0.00    -0.203 F 
ATOM     84  F   UNL A   1      35.054  34.905  28.172  1.00  0.00    -0.200 F 
ATOM     85  C   UNL A   1      34.421  33.999  30.259  1.00  0.00     0.200 A 
ATOM     86  F   UNL A   1      33.842  33.081  32.356  1.00  0.00    -0.200 F 
ATOM     87  F   UNL A   1      33.219  34.586  30.167  1.00  0.00    -0.200 F 
ENDBRANCH  53  77
BRANCH  65  88
ATOM     88  C   UNL A   1      42.877  34.862  33.530  1.00  0.00     0.064 A 
ATOM     89  C   UNL A   1      42.813  34.964  34.927  1.00  0.00     0.173 A 
ATOM     90  C   UNL A   1      43.384  35.957  32.814  1.00  0.00     0.173 A 
ATOM     91  F   UNL A   1      42.324  33.949  35.657  1.00  0.00    -0.203 F 
ATOM     92  C   UNL A   1      43.223  36.124  35.578  1.00  0.00     0.198 A 
ATOM     93  C   UNL A   1      43.824  37.102  33.470  1.00  0.00     0.198 A 
ATOM     94  F   UNL A   1      43.474  35.908  31.476  1.00  0.00    -0.203 F 
ATOM     95  F   UNL A   1      43.113  36.217  36.911  1.00  0.00    -0.200 F 
ATOM     96  C   UNL A   1      43.738  37.188  34.851  1.00  0.00     0.200 A 
ATOM     97  F   UNL A   1      44.339  38.121  32.767  1.00  0.00    -0.200 F 
ATOM     98  F   UNL A   1      44.148  38.297  35.482  1.00  0.00    -0.200 F 
ENDBRANCH  65  88
ENDBRANCH  39  40
ENDBRANCH  31  34
ENDBRANCH  29  30
ENDBRANCH  28  29
ENDBRANCH  27  28
ENDBRANCH  26  27
ENDBRANCH   1  26
TORSDOF 19
ENDMDL
MODEL 3
REMARK VINA RESULT:     -10.9      5.431     11.321
REMARK SMILES CCCCOc1ccc(-c2nc(C)c(C(=O)NCCCCCCNC(=O)c3ccc(-c4c5nc(c(-c6c(F)c(F)c(F)c(F)c6F)c6ccc([nH]6)c(-c6c(F)c(F)c(F)c(F)c6F)c6nc(c(-c7c(F)c(F)c(F)c(F)c7F)c7ccc4[nH]7)C=C6)C=C5)cc3)s2)cc1OC
REMARK SMILES IDX 19 1 18 2 17 3 15 4 16 5 14 7 10 8 11 9 90 10 12 11 13 12
REMARK SMILES IDX 9 13 6 14 7 15 92 16 8 17 91 18 5 19 4 20 3 21 2 22 1 23
REMARK SMILES IDX 93 24 94 25 20 26 21 27 22 28 23 29 24 30 25 31 26 33 27 34
REMARK SMILES IDX 28 35 89 36 29 37 88 38 30 39 31 40 32 41 82 42 33 43 87 44
REMARK SMILES IDX 81 45 83 46 34 47 86 48 80 49 79 50 35 52 67 53 47 54 66 55
REMARK SMILES IDX 48 56 51 57 65 58 84 59 49 60 50 61 64 63 85 64 52 65 36 66
REMARK SMILES IDX 37 67 45 68 38 69 39 70 43 71 46 72 40 73 41 74 44 75 42 76
REMARK SMILES IDX 68 77 69 78 77 79 70 80 71 81 75 82 78 83 72 84 73 85 76 86
REMARK SMILES IDX 74 87 53 88 54 89 62 90 55 91 56 92 60 93 63 94 57 95 58 96
REMARK SMILES IDX 61 97 59 98
REMARK H PARENT 17 6 24 32 83 51 51 62
REMARK Flexibility Score: inf
ROOT
ATOM      1  C   UNL A   1      37.329  33.898  33.222  1.00  0.00     0.021 C 
ENDROOT
BRANCH   1   2
ATOM      2  C   UNL A   1      38.293  34.210  34.369  1.00  0.00     0.116 C 
BRANCH   2   3
ATOM      3  N   UNL A   1      37.890  33.484  35.542  1.00  0.00    -0.351 N 
ATOM      4  C   UNL A   1      38.020  32.182  35.935  1.00  0.00     0.263 C 
ATOM      5  O   UNL A   1      37.459  31.955  37.016  1.00  0.00    -0.268 OA
ATOM      6  H   UNL A   1      37.421  34.044  36.202  1.00  0.00     0.163 HD
BRANCH   4   7
ATOM      7  C   UNL A   1      38.762  31.159  35.210  1.00  0.00     0.115 A 
ATOM      8  C   UNL A   1      40.557  29.531  34.811  1.00  0.00     0.124 A 
ATOM      9  N   UNL A   1      39.635  29.427  33.885  1.00  0.00    -0.241 NA
ATOM     10  S   UNL A   1      40.350  30.847  35.867  1.00  0.00    -0.108 S 
ATOM     11  C   UNL A   1      38.567  30.279  34.145  1.00  0.00     0.062 A 
ATOM     12  C   UNL A   1      37.400  30.011  33.266  1.00  0.00     0.068 C 
BRANCH   8  13
ATOM     13  C   UNL A   1      41.636  28.556  34.987  1.00  0.00     0.014 A 
ATOM     14  C   UNL A   1      43.332  26.340  35.256  1.00  0.00     0.161 A 
ATOM     15  C   UNL A   1      43.138  26.929  34.001  1.00  0.00     0.051 A 
ATOM     16  C   UNL A   1      42.799  26.937  36.402  1.00  0.00     0.161 A 
ATOM     17  C   UNL A   1      42.282  28.024  33.866  1.00  0.00     0.015 A 
ATOM     18  C   UNL A   1      41.930  28.023  36.251  1.00  0.00     0.061 A 
BRANCH  14  19
ATOM     19  O   UNL A   1      44.014  25.157  35.342  1.00  0.00    -0.490 OA
BRANCH  19  20
ATOM     20  C   UNL A   1      43.146  24.016  35.462  1.00  0.00     0.230 C 
BRANCH  20  21
ATOM     21  C   UNL A   1      43.600  22.823  34.606  1.00  0.00     0.041 C 
BRANCH  21  22
ATOM     22  C   UNL A   1      44.685  23.099  33.558  1.00  0.00     0.000 C 
ATOM     23  C   UNL A   1      44.155  23.334  32.153  1.00  0.00     0.004 C 
ENDBRANCH  21  22
ENDBRANCH  20  21
ENDBRANCH  19  20
ENDBRANCH  14  19
BRANCH  16  24
ATOM     24  O   UNL A   1      42.897  26.504  37.697  1.00  0.00    -0.493 OA
ATOM     25  C   UNL A   1      44.136  26.697  38.361  1.00  0.00     0.278 C 
ENDBRANCH  16  24
ENDBRANCH   8  13
ENDBRANCH   4   7
ENDBRANCH   2   3
ENDBRANCH   1   2
BRANCH   1  26
ATOM     26  C   UNL A   1      36.017  34.684  33.309  1.00  0.00     0.002 C 
BRANCH  26  27
ATOM     27  C   UNL A   1      35.191  34.665  32.017  1.00  0.00     0.002 C 
BRANCH  27  28
ATOM     28  C   UNL A   1      35.684  33.674  30.961  1.00  0.00     0.021 C 
BRANCH  28  29
ATOM     29  C   UNL A   1      35.041  32.299  31.071  1.00  0.00     0.116 C 
BRANCH  29  30
ATOM     30  N   UNL A   1      34.480  31.876  29.796  1.00  0.00    -0.352 N 
ATOM     31  C   UNL A   1      35.116  31.278  28.736  1.00  0.00     0.251 C 
ATOM     32  H   UNL A   1      33.517  32.041  29.678  1.00  0.00     0.163 HD
ATOM     33  O   UNL A   1      34.589  31.226  27.634  1.00  0.00    -0.269 OA
BRANCH  31  34
ATOM     34  C   UNL A   1      36.455  30.697  28.951  1.00  0.00     0.039 A 
ATOM     35  C   UNL A   1      37.583  31.373  28.483  1.00  0.00     0.014 A 
ATOM     36  C   UNL A   1      36.580  29.486  29.635  1.00  0.00     0.014 A 
ATOM     37  C   UNL A   1      38.851  30.855  28.752  1.00  0.00     0.010 A 
ATOM     38  C   UNL A   1      37.842  29.018  29.974  1.00  0.00     0.010 A 
ATOM     39  C   UNL A   1      38.989  29.690  29.524  1.00  0.00    -0.014 A 
BRANCH  39  40
ATOM     40  C   UNL A   1      40.317  29.117  29.851  1.00  0.00     0.031 A 
ATOM     41  C   UNL A   1      41.273  29.914  30.693  1.00  0.00     0.074 A 
ATOM     42  C   UNL A   1      40.694  27.939  29.320  1.00  0.00     0.049 A 
ATOM     43  N   UNL A   1      42.532  29.683  30.965  1.00  0.00    -0.248 NA
ATOM     44  C   UNL A   1      40.753  31.161  31.277  1.00  0.00     0.031 C 
ATOM     45  C   UNL A   1      39.862  27.088  28.467  1.00  0.00     0.029 A 
ATOM     46  N   UNL A   1      41.885  27.263  29.404  1.00  0.00    -0.354 N 
ATOM     47  C   UNL A   1      42.954  30.762  31.729  1.00  0.00     0.074 A 
ATOM     48  C   UNL A   1      41.839  31.678  31.827  1.00  0.00     0.031 C 
ATOM     49  C   UNL A   1      40.563  25.997  28.118  1.00  0.00     0.029 A 
ATOM     50  C   UNL A   1      41.908  26.096  28.678  1.00  0.00     0.049 A 
ATOM     51  H   UNL A   1      42.650  27.584  29.933  1.00  0.00     0.167 HD
ATOM     52  C   UNL A   1      44.158  30.959  32.318  1.00  0.00     0.037 A 
ATOM     53  C   UNL A   1      42.909  25.219  28.476  1.00  0.00     0.037 A 
ATOM     54  C   UNL A   1      45.254  30.031  32.235  1.00  0.00     0.049 A 
ATOM     55  C   UNL A   1      44.248  25.477  29.116  1.00  0.00     0.074 A 
ATOM     56  C   UNL A   1      46.501  30.113  32.827  1.00  0.00     0.029 A 
ATOM     57  N   UNL A   1      45.230  28.848  31.510  1.00  0.00    -0.354 N 
ATOM     58  N   UNL A   1      44.626  26.475  29.877  1.00  0.00    -0.248 NA
ATOM     59  C   UNL A   1      45.302  24.481  28.872  1.00  0.00     0.031 C 
ATOM     60  C   UNL A   1      47.252  29.007  32.417  1.00  0.00     0.029 A 
ATOM     61  C   UNL A   1      46.449  28.200  31.626  1.00  0.00     0.049 A 
ATOM     62  H   UNL A   1      44.461  28.518  30.991  1.00  0.00     0.167 HD
ATOM     63  C   UNL A   1      45.939  26.206  30.239  1.00  0.00     0.074 A 
ATOM     64  C   UNL A   1      46.294  24.949  29.617  1.00  0.00     0.031 C 
ATOM     65  C   UNL A   1      46.774  26.933  31.022  1.00  0.00     0.037 A 
BRANCH  52  66
ATOM     66  C   UNL A   1      44.350  32.226  33.102  1.00  0.00     0.064 A 
ATOM     67  C   UNL A   1      44.789  33.411  32.493  1.00  0.00     0.173 A 
ATOM     68  C   UNL A   1      44.067  32.263  34.476  1.00  0.00     0.173 A 
ATOM     69  F   UNL A   1      45.087  33.429  31.184  1.00  0.00    -0.203 F 
ATOM     70  C   UNL A   1      44.968  34.576  33.234  1.00  0.00     0.198 A 
ATOM     71  C   UNL A   1      44.212  33.439  35.207  1.00  0.00     0.198 A 
ATOM     72  F   UNL A   1      43.640  31.160  35.110  1.00  0.00    -0.203 F 
ATOM     73  F   UNL A   1      45.445  35.680  32.640  1.00  0.00    -0.200 F 
ATOM     74  C   UNL A   1      44.673  34.592  34.588  1.00  0.00     0.200 A 
ATOM     75  F   UNL A   1      43.910  33.456  36.512  1.00  0.00    -0.200 F 
ATOM     76  F   UNL A   1      44.837  35.715  35.298  1.00  0.00    -0.200 F 
ENDBRANCH  52  66
BRANCH  53  77
ATOM     77  C   UNL A   1      42.684  24.007  27.644  1.00  0.00     0.064 A 
ATOM     78  C   UNL A   1      42.175  22.831  28.213  1.00  0.00     0.173 A 
ATOM     79  C   UNL A   1      42.988  23.988  26.275  1.00  0.00     0.173 A 
ATOM     80  F   UNL A   1      41.886  22.791  29.521  1.00  0.00    -0.203 F 
ATOM     81  C   UNL A   1      42.007  21.675  27.452  1.00  0.00     0.198 A 
ATOM     82  C   UNL A   1      42.788  22.842  25.507  1.00  0.00     0.198 A 
ATOM     83  F   UNL A   1      43.472  25.088  25.679  1.00  0.00    -0.203 F 
ATOM     84  F   UNL A   1      41.572  20.549  28.035  1.00  0.00    -0.200 F 
ATOM     85  C   UNL A   1      42.309  21.683  26.099  1.00  0.00     0.200 A 
ATOM     86  F   UNL A   1      43.066  22.860  24.197  1.00  0.00    -0.200 F 
ATOM     87  F   UNL A   1      42.147  20.572  25.367  1.00  0.00    -0.200 F 
ENDBRANCH  53  77
BRANCH  65  88
ATOM     88  C   UNL A   1      48.130  26.357  31.316  1.00  0.00     0.064 A 
ATOM     89  C   UNL A   1      49.243  26.626  30.508  1.00  0.00     0.173 A 
ATOM     90  C   UNL A   1      48.325  25.577  32.466  1.00  0.00     0.173 A 
ATOM     91  F   UNL A   1      49.106  27.357  29.390  1.00  0.00    -0.203 F 
ATOM     92  C   UNL A   1      50.498  26.118  30.829  1.00  0.00     0.198 A 
ATOM     93  C   UNL A   1      49.588  25.099  32.802  1.00  0.00     0.198 A 
ATOM     94  F   UNL A   1      47.294  25.296  33.277  1.00  0.00    -0.203 F 
ATOM     95  F   UNL A   1      51.541  26.352  30.020  1.00  0.00    -0.200 F 
ATOM     96  C   UNL A   1      50.672  25.364  31.980  1.00  0.00     0.200 A 
ATOM     97  F   UNL A   1      49.756  24.386  33.925  1.00  0.00    -0.200 F 
ATOM     98  F   UNL A   1      51.885  24.891  32.298  1.00  0.00    -0.200 F 
ENDBRANCH  65  88
ENDBRANCH  39  40
ENDBRANCH  31  34
ENDBRANCH  29  30
ENDBRANCH  28  29
ENDBRANCH  27  28
ENDBRANCH  26  27
ENDBRANCH   1  26
TORSDOF 19
ENDMDL
