MODEL 1
REMARK VINA RESULT:     -12.6      0.000      0.000
REMARK SMILES C[C@@]1(O)N(CC(=O)NCCCCCCNC(=O)c2ccc(-c3c4nc(c(-c5c(F)c(F)c(F)c(F)c5F)c5ccc([nH]5)c(-c5c(F)c(F)c(F)c(F)c5F)c5nc(c(-c6c(F)c(F)c(F)c(F)c6F)c6ccc3[nH]6)C=C5)C=C4)cc2)C(=O)OC12CCCCC2
REMARK SMILES IDX 11 1 10 2 9 3 8 4 6 5 7 6 5 8 4 9 1 10 2 11 84 12 81 13
REMARK SMILES IDX 83 14 85 15 89 16 82 17 86 18 88 19 87 20 3 21 12 23 13 24
REMARK SMILES IDX 14 25 15 26 16 27 17 29 18 30 19 31 80 32 20 33 79 34 21 35
REMARK SMILES IDX 22 36 23 37 73 38 24 39 78 40 72 41 74 42 25 43 77 44 71 45
REMARK SMILES IDX 70 46 26 48 58 49 38 50 57 51 39 52 42 53 56 54 75 55 40 56
REMARK SMILES IDX 41 57 55 59 76 60 43 61 27 62 28 63 36 64 29 65 30 66 34 67
REMARK SMILES IDX 37 68 31 69 32 70 35 71 33 72 59 73 60 74 68 75 61 76 62 77
REMARK SMILES IDX 66 78 69 79 63 80 64 81 67 82 65 83 44 84 45 85 53 86 46 87
REMARK SMILES IDX 47 88 51 89 54 90 48 91 49 92 52 93 50 94
REMARK H PARENT 8 7 3 22 15 28 74 47 42 58
REMARK Flexibility Score: inf
ROOT
ATOM      1  C   UNL A   1      32.531  29.725  27.140  1.00  0.00     0.002 C 
ENDROOT
BRANCH   1   2
ATOM      2  C   UNL A   1      31.761  28.455  27.516  1.00  0.00     0.021 C 
BRANCH   2   3
ATOM      3  C   UNL A   1      31.442  27.546  26.330  1.00  0.00     0.116 C 
BRANCH   3   4
ATOM      4  N   UNL A   1      30.812  26.315  26.762  1.00  0.00    -0.355 N 
ATOM      5  C   UNL A   1      30.752  25.109  26.129  1.00  0.00     0.239 C 
ATOM      6  O   UNL A   1      30.204  24.167  26.704  1.00  0.00    -0.273 OA
ATOM      7  H   UNL A   1      30.363  26.355  27.638  1.00  0.00     0.163 HD
BRANCH   5   8
ATOM      8  C   UNL A   1      31.428  24.928  24.774  1.00  0.00     0.226 C 
BRANCH   8   9
ATOM      9  N   UNL A   1      32.520  23.964  24.731  1.00  0.00    -0.267 N 
ATOM     10  C   UNL A   1      34.287  25.464  25.604  1.00  0.00     0.072 C 
ATOM     11  C   UNL A   1      33.718  24.049  25.519  1.00  0.00     0.181 C 
ATOM     12  C   UNL A   1      34.643  22.971  24.856  1.00  0.00     0.161 C 
ATOM     13  C   UNL A   1      32.612  23.016  23.754  1.00  0.00     0.413 C 
ATOM     14  O   UNL A   1      33.817  22.393  23.809  1.00  0.00    -0.438 OA
ATOM     15  C   UNL A   1      35.895  23.555  24.177  1.00  0.00     0.054 C 
ATOM     16  C   UNL A   1      35.014  21.785  25.776  1.00  0.00     0.054 C 
ATOM     17  O   UNL A   1      31.751  22.737  22.934  1.00  0.00    -0.224 OA
ATOM     18  C   UNL A   1      36.783  22.501  23.519  1.00  0.00     0.004 C 
ATOM     19  C   UNL A   1      35.898  20.748  25.079  1.00  0.00     0.004 C 
ATOM     20  C   UNL A   1      37.147  21.388  24.492  1.00  0.00     0.000 C 
BRANCH  11  21
ATOM     21  O   UNL A   1      33.368  23.700  26.847  1.00  0.00    -0.367 OA
ATOM     22  H   UNL A   1      32.406  23.755  26.953  1.00  0.00     0.213 HD
ENDBRANCH  11  21
ENDBRANCH   8   9
ENDBRANCH   5   8
ENDBRANCH   3   4
ENDBRANCH   2   3
ENDBRANCH   1   2
BRANCH   1  23
ATOM     23  C   UNL A   1      31.807  30.623  26.137  1.00  0.00     0.002 C 
BRANCH  23  24
ATOM     24  C   UNL A   1      31.476  32.018  26.669  1.00  0.00     0.021 C 
BRANCH  24  25
ATOM     25  C   UNL A   1      32.632  32.690  27.396  1.00  0.00     0.116 C 
BRANCH  25  26
ATOM     26  N   UNL A   1      32.384  34.108  27.610  1.00  0.00    -0.352 N 
ATOM     27  C   UNL A   1      32.959  34.941  28.537  1.00  0.00     0.251 C 
ATOM     28  H   UNL A   1      31.720  34.523  27.013  1.00  0.00     0.163 HD
ATOM     29  O   UNL A   1      32.505  36.058  28.753  1.00  0.00    -0.269 OA
BRANCH  27  30
ATOM     30  C   UNL A   1      34.134  34.455  29.287  1.00  0.00     0.039 A 
ATOM     31  C   UNL A   1      33.948  33.810  30.511  1.00  0.00     0.014 A 
ATOM     32  C   UNL A   1      35.413  34.605  28.746  1.00  0.00     0.014 A 
ATOM     33  C   UNL A   1      35.049  33.261  31.170  1.00  0.00     0.010 A 
ATOM     34  C   UNL A   1      36.493  33.989  29.362  1.00  0.00     0.010 A 
ATOM     35  C   UNL A   1      36.325  33.319  30.585  1.00  0.00    -0.014 A 
BRANCH  35  36
ATOM     36  C   UNL A   1      37.516  32.722  31.237  1.00  0.00     0.031 A 
ATOM     37  C   UNL A   1      38.235  31.589  30.558  1.00  0.00     0.074 A 
ATOM     38  C   UNL A   1      37.895  33.129  32.463  1.00  0.00     0.049 A 
ATOM     39  N   UNL A   1      39.191  30.820  31.013  1.00  0.00    -0.248 NA
ATOM     40  C   UNL A   1      37.792  31.254  29.195  1.00  0.00     0.031 C 
ATOM     41  C   UNL A   1      37.265  34.203  33.232  1.00  0.00     0.029 A 
ATOM     42  N   UNL A   1      38.891  32.669  33.290  1.00  0.00    -0.354 N 
ATOM     43  C   UNL A   1      39.444  29.901  30.004  1.00  0.00     0.074 A 
ATOM     44  C   UNL A   1      38.506  30.170  28.937  1.00  0.00     0.031 C 
ATOM     45  C   UNL A   1      37.894  34.327  34.412  1.00  0.00     0.029 A 
ATOM     46  C   UNL A   1      38.937  33.309  34.505  1.00  0.00     0.049 A 
ATOM     47  H   UNL A   1      39.512  31.949  33.036  1.00  0.00     0.167 HD
ATOM     48  C   UNL A   1      40.392  28.935  29.962  1.00  0.00     0.037 A 
ATOM     49  C   UNL A   1      39.720  33.083  35.579  1.00  0.00     0.037 A 
ATOM     50  C   UNL A   1      41.336  28.690  31.018  1.00  0.00     0.049 A 
ATOM     51  C   UNL A   1      40.741  31.977  35.522  1.00  0.00     0.074 A 
ATOM     52  C   UNL A   1      42.365  27.766  31.057  1.00  0.00     0.029 A 
ATOM     53  N   UNL A   1      41.364  29.372  32.225  1.00  0.00    -0.354 N 
ATOM     54  N   UNL A   1      41.009  31.146  34.544  1.00  0.00    -0.248 NA
ATOM     55  C   UNL A   1      41.572  31.777  36.719  1.00  0.00     0.031 C 
ATOM     56  C   UNL A   1      42.978  27.849  32.309  1.00  0.00     0.029 A 
ATOM     57  C   UNL A   1      42.379  28.874  33.025  1.00  0.00     0.049 A 
ATOM     58  H   UNL A   1      40.754  30.103  32.477  1.00  0.00     0.167 HD
ATOM     59  C   UNL A   1      42.064  30.359  34.987  1.00  0.00     0.074 A 
ATOM     60  C   UNL A   1      42.388  30.809  36.324  1.00  0.00     0.031 C 
ATOM     61  C   UNL A   1      42.710  29.358  34.341  1.00  0.00     0.037 A 
BRANCH  48  62
ATOM     62  C   UNL A   1      40.450  28.069  28.736  1.00  0.00     0.064 A 
ATOM     63  C   UNL A   1      41.207  28.431  27.612  1.00  0.00     0.173 A 
ATOM     64  C   UNL A   1      39.768  26.843  28.699  1.00  0.00     0.173 A 
ATOM     65  F   UNL A   1      41.871  29.597  27.590  1.00  0.00    -0.203 F 
ATOM     66  C   UNL A   1      41.251  27.616  26.483  1.00  0.00     0.198 A 
ATOM     67  C   UNL A   1      39.844  26.013  27.583  1.00  0.00     0.198 A 
ATOM     68  F   UNL A   1      39.034  26.444  29.749  1.00  0.00    -0.203 F 
ATOM     69  F   UNL A   1      41.934  28.011  25.400  1.00  0.00    -0.200 F 
ATOM     70  C   UNL A   1      40.576  26.404  26.473  1.00  0.00     0.200 A 
ATOM     71  F   UNL A   1      39.205  24.836  27.582  1.00  0.00    -0.200 F 
ATOM     72  F   UNL A   1      40.627  25.617  25.391  1.00  0.00    -0.200 F 
ENDBRANCH  48  62
BRANCH  49  73
ATOM     73  C   UNL A   1      39.580  33.927  36.796  1.00  0.00     0.064 A 
ATOM     74  C   UNL A   1      38.792  33.503  37.876  1.00  0.00     0.173 A 
ATOM     75  C   UNL A   1      40.210  35.175  36.901  1.00  0.00     0.173 A 
ATOM     76  F   UNL A   1      38.152  32.326  37.817  1.00  0.00    -0.203 F 
ATOM     77  C   UNL A   1      38.618  34.307  39.001  1.00  0.00     0.198 A 
ATOM     78  C   UNL A   1      40.063  35.963  38.041  1.00  0.00     0.198 A 
ATOM     79  F   UNL A   1      40.979  35.626  35.900  1.00  0.00    -0.203 F 
ATOM     80  F   UNL A   1      37.816  33.901  39.995  1.00  0.00    -0.200 F 
ATOM     81  C   UNL A   1      39.258  35.534  39.085  1.00  0.00     0.200 A 
ATOM     82  F   UNL A   1      40.696  37.142  38.125  1.00  0.00    -0.200 F 
ATOM     83  F   UNL A   1      39.092  36.307  40.167  1.00  0.00    -0.200 F 
ENDBRANCH  49  73
BRANCH  61  84
ATOM     84  C   UNL A   1      43.883  28.722  35.028  1.00  0.00     0.064 A 
ATOM     85  C   UNL A   1      45.180  29.243  34.922  1.00  0.00     0.173 A 
ATOM     86  C   UNL A   1      43.684  27.621  35.878  1.00  0.00     0.173 A 
ATOM     87  F   UNL A   1      45.425  30.284  34.112  1.00  0.00    -0.203 F 
ATOM     88  C   UNL A   1      46.237  28.680  35.633  1.00  0.00     0.198 A 
ATOM     89  C   UNL A   1      44.735  27.082  36.612  1.00  0.00     0.198 A 
ATOM     90  F   UNL A   1      42.460  27.090  36.020  1.00  0.00    -0.203 F 
ATOM     91  F   UNL A   1      47.474  29.173  35.493  1.00  0.00    -0.200 F 
ATOM     92  C   UNL A   1      46.012  27.610  36.487  1.00  0.00     0.200 A 
ATOM     93  F   UNL A   1      44.511  26.061  37.451  1.00  0.00    -0.200 F 
ATOM     94  F   UNL A   1      47.025  27.085  37.190  1.00  0.00    -0.200 F 
ENDBRANCH  61  84
ENDBRANCH  35  36
ENDBRANCH  27  30
ENDBRANCH  25  26
ENDBRANCH  24  25
ENDBRANCH  23  24
ENDBRANCH   1  23
TORSDOF 15
ENDMDL
MODEL 2
REMARK VINA RESULT:     -12.6      5.341     10.770
REMARK SMILES C[C@@]1(O)N(CC(=O)NCCCCCCNC(=O)c2ccc(-c3c4nc(c(-c5c(F)c(F)c(F)c(F)c5F)c5ccc([nH]5)c(-c5c(F)c(F)c(F)c(F)c5F)c5nc(c(-c6c(F)c(F)c(F)c(F)c6F)c6ccc3[nH]6)C=C5)C=C4)cc2)C(=O)OC12CCCCC2
REMARK SMILES IDX 11 1 10 2 9 3 8 4 6 5 7 6 5 8 4 9 1 10 2 11 84 12 81 13
REMARK SMILES IDX 83 14 85 15 89 16 82 17 86 18 88 19 87 20 3 21 12 23 13 24
REMARK SMILES IDX 14 25 15 26 16 27 17 29 18 30 19 31 80 32 20 33 79 34 21 35
REMARK SMILES IDX 22 36 23 37 73 38 24 39 78 40 72 41 74 42 25 43 77 44 71 45
REMARK SMILES IDX 70 46 26 48 58 49 38 50 57 51 39 52 42 53 56 54 75 55 40 56
REMARK SMILES IDX 41 57 55 59 76 60 43 61 27 62 28 63 36 64 29 65 30 66 34 67
REMARK SMILES IDX 37 68 31 69 32 70 35 71 33 72 59 73 60 74 68 75 61 76 62 77
REMARK SMILES IDX 66 78 69 79 63 80 64 81 67 82 65 83 44 84 45 85 53 86 46 87
REMARK SMILES IDX 47 88 51 89 54 90 48 91 49 92 52 93 50 94
REMARK H PARENT 8 7 3 22 15 28 74 47 42 58
REMARK Flexibility Score: inf
ROOT
ATOM      1  C   UNL A   1      35.373  20.337  25.001  1.00  0.00     0.002 C 
ENDROOT
BRANCH   1   2
ATOM      2  C   UNL A   1      34.226  21.177  25.572  1.00  0.00     0.021 C 
BRANCH   2   3
ATOM      3  C   UNL A   1      32.876  20.923  24.903  1.00  0.00     0.116 C 
BRANCH   3   4
ATOM      4  N   UNL A   1      31.778  21.322  25.762  1.00  0.00    -0.355 N 
ATOM      5  C   UNL A   1      31.040  22.468  25.740  1.00  0.00     0.239 C 
ATOM      6  O   UNL A   1      30.107  22.585  26.536  1.00  0.00    -0.273 OA
ATOM      7  H   UNL A   1      31.530  20.673  26.459  1.00  0.00     0.163 HD
BRANCH   5   8
ATOM      8  C   UNL A   1      31.327  23.536  24.690  1.00  0.00     0.226 C 
BRANCH   8   9
ATOM      9  N   UNL A   1      31.633  24.867  25.202  1.00  0.00    -0.267 N 
ATOM     10  C   UNL A   1      29.687  26.031  24.206  1.00  0.00     0.072 C 
ATOM     11  C   UNL A   1      30.670  25.920  25.369  1.00  0.00     0.181 C 
ATOM     12  C   UNL A   1      31.575  27.173  25.633  1.00  0.00     0.161 C 
ATOM     13  C   UNL A   1      32.915  25.313  25.341  1.00  0.00     0.413 C 
ATOM     14  O   UNL A   1      32.927  26.641  25.622  1.00  0.00    -0.438 OA
ATOM     15  C   UNL A   1      31.497  28.242  24.528  1.00  0.00     0.054 C 
ATOM     16  C   UNL A   1      31.404  27.808  27.032  1.00  0.00     0.054 C 
ATOM     17  O   UNL A   1      33.930  24.641  25.239  1.00  0.00    -0.224 OA
ATOM     18  C   UNL A   1      32.393  29.453  24.783  1.00  0.00     0.004 C 
ATOM     19  C   UNL A   1      32.322  29.013  27.252  1.00  0.00     0.004 C 
ATOM     20  C   UNL A   1      32.141  30.056  26.159  1.00  0.00     0.000 C 
BRANCH  11  21
ATOM     21  O   UNL A   1      29.884  25.588  26.501  1.00  0.00    -0.367 OA
ATOM     22  H   UNL A   1      29.165  26.233  26.595  1.00  0.00     0.213 HD
ENDBRANCH  11  21
ENDBRANCH   8   9
ENDBRANCH   5   8
ENDBRANCH   3   4
ENDBRANCH   2   3
ENDBRANCH   1   2
BRANCH   1  23
ATOM     23  C   UNL A   1      36.757  20.957  25.191  1.00  0.00     0.002 C 
BRANCH  23  24
ATOM     24  C   UNL A   1      37.916  19.978  24.996  1.00  0.00     0.021 C 
BRANCH  24  25
ATOM     25  C   UNL A   1      39.181  20.362  25.752  1.00  0.00     0.116 C 
BRANCH  25  26
ATOM     26  N   UNL A   1      40.127  19.259  25.817  1.00  0.00    -0.352 N 
ATOM     27  C   UNL A   1      41.489  19.316  25.983  1.00  0.00     0.251 C 
ATOM     28  H   UNL A   1      39.742  18.357  25.731  1.00  0.00     0.163 HD
ATOM     29  O   UNL A   1      42.190  18.328  25.803  1.00  0.00    -0.269 OA
BRANCH  27  30
ATOM     30  C   UNL A   1      42.097  20.604  26.370  1.00  0.00     0.039 A 
ATOM     31  C   UNL A   1      42.477  21.509  25.376  1.00  0.00     0.014 A 
ATOM     32  C   UNL A   1      42.246  20.923  27.722  1.00  0.00     0.014 A 
ATOM     33  C   UNL A   1      42.958  22.766  25.744  1.00  0.00     0.010 A 
ATOM     34  C   UNL A   1      42.647  22.202  28.082  1.00  0.00     0.010 A 
ATOM     35  C   UNL A   1      43.017  23.134  27.098  1.00  0.00    -0.014 A 
BRANCH  35  36
ATOM     36  C   UNL A   1      43.492  24.471  27.530  1.00  0.00     0.031 A 
ATOM     37  C   UNL A   1      42.486  25.524  27.901  1.00  0.00     0.074 A 
ATOM     38  C   UNL A   1      44.806  24.766  27.503  1.00  0.00     0.049 A 
ATOM     39  N   UNL A   1      42.667  26.795  28.152  1.00  0.00    -0.248 NA
ATOM     40  C   UNL A   1      41.079  25.095  27.964  1.00  0.00     0.031 C 
ATOM     41  C   UNL A   1      45.876  23.837  27.140  1.00  0.00     0.029 A 
ATOM     42  N   UNL A   1      45.463  25.944  27.764  1.00  0.00    -0.354 N 
ATOM     43  C   UNL A   1      41.400  27.317  28.378  1.00  0.00     0.074 A 
ATOM     44  C   UNL A   1      40.455  26.242  28.180  1.00  0.00     0.031 C 
ATOM     45  C   UNL A   1      47.056  24.475  27.212  1.00  0.00     0.029 A 
ATOM     46  C   UNL A   1      46.821  25.870  27.575  1.00  0.00     0.049 A 
ATOM     47  H   UNL A   1      45.004  26.762  28.059  1.00  0.00     0.167 HD
ATOM     48  C   UNL A   1      41.059  28.576  28.742  1.00  0.00     0.037 A 
ATOM     49  C   UNL A   1      47.767  26.826  27.664  1.00  0.00     0.037 A 
ATOM     50  C   UNL A   1      42.009  29.634  28.959  1.00  0.00     0.049 A 
ATOM     51  C   UNL A   1      47.358  28.229  28.032  1.00  0.00     0.074 A 
ATOM     52  C   UNL A   1      41.772  30.932  29.374  1.00  0.00     0.029 A 
ATOM     53  N   UNL A   1      43.379  29.514  28.777  1.00  0.00    -0.354 N 
ATOM     54  N   UNL A   1      46.163  28.702  28.295  1.00  0.00    -0.248 NA
ATOM     55  C   UNL A   1      48.429  29.232  28.120  1.00  0.00     0.031 C 
ATOM     56  C   UNL A   1      42.991  31.615  29.385  1.00  0.00     0.029 A 
ATOM     57  C   UNL A   1      43.998  30.723  29.048  1.00  0.00     0.049 A 
ATOM     58  H   UNL A   1      43.843  28.692  28.496  1.00  0.00     0.167 HD
ATOM     59  C   UNL A   1      46.343  30.039  28.622  1.00  0.00     0.074 A 
ATOM     60  C   UNL A   1      47.763  30.305  28.524  1.00  0.00     0.031 C 
ATOM     61  C   UNL A   1      45.417  30.961  28.978  1.00  0.00     0.037 A 
BRANCH  48  62
ATOM     62  C   UNL A   1      39.599  28.878  28.923  1.00  0.00     0.064 A 
ATOM     63  C   UNL A   1      38.973  28.768  30.174  1.00  0.00     0.173 A 
ATOM     64  C   UNL A   1      38.825  29.317  27.839  1.00  0.00     0.173 A 
ATOM     65  F   UNL A   1      39.664  28.342  31.242  1.00  0.00    -0.203 F 
ATOM     66  C   UNL A   1      37.618  29.052  30.324  1.00  0.00     0.198 A 
ATOM     67  C   UNL A   1      37.479  29.636  28.001  1.00  0.00     0.198 A 
ATOM     68  F   UNL A   1      39.374  29.446  26.622  1.00  0.00    -0.203 F 
ATOM     69  F   UNL A   1      37.028  28.884  31.516  1.00  0.00    -0.200 F 
ATOM     70  C   UNL A   1      36.874  29.494  29.240  1.00  0.00     0.200 A 
ATOM     71  F   UNL A   1      36.766  30.078  26.956  1.00  0.00    -0.200 F 
ATOM     72  F   UNL A   1      35.573  29.776  29.389  1.00  0.00    -0.200 F 
ENDBRANCH  48  62
BRANCH  49  73
ATOM     73  C   UNL A   1      49.194  26.492  27.410  1.00  0.00     0.064 A 
ATOM     74  C   UNL A   1      50.086  26.295  28.474  1.00  0.00     0.173 A 
ATOM     75  C   UNL A   1      49.702  26.380  26.107  1.00  0.00     0.173 A 
ATOM     76  F   UNL A   1      49.654  26.410  29.739  1.00  0.00    -0.203 F 
ATOM     77  C   UNL A   1      51.434  26.026  28.246  1.00  0.00     0.198 A 
ATOM     78  C   UNL A   1      51.043  26.078  25.881  1.00  0.00     0.198 A 
ATOM     79  F   UNL A   1      48.892  26.553  25.053  1.00  0.00    -0.203 F 
ATOM     80  F   UNL A   1      52.274  25.897  29.282  1.00  0.00    -0.200 F 
ATOM     81  C   UNL A   1      51.911  25.913  26.950  1.00  0.00     0.200 A 
ATOM     82  F   UNL A   1      51.497  25.954  24.625  1.00  0.00    -0.200 F 
ATOM     83  F   UNL A   1      53.207  25.654  26.730  1.00  0.00    -0.200 F 
ENDBRANCH  49  73
BRANCH  61  84
ATOM     84  C   UNL A   1      45.900  32.329  29.364  1.00  0.00     0.064 A 
ATOM     85  C   UNL A   1      45.943  33.389  28.448  1.00  0.00     0.173 A 
ATOM     86  C   UNL A   1      46.239  32.600  30.701  1.00  0.00     0.173 A 
ATOM     87  F   UNL A   1      45.642  33.179  27.158  1.00  0.00    -0.203 F 
ATOM     88  C   UNL A   1      46.319  34.668  28.852  1.00  0.00     0.198 A 
ATOM     89  C   UNL A   1      46.582  33.885  31.107  1.00  0.00     0.198 A 
ATOM     90  F   UNL A   1      46.206  31.621  31.618  1.00  0.00    -0.203 F 
ATOM     91  F   UNL A   1      46.385  35.659  27.954  1.00  0.00    -0.200 F 
ATOM     92  C   UNL A   1      46.625  34.918  30.182  1.00  0.00     0.200 A 
ATOM     93  F   UNL A   1      46.858  34.128  32.396  1.00  0.00    -0.200 F 
ATOM     94  F   UNL A   1      46.962  36.154  30.574  1.00  0.00    -0.200 F 
ENDBRANCH  61  84
ENDBRANCH  35  36
ENDBRANCH  27  30
ENDBRANCH  25  26
ENDBRANCH  24  25
ENDBRANCH  23  24
ENDBRANCH   1  23
TORSDOF 15
ENDMDL
MODEL 3
REMARK VINA RESULT:     -12.5      5.300     10.692
REMARK SMILES C[C@@]1(O)N(CC(=O)NCCCCCCNC(=O)c2ccc(-c3c4nc(c(-c5c(F)c(F)c(F)c(F)c5F)c5ccc([nH]5)c(-c5c(F)c(F)c(F)c(F)c5F)c5nc(c(-c6c(F)c(F)c(F)c(F)c6F)c6ccc3[nH]6)C=C5)C=C4)cc2)C(=O)OC12CCCCC2
REMARK SMILES IDX 11 1 10 2 9 3 8 4 6 5 7 6 5 8 4 9 1 10 2 11 84 12 81 13
REMARK SMILES IDX 83 14 85 15 89 16 82 17 86 18 88 19 87 20 3 21 12 23 13 24
REMARK SMILES IDX 14 25 15 26 16 27 17 29 18 30 19 31 80 32 20 33 79 34 21 35
REMARK SMILES IDX 22 36 23 37 73 38 24 39 78 40 72 41 74 42 25 43 77 44 71 45
REMARK SMILES IDX 70 46 26 48 58 49 38 50 57 51 39 52 42 53 56 54 75 55 40 56
REMARK SMILES IDX 41 57 55 59 76 60 43 61 27 62 28 63 36 64 29 65 30 66 34 67
REMARK SMILES IDX 37 68 31 69 32 70 35 71 33 72 59 73 60 74 68 75 61 76 62 77
REMARK SMILES IDX 66 78 69 79 63 80 64 81 67 82 65 83 44 84 45 85 53 86 46 87
REMARK SMILES IDX 47 88 51 89 54 90 48 91 49 92 52 93 50 94
REMARK H PARENT 8 7 3 22 15 28 74 47 42 58
REMARK Flexibility Score: inf
ROOT
ATOM      1  C   UNL A   1      35.443  20.373  25.007  1.00  0.00     0.002 C 
ENDROOT
BRANCH   1   2
ATOM      2  C   UNL A   1      34.290  21.239  25.524  1.00  0.00     0.021 C 
BRANCH   2   3
ATOM      3  C   UNL A   1      32.930  20.886  24.925  1.00  0.00     0.116 C 
BRANCH   3   4
ATOM      4  N   UNL A   1      31.847  21.293  25.798  1.00  0.00    -0.355 N 
ATOM      5  C   UNL A   1      31.136  22.456  25.806  1.00  0.00     0.239 C 
ATOM      6  O   UNL A   1      30.211  22.578  26.610  1.00  0.00    -0.273 OA
ATOM      7  H   UNL A   1      31.586  20.635  26.483  1.00  0.00     0.163 HD
BRANCH   5   8
ATOM      8  C   UNL A   1      31.443  23.540  24.777  1.00  0.00     0.226 C 
BRANCH   8   9
ATOM      9  N   UNL A   1      31.709  24.870  25.313  1.00  0.00    -0.267 N 
ATOM     10  C   UNL A   1      29.751  26.002  24.304  1.00  0.00     0.072 C 
ATOM     11  C   UNL A   1      30.719  25.896  25.480  1.00  0.00     0.181 C 
ATOM     12  C   UNL A   1      31.589  27.167  25.776  1.00  0.00     0.161 C 
ATOM     13  C   UNL A   1      32.978  25.344  25.477  1.00  0.00     0.413 C 
ATOM     14  O   UNL A   1      32.954  26.667  25.778  1.00  0.00    -0.438 OA
ATOM     15  C   UNL A   1      31.502  28.250  24.685  1.00  0.00     0.054 C 
ATOM     16  C   UNL A   1      31.382  27.777  27.181  1.00  0.00     0.054 C 
ATOM     17  O   UNL A   1      34.010  24.697  25.381  1.00  0.00    -0.224 OA
ATOM     18  C   UNL A   1      32.365  29.477  24.971  1.00  0.00     0.004 C 
ATOM     19  C   UNL A   1      32.269  29.000  27.432  1.00  0.00     0.004 C 
ATOM     20  C   UNL A   1      32.079  30.054  26.351  1.00  0.00     0.000 C 
BRANCH  11  21
ATOM     21  O   UNL A   1      29.924  25.530  26.595  1.00  0.00    -0.367 OA
ATOM     22  H   UNL A   1      30.496  25.380  27.365  1.00  0.00     0.213 HD
ENDBRANCH  11  21
ENDBRANCH   8   9
ENDBRANCH   5   8
ENDBRANCH   3   4
ENDBRANCH   2   3
ENDBRANCH   1   2
BRANCH   1  23
ATOM     23  C   UNL A   1      36.817  21.036  25.106  1.00  0.00     0.002 C 
BRANCH  23  24
ATOM     24  C   UNL A   1      37.992  20.072  24.940  1.00  0.00     0.021 C 
BRANCH  24  25
ATOM     25  C   UNL A   1      39.204  20.424  25.793  1.00  0.00     0.116 C 
BRANCH  25  26
ATOM     26  N   UNL A   1      40.148  19.320  25.871  1.00  0.00    -0.352 N 
ATOM     27  C   UNL A   1      41.506  19.375  26.069  1.00  0.00     0.251 C 
ATOM     28  H   UNL A   1      39.765  18.419  25.770  1.00  0.00     0.163 HD
ATOM     29  O   UNL A   1      42.211  18.389  25.898  1.00  0.00    -0.269 OA
BRANCH  27  30
ATOM     30  C   UNL A   1      42.106  20.660  26.478  1.00  0.00     0.039 A 
ATOM     31  C   UNL A   1      42.526  21.563  25.500  1.00  0.00     0.014 A 
ATOM     32  C   UNL A   1      42.206  20.979  27.835  1.00  0.00     0.014 A 
ATOM     33  C   UNL A   1      42.999  22.819  25.885  1.00  0.00     0.010 A 
ATOM     34  C   UNL A   1      42.599  22.256  28.211  1.00  0.00     0.010 A 
ATOM     35  C   UNL A   1      43.009  23.186  27.241  1.00  0.00    -0.014 A 
BRANCH  35  36
ATOM     36  C   UNL A   1      43.474  24.521  27.691  1.00  0.00     0.031 A 
ATOM     37  C   UNL A   1      42.460  25.575  28.034  1.00  0.00     0.074 A 
ATOM     38  C   UNL A   1      44.789  24.812  27.704  1.00  0.00     0.049 A 
ATOM     39  N   UNL A   1      42.636  26.845  28.294  1.00  0.00    -0.248 NA
ATOM     40  C   UNL A   1      41.051  25.149  28.054  1.00  0.00     0.031 C 
ATOM     41  C   UNL A   1      45.867  23.882  27.370  1.00  0.00     0.029 A 
ATOM     42  N   UNL A   1      45.441  25.988  27.988  1.00  0.00    -0.354 N 
ATOM     43  C   UNL A   1      41.365  27.369  28.483  1.00  0.00     0.074 A 
ATOM     44  C   UNL A   1      40.423  26.297  28.254  1.00  0.00     0.031 C 
ATOM     45  C   UNL A   1      47.046  24.517  27.480  1.00  0.00     0.029 A 
ATOM     46  C   UNL A   1      46.804  25.911  27.839  1.00  0.00     0.049 A 
ATOM     47  H   UNL A   1      44.975  26.807  28.271  1.00  0.00     0.167 HD
ATOM     48  C   UNL A   1      41.016  28.628  28.841  1.00  0.00     0.037 A 
ATOM     49  C   UNL A   1      47.749  26.865  27.959  1.00  0.00     0.037 A 
ATOM     50  C   UNL A   1      41.961  29.683  29.089  1.00  0.00     0.049 A 
ATOM     51  C   UNL A   1      47.332  28.268  28.319  1.00  0.00     0.074 A 
ATOM     52  C   UNL A   1      41.715  30.981  29.499  1.00  0.00     0.029 A 
ATOM     53  N   UNL A   1      43.335  29.561  28.947  1.00  0.00    -0.354 N 
ATOM     54  N   UNL A   1      46.131  28.743  28.547  1.00  0.00    -0.248 NA
ATOM     55  C   UNL A   1      48.402  29.269  28.442  1.00  0.00     0.031 C 
ATOM     56  C   UNL A   1      42.934  31.660  29.549  1.00  0.00     0.029 A 
ATOM     57  C   UNL A   1      43.948  30.767  29.240  1.00  0.00     0.049 A 
ATOM     58  H   UNL A   1      43.806  28.738  28.678  1.00  0.00     0.167 HD
ATOM     59  C   UNL A   1      46.304  30.079  28.883  1.00  0.00     0.074 A 
ATOM     60  C   UNL A   1      47.727  30.342  28.828  1.00  0.00     0.031 C 
ATOM     61  C   UNL A   1      45.370  31.002  29.214  1.00  0.00     0.037 A 
BRANCH  48  62
ATOM     62  C   UNL A   1      39.552  28.933  28.978  1.00  0.00     0.064 A 
ATOM     63  C   UNL A   1      38.777  29.344  27.882  1.00  0.00     0.173 A 
ATOM     64  C   UNL A   1      38.907  28.780  30.215  1.00  0.00     0.173 A 
ATOM     65  F   UNL A   1      39.345  29.516  26.679  1.00  0.00    -0.203 F 
ATOM     66  C   UNL A   1      37.420  29.622  28.027  1.00  0.00     0.198 A 
ATOM     67  C   UNL A   1      37.542  29.024  30.348  1.00  0.00     0.198 A 
ATOM     68  F   UNL A   1      39.598  28.385  31.295  1.00  0.00    -0.203 F 
ATOM     69  F   UNL A   1      36.714  30.068  26.979  1.00  0.00    -0.200 F 
ATOM     70  C   UNL A   1      36.803  29.454  29.257  1.00  0.00     0.200 A 
ATOM     71  F   UNL A   1      36.944  28.845  31.534  1.00  0.00    -0.200 F 
ATOM     72  F   UNL A   1      35.495  29.713  29.393  1.00  0.00    -0.200 F 
ENDBRANCH  48  62
BRANCH  49  73
ATOM     73  C   UNL A   1      49.182  26.529  27.748  1.00  0.00     0.064 A 
ATOM     74  C   UNL A   1      49.710  26.417  26.453  1.00  0.00     0.173 A 
ATOM     75  C   UNL A   1      50.048  26.294  28.826  1.00  0.00     0.173 A 
ATOM     76  F   UNL A   1      48.919  26.613  25.388  1.00  0.00    -0.203 F 
ATOM     77  C   UNL A   1      51.040  26.058  26.245  1.00  0.00     0.198 A 
ATOM     78  C   UNL A   1      51.386  25.968  28.617  1.00  0.00     0.198 A 
ATOM     79  F   UNL A   1      49.597  26.393  30.084  1.00  0.00    -0.203 F 
ATOM     80  F   UNL A   1      51.504  25.905  24.997  1.00  0.00    -0.200 F 
ATOM     81  C   UNL A   1      51.879  25.838  27.327  1.00  0.00     0.200 A 
ATOM     82  F   UNL A   1      52.198  25.772  29.666  1.00  0.00    -0.200 F 
ATOM     83  F   UNL A   1      53.158  25.494  27.128  1.00  0.00    -0.200 F 
ENDBRANCH  49  73
BRANCH  61  84
ATOM     84  C   UNL A   1      45.844  32.368  29.618  1.00  0.00     0.064 A 
ATOM     85  C   UNL A   1      46.214  32.667  30.937  1.00  0.00     0.173 A 
ATOM     86  C   UNL A   1      46.012  33.367  28.644  1.00  0.00     0.173 A 
ATOM     87  F   UNL A   1      46.059  31.752  31.905  1.00  0.00    -0.203 F 
ATOM     88  C   UNL A   1      46.726  33.919  31.268  1.00  0.00     0.198 A 
ATOM     89  C   UNL A   1      46.555  34.605  28.973  1.00  0.00     0.198 A 
ATOM     90  F   UNL A   1      45.679  33.128  27.367  1.00  0.00    -0.203 F 
ATOM     91  F   UNL A   1      47.043  34.195  32.539  1.00  0.00    -0.200 F 
ATOM     92  C   UNL A   1      46.908  34.882  30.285  1.00  0.00     0.200 A 
ATOM     93  F   UNL A   1      46.748  35.526  28.018  1.00  0.00    -0.200 F 
ATOM     94  F   UNL A   1      47.424  36.077  30.602  1.00  0.00    -0.200 F 
ENDBRANCH  61  84
ENDBRANCH  35  36
ENDBRANCH  27  30
ENDBRANCH  25  26
ENDBRANCH  24  25
ENDBRANCH  23  24
ENDBRANCH   1  23
TORSDOF 15
ENDMDL
