MODEL 1
REMARK VINA RESULT:     -13.0      0.000      0.000
REMARK SMILES O=C(NCCCCCCNC(=O)c1ccc(-c2c3nc(c(-c4c(F)c(F)c(F)c(F)c4F)c4ccc([nH]4)c(-c4c(F)c(F)c(F)c(F)c4F)c4nc(c(-c5c(F)c(F)c(F)c(F)c5F)c5ccc2[nH]5)C=C4)C=C3)cc1)C1=Cc2cc(S(F)(F)(F)(F)F)ccc2O[C@H]1C(F)(F)F
REMARK SMILES IDX 7 1 6 2 5 3 4 4 3 5 1 6 2 7 76 9 77 10 91 11 78 12 90 13
REMARK SMILES IDX 79 14 89 15 80 16 88 17 87 18 92 19 93 20 94 21 95 22 81 23
REMARK SMILES IDX 82 24 83 25 84 26 85 27 86 28 8 29 9 30 10 31 11 32 12 34
REMARK SMILES IDX 13 35 14 36 75 37 15 38 74 39 16 40 17 41 18 42 68 43 19 44
REMARK SMILES IDX 73 45 67 46 69 47 20 48 72 49 66 50 65 51 21 53 53 54 33 55
REMARK SMILES IDX 52 56 34 57 37 58 51 59 70 60 35 61 36 62 50 64 71 65 38 66
REMARK SMILES IDX 22 67 23 68 31 69 24 70 25 71 29 72 32 73 26 74 27 75 30 76
REMARK SMILES IDX 28 77 54 78 55 79 63 80 56 81 57 82 61 83 64 84 58 85 59 86
REMARK SMILES IDX 62 87 60 88 39 89 40 90 48 91 41 92 42 93 46 94 49 95 43 96
REMARK SMILES IDX 44 97 47 98 45 99
REMARK H PARENT 3 8 10 33 69 52 37 63
REMARK Flexibility Score: inf
ROOT
ATOM      1  C   UNL A   1      36.821  20.718  25.059  1.00  0.00     0.002 C 
ENDROOT
BRANCH   1   2
ATOM      2  C   UNL A   1      37.383  22.008  24.485  1.00  0.00     0.002 C 
BRANCH   2   3
ATOM      3  C   UNL A   1      37.013  23.170  25.393  1.00  0.00     0.021 C 
BRANCH   3   4
ATOM      4  C   UNL A   1      35.557  23.544  25.169  1.00  0.00     0.116 C 
BRANCH   4   5
ATOM      5  N   UNL A   1      35.275  23.575  23.726  1.00  0.00    -0.352 N 
ATOM      6  O   UNL A   1      33.642  23.551  22.000  1.00  0.00    -0.270 OA
ATOM      7  C   UNL A   1      33.886  23.524  23.248  1.00  0.00     0.251 C 
ATOM      8  H   UNL A   1      36.016  23.630  23.081  1.00  0.00     0.163 HD
BRANCH   7   9
ATOM      9  C   UNL A   1      32.741  23.440  24.244  1.00  0.00     0.067 C 
ATOM     10  C   UNL A   1      32.368  24.543  24.946  1.00  0.00     0.025 C 
ATOM     11  C   UNL A   1      32.014  22.122  24.456  1.00  0.00     0.314 C 
ATOM     12  C   UNL A   1      33.096  25.861  24.734  1.00  0.00     0.019 A 
ATOM     13  O   UNL A   1      33.181  25.249  22.440  1.00  0.00    -0.475 OA
ATOM     14  C   UNL A   1      33.381  26.719  25.784  1.00  0.00     0.036 A 
ATOM     15  C   UNL A   1      33.333  26.208  23.476  1.00  0.00     0.128 A 
ATOM     16  C   UNL A   1      33.650  28.048  25.380  1.00  0.00     0.107 A 
ATOM     17  C   UNL A   1      33.725  27.489  23.165  1.00  0.00     0.048 A 
ATOM     18  C   UNL A   1      33.968  28.407  24.149  1.00  0.00     0.028 A 
BRANCH  11  19
ATOM     19  C   UNL A   1      32.621  21.057  23.557  1.00  0.00     0.429 C 
ATOM     20  F   UNL A   1      33.941  21.036  23.721  1.00  0.00    -0.167 F 
ATOM     21  F   UNL A   1      32.116  19.868  23.874  1.00  0.00    -0.167 F 
ATOM     22  F   UNL A   1      32.336  21.336  22.289  1.00  0.00    -0.167 F 
ENDBRANCH  11  19
BRANCH  16  23
ATOM     23  S   UNL A   1      33.553  29.347  26.637  1.00  0.00     0.310 S 
ATOM     24  F   UNL A   1      32.966  28.347  27.718  1.00  0.00    -0.094 F 
ATOM     25  F   UNL A   1      32.068  29.625  26.189  1.00  0.00    -0.094 F 
ATOM     26  F   UNL A   1      33.468  30.465  27.713  1.00  0.00    -0.094 F 
ATOM     27  F   UNL A   1      34.990  28.959  27.164  1.00  0.00    -0.094 F 
ATOM     28  F   UNL A   1      33.614  28.134  25.624  1.00  0.00    -0.094 F 
ENDBRANCH  16  23
ENDBRANCH   7   9
ENDBRANCH   4   5
ENDBRANCH   3   4
ENDBRANCH   2   3
ENDBRANCH   1   2
BRANCH   1  29
ATOM     29  C   UNL A   1      37.851  19.611  24.923  1.00  0.00     0.021 C 
BRANCH  29  30
ATOM     30  C   UNL A   1      39.104  19.986  25.698  1.00  0.00     0.116 C 
BRANCH  30  31
ATOM     31  N   UNL A   1      40.063  18.871  25.648  1.00  0.00    -0.352 N 
ATOM     32  C   UNL A   1      41.471  19.097  26.002  1.00  0.00     0.251 C 
ATOM     33  H   UNL A   1      39.760  17.974  25.379  1.00  0.00     0.163 HD
ATOM     34  O   UNL A   1      42.299  18.135  25.959  1.00  0.00    -0.269 OA
BRANCH  32  35
ATOM     35  C   UNL A   1      41.938  20.483  26.418  1.00  0.00     0.039 A 
ATOM     36  C   UNL A   1      42.014  20.799  27.765  1.00  0.00     0.014 A 
ATOM     37  C   UNL A   1      42.263  21.369  25.484  1.00  0.00     0.014 A 
ATOM     38  C   UNL A   1      42.171  22.181  28.022  1.00  0.00     0.010 A 
ATOM     39  C   UNL A   1      42.538  22.672  25.820  1.00  0.00     0.010 A 
ATOM     40  C   UNL A   1      42.572  23.068  27.129  1.00  0.00    -0.014 A 
BRANCH  40  41
ATOM     41  C   UNL A   1      43.047  24.454  27.534  1.00  0.00     0.031 A 
ATOM     42  C   UNL A   1      44.420  24.704  27.533  1.00  0.00     0.074 A 
ATOM     43  C   UNL A   1      42.091  25.392  27.883  1.00  0.00     0.049 A 
ATOM     44  N   UNL A   1      45.040  25.850  27.820  1.00  0.00    -0.248 NA
ATOM     45  C   UNL A   1      45.440  23.699  27.196  1.00  0.00     0.031 C 
ATOM     46  C   UNL A   1      40.702  25.150  27.879  1.00  0.00     0.029 A 
ATOM     47  N   UNL A   1      42.290  26.693  28.288  1.00  0.00    -0.354 N 
ATOM     48  C   UNL A   1      46.360  25.706  27.690  1.00  0.00     0.074 A 
ATOM     49  C   UNL A   1      46.637  24.319  27.292  1.00  0.00     0.031 C 
ATOM     50  C   UNL A   1      40.076  26.285  28.287  1.00  0.00     0.029 A 
ATOM     51  C   UNL A   1      41.061  27.256  28.551  1.00  0.00     0.049 A 
ATOM     52  H   UNL A   1      43.162  27.144  28.374  1.00  0.00     0.167 HD
ATOM     53  C   UNL A   1      47.343  26.677  27.886  1.00  0.00     0.037 A 
ATOM     54  C   UNL A   1      40.793  28.539  29.000  1.00  0.00     0.037 A 
ATOM     55  C   UNL A   1      47.073  27.974  28.293  1.00  0.00     0.049 A 
ATOM     56  C   UNL A   1      41.782  29.493  29.252  1.00  0.00     0.074 A 
ATOM     57  C   UNL A   1      48.051  28.967  28.487  1.00  0.00     0.029 A 
ATOM     58  N   UNL A   1      45.845  28.528  28.579  1.00  0.00    -0.354 N 
ATOM     59  N   UNL A   1      43.098  29.361  29.084  1.00  0.00    -0.248 NA
ATOM     60  C   UNL A   1      41.513  30.846  29.758  1.00  0.00     0.031 C 
ATOM     61  C   UNL A   1      47.424  30.103  28.894  1.00  0.00     0.029 A 
ATOM     62  C   UNL A   1      46.043  29.836  28.962  1.00  0.00     0.049 A 
ATOM     63  H   UNL A   1      44.976  28.070  28.521  1.00  0.00     0.167 HD
ATOM     64  C   UNL A   1      43.719  30.496  29.412  1.00  0.00     0.074 A 
ATOM     65  C   UNL A   1      42.709  31.465  29.857  1.00  0.00     0.031 C 
ATOM     66  C   UNL A   1      45.088  30.763  29.354  1.00  0.00     0.037 A 
BRANCH  53  67
ATOM     67  C   UNL A   1      48.792  26.290  27.639  1.00  0.00     0.064 A 
ATOM     68  C   UNL A   1      49.618  25.864  28.666  1.00  0.00     0.173 A 
ATOM     69  C   UNL A   1      49.224  26.344  26.385  1.00  0.00     0.173 A 
ATOM     70  F   UNL A   1      49.167  25.552  29.878  1.00  0.00    -0.203 F 
ATOM     71  C   UNL A   1      50.985  25.790  28.308  1.00  0.00     0.198 A 
ATOM     72  C   UNL A   1      50.549  26.129  26.091  1.00  0.00     0.198 A 
ATOM     73  F   UNL A   1      48.367  26.612  25.403  1.00  0.00    -0.203 F 
ATOM     74  F   UNL A   1      51.881  25.747  29.291  1.00  0.00    -0.200 F 
ATOM     75  C   UNL A   1      51.434  25.762  27.067  1.00  0.00     0.200 A 
ATOM     76  F   UNL A   1      50.976  26.276  24.841  1.00  0.00    -0.200 F 
ATOM     77  F   UNL A   1      52.681  25.398  26.781  1.00  0.00    -0.200 F 
ENDBRANCH  53  67
BRANCH  54  78
ATOM     78  C   UNL A   1      39.343  28.931  29.231  1.00  0.00     0.064 A 
ATOM     79  C   UNL A   1      38.682  29.563  28.191  1.00  0.00     0.173 A 
ATOM     80  C   UNL A   1      38.746  28.714  30.396  1.00  0.00     0.173 A 
ATOM     81  F   UNL A   1      39.139  29.576  26.942  1.00  0.00    -0.203 F 
ATOM     82  C   UNL A   1      37.476  30.193  28.577  1.00  0.00     0.198 A 
ATOM     83  C   UNL A   1      37.506  29.247  30.657  1.00  0.00     0.198 A 
ATOM     84  F   UNL A   1      39.352  27.973  31.320  1.00  0.00    -0.203 F 
ATOM     85  F   UNL A   1      36.966  31.110  27.760  1.00  0.00    -0.200 F 
ATOM     86  C   UNL A   1      36.820  29.935  29.695  1.00  0.00     0.200 A 
ATOM     87  F   UNL A   1      36.966  29.093  31.862  1.00  0.00    -0.200 F 
ATOM     88  F   UNL A   1      35.561  30.323  29.874  1.00  0.00    -0.200 F 
ENDBRANCH  54  78
BRANCH  66  89
ATOM     89  C   UNL A   1      45.562  32.154  29.743  1.00  0.00     0.064 A 
ATOM     90  C   UNL A   1      45.602  33.152  28.783  1.00  0.00     0.173 A 
ATOM     91  C   UNL A   1      45.931  32.389  30.997  1.00  0.00     0.173 A 
ATOM     92  F   UNL A   1      45.013  33.039  27.596  1.00  0.00    -0.203 F 
ATOM     93  C   UNL A   1      46.325  34.301  29.181  1.00  0.00     0.198 A 
ATOM     94  C   UNL A   1      46.508  33.587  31.343  1.00  0.00     0.198 A 
ATOM     95  F   UNL A   1      45.741  31.456  31.926  1.00  0.00    -0.203 F 
ATOM     96  F   UNL A   1      46.722  35.142  28.230  1.00  0.00    -0.200 F 
ATOM     97  C   UNL A   1      46.633  34.597  30.430  1.00  0.00     0.200 A 
ATOM     98  F   UNL A   1      46.952  33.767  32.584  1.00  0.00    -0.200 F 
ATOM     99  F   UNL A   1      47.043  35.812  30.782  1.00  0.00    -0.200 F 
ENDBRANCH  66  89
ENDBRANCH  40  41
ENDBRANCH  32  35
ENDBRANCH  30  31
ENDBRANCH  29  30
ENDBRANCH   1  29
TORSDOF 15
ENDMDL
MODEL 2
REMARK VINA RESULT:     -13.0      0.224      7.152
REMARK SMILES O=C(NCCCCCCNC(=O)c1ccc(-c2c3nc(c(-c4c(F)c(F)c(F)c(F)c4F)c4ccc([nH]4)c(-c4c(F)c(F)c(F)c(F)c4F)c4nc(c(-c5c(F)c(F)c(F)c(F)c5F)c5ccc2[nH]5)C=C4)C=C3)cc1)C1=Cc2cc(S(F)(F)(F)(F)F)ccc2O[C@H]1C(F)(F)F
REMARK SMILES IDX 7 1 6 2 5 3 4 4 3 5 1 6 2 7 76 9 77 10 91 11 78 12 90 13
REMARK SMILES IDX 79 14 89 15 80 16 88 17 87 18 92 19 93 20 94 21 95 22 81 23
REMARK SMILES IDX 82 24 83 25 84 26 85 27 86 28 8 29 9 30 10 31 11 32 12 34
REMARK SMILES IDX 13 35 14 36 75 37 15 38 74 39 16 40 17 41 18 42 68 43 19 44
REMARK SMILES IDX 73 45 67 46 69 47 20 48 72 49 66 50 65 51 21 53 53 54 33 55
REMARK SMILES IDX 52 56 34 57 37 58 51 59 70 60 35 61 36 62 50 64 71 65 38 66
REMARK SMILES IDX 22 67 23 68 31 69 24 70 25 71 29 72 32 73 26 74 27 75 30 76
REMARK SMILES IDX 28 77 54 78 55 79 63 80 56 81 57 82 61 83 64 84 58 85 59 86
REMARK SMILES IDX 62 87 60 88 39 89 40 90 48 91 41 92 42 93 46 94 49 95 43 96
REMARK SMILES IDX 44 97 47 98 45 99
REMARK H PARENT 3 8 10 33 69 52 37 63
REMARK Flexibility Score: inf
ROOT
ATOM      1  C   UNL A   1      36.813  20.699  25.106  1.00  0.00     0.002 C 
ENDROOT
BRANCH   1   2
ATOM      2  C   UNL A   1      37.251  21.966  24.390  1.00  0.00     0.002 C 
BRANCH   2   3
ATOM      3  C   UNL A   1      37.014  23.165  25.293  1.00  0.00     0.021 C 
BRANCH   3   4
ATOM      4  C   UNL A   1      35.588  23.661  25.113  1.00  0.00     0.116 C 
BRANCH   4   5
ATOM      5  N   UNL A   1      35.250  23.671  23.683  1.00  0.00    -0.352 N 
ATOM      6  O   UNL A   1      33.551  23.611  22.023  1.00  0.00    -0.270 OA
ATOM      7  C   UNL A   1      33.844  23.602  23.260  1.00  0.00     0.251 C 
ATOM      8  H   UNL A   1      35.965  23.725  23.008  1.00  0.00     0.163 HD
BRANCH   7   9
ATOM      9  C   UNL A   1      32.740  23.520  24.302  1.00  0.00     0.067 C 
ATOM     10  C   UNL A   1      32.400  24.623  25.021  1.00  0.00     0.025 C 
ATOM     11  C   UNL A   1      32.016  22.205  24.539  1.00  0.00     0.314 C 
ATOM     12  C   UNL A   1      33.125  25.938  24.783  1.00  0.00     0.019 A 
ATOM     13  O   UNL A   1      33.114  25.332  22.486  1.00  0.00    -0.475 OA
ATOM     14  C   UNL A   1      33.456  26.792  25.822  1.00  0.00     0.036 A 
ATOM     15  C   UNL A   1      33.312  26.288  23.517  1.00  0.00     0.128 A 
ATOM     16  C   UNL A   1      33.714  28.121  25.411  1.00  0.00     0.107 A 
ATOM     17  C   UNL A   1      33.697  27.567  23.194  1.00  0.00     0.048 A 
ATOM     18  C   UNL A   1      33.984  28.482  24.170  1.00  0.00     0.028 A 
BRANCH  11  19
ATOM     19  C   UNL A   1      32.581  21.139  23.614  1.00  0.00     0.429 C 
ATOM     20  F   UNL A   1      32.286  21.443  22.353  1.00  0.00    -0.167 F 
ATOM     21  F   UNL A   1      33.902  21.082  23.758  1.00  0.00    -0.167 F 
ATOM     22  F   UNL A   1      32.050  19.960  23.922  1.00  0.00    -0.167 F 
ENDBRANCH  11  19
BRANCH  16  23
ATOM     23  S   UNL A   1      33.674  29.417  26.675  1.00  0.00     0.310 S 
ATOM     24  F   UNL A   1      32.956  28.466  27.721  1.00  0.00    -0.094 F 
ATOM     25  F   UNL A   1      32.240  29.824  26.165  1.00  0.00    -0.094 F 
ATOM     26  F   UNL A   1      33.638  30.533  27.756  1.00  0.00    -0.094 F 
ATOM     27  F   UNL A   1      35.048  28.904  27.260  1.00  0.00    -0.094 F 
ATOM     28  F   UNL A   1      33.675  28.209  25.655  1.00  0.00    -0.094 F 
ENDBRANCH  16  23
ENDBRANCH   7   9
ENDBRANCH   4   5
ENDBRANCH   3   4
ENDBRANCH   2   3
ENDBRANCH   1   2
BRANCH   1  29
ATOM     29  C   UNL A   1      37.877  19.627  24.936  1.00  0.00     0.021 C 
BRANCH  29  30
ATOM     30  C   UNL A   1      39.119  20.018  25.721  1.00  0.00     0.116 C 
BRANCH  30  31
ATOM     31  N   UNL A   1      40.084  18.908  25.694  1.00  0.00    -0.352 N 
ATOM     32  C   UNL A   1      41.488  19.146  26.058  1.00  0.00     0.251 C 
ATOM     33  H   UNL A   1      39.790  18.006  25.433  1.00  0.00     0.163 HD
ATOM     34  O   UNL A   1      42.322  18.189  26.035  1.00  0.00    -0.269 OA
BRANCH  32  35
ATOM     35  C   UNL A   1      41.943  20.540  26.462  1.00  0.00     0.039 A 
ATOM     36  C   UNL A   1      42.022  20.867  27.806  1.00  0.00     0.014 A 
ATOM     37  C   UNL A   1      42.255  21.422  25.520  1.00  0.00     0.014 A 
ATOM     38  C   UNL A   1      42.167  22.252  28.052  1.00  0.00     0.010 A 
ATOM     39  C   UNL A   1      42.519  22.730  25.845  1.00  0.00     0.010 A 
ATOM     40  C   UNL A   1      42.555  23.136  27.151  1.00  0.00    -0.014 A 
BRANCH  40  41
ATOM     41  C   UNL A   1      43.018  24.530  27.543  1.00  0.00     0.031 A 
ATOM     42  C   UNL A   1      42.046  25.474  27.880  1.00  0.00     0.074 A 
ATOM     43  C   UNL A   1      44.378  24.786  27.545  1.00  0.00     0.049 A 
ATOM     44  N   UNL A   1      42.238  26.731  28.281  1.00  0.00    -0.248 NA
ATOM     45  C   UNL A   1      40.599  25.214  27.845  1.00  0.00     0.031 C 
ATOM     46  C   UNL A   1      45.366  23.836  27.215  1.00  0.00     0.029 A 
ATOM     47  N   UNL A   1      45.017  25.967  27.854  1.00  0.00    -0.354 N 
ATOM     48  C   UNL A   1      41.065  27.319  28.530  1.00  0.00     0.074 A 
ATOM     49  C   UNL A   1      39.994  26.354  28.248  1.00  0.00     0.031 C 
ATOM     50  C   UNL A   1      46.579  24.439  27.312  1.00  0.00     0.029 A 
ATOM     51  C   UNL A   1      46.372  25.775  27.706  1.00  0.00     0.049 A 
ATOM     52  H   UNL A   1      44.579  26.803  28.133  1.00  0.00     0.167 HD
ATOM     53  C   UNL A   1      40.849  28.621  28.983  1.00  0.00     0.037 A 
ATOM     54  C   UNL A   1      47.386  26.701  27.896  1.00  0.00     0.037 A 
ATOM     55  C   UNL A   1      41.865  29.534  29.214  1.00  0.00     0.049 A 
ATOM     56  C   UNL A   1      47.165  28.022  28.292  1.00  0.00     0.074 A 
ATOM     57  C   UNL A   1      41.664  30.848  29.678  1.00  0.00     0.029 A 
ATOM     58  N   UNL A   1      43.219  29.350  29.042  1.00  0.00    -0.354 N 
ATOM     59  N   UNL A   1      45.996  28.597  28.579  1.00  0.00    -0.248 NA
ATOM     60  C   UNL A   1      48.228  29.020  28.466  1.00  0.00     0.031 C 
ATOM     61  C   UNL A   1      42.879  31.451  29.776  1.00  0.00     0.029 A 
ATOM     62  C   UNL A   1      43.859  30.523  29.374  1.00  0.00     0.049 A 
ATOM     63  H   UNL A   1      43.655  28.522  28.736  1.00  0.00     0.167 HD
ATOM     64  C   UNL A   1      46.186  29.867  28.941  1.00  0.00     0.074 A 
ATOM     65  C   UNL A   1      47.624  30.160  28.866  1.00  0.00     0.031 C 
ATOM     66  C   UNL A   1      45.218  30.793  29.333  1.00  0.00     0.037 A 
BRANCH  53  67
ATOM     67  C   UNL A   1      39.416  29.063  29.235  1.00  0.00     0.064 A 
ATOM     68  C   UNL A   1      38.648  29.650  28.243  1.00  0.00     0.173 A 
ATOM     69  C   UNL A   1      38.919  28.829  30.443  1.00  0.00     0.173 A 
ATOM     70  F   UNL A   1      39.011  29.673  26.963  1.00  0.00    -0.203 F 
ATOM     71  C   UNL A   1      37.444  30.223  28.715  1.00  0.00     0.198 A 
ATOM     72  C   UNL A   1      37.678  29.303  30.793  1.00  0.00     0.198 A 
ATOM     73  F   UNL A   1      39.629  28.130  31.325  1.00  0.00    -0.203 F 
ATOM     74  F   UNL A   1      36.829  31.105  27.931  1.00  0.00    -0.200 F 
ATOM     75  C   UNL A   1      36.888  29.945  29.879  1.00  0.00     0.200 A 
ATOM     76  F   UNL A   1      37.237  29.135  32.036  1.00  0.00    -0.200 F 
ATOM     77  F   UNL A   1      35.627  30.272  30.150  1.00  0.00    -0.200 F 
ENDBRANCH  53  67
BRANCH  54  78
ATOM     78  C   UNL A   1      48.819  26.254  27.659  1.00  0.00     0.064 A 
ATOM     79  C   UNL A   1      49.552  25.856  28.764  1.00  0.00     0.173 A 
ATOM     80  C   UNL A   1      49.361  26.283  26.447  1.00  0.00     0.173 A 
ATOM     81  F   UNL A   1      48.997  25.569  29.938  1.00  0.00    -0.203 F 
ATOM     82  C   UNL A   1      50.946  25.782  28.533  1.00  0.00     0.198 A 
ATOM     83  C   UNL A   1      50.707  26.067  26.278  1.00  0.00     0.198 A 
ATOM     84  F   UNL A   1      48.594  26.523  25.387  1.00  0.00    -0.203 F 
ATOM     85  F   UNL A   1      51.750  25.766  29.591  1.00  0.00    -0.200 F 
ATOM     86  C   UNL A   1      51.504  25.728  27.336  1.00  0.00     0.200 A 
ATOM     87  F   UNL A   1      51.245  26.190  25.067  1.00  0.00    -0.200 F 
ATOM     88  F   UNL A   1      52.772  25.364  27.171  1.00  0.00    -0.200 F 
ENDBRANCH  54  78
BRANCH  66  89
ATOM     89  C   UNL A   1      45.682  32.182  29.741  1.00  0.00     0.064 A 
ATOM     90  C   UNL A   1      46.032  32.421  31.061  1.00  0.00     0.173 A 
ATOM     91  C   UNL A   1      45.743  33.144  28.827  1.00  0.00     0.173 A 
ATOM     92  F   UNL A   1      46.230  31.448  31.946  1.00  0.00    -0.203 F 
ATOM     93  C   UNL A   1      46.161  33.793  31.380  1.00  0.00     0.198 A 
ATOM     94  C   UNL A   1      46.008  34.441  29.194  1.00  0.00     0.198 A 
ATOM     95  F   UNL A   1      45.546  32.848  27.546  1.00  0.00    -0.203 F 
ATOM     96  F   UNL A   1      46.136  34.135  32.665  1.00  0.00    -0.200 F 
ATOM     97  C   UNL A   1      46.304  34.759  30.490  1.00  0.00     0.200 A 
ATOM     98  F   UNL A   1      45.976  35.402  28.274  1.00  0.00    -0.200 F 
ATOM     99  F   UNL A   1      46.715  35.975  30.837  1.00  0.00    -0.200 F 
ENDBRANCH  66  89
ENDBRANCH  40  41
ENDBRANCH  32  35
ENDBRANCH  30  31
ENDBRANCH  29  30
ENDBRANCH   1  29
TORSDOF 15
ENDMDL
MODEL 3
REMARK VINA RESULT:     -13.0      0.752      1.398
REMARK SMILES O=C(NCCCCCCNC(=O)c1ccc(-c2c3nc(c(-c4c(F)c(F)c(F)c(F)c4F)c4ccc([nH]4)c(-c4c(F)c(F)c(F)c(F)c4F)c4nc(c(-c5c(F)c(F)c(F)c(F)c5F)c5ccc2[nH]5)C=C4)C=C3)cc1)C1=Cc2cc(S(F)(F)(F)(F)F)ccc2O[C@H]1C(F)(F)F
REMARK SMILES IDX 7 1 6 2 5 3 4 4 3 5 1 6 2 7 76 9 77 10 91 11 78 12 90 13
REMARK SMILES IDX 79 14 89 15 80 16 88 17 87 18 92 19 93 20 94 21 95 22 81 23
REMARK SMILES IDX 82 24 83 25 84 26 85 27 86 28 8 29 9 30 10 31 11 32 12 34
REMARK SMILES IDX 13 35 14 36 75 37 15 38 74 39 16 40 17 41 18 42 68 43 19 44
REMARK SMILES IDX 73 45 67 46 69 47 20 48 72 49 66 50 65 51 21 53 53 54 33 55
REMARK SMILES IDX 52 56 34 57 37 58 51 59 70 60 35 61 36 62 50 64 71 65 38 66
REMARK SMILES IDX 22 67 23 68 31 69 24 70 25 71 29 72 32 73 26 74 27 75 30 76
REMARK SMILES IDX 28 77 54 78 55 79 63 80 56 81 57 82 61 83 64 84 58 85 59 86
REMARK SMILES IDX 62 87 60 88 39 89 40 90 48 91 41 92 42 93 46 94 49 95 43 96
REMARK SMILES IDX 44 97 47 98 45 99
REMARK H PARENT 3 8 10 33 69 52 37 63
REMARK Flexibility Score: inf
ROOT
ATOM      1  C   UNL A   1      36.778  20.630  25.063  1.00  0.00     0.002 C 
ENDROOT
BRANCH   1   2
ATOM      2  C   UNL A   1      37.143  21.915  24.338  1.00  0.00     0.002 C 
BRANCH   2   3
ATOM      3  C   UNL A   1      37.014  23.089  25.295  1.00  0.00     0.021 C 
BRANCH   3   4
ATOM      4  C   UNL A   1      35.653  23.741  25.116  1.00  0.00     0.116 C 
BRANCH   4   5
ATOM      5  N   UNL A   1      35.282  23.718  23.693  1.00  0.00    -0.352 N 
ATOM      6  O   UNL A   1      33.547  23.603  22.075  1.00  0.00    -0.270 OA
ATOM      7  C   UNL A   1      33.868  23.622  23.304  1.00  0.00     0.251 C 
ATOM      8  H   UNL A   1      35.980  23.768  23.002  1.00  0.00     0.163 HD
BRANCH   7   9
ATOM      9  C   UNL A   1      32.789  23.547  24.373  1.00  0.00     0.067 C 
ATOM     10  C   UNL A   1      32.457  24.657  25.084  1.00  0.00     0.025 C 
ATOM     11  C   UNL A   1      32.082  22.230  24.646  1.00  0.00     0.314 C 
ATOM     12  C   UNL A   1      33.165  25.975  24.810  1.00  0.00     0.019 A 
ATOM     13  O   UNL A   1      33.106  25.335  22.522  1.00  0.00    -0.475 OA
ATOM     14  C   UNL A   1      33.513  26.847  25.829  1.00  0.00     0.036 A 
ATOM     15  C   UNL A   1      33.320  26.307  23.535  1.00  0.00     0.128 A 
ATOM     16  C   UNL A   1      33.750  28.172  25.392  1.00  0.00     0.107 A 
ATOM     17  C   UNL A   1      33.687  27.585  23.185  1.00  0.00     0.048 A 
ATOM     18  C   UNL A   1      33.988  28.516  24.140  1.00  0.00     0.028 A 
BRANCH  11  19
ATOM     19  C   UNL A   1      32.634  21.155  23.723  1.00  0.00     0.429 C 
ATOM     20  F   UNL A   1      32.156  19.968  24.085  1.00  0.00    -0.167 F 
ATOM     21  F   UNL A   1      32.270  21.416  22.471  1.00  0.00    -0.167 F 
ATOM     22  F   UNL A   1      33.961  21.143  23.806  1.00  0.00    -0.167 F 
ENDBRANCH  11  19
BRANCH  16  23
ATOM     23  S   UNL A   1      33.728  29.485  26.637  1.00  0.00     0.310 S 
ATOM     24  F   UNL A   1      33.260  28.488  27.777  1.00  0.00    -0.094 F 
ATOM     25  F   UNL A   1      32.204  29.723  26.314  1.00  0.00    -0.094 F 
ATOM     26  F   UNL A   1      33.708  30.617  27.703  1.00  0.00    -0.094 F 
ATOM     27  F   UNL A   1      35.214  29.139  27.045  1.00  0.00    -0.094 F 
ATOM     28  F   UNL A   1      33.733  28.260  25.638  1.00  0.00    -0.094 F 
ENDBRANCH  16  23
ENDBRANCH   7   9
ENDBRANCH   4   5
ENDBRANCH   3   4
ENDBRANCH   2   3
ENDBRANCH   1   2
BRANCH   1  29
ATOM     29  C   UNL A   1      37.898  19.618  24.896  1.00  0.00     0.021 C 
BRANCH  29  30
ATOM     30  C   UNL A   1      39.078  20.020  25.766  1.00  0.00     0.116 C 
BRANCH  30  31
ATOM     31  N   UNL A   1      40.063  18.927  25.792  1.00  0.00    -0.352 N 
ATOM     32  C   UNL A   1      41.464  19.208  26.136  1.00  0.00     0.251 C 
ATOM     33  H   UNL A   1      39.783  18.008  25.579  1.00  0.00     0.163 HD
ATOM     34  O   UNL A   1      42.314  18.265  26.158  1.00  0.00    -0.269 OA
BRANCH  32  35
ATOM     35  C   UNL A   1      41.896  20.628  26.466  1.00  0.00     0.039 A 
ATOM     36  C   UNL A   1      42.102  20.987  27.788  1.00  0.00     0.014 A 
ATOM     37  C   UNL A   1      42.067  21.502  25.480  1.00  0.00     0.014 A 
ATOM     38  C   UNL A   1      42.210  22.382  27.993  1.00  0.00     0.010 A 
ATOM     39  C   UNL A   1      42.305  22.827  25.754  1.00  0.00     0.010 A 
ATOM     40  C   UNL A   1      42.460  23.262  27.041  1.00  0.00    -0.014 A 
BRANCH  40  41
ATOM     41  C   UNL A   1      42.899  24.683  27.358  1.00  0.00     0.031 A 
ATOM     42  C   UNL A   1      44.224  25.035  27.094  1.00  0.00     0.074 A 
ATOM     43  C   UNL A   1      41.961  25.549  27.893  1.00  0.00     0.049 A 
ATOM     44  N   UNL A   1      44.799  26.226  27.266  1.00  0.00    -0.248 NA
ATOM     45  C   UNL A   1      45.232  24.108  26.558  1.00  0.00     0.031 C 
ATOM     46  C   UNL A   1      40.619  25.203  28.154  1.00  0.00     0.029 A 
ATOM     47  N   UNL A   1      42.136  26.864  28.262  1.00  0.00    -0.354 N 
ATOM     48  C   UNL A   1      46.077  26.181  26.882  1.00  0.00     0.074 A 
ATOM     49  C   UNL A   1      46.375  24.816  26.427  1.00  0.00     0.031 C 
ATOM     50  C   UNL A   1      40.001  26.290  28.684  1.00  0.00     0.029 A 
ATOM     51  C   UNL A   1      40.943  27.334  28.762  1.00  0.00     0.049 A 
ATOM     52  H   UNL A   1      42.972  27.379  28.182  1.00  0.00     0.167 HD
ATOM     53  C   UNL A   1      47.003  27.224  26.892  1.00  0.00     0.037 A 
ATOM     54  C   UNL A   1      40.671  28.597  29.265  1.00  0.00     0.037 A 
ATOM     55  C   UNL A   1      46.720  28.500  27.354  1.00  0.00     0.049 A 
ATOM     56  C   UNL A   1      41.615  29.624  29.329  1.00  0.00     0.074 A 
ATOM     57  C   UNL A   1      47.640  29.565  27.364  1.00  0.00     0.029 A 
ATOM     58  N   UNL A   1      45.533  28.962  27.877  1.00  0.00    -0.354 N 
ATOM     59  N   UNL A   1      42.881  29.590  28.909  1.00  0.00    -0.248 NA
ATOM     60  C   UNL A   1      41.348  30.956  29.888  1.00  0.00     0.031 C 
ATOM     61  C   UNL A   1      47.020  30.653  27.895  1.00  0.00     0.029 A 
ATOM     62  C   UNL A   1      45.702  30.284  28.225  1.00  0.00     0.049 A 
ATOM     63  H   UNL A   1      44.705  28.439  27.984  1.00  0.00     0.167 HD
ATOM     64  C   UNL A   1      43.467  30.770  29.120  1.00  0.00     0.074 A 
ATOM     65  C   UNL A   1      42.492  31.664  29.760  1.00  0.00     0.031 C 
ATOM     66  C   UNL A   1      44.775  31.139  28.801  1.00  0.00     0.037 A 
BRANCH  53  67
ATOM     67  C   UNL A   1      48.403  26.945  26.367  1.00  0.00     0.064 A 
ATOM     68  C   UNL A   1      48.751  27.196  25.051  1.00  0.00     0.173 A 
ATOM     69  C   UNL A   1      49.290  26.481  27.239  1.00  0.00     0.173 A 
ATOM     70  F   UNL A   1      47.982  27.890  24.216  1.00  0.00    -0.203 F 
ATOM     71  C   UNL A   1      50.000  26.647  24.674  1.00  0.00     0.198 A 
ATOM     72  C   UNL A   1      50.539  26.089  26.823  1.00  0.00     0.198 A 
ATOM     73  F   UNL A   1      48.967  26.394  28.526  1.00  0.00    -0.203 F 
ATOM     74  F   UNL A   1      50.253  26.518  23.374  1.00  0.00    -0.200 F 
ATOM     75  C   UNL A   1      50.931  26.253  25.522  1.00  0.00     0.200 A 
ATOM     76  F   UNL A   1      51.381  25.544  27.697  1.00  0.00    -0.200 F 
ATOM     77  F   UNL A   1      52.183  26.027  25.134  1.00  0.00    -0.200 F 
ENDBRANCH  53  67
BRANCH  54  78
ATOM     78  C   UNL A   1      39.267  28.880  29.774  1.00  0.00     0.064 A 
ATOM     79  C   UNL A   1      38.385  29.491  28.900  1.00  0.00     0.173 A 
ATOM     80  C   UNL A   1      38.913  28.591  31.021  1.00  0.00     0.173 A 
ATOM     81  F   UNL A   1      38.599  29.570  27.589  1.00  0.00    -0.203 F 
ATOM     82  C   UNL A   1      37.234  30.025  29.526  1.00  0.00     0.198 A 
ATOM     83  C   UNL A   1      37.713  29.029  31.526  1.00  0.00     0.198 A 
ATOM     84  F   UNL A   1      39.727  27.870  31.787  1.00  0.00    -0.203 F 
ATOM     85  F   UNL A   1      36.524  30.925  28.853  1.00  0.00    -0.200 F 
ATOM     86  C   UNL A   1      36.816  29.693  30.734  1.00  0.00     0.200 A 
ATOM     87  F   UNL A   1      37.418  28.806  32.803  1.00  0.00    -0.200 F 
ATOM     88  F   UNL A   1      35.591  29.987  31.158  1.00  0.00    -0.200 F 
ENDBRANCH  54  78
BRANCH  66  89
ATOM     89  C   UNL A   1      45.209  32.564  29.104  1.00  0.00     0.064 A 
ATOM     90  C   UNL A   1      44.992  33.555  28.160  1.00  0.00     0.173 A 
ATOM     91  C   UNL A   1      45.791  32.835  30.266  1.00  0.00     0.173 A 
ATOM     92  F   UNL A   1      44.199  33.390  27.105  1.00  0.00    -0.203 F 
ATOM     93  C   UNL A   1      45.690  34.757  28.421  1.00  0.00     0.198 A 
ATOM     94  C   UNL A   1      46.332  34.075  30.505  1.00  0.00     0.198 A 
ATOM     95  F   UNL A   1      45.850  31.897  31.208  1.00  0.00    -0.203 F 
ATOM     96  F   UNL A   1      45.836  35.618  27.418  1.00  0.00    -0.200 F 
ATOM     97  C   UNL A   1      46.207  35.085  29.592  1.00  0.00     0.200 A 
ATOM     98  F   UNL A   1      46.988  34.297  31.641  1.00  0.00    -0.200 F 
ATOM     99  F   UNL A   1      46.584  36.329  29.868  1.00  0.00    -0.200 F 
ENDBRANCH  66  89
ENDBRANCH  40  41
ENDBRANCH  32  35
ENDBRANCH  30  31
ENDBRANCH  29  30
ENDBRANCH   1  29
TORSDOF 15
ENDMDL
