MODEL 1
REMARK VINA RESULT:     -13.2      0.000      0.000
REMARK SMILES O=C(NCCCCCCNC(=O)[C@@H](Cc1ccc(O)cc1)Nc1c2ccccc2nc2ccccc12)c1ccc(-c2c3nc(c(-c4c(F)c(F)c(F)c(F)c4F)c4ccc([nH]4)c(-c4c(F)c(F)c(F)c(F)c4F)c4nc(c(-c5c(F)c(F)c(F)c(F)c5F)c5ccc2[nH]5)C=C4)C=C3)cc1
REMARK SMILES IDX 7 1 6 2 5 3 4 4 3 5 1 6 2 7 37 9 38 10 99 11 39 12 98 13
REMARK SMILES IDX 40 14 41 15 42 16 92 17 43 18 97 19 91 20 93 21 44 22 96 23
REMARK SMILES IDX 90 24 89 25 45 27 77 28 57 29 76 30 58 31 61 32 75 33 94 34
REMARK SMILES IDX 59 35 60 36 74 38 95 39 62 40 46 41 47 42 55 43 48 44 49 45
REMARK SMILES IDX 53 46 56 47 50 48 51 49 54 50 52 51 78 52 79 53 87 54 80 55
REMARK SMILES IDX 81 56 85 57 88 58 82 59 83 60 86 61 84 62 63 63 64 64 72 65
REMARK SMILES IDX 65 66 66 67 70 68 73 69 67 70 68 71 71 72 69 73 8 74 9 75
REMARK SMILES IDX 10 76 11 77 12 79 13 80 14 81 15 82 16 83 21 84 17 85 20 86
REMARK SMILES IDX 18 87 19 88 22 90 23 92 24 93 36 94 25 95 29 96 31 97 35 98
REMARK SMILES IDX 26 99 28 100 30 101 32 102 34 103 27 104 33 105
REMARK H PARENT 3 8 93 26 61 37 10 78 19 89 22 91
REMARK Flexibility Score: inf
ROOT
ATOM      1  C   UNL A   1      33.978  27.888  25.787  1.00  0.00     0.002 C 
ENDROOT
BRANCH   1   2
ATOM      2  C   UNL A   1      33.359  28.810  24.735  1.00  0.00     0.002 C 
BRANCH   2   3
ATOM      3  C   UNL A   1      32.197  29.702  25.180  1.00  0.00     0.021 C 
BRANCH   3   4
ATOM      4  C   UNL A   1      32.220  30.194  26.627  1.00  0.00     0.116 C 
BRANCH   4   5
ATOM      5  N   UNL A   1      32.260  31.641  26.744  1.00  0.00    -0.352 N 
ATOM      6  O   UNL A   1      32.877  33.676  27.466  1.00  0.00    -0.269 OA
ATOM      7  C   UNL A   1      33.138  32.465  27.390  1.00  0.00     0.251 C 
ATOM      8  H   UNL A   1      31.529  32.107  26.277  1.00  0.00     0.163 HD
BRANCH   7   9
ATOM      9  C   UNL A   1      34.382  31.966  28.014  1.00  0.00     0.039 A 
ATOM     10  C   UNL A   1      35.462  32.809  28.291  1.00  0.00     0.014 A 
ATOM     11  C   UNL A   1      34.430  30.629  28.427  1.00  0.00     0.014 A 
ATOM     12  C   UNL A   1      36.616  32.295  28.888  1.00  0.00     0.010 A 
ATOM     13  C   UNL A   1      35.560  30.129  29.082  1.00  0.00     0.010 A 
ATOM     14  C   UNL A   1      36.672  30.954  29.304  1.00  0.00    -0.014 A 
BRANCH  14  15
ATOM     15  C   UNL A   1      37.864  30.448  30.035  1.00  0.00     0.031 A 
ATOM     16  C   UNL A   1      38.137  30.855  31.456  1.00  0.00     0.074 A 
ATOM     17  C   UNL A   1      38.718  29.620  29.402  1.00  0.00     0.049 A 
ATOM     18  N   UNL A   1      39.123  30.503  32.242  1.00  0.00    -0.248 NA
ATOM     19  C   UNL A   1      37.181  31.786  32.072  1.00  0.00     0.031 C 
ATOM     20  C   UNL A   1      38.580  29.173  28.016  1.00  0.00     0.029 A 
ATOM     21  N   UNL A   1      39.864  29.004  29.838  1.00  0.00    -0.354 N 
ATOM     22  C   UNL A   1      38.916  31.176  33.440  1.00  0.00     0.074 A 
ATOM     23  C   UNL A   1      37.725  31.983  33.266  1.00  0.00     0.031 C 
ATOM     24  C   UNL A   1      39.580  28.329  27.725  1.00  0.00     0.029 A 
ATOM     25  C   UNL A   1      40.457  28.212  28.886  1.00  0.00     0.049 A 
ATOM     26  H   UNL A   1      40.227  29.120  30.747  1.00  0.00     0.167 HD
ATOM     27  C   UNL A   1      39.644  31.116  34.582  1.00  0.00     0.037 A 
ATOM     28  C   UNL A   1      41.586  27.481  28.937  1.00  0.00     0.037 A 
ATOM     29  C   UNL A   1      40.825  30.308  34.755  1.00  0.00     0.049 A 
ATOM     30  C   UNL A   1      42.391  27.454  30.205  1.00  0.00     0.074 A 
ATOM     31  C   UNL A   1      41.602  30.144  35.889  1.00  0.00     0.029 A 
ATOM     32  N   UNL A   1      41.410  29.538  33.758  1.00  0.00    -0.354 N 
ATOM     33  N   UNL A   1      42.151  28.047  31.348  1.00  0.00    -0.248 NA
ATOM     34  C   UNL A   1      43.624  26.656  30.188  1.00  0.00     0.031 C 
ATOM     35  C   UNL A   1      42.682  29.314  35.567  1.00  0.00     0.029 A 
ATOM     36  C   UNL A   1      42.552  28.918  34.245  1.00  0.00     0.049 A 
ATOM     37  H   UNL A   1      41.065  29.445  32.841  1.00  0.00     0.167 HD
ATOM     38  C   UNL A   1      43.190  27.681  32.193  1.00  0.00     0.074 A 
ATOM     39  C   UNL A   1      44.053  26.800  31.435  1.00  0.00     0.031 C 
ATOM     40  C   UNL A   1      43.406  28.045  33.481  1.00  0.00     0.037 A 
BRANCH  27  41
ATOM     41  C   UNL A   1      39.194  31.963  35.738  1.00  0.00     0.064 A 
ATOM     42  C   UNL A   1      38.318  31.469  36.717  1.00  0.00     0.173 A 
ATOM     43  C   UNL A   1      39.669  33.276  35.887  1.00  0.00     0.173 A 
ATOM     44  F   UNL A   1      37.827  30.225  36.618  1.00  0.00    -0.203 F 
ATOM     45  C   UNL A   1      37.912  32.267  37.784  1.00  0.00     0.198 A 
ATOM     46  C   UNL A   1      39.284  34.060  36.971  1.00  0.00     0.198 A 
ATOM     47  F   UNL A   1      40.516  33.794  34.985  1.00  0.00    -0.203 F 
ATOM     48  F   UNL A   1      37.038  31.789  38.680  1.00  0.00    -0.200 F 
ATOM     49  C   UNL A   1      38.399  33.559  37.914  1.00  0.00     0.200 A 
ATOM     50  F   UNL A   1      39.767  35.303  37.102  1.00  0.00    -0.200 F 
ATOM     51  F   UNL A   1      38.010  34.324  38.943  1.00  0.00    -0.200 F 
ENDBRANCH  27  41
BRANCH  28  52
ATOM     52  C   UNL A   1      42.008  26.701  27.745  1.00  0.00     0.064 A 
ATOM     53  C   UNL A   1      42.932  27.226  26.833  1.00  0.00     0.173 A 
ATOM     54  C   UNL A   1      41.517  25.409  27.508  1.00  0.00     0.173 A 
ATOM     55  F   UNL A   1      43.413  28.466  27.007  1.00  0.00    -0.203 F 
ATOM     56  C   UNL A   1      43.343  26.492  25.722  1.00  0.00     0.198 A 
ATOM     57  C   UNL A   1      41.950  24.664  26.414  1.00  0.00     0.198 A 
ATOM     58  F   UNL A   1      40.633  24.860  28.354  1.00  0.00    -0.203 F 
ATOM     59  F   UNL A   1      44.203  27.030  24.847  1.00  0.00    -0.200 F 
ATOM     60  C   UNL A   1      42.859  25.209  25.519  1.00  0.00     0.200 A 
ATOM     61  F   UNL A   1      41.491  23.420  26.228  1.00  0.00    -0.200 F 
ATOM     62  F   UNL A   1      43.265  24.498  24.458  1.00  0.00    -0.200 F 
ENDBRANCH  28  52
BRANCH  40  63
ATOM     63  C   UNL A   1      44.614  27.468  34.161  1.00  0.00     0.064 A 
ATOM     64  C   UNL A   1      45.843  28.144  34.177  1.00  0.00     0.173 A 
ATOM     65  C   UNL A   1      44.533  26.236  34.828  1.00  0.00     0.173 A 
ATOM     66  F   UNL A   1      45.977  29.317  33.539  1.00  0.00    -0.203 F 
ATOM     67  C   UNL A   1      46.954  27.596  34.814  1.00  0.00     0.198 A 
ATOM     68  C   UNL A   1      45.638  25.705  35.487  1.00  0.00     0.198 A 
ATOM     69  F   UNL A   1      43.381  25.551  34.845  1.00  0.00    -0.203 F 
ATOM     70  F   UNL A   1      48.130  28.236  34.775  1.00  0.00    -0.200 F 
ATOM     71  C   UNL A   1      46.848  26.381  35.474  1.00  0.00     0.200 A 
ATOM     72  F   UNL A   1      45.530  24.535  36.134  1.00  0.00    -0.200 F 
ATOM     73  F   UNL A   1      47.916  25.856  36.090  1.00  0.00    -0.200 F 
ENDBRANCH  40  63
ENDBRANCH  14  15
ENDBRANCH   7   9
ENDBRANCH   4   5
ENDBRANCH   3   4
ENDBRANCH   2   3
ENDBRANCH   1   2
BRANCH   1  74
ATOM     74  C   UNL A   1      33.365  26.493  25.939  1.00  0.00     0.021 C 
BRANCH  74  75
ATOM     75  C   UNL A   1      31.939  26.365  26.524  1.00  0.00     0.116 C 
BRANCH  75  76
ATOM     76  N   UNL A   1      31.720  25.008  27.021  1.00  0.00    -0.354 N 
ATOM     77  C   UNL A   1      31.606  23.749  26.537  1.00  0.00     0.242 C 
ATOM     78  H   UNL A   1      31.627  25.011  28.002  1.00  0.00     0.163 HD
ATOM     79  O   UNL A   1      31.277  22.927  27.413  1.00  0.00    -0.273 OA
BRANCH  77  80
ATOM     80  C   UNL A   1      31.781  23.221  25.082  1.00  0.00     0.173 C 
BRANCH  80  81
ATOM     81  C   UNL A   1      30.684  23.664  24.080  1.00  0.00     0.070 C 
BRANCH  81  82
ATOM     82  C   UNL A   1      30.721  25.044  23.471  1.00  0.00    -0.045 A 
ATOM     83  C   UNL A   1      31.609  25.402  22.446  1.00  0.00     0.007 A 
ATOM     84  C   UNL A   1      29.769  25.976  23.865  1.00  0.00     0.007 A 
ATOM     85  C   UNL A   1      31.570  26.686  21.882  1.00  0.00     0.046 A 
ATOM     86  C   UNL A   1      29.765  27.274  23.359  1.00  0.00     0.046 A 
ATOM     87  C   UNL A   1      30.665  27.623  22.368  1.00  0.00     0.115 A 
BRANCH  87  88
ATOM     88  O   UNL A   1      30.599  28.894  21.883  1.00  0.00    -0.508 OA
ATOM     89  H   UNL A   1      30.943  29.091  21.035  1.00  0.00     0.293 HD
ENDBRANCH  87  88
ENDBRANCH  81  82
ENDBRANCH  80  81
BRANCH  80  90
ATOM     90  N   UNL A   1      33.154  23.277  24.555  1.00  0.00    -0.372 N 
ATOM     91  H   UNL A   1      33.397  24.063  24.013  1.00  0.00     0.161 HD
BRANCH  90  92
ATOM     92  C   UNL A   1      34.151  22.298  24.759  1.00  0.00     0.054 A 
ATOM     93  C   UNL A   1      35.498  22.591  25.195  1.00  0.00     0.024 A 
ATOM     94  C   UNL A   1      33.820  20.925  24.497  1.00  0.00     0.024 A 
ATOM     95  C   UNL A   1      36.037  23.865  25.517  1.00  0.00     0.012 A 
ATOM     96  C   UNL A   1      36.380  21.499  25.369  1.00  0.00     0.073 A 
ATOM     97  C   UNL A   1      34.809  19.947  24.741  1.00  0.00     0.073 A 
ATOM     98  C   UNL A   1      32.575  20.469  23.988  1.00  0.00     0.012 A 
ATOM     99  C   UNL A   1      37.365  24.060  25.913  1.00  0.00     0.001 A 
ATOM    100  C   UNL A   1      37.690  21.702  25.786  1.00  0.00     0.029 A 
ATOM    101  N   UNL A   1      36.036  20.230  25.166  1.00  0.00    -0.248 NA
ATOM    102  C   UNL A   1      34.534  18.604  24.530  1.00  0.00     0.029 A 
ATOM    103  C   UNL A   1      32.322  19.112  23.765  1.00  0.00     0.001 A 
ATOM    104  C   UNL A   1      38.200  22.969  26.048  1.00  0.00     0.002 A 
ATOM    105  C   UNL A   1      33.302  18.174  24.047  1.00  0.00     0.002 A 
ENDBRANCH  90  92
ENDBRANCH  80  90
ENDBRANCH  77  80
ENDBRANCH  75  76
ENDBRANCH  74  75
ENDBRANCH   1  74
TORSDOF 18
ENDMDL
MODEL 2
REMARK VINA RESULT:     -13.2      2.876      5.315
REMARK SMILES O=C(NCCCCCCNC(=O)[C@@H](Cc1ccc(O)cc1)Nc1c2ccccc2nc2ccccc12)c1ccc(-c2c3nc(c(-c4c(F)c(F)c(F)c(F)c4F)c4ccc([nH]4)c(-c4c(F)c(F)c(F)c(F)c4F)c4nc(c(-c5c(F)c(F)c(F)c(F)c5F)c5ccc2[nH]5)C=C4)C=C3)cc1
REMARK SMILES IDX 7 1 6 2 5 3 4 4 3 5 1 6 2 7 37 9 38 10 99 11 39 12 98 13
REMARK SMILES IDX 40 14 41 15 42 16 92 17 43 18 97 19 91 20 93 21 44 22 96 23
REMARK SMILES IDX 90 24 89 25 45 27 77 28 57 29 76 30 58 31 61 32 75 33 94 34
REMARK SMILES IDX 59 35 60 36 74 38 95 39 62 40 46 41 47 42 55 43 48 44 49 45
REMARK SMILES IDX 53 46 56 47 50 48 51 49 54 50 52 51 78 52 79 53 87 54 80 55
REMARK SMILES IDX 81 56 85 57 88 58 82 59 83 60 86 61 84 62 63 63 64 64 72 65
REMARK SMILES IDX 65 66 66 67 70 68 73 69 67 70 68 71 71 72 69 73 8 74 9 75
REMARK SMILES IDX 10 76 11 77 12 79 13 80 14 81 15 82 16 83 21 84 17 85 20 86
REMARK SMILES IDX 18 87 19 88 22 90 23 92 24 93 36 94 25 95 29 96 31 97 35 98
REMARK SMILES IDX 26 99 28 100 30 101 32 102 34 103 27 104 33 105
REMARK H PARENT 3 8 93 26 61 37 10 78 19 89 22 91
REMARK Flexibility Score: inf
ROOT
ATOM      1  C   UNL A   1      35.271  33.608  29.031  1.00  0.00     0.002 C 
ENDROOT
BRANCH   1   2
ATOM      2  C   UNL A   1      34.690  34.884  28.419  1.00  0.00     0.002 C 
BRANCH   2   3
ATOM      3  C   UNL A   1      33.282  35.295  28.859  1.00  0.00     0.021 C 
BRANCH   3   4
ATOM      4  C   UNL A   1      33.171  36.534  29.748  1.00  0.00     0.116 C 
BRANCH   4   5
ATOM      5  N   UNL A   1      32.357  36.322  30.931  1.00  0.00    -0.352 N 
ATOM      6  O   UNL A   1      31.650  35.421  32.864  1.00  0.00    -0.269 OA
ATOM      7  C   UNL A   1      32.569  35.553  32.041  1.00  0.00     0.251 C 
ATOM      8  H   UNL A   1      31.507  36.819  30.935  1.00  0.00     0.163 HD
BRANCH   7   9
ATOM      9  C   UNL A   1      33.851  34.858  32.291  1.00  0.00     0.039 A 
ATOM     10  C   UNL A   1      35.075  35.530  32.269  1.00  0.00     0.014 A 
ATOM     11  C   UNL A   1      33.815  33.507  32.659  1.00  0.00     0.014 A 
ATOM     12  C   UNL A   1      36.261  34.835  32.518  1.00  0.00     0.010 A 
ATOM     13  C   UNL A   1      34.996  32.826  32.970  1.00  0.00     0.010 A 
ATOM     14  C   UNL A   1      36.233  33.480  32.886  1.00  0.00    -0.014 A 
BRANCH  14  15
ATOM     15  C   UNL A   1      37.493  32.780  33.254  1.00  0.00     0.031 A 
ATOM     16  C   UNL A   1      38.204  33.081  34.542  1.00  0.00     0.074 A 
ATOM     17  C   UNL A   1      38.007  31.867  32.405  1.00  0.00     0.049 A 
ATOM     18  N   UNL A   1      39.307  32.561  35.020  1.00  0.00    -0.248 NA
ATOM     19  C   UNL A   1      37.604  34.111  35.403  1.00  0.00     0.031 C 
ATOM     20  C   UNL A   1      37.426  31.505  31.112  1.00  0.00     0.029 A 
ATOM     21  N   UNL A   1      39.125  31.078  32.502  1.00  0.00    -0.354 N 
ATOM     22  C   UNL A   1      39.540  33.204  36.229  1.00  0.00     0.074 A 
ATOM     23  C   UNL A   1      38.480  34.177  36.397  1.00  0.00     0.031 C 
ATOM     24  C   UNL A   1      38.172  30.541  30.551  1.00  0.00     0.029 A 
ATOM     25  C   UNL A   1      39.308  30.252  31.420  1.00  0.00     0.049 A 
ATOM     26  H   UNL A   1      39.737  31.102  33.273  1.00  0.00     0.167 HD
ATOM     27  C   UNL A   1      40.539  32.992  37.122  1.00  0.00     0.037 A 
ATOM     28  C   UNL A   1      40.286  29.367  31.151  1.00  0.00     0.037 A 
ATOM     29  C   UNL A   1      41.589  32.019  36.956  1.00  0.00     0.049 A 
ATOM     30  C   UNL A   1      41.397  29.173  32.143  1.00  0.00     0.074 A 
ATOM     31  C   UNL A   1      42.616  31.698  37.827  1.00  0.00     0.029 A 
ATOM     32  N   UNL A   1      41.756  31.218  35.834  1.00  0.00    -0.354 N 
ATOM     33  N   UNL A   1      41.574  29.744  33.309  1.00  0.00    -0.248 NA
ATOM     34  C   UNL A   1      42.447  28.211  31.780  1.00  0.00     0.031 C 
ATOM     35  C   UNL A   1      43.430  30.740  37.214  1.00  0.00     0.029 A 
ATOM     36  C   UNL A   1      42.883  30.424  35.980  1.00  0.00     0.049 A 
ATOM     37  H   UNL A   1      41.161  31.214  35.050  1.00  0.00     0.167 HD
ATOM     38  C   UNL A   1      42.739  29.199  33.829  1.00  0.00     0.074 A 
ATOM     39  C   UNL A   1      43.220  28.239  32.858  1.00  0.00     0.031 C 
ATOM     40  C   UNL A   1      43.354  29.473  35.006  1.00  0.00     0.037 A 
BRANCH  27  41
ATOM     41  C   UNL A   1      40.555  33.844  38.360  1.00  0.00     0.064 A 
ATOM     42  C   UNL A   1      39.843  33.481  39.514  1.00  0.00     0.173 A 
ATOM     43  C   UNL A   1      41.319  35.021  38.404  1.00  0.00     0.173 A 
ATOM     44  F   UNL A   1      39.092  32.370  39.522  1.00  0.00    -0.203 F 
ATOM     45  C   UNL A   1      39.872  34.280  40.654  1.00  0.00     0.198 A 
ATOM     46  C   UNL A   1      41.367  35.802  39.556  1.00  0.00     0.198 A 
ATOM     47  F   UNL A   1      42.025  35.409  37.332  1.00  0.00    -0.203 F 
ATOM     48  F   UNL A   1      39.146  33.938  41.727  1.00  0.00    -0.200 F 
ATOM     49  C   UNL A   1      40.638  35.436  40.677  1.00  0.00     0.200 A 
ATOM     50  F   UNL A   1      42.118  36.912  39.580  1.00  0.00    -0.200 F 
ATOM     51  F   UNL A   1      40.665  36.203  41.776  1.00  0.00    -0.200 F 
ENDBRANCH  27  41
BRANCH  28  52
ATOM     52  C   UNL A   1      40.243  28.588  29.887  1.00  0.00     0.064 A 
ATOM     53  C   UNL A   1      40.906  29.042  28.740  1.00  0.00     0.173 A 
ATOM     54  C   UNL A   1      39.560  27.366  29.808  1.00  0.00     0.173 A 
ATOM     55  F   UNL A   1      41.554  30.217  28.762  1.00  0.00    -0.203 F 
ATOM     56  C   UNL A   1      40.882  28.306  27.557  1.00  0.00     0.198 A 
ATOM     57  C   UNL A   1      39.561  26.617  28.633  1.00  0.00     0.198 A 
ATOM     58  F   UNL A   1      38.913  26.886  30.880  1.00  0.00    -0.203 F 
ATOM     59  F   UNL A   1      41.497  28.779  26.465  1.00  0.00    -0.200 F 
ATOM     60  C   UNL A   1      40.217  27.091  27.508  1.00  0.00     0.200 A 
ATOM     61  F   UNL A   1      38.929  25.436  28.594  1.00  0.00    -0.200 F 
ATOM     62  F   UNL A   1      40.206  26.377  26.373  1.00  0.00    -0.200 F 
ENDBRANCH  28  52
BRANCH  40  63
ATOM     63  C   UNL A   1      44.605  28.703  35.319  1.00  0.00     0.064 A 
ATOM     64  C   UNL A   1      45.874  29.186  34.970  1.00  0.00     0.173 A 
ATOM     65  C   UNL A   1      44.532  27.478  36.002  1.00  0.00     0.173 A 
ATOM     66  F   UNL A   1      45.995  30.343  34.301  1.00  0.00    -0.203 F 
ATOM     67  C   UNL A   1      47.024  28.460  35.271  1.00  0.00     0.198 A 
ATOM     68  C   UNL A   1      45.686  26.770  36.325  1.00  0.00     0.198 A 
ATOM     69  F   UNL A   1      43.343  26.974  36.361  1.00  0.00    -0.203 F 
ATOM     70  F   UNL A   1      48.223  28.917  34.885  1.00  0.00    -0.200 F 
ATOM     71  C   UNL A   1      46.930  27.256  35.953  1.00  0.00     0.200 A 
ATOM     72  F   UNL A   1      45.592  25.611  36.994  1.00  0.00    -0.200 F 
ATOM     73  F   UNL A   1      48.037  26.561  36.245  1.00  0.00    -0.200 F 
ENDBRANCH  40  63
ENDBRANCH  14  15
ENDBRANCH   7   9
ENDBRANCH   4   5
ENDBRANCH   3   4
ENDBRANCH   2   3
ENDBRANCH   1   2
BRANCH   1  74
ATOM     74  C   UNL A   1      35.888  32.591  28.067  1.00  0.00     0.021 C 
BRANCH  74  75
ATOM     75  C   UNL A   1      35.145  31.258  27.814  1.00  0.00     0.116 C 
BRANCH  75  76
ATOM     76  N   UNL A   1      33.720  31.508  27.604  1.00  0.00    -0.354 N 
ATOM     77  C   UNL A   1      32.673  30.961  26.944  1.00  0.00     0.242 C 
ATOM     78  H   UNL A   1      33.438  32.318  28.088  1.00  0.00     0.163 HD
ATOM     79  O   UNL A   1      31.653  31.674  26.988  1.00  0.00    -0.273 OA
BRANCH  77  80
ATOM     80  C   UNL A   1      32.590  29.634  26.132  1.00  0.00     0.173 C 
BRANCH  80  81
ATOM     81  C   UNL A   1      31.595  28.580  26.683  1.00  0.00     0.070 C 
BRANCH  81  82
ATOM     82  C   UNL A   1      31.761  27.121  26.335  1.00  0.00    -0.045 A 
ATOM     83  C   UNL A   1      32.987  26.447  26.435  1.00  0.00     0.007 A 
ATOM     84  C   UNL A   1      30.634  26.381  26.000  1.00  0.00     0.007 A 
ATOM     85  C   UNL A   1      33.076  25.077  26.143  1.00  0.00     0.046 A 
ATOM     86  C   UNL A   1      30.724  25.037  25.644  1.00  0.00     0.046 A 
ATOM     87  C   UNL A   1      31.944  24.391  25.719  1.00  0.00     0.115 A 
BRANCH  87  88
ATOM     88  O   UNL A   1      31.973  23.069  25.392  1.00  0.00    -0.508 OA
ATOM     89  H   UNL A   1      32.790  22.645  25.224  1.00  0.00     0.293 HD
ENDBRANCH  87  88
ENDBRANCH  81  82
ENDBRANCH  80  81
BRANCH  80  90
ATOM     90  N   UNL A   1      32.566  29.795  24.669  1.00  0.00    -0.372 N 
ATOM     91  H   UNL A   1      33.180  30.458  24.277  1.00  0.00     0.161 HD
BRANCH  90  92
ATOM     92  C   UNL A   1      31.734  29.077  23.780  1.00  0.00     0.054 A 
ATOM     93  C   UNL A   1      32.142  27.884  23.074  1.00  0.00     0.024 A 
ATOM     94  C   UNL A   1      30.408  29.573  23.539  1.00  0.00     0.024 A 
ATOM     95  C   UNL A   1      33.394  27.218  23.164  1.00  0.00     0.012 A 
ATOM     96  C   UNL A   1      31.190  27.269  22.227  1.00  0.00     0.073 A 
ATOM     97  C   UNL A   1      29.569  28.830  22.681  1.00  0.00     0.073 A 
ATOM     98  C   UNL A   1      29.874  30.772  24.084  1.00  0.00     0.012 A 
ATOM     99  C   UNL A   1      33.711  26.074  22.426  1.00  0.00     0.001 A 
ATOM    100  C   UNL A   1      31.508  26.118  21.516  1.00  0.00     0.029 A 
ATOM    101  N   UNL A   1      29.950  27.720  22.058  1.00  0.00    -0.248 NA
ATOM    102  C   UNL A   1      28.270  29.250  22.435  1.00  0.00     0.029 A 
ATOM    103  C   UNL A   1      28.567  31.187  23.811  1.00  0.00     0.001 A 
ATOM    104  C   UNL A   1      32.760  25.518  21.593  1.00  0.00     0.002 A 
ATOM    105  C   UNL A   1      27.757  30.418  22.991  1.00  0.00     0.002 A 
ENDBRANCH  90  92
ENDBRANCH  80  90
ENDBRANCH  77  80
ENDBRANCH  75  76
ENDBRANCH  74  75
ENDBRANCH   1  74
TORSDOF 18
ENDMDL
MODEL 3
REMARK VINA RESULT:     -13.1      0.340      7.341
REMARK SMILES O=C(NCCCCCCNC(=O)[C@@H](Cc1ccc(O)cc1)Nc1c2ccccc2nc2ccccc12)c1ccc(-c2c3nc(c(-c4c(F)c(F)c(F)c(F)c4F)c4ccc([nH]4)c(-c4c(F)c(F)c(F)c(F)c4F)c4nc(c(-c5c(F)c(F)c(F)c(F)c5F)c5ccc2[nH]5)C=C4)C=C3)cc1
REMARK SMILES IDX 7 1 6 2 5 3 4 4 3 5 1 6 2 7 37 9 38 10 99 11 39 12 98 13
REMARK SMILES IDX 40 14 41 15 42 16 92 17 43 18 97 19 91 20 93 21 44 22 96 23
REMARK SMILES IDX 90 24 89 25 45 27 77 28 57 29 76 30 58 31 61 32 75 33 94 34
REMARK SMILES IDX 59 35 60 36 74 38 95 39 62 40 46 41 47 42 55 43 48 44 49 45
REMARK SMILES IDX 53 46 56 47 50 48 51 49 54 50 52 51 78 52 79 53 87 54 80 55
REMARK SMILES IDX 81 56 85 57 88 58 82 59 83 60 86 61 84 62 63 63 64 64 72 65
REMARK SMILES IDX 65 66 66 67 70 68 73 69 67 70 68 71 71 72 69 73 8 74 9 75
REMARK SMILES IDX 10 76 11 77 12 79 13 80 14 81 15 82 16 83 21 84 17 85 20 86
REMARK SMILES IDX 18 87 19 88 22 90 23 92 24 93 36 94 25 95 29 96 31 97 35 98
REMARK SMILES IDX 26 99 28 100 30 101 32 102 34 103 27 104 33 105
REMARK H PARENT 3 8 93 26 61 37 10 78 19 89 22 91
REMARK Flexibility Score: inf
ROOT
ATOM      1  C   UNL A   1      34.055  27.758  25.499  1.00  0.00     0.002 C 
ENDROOT
BRANCH   1   2
ATOM      2  C   UNL A   1      33.352  28.579  24.416  1.00  0.00     0.002 C 
BRANCH   2   3
ATOM      3  C   UNL A   1      32.380  29.668  24.881  1.00  0.00     0.021 C 
BRANCH   3   4
ATOM      4  C   UNL A   1      32.449  30.069  26.355  1.00  0.00     0.116 C 
BRANCH   4   5
ATOM      5  N   UNL A   1      32.388  31.505  26.564  1.00  0.00    -0.352 N 
ATOM      6  O   UNL A   1      32.835  33.522  27.446  1.00  0.00    -0.269 OA
ATOM      7  C   UNL A   1      33.177  32.337  27.307  1.00  0.00     0.251 C 
ATOM      8  H   UNL A   1      31.653  31.955  26.089  1.00  0.00     0.163 HD
BRANCH   7   9
ATOM      9  C   UNL A   1      34.419  31.875  27.965  1.00  0.00     0.039 A 
ATOM     10  C   UNL A   1      35.498  32.733  28.198  1.00  0.00     0.014 A 
ATOM     11  C   UNL A   1      34.464  30.564  28.456  1.00  0.00     0.014 A 
ATOM     12  C   UNL A   1      36.649  32.254  28.830  1.00  0.00     0.010 A 
ATOM     13  C   UNL A   1      35.591  30.104  29.145  1.00  0.00     0.010 A 
ATOM     14  C   UNL A   1      36.702  30.941  29.324  1.00  0.00    -0.014 A 
BRANCH  14  15
ATOM     15  C   UNL A   1      37.891  30.478  30.089  1.00  0.00     0.031 A 
ATOM     16  C   UNL A   1      38.894  29.543  29.477  1.00  0.00     0.074 A 
ATOM     17  C   UNL A   1      38.057  30.900  31.357  1.00  0.00     0.049 A 
ATOM     18  N   UNL A   1      39.988  29.046  29.999  1.00  0.00    -0.248 NA
ATOM     19  C   UNL A   1      38.631  29.097  28.101  1.00  0.00     0.031 C 
ATOM     20  C   UNL A   1      37.140  31.787  32.074  1.00  0.00     0.029 A 
ATOM     21  N   UNL A   1      39.054  30.646  32.266  1.00  0.00    -0.354 N 
ATOM     22  C   UNL A   1      40.538  28.224  29.024  1.00  0.00     0.074 A 
ATOM     23  C   UNL A   1      39.639  28.262  27.889  1.00  0.00     0.031 C 
ATOM     24  C   UNL A   1      37.632  32.031  33.297  1.00  0.00     0.029 A 
ATOM     25  C   UNL A   1      38.873  31.282  33.470  1.00  0.00     0.049 A 
ATOM     26  H   UNL A   1      39.825  30.065  32.074  1.00  0.00     0.167 HD
ATOM     27  C   UNL A   1      41.692  27.512  29.068  1.00  0.00     0.037 A 
ATOM     28  C   UNL A   1      39.615  31.257  34.592  1.00  0.00     0.037 A 
ATOM     29  C   UNL A   1      42.587  27.480  30.197  1.00  0.00     0.049 A 
ATOM     30  C   UNL A   1      40.874  30.438  34.625  1.00  0.00     0.074 A 
ATOM     31  C   UNL A   1      43.803  26.829  30.317  1.00  0.00     0.029 A 
ATOM     32  N   UNL A   1      42.357  28.117  31.409  1.00  0.00    -0.354 N 
ATOM     33  N   UNL A   1      41.413  29.713  33.677  1.00  0.00    -0.248 NA
ATOM     34  C   UNL A   1      41.627  30.434  35.887  1.00  0.00     0.031 C 
ATOM     35  C   UNL A   1      44.284  27.031  31.615  1.00  0.00     0.029 A 
ATOM     36  C   UNL A   1      43.394  27.852  32.290  1.00  0.00     0.049 A 
ATOM     37  H   UNL A   1      41.572  28.675  31.613  1.00  0.00     0.167 HD
ATOM     38  C   UNL A   1      42.576  29.181  34.217  1.00  0.00     0.074 A 
ATOM     39  C   UNL A   1      42.673  29.682  35.572  1.00  0.00     0.031 C 
ATOM     40  C   UNL A   1      43.480  28.352  33.639  1.00  0.00     0.037 A 
BRANCH  27  41
ATOM     41  C   UNL A   1      42.048  26.692  27.861  1.00  0.00     0.064 A 
ATOM     42  C   UNL A   1      42.919  27.175  26.872  1.00  0.00     0.173 A 
ATOM     43  C   UNL A   1      41.538  25.393  27.706  1.00  0.00     0.173 A 
ATOM     44  F   UNL A   1      43.428  28.412  26.967  1.00  0.00    -0.203 F 
ATOM     45  C   UNL A   1      43.241  26.400  25.761  1.00  0.00     0.198 A 
ATOM     46  C   UNL A   1      41.885  24.611  26.608  1.00  0.00     0.198 A 
ATOM     47  F   UNL A   1      40.708  24.879  28.627  1.00  0.00    -0.203 F 
ATOM     48  F   UNL A   1      44.038  26.901  24.806  1.00  0.00    -0.200 F 
ATOM     49  C   UNL A   1      42.730  25.118  25.632  1.00  0.00     0.200 A 
ATOM     50  F   UNL A   1      41.400  23.367  26.492  1.00  0.00    -0.200 F 
ATOM     51  F   UNL A   1      43.043  24.373  24.563  1.00  0.00    -0.200 F 
ENDBRANCH  27  41
BRANCH  28  52
ATOM     52  C   UNL A   1      39.187  32.051  35.773  1.00  0.00     0.064 A 
ATOM     53  C   UNL A   1      38.330  31.502  36.735  1.00  0.00     0.173 A 
ATOM     54  C   UNL A   1      39.644  33.362  35.974  1.00  0.00     0.173 A 
ATOM     55  F   UNL A   1      37.850  30.260  36.574  1.00  0.00    -0.203 F 
ATOM     56  C   UNL A   1      37.939  32.237  37.852  1.00  0.00     0.198 A 
ATOM     57  C   UNL A   1      39.275  34.086  37.105  1.00  0.00     0.198 A 
ATOM     58  F   UNL A   1      40.469  33.930  35.083  1.00  0.00    -0.203 F 
ATOM     59  F   UNL A   1      37.092  31.701  38.741  1.00  0.00    -0.200 F 
ATOM     60  C   UNL A   1      38.418  33.524  38.041  1.00  0.00     0.200 A 
ATOM     61  F   UNL A   1      39.752  35.323  37.291  1.00  0.00    -0.200 F 
ATOM     62  F   UNL A   1      38.053  34.226  39.122  1.00  0.00    -0.200 F 
ENDBRANCH  28  52
BRANCH  40  63
ATOM     63  C   UNL A   1      44.669  27.955  34.464  1.00  0.00     0.064 A 
ATOM     64  C   UNL A   1      44.665  26.792  35.248  1.00  0.00     0.173 A 
ATOM     65  C   UNL A   1      45.836  28.734  34.450  1.00  0.00     0.173 A 
ATOM     66  F   UNL A   1      43.567  26.023  35.310  1.00  0.00    -0.203 F 
ATOM     67  C   UNL A   1      45.778  26.436  36.007  1.00  0.00     0.198 A 
ATOM     68  C   UNL A   1      46.956  28.360  35.188  1.00  0.00     0.198 A 
ATOM     69  F   UNL A   1      45.893  29.853  33.715  1.00  0.00    -0.203 F 
ATOM     70  F   UNL A   1      45.735  25.347  36.786  1.00  0.00    -0.200 F 
ATOM     71  C   UNL A   1      46.924  27.216  35.971  1.00  0.00     0.200 A 
ATOM     72  F   UNL A   1      48.067  29.110  35.142  1.00  0.00    -0.200 F 
ATOM     73  F   UNL A   1      47.995  26.870  36.698  1.00  0.00    -0.200 F 
ENDBRANCH  40  63
ENDBRANCH  14  15
ENDBRANCH   7   9
ENDBRANCH   4   5
ENDBRANCH   3   4
ENDBRANCH   2   3
ENDBRANCH   1   2
BRANCH   1  74
ATOM     74  C   UNL A   1      33.429  26.411  25.869  1.00  0.00     0.021 C 
BRANCH  74  75
ATOM     75  C   UNL A   1      31.970  26.382  26.383  1.00  0.00     0.116 C 
BRANCH  75  76
ATOM     76  N   UNL A   1      31.663  25.070  26.950  1.00  0.00    -0.354 N 
ATOM     77  C   UNL A   1      31.543  23.784  26.543  1.00  0.00     0.242 C 
ATOM     78  H   UNL A   1      31.492  25.144  27.917  1.00  0.00     0.163 HD
ATOM     79  O   UNL A   1      31.115  23.036  27.442  1.00  0.00    -0.273 OA
BRANCH  77  80
ATOM     80  C   UNL A   1      31.814  23.151  25.146  1.00  0.00     0.173 C 
BRANCH  80  81
ATOM     81  C   UNL A   1      30.764  23.482  24.054  1.00  0.00     0.070 C 
BRANCH  81  82
ATOM     82  C   UNL A   1      30.679  24.873  23.475  1.00  0.00    -0.045 A 
ATOM     83  C   UNL A   1      29.753  25.830  23.917  1.00  0.00     0.007 A 
ATOM     84  C   UNL A   1      31.623  25.266  22.535  1.00  0.00     0.007 A 
ATOM     85  C   UNL A   1      29.748  27.124  23.378  1.00  0.00     0.046 A 
ATOM     86  C   UNL A   1      31.585  26.527  21.944  1.00  0.00     0.046 A 
ATOM     87  C   UNL A   1      30.648  27.451  22.370  1.00  0.00     0.115 A 
BRANCH  87  88
ATOM     88  O   UNL A   1      30.673  28.681  21.785  1.00  0.00    -0.508 OA
ATOM     89  H   UNL A   1      30.932  28.769  20.889  1.00  0.00     0.293 HD
ENDBRANCH  87  88
ENDBRANCH  81  82
ENDBRANCH  80  81
BRANCH  80  90
ATOM     90  N   UNL A   1      33.212  23.209  24.691  1.00  0.00    -0.372 N 
ATOM     91  H   UNL A   1      33.514  24.044  24.265  1.00  0.00     0.161 HD
BRANCH  90  92
ATOM     92  C   UNL A   1      34.157  22.166  24.815  1.00  0.00     0.054 A 
ATOM     93  C   UNL A   1      33.859  20.771  24.584  1.00  0.00     0.024 A 
ATOM     94  C   UNL A   1      35.493  22.503  25.219  1.00  0.00     0.024 A 
ATOM     95  C   UNL A   1      32.617  20.215  24.174  1.00  0.00     0.012 A 
ATOM     96  C   UNL A   1      34.916  19.843  24.734  1.00  0.00     0.073 A 
ATOM     97  C   UNL A   1      36.443  21.462  25.302  1.00  0.00     0.073 A 
ATOM     98  C   UNL A   1      35.937  23.808  25.564  1.00  0.00     0.012 A 
ATOM     99  C   UNL A   1      32.412  18.843  23.992  1.00  0.00     0.001 A 
ATOM    100  C   UNL A   1      34.707  18.485  24.527  1.00  0.00     0.029 A 
ATOM    101  N   UNL A   1      36.159  20.185  25.062  1.00  0.00    -0.248 NA
ATOM    102  C   UNL A   1      37.754  21.735  25.662  1.00  0.00     0.029 A 
ATOM    103  C   UNL A   1      37.260  24.062  25.940  1.00  0.00     0.001 A 
ATOM    104  C   UNL A   1      33.466  17.970  24.172  1.00  0.00     0.002 A 
ATOM    105  C   UNL A   1      38.175  23.023  25.980  1.00  0.00     0.002 A 
ENDBRANCH  90  92
ENDBRANCH  80  90
ENDBRANCH  77  80
ENDBRANCH  75  76
ENDBRANCH  74  75
ENDBRANCH   1  74
TORSDOF 18
ENDMDL
