MODEL 1
REMARK VINA RESULT:     -12.2      0.000      0.000
REMARK SMILES NS(=O)(=O)CCNC(=O)N1[C@@H]2CC[C@H]1C[C@H](CC(=O)NCCCCCCNC(=O)c1ccc(-c3c4nc(c(-c5c(F)c(F)c(F)c(F)c5F)c5ccc([nH]5)c(-c5c(F)c(F)c(F)c(F)c5F)c5nc(c(-c6c(F)c(F)c(F)c(F)c6F)c6ccc3[nH]6)C=C5)C=C4)cc1)C2
REMARK SMILES IDX 21 1 20 2 18 3 19 4 17 6 16 7 10 8 11 9 14 10 12 11 93 12
REMARK SMILES IDX 13 13 15 14 8 15 7 16 9 18 6 19 5 20 2 21 3 22 4 23 1 24
REMARK SMILES IDX 22 27 23 28 24 29 25 30 26 31 27 32 28 33 29 35 30 36 31 37
REMARK SMILES IDX 92 38 32 39 91 40 33 41 34 42 35 43 85 44 36 45 90 46 84 47
REMARK SMILES IDX 86 48 37 49 89 50 83 51 82 52 38 54 70 55 50 56 69 57 51 58
REMARK SMILES IDX 54 59 68 60 87 61 52 62 53 63 67 65 88 66 55 67 39 68 40 69
REMARK SMILES IDX 48 70 41 71 42 72 46 73 49 74 43 75 44 76 47 77 45 78 71 79
REMARK SMILES IDX 72 80 80 81 73 82 74 83 78 84 81 85 75 86 76 87 79 88 77 89
REMARK SMILES IDX 56 90 57 91 65 92 58 93 59 94 63 95 66 96 60 97 61 98 64 99
REMARK SMILES IDX 62 100
REMARK H PARENT 20 5 7 17 1 25 1 26 27 34 86 53 54 64
REMARK Flexibility Score: inf
ROOT
ATOM      1  C   UNL A   1      32.984  27.282  26.497  1.00  0.00     0.116 C 
ENDROOT
BRANCH   1   2
ATOM      2  N   UNL A   1      31.895  26.683  25.736  1.00  0.00    -0.356 N 
ATOM      3  C   UNL A   1      31.376  25.423  25.691  1.00  0.00     0.220 C 
ATOM      4  O   UNL A   1      30.475  25.212  24.876  1.00  0.00    -0.275 OA
ATOM      5  H   UNL A   1      31.444  27.316  25.131  1.00  0.00     0.163 HD
BRANCH   3   6
ATOM      6  C   UNL A   1      31.865  24.298  26.599  1.00  0.00     0.103 C 
BRANCH   6   7
ATOM      7  C   UNL A   1      33.126  23.564  26.083  1.00  0.00     0.002 C 
ATOM      8  N   UNL A   1      33.437  21.099  24.625  1.00  0.00    -0.319 N 
ATOM      9  C   UNL A   1      33.999  22.292  24.011  1.00  0.00     0.087 C 
ATOM     10  C   UNL A   1      33.943  21.085  25.978  1.00  0.00     0.087 C 
ATOM     11  C   UNL A   1      35.440  22.324  24.544  1.00  0.00     0.027 C 
ATOM     12  C   UNL A   1      33.154  23.478  24.531  1.00  0.00     0.029 C 
ATOM     13  C   UNL A   1      35.412  21.469  25.815  1.00  0.00     0.027 C 
ATOM     14  C   UNL A   1      33.206  22.177  26.739  1.00  0.00     0.029 C 
BRANCH   8  15
ATOM     15  C   UNL A   1      32.704  20.197  23.931  1.00  0.00     0.317 C 
ATOM     16  N   UNL A   1      32.634  18.900  24.305  1.00  0.00    -0.337 N 
ATOM     17  H   UNL A   1      32.533  18.273  23.552  1.00  0.00     0.165 HD
ATOM     18  O   UNL A   1      32.044  20.517  22.941  1.00  0.00    -0.249 OA
BRANCH  16  19
ATOM     19  C   UNL A   1      32.678  18.253  25.611  1.00  0.00     0.135 C 
BRANCH  19  20
ATOM     20  C   UNL A   1      32.911  16.752  25.513  1.00  0.00     0.175 C 
BRANCH  20  21
ATOM     21  S   UNL A   1      34.378  16.337  24.581  1.00  0.00     0.210 S 
ATOM     22  O   UNL A   1      34.042  16.266  23.181  1.00  0.00    -0.213 OA
ATOM     23  O   UNL A   1      35.077  15.262  25.250  1.00  0.00    -0.213 OA
BRANCH  21  24
ATOM     24  N   UNL A   1      35.338  17.697  24.750  1.00  0.00    -0.229 NA
ATOM     25  H   UNL A   1      35.081  18.189  25.606  1.00  0.00     0.137 HD
ATOM     26  H   UNL A   1      35.198  18.313  23.949  1.00  0.00     0.137 HD
ENDBRANCH  21  24
ENDBRANCH  20  21
ENDBRANCH  19  20
ENDBRANCH  16  19
ENDBRANCH   8  15
ENDBRANCH   6   7
ENDBRANCH   3   6
ENDBRANCH   1   2
BRANCH   1  27
ATOM     27  C   UNL A   1      33.366  28.659  25.924  1.00  0.00     0.021 C 
BRANCH  27  28
ATOM     28  C   UNL A   1      32.873  29.860  26.726  1.00  0.00     0.002 C 
BRANCH  28  29
ATOM     29  C   UNL A   1      31.628  30.538  26.157  1.00  0.00     0.002 C 
BRANCH  29  30
ATOM     30  C   UNL A   1      31.439  32.006  26.556  1.00  0.00     0.021 C 
BRANCH  30  31
ATOM     31  C   UNL A   1      32.619  32.630  27.297  1.00  0.00     0.116 C 
BRANCH  31  32
ATOM     32  N   UNL A   1      32.406  34.044  27.568  1.00  0.00    -0.352 N 
ATOM     33  C   UNL A   1      32.966  34.840  28.535  1.00  0.00     0.251 C 
ATOM     34  H   UNL A   1      31.766  34.494  26.970  1.00  0.00     0.163 HD
ATOM     35  O   UNL A   1      32.484  35.938  28.792  1.00  0.00    -0.269 OA
BRANCH  33  36
ATOM     36  C   UNL A   1      34.152  34.364  29.274  1.00  0.00     0.039 A 
ATOM     37  C   UNL A   1      33.982  33.736  30.509  1.00  0.00     0.014 A 
ATOM     38  C   UNL A   1      35.432  34.546  28.743  1.00  0.00     0.014 A 
ATOM     39  C   UNL A   1      35.094  33.225  31.181  1.00  0.00     0.010 A 
ATOM     40  C   UNL A   1      36.528  33.972  29.376  1.00  0.00     0.010 A 
ATOM     41  C   UNL A   1      36.370  33.303  30.600  1.00  0.00    -0.014 A 
BRANCH  41  42
ATOM     42  C   UNL A   1      37.553  32.678  31.244  1.00  0.00     0.031 A 
ATOM     43  C   UNL A   1      38.259  31.532  30.576  1.00  0.00     0.074 A 
ATOM     44  C   UNL A   1      37.936  33.089  32.468  1.00  0.00     0.049 A 
ATOM     45  N   UNL A   1      39.240  30.789  31.024  1.00  0.00    -0.248 NA
ATOM     46  C   UNL A   1      37.781  31.151  29.237  1.00  0.00     0.031 C 
ATOM     47  C   UNL A   1      37.301  34.160  33.236  1.00  0.00     0.029 A 
ATOM     48  N   UNL A   1      38.938  32.639  33.293  1.00  0.00    -0.354 N 
ATOM     49  C   UNL A   1      39.483  29.847  30.032  1.00  0.00     0.074 A 
ATOM     50  C   UNL A   1      38.516  30.080  28.981  1.00  0.00     0.031 C 
ATOM     51  C   UNL A   1      37.935  34.295  34.411  1.00  0.00     0.029 A 
ATOM     52  C   UNL A   1      38.989  33.290  34.502  1.00  0.00     0.049 A 
ATOM     53  H   UNL A   1      39.561  31.919  33.040  1.00  0.00     0.167 HD
ATOM     54  C   UNL A   1      40.439  28.889  29.996  1.00  0.00     0.037 A 
ATOM     55  C   UNL A   1      39.781  33.083  35.571  1.00  0.00     0.037 A 
ATOM     56  C   UNL A   1      41.408  28.676  31.039  1.00  0.00     0.049 A 
ATOM     57  C   UNL A   1      40.819  31.995  35.514  1.00  0.00     0.074 A 
ATOM     58  C   UNL A   1      42.461  27.778  31.067  1.00  0.00     0.029 A 
ATOM     59  N   UNL A   1      41.439  29.364  32.244  1.00  0.00    -0.354 N 
ATOM     60  N   UNL A   1      41.092  31.161  34.540  1.00  0.00    -0.248 NA
ATOM     61  C   UNL A   1      41.661  31.818  36.705  1.00  0.00     0.031 C 
ATOM     62  C   UNL A   1      43.085  27.875  32.314  1.00  0.00     0.029 A 
ATOM     63  C   UNL A   1      42.467  28.882  33.038  1.00  0.00     0.049 A 
ATOM     64  H   UNL A   1      40.820  30.087  32.498  1.00  0.00     0.167 HD
ATOM     65  C   UNL A   1      42.150  30.382  34.988  1.00  0.00     0.074 A 
ATOM     66  C   UNL A   1      42.482  30.854  36.315  1.00  0.00     0.031 C 
ATOM     67  C   UNL A   1      42.788  29.366  34.357  1.00  0.00     0.037 A 
BRANCH  54  68
ATOM     68  C   UNL A   1      40.481  27.986  28.796  1.00  0.00     0.064 A 
ATOM     69  C   UNL A   1      41.245  28.299  27.661  1.00  0.00     0.173 A 
ATOM     70  C   UNL A   1      39.787  26.766  28.801  1.00  0.00     0.173 A 
ATOM     71  F   UNL A   1      41.921  29.456  27.599  1.00  0.00    -0.203 F 
ATOM     72  C   UNL A   1      41.288  27.439  26.566  1.00  0.00     0.198 A 
ATOM     73  C   UNL A   1      39.861  25.893  27.719  1.00  0.00     0.198 A 
ATOM     74  F   UNL A   1      39.047  26.413  29.863  1.00  0.00    -0.203 F 
ATOM     75  F   UNL A   1      41.984  27.783  25.473  1.00  0.00    -0.200 F 
ATOM     76  C   UNL A   1      40.604  26.234  26.599  1.00  0.00     0.200 A 
ATOM     77  F   UNL A   1      39.211  24.721  27.760  1.00  0.00    -0.200 F 
ATOM     78  F   UNL A   1      40.657  25.402  25.550  1.00  0.00    -0.200 F 
ENDBRANCH  54  68
BRANCH  55  79
ATOM     79  C   UNL A   1      39.622  33.923  36.788  1.00  0.00     0.064 A 
ATOM     80  C   UNL A   1      38.849  33.483  37.873  1.00  0.00     0.173 A 
ATOM     81  C   UNL A   1      40.223  35.185  36.889  1.00  0.00     0.173 A 
ATOM     82  F   UNL A   1      38.234  32.291  37.817  1.00  0.00    -0.203 F 
ATOM     83  C   UNL A   1      38.663  34.283  38.997  1.00  0.00     0.198 A 
ATOM     84  C   UNL A   1      40.065  35.971  38.028  1.00  0.00     0.198 A 
ATOM     85  F   UNL A   1      40.973  35.655  35.880  1.00  0.00    -0.203 F 
ATOM     86  F   UNL A   1      37.872  33.862  39.994  1.00  0.00    -0.200 F 
ATOM     87  C   UNL A   1      39.277  35.524  39.077  1.00  0.00     0.200 A 
ATOM     88  F   UNL A   1      40.669  37.166  38.104  1.00  0.00    -0.200 F 
ATOM     89  F   UNL A   1      39.098  36.295  40.159  1.00  0.00    -0.200 F 
ENDBRANCH  55  79
BRANCH  67  90
ATOM     90  C   UNL A   1      43.933  28.712  35.078  1.00  0.00     0.064 A 
ATOM     91  C   UNL A   1      43.746  27.582  35.888  1.00  0.00     0.173 A 
ATOM     92  C   UNL A   1      45.241  29.194  34.916  1.00  0.00     0.173 A 
ATOM     93  F   UNL A   1      42.514  27.091  36.089  1.00  0.00    -0.203 F 
ATOM     94  C   UNL A   1      44.825  26.972  36.524  1.00  0.00     0.198 A 
ATOM     95  C   UNL A   1      46.320  28.561  35.525  1.00  0.00     0.198 A 
ATOM     96  F   UNL A   1      45.476  30.268  34.147  1.00  0.00    -0.203 F 
ATOM     97  F   UNL A   1      44.617  25.921  37.331  1.00  0.00    -0.200 F 
ATOM     98  C   UNL A   1      46.111  27.455  36.334  1.00  0.00     0.200 A 
ATOM     99  F   UNL A   1      47.563  29.018  35.325  1.00  0.00    -0.200 F 
ATOM    100  F   UNL A   1      47.148  26.858  36.936  1.00  0.00    -0.200 F 
ENDBRANCH  67  90
ENDBRANCH  41  42
ENDBRANCH  33  36
ENDBRANCH  31  32
ENDBRANCH  30  31
ENDBRANCH  29  30
ENDBRANCH  28  29
ENDBRANCH  27  28
ENDBRANCH   1  27
TORSDOF 19
ENDMDL
MODEL 2
REMARK VINA RESULT:     -12.2      2.874      4.014
REMARK SMILES NS(=O)(=O)CCNC(=O)N1[C@@H]2CC[C@H]1C[C@H](CC(=O)NCCCCCCNC(=O)c1ccc(-c3c4nc(c(-c5c(F)c(F)c(F)c(F)c5F)c5ccc([nH]5)c(-c5c(F)c(F)c(F)c(F)c5F)c5nc(c(-c6c(F)c(F)c(F)c(F)c6F)c6ccc3[nH]6)C=C5)C=C4)cc1)C2
REMARK SMILES IDX 21 1 20 2 18 3 19 4 17 6 16 7 10 8 11 9 14 10 12 11 93 12
REMARK SMILES IDX 13 13 15 14 8 15 7 16 9 18 6 19 5 20 2 21 3 22 4 23 1 24
REMARK SMILES IDX 22 27 23 28 24 29 25 30 26 31 27 32 28 33 29 35 30 36 31 37
REMARK SMILES IDX 92 38 32 39 91 40 33 41 34 42 35 43 85 44 36 45 90 46 84 47
REMARK SMILES IDX 86 48 37 49 89 50 83 51 82 52 38 54 70 55 50 56 69 57 51 58
REMARK SMILES IDX 54 59 68 60 87 61 52 62 53 63 67 65 88 66 55 67 39 68 40 69
REMARK SMILES IDX 48 70 41 71 42 72 46 73 49 74 43 75 44 76 47 77 45 78 71 79
REMARK SMILES IDX 72 80 80 81 73 82 74 83 78 84 81 85 75 86 76 87 79 88 77 89
REMARK SMILES IDX 56 90 57 91 65 92 58 93 59 94 63 95 66 96 60 97 61 98 64 99
REMARK SMILES IDX 62 100
REMARK H PARENT 20 5 7 17 1 25 1 26 27 34 86 53 54 64
REMARK Flexibility Score: inf
ROOT
ATOM      1  C   UNL A   1      32.309  27.707  27.093  1.00  0.00     0.116 C 
ENDROOT
BRANCH   1   2
ATOM      2  N   UNL A   1      31.105  27.179  26.467  1.00  0.00    -0.356 N 
ATOM      3  C   UNL A   1      30.703  25.917  26.140  1.00  0.00     0.220 C 
ATOM      4  O   UNL A   1      29.629  25.802  25.545  1.00  0.00    -0.275 OA
ATOM      5  H   UNL A   1      30.447  27.874  26.231  1.00  0.00     0.163 HD
BRANCH   3   6
ATOM      6  C   UNL A   1      31.524  24.678  26.483  1.00  0.00     0.103 C 
BRANCH   6   7
ATOM      7  C   UNL A   1      32.324  24.093  25.294  1.00  0.00     0.002 C 
ATOM      8  N   UNL A   1      32.996  25.196  22.719  1.00  0.00    -0.319 N 
ATOM      9  C   UNL A   1      34.109  24.766  23.552  1.00  0.00     0.087 C 
ATOM     10  C   UNL A   1      32.079  24.080  22.693  1.00  0.00     0.087 C 
ATOM     11  C   UNL A   1      34.321  23.301  23.138  1.00  0.00     0.027 C 
ATOM     12  C   UNL A   1      33.623  24.899  25.014  1.00  0.00     0.029 C 
ATOM     13  C   UNL A   1      32.992  22.870  22.511  1.00  0.00     0.027 C 
ATOM     14  C   UNL A   1      31.412  24.021  24.059  1.00  0.00     0.029 C 
BRANCH   8  15
ATOM     15  C   UNL A   1      32.993  26.376  22.056  1.00  0.00     0.317 C 
ATOM     16  N   UNL A   1      31.853  27.074  21.853  1.00  0.00    -0.337 N 
ATOM     17  H   UNL A   1      31.844  27.586  21.011  1.00  0.00     0.165 HD
ATOM     18  O   UNL A   1      34.030  26.886  21.628  1.00  0.00    -0.249 OA
BRANCH  16  19
ATOM     19  C   UNL A   1      30.636  27.213  22.642  1.00  0.00     0.135 C 
BRANCH  19  20
ATOM     20  C   UNL A   1      30.550  28.556  23.353  1.00  0.00     0.175 C 
BRANCH  20  21
ATOM     21  S   UNL A   1      29.408  29.685  22.569  1.00  0.00     0.210 S 
ATOM     22  O   UNL A   1      29.209  30.825  23.428  1.00  0.00    -0.213 OA
ATOM     23  O   UNL A   1      28.295  28.935  22.030  1.00  0.00    -0.213 OA
BRANCH  21  24
ATOM     24  N   UNL A   1      30.272  30.252  21.253  1.00  0.00    -0.229 NA
ATOM     25  H   UNL A   1      30.909  29.525  20.926  1.00  0.00     0.137 HD
ATOM     26  H   UNL A   1      30.807  31.075  21.527  1.00  0.00     0.137 HD
ENDBRANCH  21  24
ENDBRANCH  20  21
ENDBRANCH  19  20
ENDBRANCH  16  19
ENDBRANCH   8  15
ENDBRANCH   6   7
ENDBRANCH   3   6
ENDBRANCH   1   2
BRANCH   1  27
ATOM     27  C   UNL A   1      33.096  28.596  26.114  1.00  0.00     0.021 C 
BRANCH  27  28
ATOM     28  C   UNL A   1      33.002  30.097  26.373  1.00  0.00     0.002 C 
BRANCH  28  29
ATOM     29  C   UNL A   1      31.639  30.713  26.063  1.00  0.00     0.002 C 
BRANCH  29  30
ATOM     30  C   UNL A   1      31.408  32.117  26.633  1.00  0.00     0.021 C 
BRANCH  30  31
ATOM     31  C   UNL A   1      32.604  32.721  27.366  1.00  0.00     0.116 C 
BRANCH  31  32
ATOM     32  N   UNL A   1      32.423  34.141  27.625  1.00  0.00    -0.352 N 
ATOM     33  C   UNL A   1      32.995  34.931  28.591  1.00  0.00     0.251 C 
ATOM     34  H   UNL A   1      31.800  34.602  27.019  1.00  0.00     0.163 HD
ATOM     35  O   UNL A   1      32.539  36.042  28.836  1.00  0.00    -0.269 OA
BRANCH  33  36
ATOM     36  C   UNL A   1      34.164  34.431  29.342  1.00  0.00     0.039 A 
ATOM     37  C   UNL A   1      33.968  33.820  30.582  1.00  0.00     0.014 A 
ATOM     38  C   UNL A   1      35.451  34.575  28.819  1.00  0.00     0.014 A 
ATOM     39  C   UNL A   1      35.063  33.286  31.267  1.00  0.00     0.010 A 
ATOM     40  C   UNL A   1      36.528  33.979  29.466  1.00  0.00     0.010 A 
ATOM     41  C   UNL A   1      36.344  33.326  30.694  1.00  0.00    -0.014 A 
BRANCH  41  42
ATOM     42  C   UNL A   1      37.506  32.676  31.352  1.00  0.00     0.031 A 
ATOM     43  C   UNL A   1      38.194  31.514  30.694  1.00  0.00     0.074 A 
ATOM     44  C   UNL A   1      37.884  33.081  32.580  1.00  0.00     0.049 A 
ATOM     45  N   UNL A   1      39.154  30.751  31.154  1.00  0.00    -0.248 NA
ATOM     46  C   UNL A   1      37.724  31.142  29.351  1.00  0.00     0.031 C 
ATOM     47  C   UNL A   1      37.263  34.167  33.339  1.00  0.00     0.029 A 
ATOM     48  N   UNL A   1      38.867  32.612  33.417  1.00  0.00    -0.354 N 
ATOM     49  C   UNL A   1      39.388  29.803  30.167  1.00  0.00     0.074 A 
ATOM     50  C   UNL A   1      38.438  30.055  29.104  1.00  0.00     0.031 C 
ATOM     51  C   UNL A   1      37.888  34.291  34.521  1.00  0.00     0.029 A 
ATOM     52  C   UNL A   1      38.919  33.264  34.625  1.00  0.00     0.049 A 
ATOM     53  H   UNL A   1      39.477  31.878  33.172  1.00  0.00     0.167 HD
ATOM     54  C   UNL A   1      40.323  28.824  30.143  1.00  0.00     0.037 A 
ATOM     55  C   UNL A   1      39.693  33.042  35.704  1.00  0.00     0.037 A 
ATOM     56  C   UNL A   1      41.276  28.592  31.197  1.00  0.00     0.049 A 
ATOM     57  C   UNL A   1      40.708  31.931  35.660  1.00  0.00     0.074 A 
ATOM     58  C   UNL A   1      42.308  27.672  31.239  1.00  0.00     0.029 A 
ATOM     59  N   UNL A   1      41.308  29.282  32.402  1.00  0.00    -0.354 N 
ATOM     60  N   UNL A   1      40.974  31.090  34.690  1.00  0.00    -0.248 NA
ATOM     61  C   UNL A   1      41.533  31.738  36.861  1.00  0.00     0.031 C 
ATOM     62  C   UNL A   1      42.921  27.758  32.492  1.00  0.00     0.029 A 
ATOM     63  C   UNL A   1      42.316  28.779  33.207  1.00  0.00     0.049 A 
ATOM     64  H   UNL A   1      40.702  30.018  32.647  1.00  0.00     0.167 HD
ATOM     65  C   UNL A   1      42.010  30.289  35.152  1.00  0.00     0.074 A 
ATOM     66  C   UNL A   1      42.338  30.757  36.482  1.00  0.00     0.031 C 
ATOM     67  C   UNL A   1      42.633  29.258  34.530  1.00  0.00     0.037 A 
BRANCH  54  68
ATOM     68  C   UNL A   1      40.359  27.918  28.945  1.00  0.00     0.064 A 
ATOM     69  C   UNL A   1      41.134  28.218  27.814  1.00  0.00     0.173 A 
ATOM     70  C   UNL A   1      39.648  26.708  28.948  1.00  0.00     0.173 A 
ATOM     71  F   UNL A   1      41.826  29.365  27.754  1.00  0.00    -0.203 F 
ATOM     72  C   UNL A   1      41.171  27.355  26.721  1.00  0.00     0.198 A 
ATOM     73  C   UNL A   1      39.715  25.832  27.868  1.00  0.00     0.198 A 
ATOM     74  F   UNL A   1      38.897  26.368  30.007  1.00  0.00    -0.203 F 
ATOM     75  F   UNL A   1      41.878  27.687  25.631  1.00  0.00    -0.200 F 
ATOM     76  C   UNL A   1      40.470  26.160  26.753  1.00  0.00     0.200 A 
ATOM     77  F   UNL A   1      39.049  24.670  27.908  1.00  0.00    -0.200 F 
ATOM     78  F   UNL A   1      40.516  25.325  25.705  1.00  0.00    -0.200 F 
ENDBRANCH  54  68
BRANCH  55  79
ATOM     79  C   UNL A   1      39.539  33.887  36.918  1.00  0.00     0.064 A 
ATOM     80  C   UNL A   1      38.764  33.455  38.004  1.00  0.00     0.173 A 
ATOM     81  C   UNL A   1      40.147  35.147  37.013  1.00  0.00     0.173 A 
ATOM     82  F   UNL A   1      38.142  32.267  37.952  1.00  0.00    -0.203 F 
ATOM     83  C   UNL A   1      38.582  34.261  39.125  1.00  0.00     0.198 A 
ATOM     84  C   UNL A   1      39.993  35.938  38.149  1.00  0.00     0.198 A 
ATOM     85  F   UNL A   1      40.899  35.609  36.003  1.00  0.00    -0.203 F 
ATOM     86  F   UNL A   1      37.789  33.848  40.123  1.00  0.00    -0.200 F 
ATOM     87  C   UNL A   1      39.202  35.499  39.200  1.00  0.00     0.200 A 
ATOM     88  F   UNL A   1      40.603  37.129  38.221  1.00  0.00    -0.200 F 
ATOM     89  F   UNL A   1      39.027  36.275  40.279  1.00  0.00    -0.200 F 
ENDBRANCH  55  79
BRANCH  67  90
ATOM     90  C   UNL A   1      43.755  28.581  35.265  1.00  0.00     0.064 A 
ATOM     91  C   UNL A   1      45.083  29.017  35.148  1.00  0.00     0.173 A 
ATOM     92  C   UNL A   1      43.489  27.513  36.137  1.00  0.00     0.173 A 
ATOM     93  F   UNL A   1      45.393  30.023  34.316  1.00  0.00    -0.203 F 
ATOM     94  C   UNL A   1      46.105  28.396  35.861  1.00  0.00     0.198 A 
ATOM     95  C   UNL A   1      44.509  26.919  36.874  1.00  0.00     0.198 A 
ATOM     96  F   UNL A   1      42.236  27.061  36.290  1.00  0.00    -0.203 F 
ATOM     97  F   UNL A   1      47.374  28.799  35.697  1.00  0.00    -0.200 F 
ATOM     98  C   UNL A   1      45.816  27.355  36.730  1.00  0.00     0.200 A 
ATOM     99  F   UNL A   1      44.224  25.925  37.727  1.00  0.00    -0.200 F 
ATOM    100  F   UNL A   1      46.800  26.768  37.425  1.00  0.00    -0.200 F 
ENDBRANCH  67  90
ENDBRANCH  41  42
ENDBRANCH  33  36
ENDBRANCH  31  32
ENDBRANCH  30  31
ENDBRANCH  29  30
ENDBRANCH  28  29
ENDBRANCH  27  28
ENDBRANCH   1  27
TORSDOF 19
ENDMDL
MODEL 3
REMARK VINA RESULT:     -12.1      5.787     11.513
REMARK SMILES NS(=O)(=O)CCNC(=O)N1[C@@H]2CC[C@H]1C[C@H](CC(=O)NCCCCCCNC(=O)c1ccc(-c3c4nc(c(-c5c(F)c(F)c(F)c(F)c5F)c5ccc([nH]5)c(-c5c(F)c(F)c(F)c(F)c5F)c5nc(c(-c6c(F)c(F)c(F)c(F)c6F)c6ccc3[nH]6)C=C5)C=C4)cc1)C2
REMARK SMILES IDX 21 1 20 2 18 3 19 4 17 6 16 7 10 8 11 9 14 10 12 11 93 12
REMARK SMILES IDX 13 13 15 14 8 15 7 16 9 18 6 19 5 20 2 21 3 22 4 23 1 24
REMARK SMILES IDX 22 27 23 28 24 29 25 30 26 31 27 32 28 33 29 35 30 36 31 37
REMARK SMILES IDX 92 38 32 39 91 40 33 41 34 42 35 43 85 44 36 45 90 46 84 47
REMARK SMILES IDX 86 48 37 49 89 50 83 51 82 52 38 54 70 55 50 56 69 57 51 58
REMARK SMILES IDX 54 59 68 60 87 61 52 62 53 63 67 65 88 66 55 67 39 68 40 69
REMARK SMILES IDX 48 70 41 71 42 72 46 73 49 74 43 75 44 76 47 77 45 78 71 79
REMARK SMILES IDX 72 80 80 81 73 82 74 83 78 84 81 85 75 86 76 87 79 88 77 89
REMARK SMILES IDX 56 90 57 91 65 92 58 93 59 94 63 95 66 96 60 97 61 98 64 99
REMARK SMILES IDX 62 100
REMARK H PARENT 20 5 7 17 1 25 1 26 27 34 86 53 54 64
REMARK Flexibility Score: inf
ROOT
ATOM      1  C   UNL A   1      36.414  23.285  25.408  1.00  0.00     0.116 C 
ENDROOT
BRANCH   1   2
ATOM      2  N   UNL A   1      35.672  22.883  26.595  1.00  0.00    -0.356 N 
ATOM      3  C   UNL A   1      34.347  22.917  26.918  1.00  0.00     0.220 C 
ATOM      4  O   UNL A   1      34.034  22.555  28.054  1.00  0.00    -0.275 OA
ATOM      5  H   UNL A   1      36.241  22.513  27.308  1.00  0.00     0.163 HD
BRANCH   3   6
ATOM      6  C   UNL A   1      33.272  23.375  25.937  1.00  0.00     0.103 C 
BRANCH   6   7
ATOM      7  C   UNL A   1      32.864  24.861  26.086  1.00  0.00     0.002 C 
ATOM      8  N   UNL A   1      31.838  26.760  24.178  1.00  0.00    -0.319 N 
ATOM      9  C   UNL A   1      31.021  26.519  25.358  1.00  0.00     0.087 C 
ATOM     10  C   UNL A   1      33.164  27.040  24.676  1.00  0.00     0.087 C 
ATOM     11  C   UNL A   1      31.516  27.576  26.358  1.00  0.00     0.027 C 
ATOM     12  C   UNL A   1      31.349  25.079  25.816  1.00  0.00     0.029 C 
ATOM     13  C   UNL A   1      32.913  27.966  25.865  1.00  0.00     0.027 C 
ATOM     14  C   UNL A   1      33.743  25.720  25.164  1.00  0.00     0.029 C 
BRANCH   8  15
ATOM     15  C   UNL A   1      31.319  26.807  22.929  1.00  0.00     0.317 C 
ATOM     16  N   UNL A   1      30.669  27.901  22.471  1.00  0.00    -0.337 N 
ATOM     17  H   UNL A   1      29.946  27.697  21.833  1.00  0.00     0.165 HD
ATOM     18  O   UNL A   1      31.434  25.868  22.139  1.00  0.00    -0.249 OA
BRANCH  16  19
ATOM     19  C   UNL A   1      30.835  29.323  22.740  1.00  0.00     0.135 C 
BRANCH  19  20
ATOM     20  C   UNL A   1      29.668  29.911  23.522  1.00  0.00     0.175 C 
BRANCH  20  21
ATOM     21  S   UNL A   1      28.437  30.665  22.468  1.00  0.00     0.210 S 
ATOM     22  O   UNL A   1      27.351  31.146  23.284  1.00  0.00    -0.213 OA
ATOM     23  O   UNL A   1      28.208  29.814  21.321  1.00  0.00    -0.213 OA
BRANCH  21  24
ATOM     24  N   UNL A   1      29.211  32.031  21.890  1.00  0.00    -0.229 NA
ATOM     25  H   UNL A   1      29.868  31.764  21.157  1.00  0.00     0.137 HD
ATOM     26  H   UNL A   1      29.717  32.483  22.652  1.00  0.00     0.137 HD
ENDBRANCH  21  24
ENDBRANCH  20  21
ENDBRANCH  19  20
ENDBRANCH  16  19
ENDBRANCH   8  15
ENDBRANCH   6   7
ENDBRANCH   3   6
ENDBRANCH   1   2
BRANCH   1  27
ATOM     27  C   UNL A   1      36.668  22.081  24.482  1.00  0.00     0.021 C 
BRANCH  27  28
ATOM     28  C   UNL A   1      36.068  20.759  24.950  1.00  0.00     0.002 C 
BRANCH  28  29
ATOM     29  C   UNL A   1      37.046  19.586  24.966  1.00  0.00     0.002 C 
BRANCH  29  30
ATOM     30  C   UNL A   1      38.517  19.953  24.734  1.00  0.00     0.021 C 
BRANCH  30  31
ATOM     31  C   UNL A   1      39.367  20.039  25.999  1.00  0.00     0.116 C 
BRANCH  31  32
ATOM     32  N   UNL A   1      40.400  19.013  26.031  1.00  0.00    -0.352 N 
ATOM     33  C   UNL A   1      41.764  19.152  26.075  1.00  0.00     0.251 C 
ATOM     34  H   UNL A   1      40.071  18.086  26.019  1.00  0.00     0.163 HD
ATOM     35  O   UNL A   1      42.494  18.197  25.833  1.00  0.00    -0.269 OA
BRANCH  33  36
ATOM     36  C   UNL A   1      42.353  20.464  26.411  1.00  0.00     0.039 A 
ATOM     37  C   UNL A   1      42.871  21.262  25.389  1.00  0.00     0.014 A 
ATOM     38  C   UNL A   1      42.395  20.898  27.738  1.00  0.00     0.014 A 
ATOM     39  C   UNL A   1      43.368  22.532  25.691  1.00  0.00     0.010 A 
ATOM     40  C   UNL A   1      42.822  22.189  28.027  1.00  0.00     0.010 A 
ATOM     41  C   UNL A   1      43.310  23.020  27.007  1.00  0.00    -0.014 A 
BRANCH  41  42
ATOM     42  C   UNL A   1      43.737  24.403  27.338  1.00  0.00     0.031 A 
ATOM     43  C   UNL A   1      42.727  25.414  27.803  1.00  0.00     0.074 A 
ATOM     44  C   UNL A   1      45.018  24.767  27.137  1.00  0.00     0.049 A 
ATOM     45  N   UNL A   1      42.884  26.692  28.039  1.00  0.00    -0.248 NA
ATOM     46  C   UNL A   1      41.352  24.931  28.003  1.00  0.00     0.031 C 
ATOM     47  C   UNL A   1      46.079  23.887  26.646  1.00  0.00     0.029 A 
ATOM     48  N   UNL A   1      45.642  25.980  27.301  1.00  0.00    -0.354 N 
ATOM     49  C   UNL A   1      41.628  27.166  28.398  1.00  0.00     0.074 A 
ATOM     50  C   UNL A   1      40.711  26.051  28.301  1.00  0.00     0.031 C 
ATOM     51  C   UNL A   1      47.224  24.583  26.561  1.00  0.00     0.029 A 
ATOM     52  C   UNL A   1      46.969  25.968  26.944  1.00  0.00     0.049 A 
ATOM     53  H   UNL A   1      45.182  26.781  27.642  1.00  0.00     0.167 HD
ATOM     54  C   UNL A   1      41.279  28.414  28.790  1.00  0.00     0.037 A 
ATOM     55  C   UNL A   1      47.872  26.966  26.908  1.00  0.00     0.037 A 
ATOM     56  C   UNL A   1      42.202  29.513  28.902  1.00  0.00     0.049 A 
ATOM     57  C   UNL A   1      47.450  28.350  27.326  1.00  0.00     0.074 A 
ATOM     58  C   UNL A   1      41.961  30.798  29.357  1.00  0.00     0.029 A 
ATOM     59  N   UNL A   1      43.542  29.461  28.545  1.00  0.00    -0.354 N 
ATOM     60  N   UNL A   1      46.279  28.769  27.738  1.00  0.00    -0.248 NA
ATOM     61  C   UNL A   1      48.477  29.399  27.275  1.00  0.00     0.031 C 
ATOM     62  C   UNL A   1      43.137  31.540  29.212  1.00  0.00     0.029 A 
ATOM     63  C   UNL A   1      44.130  30.701  28.733  1.00  0.00     0.049 A 
ATOM     64  H   UNL A   1      44.006  28.660  28.208  1.00  0.00     0.167 HD
ATOM     65  C   UNL A   1      46.434  30.120  28.020  1.00  0.00     0.074 A 
ATOM     66  C   UNL A   1      47.818  30.446  27.750  1.00  0.00     0.031 C 
ATOM     67  C   UNL A   1      45.512  31.010  28.462  1.00  0.00     0.037 A 
BRANCH  54  68
ATOM     68  C   UNL A   1      39.835  28.666  29.119  1.00  0.00     0.064 A 
ATOM     69  C   UNL A   1      39.327  28.478  30.414  1.00  0.00     0.173 A 
ATOM     70  C   UNL A   1      38.957  29.152  28.138  1.00  0.00     0.173 A 
ATOM     71  F   UNL A   1      40.120  28.007  31.389  1.00  0.00    -0.203 F 
ATOM     72  C   UNL A   1      37.990  28.737  30.706  1.00  0.00     0.198 A 
ATOM     73  C   UNL A   1      37.630  29.443  28.441  1.00  0.00     0.198 A 
ATOM     74  F   UNL A   1      39.391  29.357  26.884  1.00  0.00    -0.203 F 
ATOM     75  F   UNL A   1      37.516  28.501  31.937  1.00  0.00    -0.200 F 
ATOM     76  C   UNL A   1      37.145  29.228  29.721  1.00  0.00     0.200 A 
ATOM     77  F   UNL A   1      36.819  29.932  27.491  1.00  0.00    -0.200 F 
ATOM     78  F   UNL A   1      35.862  29.488  30.006  1.00  0.00    -0.200 F 
ENDBRANCH  54  68
BRANCH  55  79
ATOM     79  C   UNL A   1      49.263  26.696  26.457  1.00  0.00     0.064 A 
ATOM     80  C   UNL A   1      49.633  26.867  25.114  1.00  0.00     0.173 A 
ATOM     81  C   UNL A   1      50.247  26.248  27.350  1.00  0.00     0.173 A 
ATOM     82  F   UNL A   1      48.722  27.272  24.216  1.00  0.00    -0.203 F 
ATOM     83  C   UNL A   1      50.923  26.575  24.680  1.00  0.00     0.198 A 
ATOM     84  C   UNL A   1      51.546  25.989  26.921  1.00  0.00     0.198 A 
ATOM     85  F   UNL A   1      49.947  26.067  28.645  1.00  0.00    -0.203 F 
ATOM     86  F   UNL A   1      51.233  26.691  23.381  1.00  0.00    -0.200 F 
ATOM     87  C   UNL A   1      51.881  26.142  25.585  1.00  0.00     0.200 A 
ATOM     88  F   UNL A   1      52.471  25.581  27.802  1.00  0.00    -0.200 F 
ATOM     89  F   UNL A   1      53.123  25.861  25.167  1.00  0.00    -0.200 F 
ENDBRANCH  55  79
BRANCH  67  90
ATOM     90  C   UNL A   1      45.972  32.418  28.713  1.00  0.00     0.064 A 
ATOM     91  C   UNL A   1      45.886  33.410  27.725  1.00  0.00     0.173 A 
ATOM     92  C   UNL A   1      46.459  32.791  29.976  1.00  0.00     0.173 A 
ATOM     93  F   UNL A   1      45.443  33.103  26.496  1.00  0.00    -0.203 F 
ATOM     94  C   UNL A   1      46.290  34.717  27.986  1.00  0.00     0.198 A 
ATOM     95  C   UNL A   1      46.829  34.105  30.243  1.00  0.00     0.198 A 
ATOM     96  F   UNL A   1      46.556  31.882  30.958  1.00  0.00    -0.203 F 
ATOM     97  F   UNL A   1      46.243  35.637  27.012  1.00  0.00    -0.200 F 
ATOM     98  C   UNL A   1      46.751  35.065  29.247  1.00  0.00     0.200 A 
ATOM     99  F   UNL A   1      47.256  34.443  31.467  1.00  0.00    -0.200 F 
ATOM    100  F   UNL A   1      47.126  36.327  29.499  1.00  0.00    -0.200 F 
ENDBRANCH  67  90
ENDBRANCH  41  42
ENDBRANCH  33  36
ENDBRANCH  31  32
ENDBRANCH  30  31
ENDBRANCH  29  30
ENDBRANCH  28  29
ENDBRANCH  27  28
ENDBRANCH   1  27
TORSDOF 19
ENDMDL
