MODEL 1
REMARK VINA RESULT:     -12.7      0.000      0.000
REMARK SMILES O=C(NCCCCCCNC(=O)c1ccccc1[C@@H]1SCC(=O)N1NC(=S)Nc1ccccc1)c1ccc(-c2c3nc(c(-c4c(F)c(F)c(F)c(F)c4F)c4ccc([nH]4)c(-c4c(F)c(F)c(F)c(F)c4F)c4nc(c(-c5c(F)c(F)c(F)c(F)c5F)c5ccc2[nH]5)C=C4)C=C3)cc1
REMARK SMILES IDX 8 1 7 2 6 3 5 4 4 5 3 6 1 7 2 8 35 10 36 11 97 12 37 13
REMARK SMILES IDX 96 14 38 15 39 16 40 17 90 18 41 19 95 20 89 21 91 22 42 23
REMARK SMILES IDX 94 24 88 25 87 26 43 28 75 29 55 30 74 31 56 32 59 33 73 34
REMARK SMILES IDX 92 35 57 36 58 37 72 39 93 40 60 41 44 42 45 43 53 44 46 45
REMARK SMILES IDX 47 46 51 47 54 48 48 49 49 50 52 51 50 52 76 53 77 54 85 55
REMARK SMILES IDX 78 56 79 57 83 58 86 59 80 60 81 61 84 62 82 63 61 64 62 65
REMARK SMILES IDX 70 66 63 67 64 68 68 69 71 70 65 71 66 72 69 73 67 74 9 75
REMARK SMILES IDX 10 76 11 77 12 79 13 80 14 81 18 82 15 83 17 84 16 85 19 86
REMARK SMILES IDX 20 87 24 88 21 89 22 90 23 91 25 92 26 94 27 95 28 96 29 98
REMARK SMILES IDX 30 99 34 100 31 101 33 102 32 103
REMARK H PARENT 3 9 91 27 59 38 10 78 25 93 28 97
REMARK Flexibility Score: inf
ROOT
ATOM      1  C   UNL A   1      36.793  23.300  25.790  1.00  0.00     0.021 C 
ENDROOT
BRANCH   1   2
ATOM      2  C   UNL A   1      37.113  22.283  24.674  1.00  0.00     0.002 C 
BRANCH   2   3
ATOM      3  C   UNL A   1      36.813  20.772  24.811  1.00  0.00     0.002 C 
BRANCH   3   4
ATOM      4  C   UNL A   1      37.964  19.775  24.968  1.00  0.00     0.021 C 
BRANCH   4   5
ATOM      5  C   UNL A   1      39.206  20.231  25.729  1.00  0.00     0.116 C 
BRANCH   5   6
ATOM      6  N   UNL A   1      40.220  19.190  25.849  1.00  0.00    -0.352 N 
ATOM      7  O   UNL A   1      42.199  18.162  25.953  1.00  0.00    -0.269 OA
ATOM      8  C   UNL A   1      41.583  19.225  26.047  1.00  0.00     0.251 C 
ATOM      9  H   UNL A   1      39.857  18.278  25.771  1.00  0.00     0.163 HD
BRANCH   8  10
ATOM     10  C   UNL A   1      42.354  20.457  26.393  1.00  0.00     0.039 A 
ATOM     11  C   UNL A   1      43.031  21.225  25.446  1.00  0.00     0.014 A 
ATOM     12  C   UNL A   1      42.251  20.959  27.704  1.00  0.00     0.014 A 
ATOM     13  C   UNL A   1      43.639  22.435  25.804  1.00  0.00     0.010 A 
ATOM     14  C   UNL A   1      42.783  22.214  28.047  1.00  0.00     0.010 A 
ATOM     15  C   UNL A   1      43.463  22.974  27.090  1.00  0.00    -0.014 A 
BRANCH  15  16
ATOM     16  C   UNL A   1      43.784  24.411  27.318  1.00  0.00     0.031 A 
ATOM     17  C   UNL A   1      42.756  25.411  27.757  1.00  0.00     0.074 A 
ATOM     18  C   UNL A   1      45.057  24.806  27.106  1.00  0.00     0.049 A 
ATOM     19  N   UNL A   1      42.909  26.689  28.010  1.00  0.00    -0.248 NA
ATOM     20  C   UNL A   1      41.379  24.928  27.925  1.00  0.00     0.031 C 
ATOM     21  C   UNL A   1      46.134  23.934  26.626  1.00  0.00     0.029 A 
ATOM     22  N   UNL A   1      45.671  26.022  27.272  1.00  0.00    -0.354 N 
ATOM     23  C   UNL A   1      41.652  27.167  28.351  1.00  0.00     0.074 A 
ATOM     24  C   UNL A   1      40.741  26.043  28.264  1.00  0.00     0.031 C 
ATOM     25  C   UNL A   1      47.280  24.628  26.583  1.00  0.00     0.029 A 
ATOM     26  C   UNL A   1      47.012  26.007  26.971  1.00  0.00     0.049 A 
ATOM     27  H   UNL A   1      45.196  26.830  27.577  1.00  0.00     0.167 HD
ATOM     28  C   UNL A   1      41.299  28.427  28.704  1.00  0.00     0.037 A 
ATOM     29  C   UNL A   1      47.927  26.993  26.986  1.00  0.00     0.037 A 
ATOM     30  C   UNL A   1      42.216  29.535  28.811  1.00  0.00     0.049 A 
ATOM     31  C   UNL A   1      47.504  28.373  27.390  1.00  0.00     0.074 A 
ATOM     32  C   UNL A   1      41.961  30.828  29.241  1.00  0.00     0.029 A 
ATOM     33  N   UNL A   1      43.561  29.486  28.476  1.00  0.00    -0.354 N 
ATOM     34  N   UNL A   1      46.324  28.793  27.773  1.00  0.00    -0.248 NA
ATOM     35  C   UNL A   1      48.533  29.421  27.351  1.00  0.00     0.031 C 
ATOM     36  C   UNL A   1      43.141  31.572  29.125  1.00  0.00     0.029 A 
ATOM     37  C   UNL A   1      44.140  30.734  28.656  1.00  0.00     0.049 A 
ATOM     38  H   UNL A   1      44.034  28.684  28.157  1.00  0.00     0.167 HD
ATOM     39  C   UNL A   1      46.462  30.151  28.010  1.00  0.00     0.074 A 
ATOM     40  C   UNL A   1      47.851  30.480  27.765  1.00  0.00     0.031 C 
ATOM     41  C   UNL A   1      45.518  31.048  28.383  1.00  0.00     0.037 A 
BRANCH  28  42
ATOM     42  C   UNL A   1      39.853  28.699  28.997  1.00  0.00     0.064 A 
ATOM     43  C   UNL A   1      39.307  28.484  30.269  1.00  0.00     0.173 A 
ATOM     44  C   UNL A   1      39.029  29.275  28.016  1.00  0.00     0.173 A 
ATOM     45  F   UNL A   1      40.053  27.938  31.240  1.00  0.00    -0.203 F 
ATOM     46  C   UNL A   1      37.984  28.825  30.548  1.00  0.00     0.198 A 
ATOM     47  C   UNL A   1      37.713  29.631  28.303  1.00  0.00     0.198 A 
ATOM     48  F   UNL A   1      39.508  29.513  26.786  1.00  0.00    -0.203 F 
ATOM     49  F   UNL A   1      37.477  28.597  31.768  1.00  0.00    -0.200 F 
ATOM     50  C   UNL A   1      37.192  29.405  29.568  1.00  0.00     0.200 A 
ATOM     51  F   UNL A   1      36.953  30.203  27.359  1.00  0.00    -0.200 F 
ATOM     52  F   UNL A   1      35.926  29.747  29.843  1.00  0.00    -0.200 F 
ENDBRANCH  28  42
BRANCH  29  53
ATOM     53  C   UNL A   1      49.327  26.706  26.579  1.00  0.00     0.064 A 
ATOM     54  C   UNL A   1      50.281  26.283  27.514  1.00  0.00     0.173 A 
ATOM     55  C   UNL A   1      49.734  26.835  25.243  1.00  0.00     0.173 A 
ATOM     56  F   UNL A   1      49.946  26.168  28.808  1.00  0.00    -0.203 F 
ATOM     57  C   UNL A   1      51.592  26.008  27.128  1.00  0.00     0.198 A 
ATOM     58  C   UNL A   1      51.035  26.532  24.853  1.00  0.00     0.198 A 
ATOM     59  F   UNL A   1      48.857  27.234  24.310  1.00  0.00    -0.203 F 
ATOM     60  F   UNL A   1      52.495  25.641  28.048  1.00  0.00    -0.200 F 
ATOM     61  C   UNL A   1      51.966  26.124  25.798  1.00  0.00     0.200 A 
ATOM     62  F   UNL A   1      51.387  26.630  23.564  1.00  0.00    -0.200 F 
ATOM     63  F   UNL A   1      53.224  25.850  25.427  1.00  0.00    -0.200 F 
ENDBRANCH  29  53
BRANCH  41  64
ATOM     64  C   UNL A   1      45.961  32.472  28.524  1.00  0.00     0.064 A 
ATOM     65  C   UNL A   1      46.455  32.957  29.743  1.00  0.00     0.173 A 
ATOM     66  C   UNL A   1      45.907  33.353  27.434  1.00  0.00     0.173 A 
ATOM     67  F   UNL A   1      46.504  32.156  30.819  1.00  0.00    -0.203 F 
ATOM     68  C   UNL A   1      46.860  34.283  29.873  1.00  0.00     0.198 A 
ATOM     69  C   UNL A   1      46.335  34.671  27.561  1.00  0.00     0.198 A 
ATOM     70  F   UNL A   1      45.442  32.934  26.248  1.00  0.00    -0.203 F 
ATOM     71  F   UNL A   1      47.288  34.738  31.059  1.00  0.00    -0.200 F 
ATOM     72  C   UNL A   1      46.805  35.136  28.781  1.00  0.00     0.200 A 
ATOM     73  F   UNL A   1      46.287  35.494  26.505  1.00  0.00    -0.200 F 
ATOM     74  F   UNL A   1      47.196  36.412  28.907  1.00  0.00    -0.200 F 
ENDBRANCH  41  64
ENDBRANCH  15  16
ENDBRANCH   8  10
ENDBRANCH   5   6
ENDBRANCH   4   5
ENDBRANCH   3   4
ENDBRANCH   2   3
ENDBRANCH   1   2
BRANCH   1  75
ATOM     75  C   UNL A   1      35.663  24.329  25.621  1.00  0.00     0.116 C 
BRANCH  75  76
ATOM     76  N   UNL A   1      35.031  24.427  24.318  1.00  0.00    -0.352 N 
ATOM     77  C   UNL A   1      33.964  25.246  23.979  1.00  0.00     0.251 C 
ATOM     78  H   UNL A   1      35.394  23.856  23.604  1.00  0.00     0.163 HD
ATOM     79  O   UNL A   1      33.833  25.643  22.823  1.00  0.00    -0.269 OA
BRANCH  77  80
ATOM     80  C   UNL A   1      32.888  25.580  24.949  1.00  0.00     0.046 A 
ATOM     81  C   UNL A   1      31.959  24.538  25.130  1.00  0.00     0.014 A 
ATOM     82  C   UNL A   1      32.615  26.874  25.468  1.00  0.00    -0.001 A 
ATOM     83  C   UNL A   1      30.772  24.749  25.829  1.00  0.00     0.001 A 
ATOM     84  C   UNL A   1      31.402  27.050  26.180  1.00  0.00     0.007 A 
ATOM     85  C   UNL A   1      30.494  26.004  26.355  1.00  0.00     0.000 A 
BRANCH  82  86
ATOM     86  C   UNL A   1      33.491  28.117  25.333  1.00  0.00     0.197 C 
ATOM     87  S   UNL A   1      34.326  28.578  26.859  1.00  0.00    -0.120 SA
ATOM     88  N   UNL A   1      32.785  29.286  24.861  1.00  0.00    -0.236 N 
ATOM     89  C   UNL A   1      33.464  30.165  26.960  1.00  0.00     0.174 C 
ATOM     90  C   UNL A   1      32.399  30.146  25.883  1.00  0.00     0.252 C 
ATOM     91  O   UNL A   1      31.360  30.799  25.962  1.00  0.00    -0.272 OA
BRANCH  88  92
ATOM     92  N   UNL A   1      32.320  29.198  23.530  1.00  0.00    -0.270 N 
ATOM     93  H   UNL A   1      33.016  29.322  22.846  1.00  0.00     0.191 HD
BRANCH  92  94
ATOM     94  C   UNL A   1      31.074  28.971  23.035  1.00  0.00     0.189 C 
ATOM     95  S   UNL A   1      30.818  27.490  22.291  1.00  0.00    -0.039 S 
BRANCH  94  96
ATOM     96  N   UNL A   1      30.021  29.716  23.413  1.00  0.00    -0.331 N 
ATOM     97  H   UNL A   1      29.728  29.574  24.341  1.00  0.00     0.169 HD
BRANCH  96  98
ATOM     98  C   UNL A   1      29.271  30.660  22.705  1.00  0.00     0.040 A 
ATOM     99  C   UNL A   1      29.027  31.877  23.363  1.00  0.00     0.026 A 
ATOM    100  C   UNL A   1      28.822  30.469  21.409  1.00  0.00     0.026 A 
ATOM    101  C   UNL A   1      28.413  32.932  22.707  1.00  0.00     0.002 A 
ATOM    102  C   UNL A   1      28.158  31.517  20.765  1.00  0.00     0.002 A 
ATOM    103  C   UNL A   1      27.974  32.750  21.404  1.00  0.00     0.000 A 
ENDBRANCH  96  98
ENDBRANCH  94  96
ENDBRANCH  92  94
ENDBRANCH  88  92
ENDBRANCH  82  86
ENDBRANCH  77  80
ENDBRANCH  75  76
ENDBRANCH   1  75
TORSDOF 18
ENDMDL
MODEL 2
REMARK VINA RESULT:     -12.6      2.207      8.088
REMARK SMILES O=C(NCCCCCCNC(=O)c1ccccc1[C@@H]1SCC(=O)N1NC(=S)Nc1ccccc1)c1ccc(-c2c3nc(c(-c4c(F)c(F)c(F)c(F)c4F)c4ccc([nH]4)c(-c4c(F)c(F)c(F)c(F)c4F)c4nc(c(-c5c(F)c(F)c(F)c(F)c5F)c5ccc2[nH]5)C=C4)C=C3)cc1
REMARK SMILES IDX 8 1 7 2 6 3 5 4 4 5 3 6 1 7 2 8 35 10 36 11 97 12 37 13
REMARK SMILES IDX 96 14 38 15 39 16 40 17 90 18 41 19 95 20 89 21 91 22 42 23
REMARK SMILES IDX 94 24 88 25 87 26 43 28 75 29 55 30 74 31 56 32 59 33 73 34
REMARK SMILES IDX 92 35 57 36 58 37 72 39 93 40 60 41 44 42 45 43 53 44 46 45
REMARK SMILES IDX 47 46 51 47 54 48 48 49 49 50 52 51 50 52 76 53 77 54 85 55
REMARK SMILES IDX 78 56 79 57 83 58 86 59 80 60 81 61 84 62 82 63 61 64 62 65
REMARK SMILES IDX 70 66 63 67 64 68 68 69 71 70 65 71 66 72 69 73 67 74 9 75
REMARK SMILES IDX 10 76 11 77 12 79 13 80 14 81 18 82 15 83 17 84 16 85 19 86
REMARK SMILES IDX 20 87 24 88 21 89 22 90 23 91 25 92 26 94 27 95 28 96 29 98
REMARK SMILES IDX 30 99 34 100 31 101 33 102 32 103
REMARK H PARENT 3 9 91 27 59 38 10 78 25 93 28 97
REMARK Flexibility Score: inf
ROOT
ATOM      1  C   UNL A   1      34.194  24.756  25.569  1.00  0.00     0.021 C 
ENDROOT
BRANCH   1   2
ATOM      2  C   UNL A   1      35.594  24.147  25.346  1.00  0.00     0.002 C 
BRANCH   2   3
ATOM      3  C   UNL A   1      35.969  23.364  24.065  1.00  0.00     0.002 C 
BRANCH   3   4
ATOM      4  C   UNL A   1      36.633  21.990  24.176  1.00  0.00     0.021 C 
BRANCH   4   5
ATOM      5  C   UNL A   1      36.851  21.412  25.572  1.00  0.00     0.116 C 
BRANCH   5   6
ATOM      6  N   UNL A   1      38.088  20.650  25.691  1.00  0.00    -0.352 N 
ATOM      7  O   UNL A   1      40.248  20.141  25.937  1.00  0.00    -0.269 OA
ATOM      8  C   UNL A   1      39.364  20.986  26.087  1.00  0.00     0.251 C 
ATOM      9  H   UNL A   1      37.993  19.704  25.436  1.00  0.00     0.163 HD
BRANCH   8  10
ATOM     10  C   UNL A   1      39.738  22.292  26.709  1.00  0.00     0.039 A 
ATOM     11  C   UNL A   1      40.760  22.427  27.648  1.00  0.00     0.014 A 
ATOM     12  C   UNL A   1      39.149  23.464  26.198  1.00  0.00     0.014 A 
ATOM     13  C   UNL A   1      41.150  23.690  28.110  1.00  0.00     0.010 A 
ATOM     14  C   UNL A   1      39.596  24.736  26.593  1.00  0.00     0.010 A 
ATOM     15  C   UNL A   1      40.620  24.859  27.538  1.00  0.00    -0.014 A 
BRANCH  15  16
ATOM     16  C   UNL A   1      41.319  26.154  27.769  1.00  0.00     0.031 A 
ATOM     17  C   UNL A   1      42.697  26.435  27.249  1.00  0.00     0.074 A 
ATOM     18  C   UNL A   1      40.668  27.094  28.486  1.00  0.00     0.049 A 
ATOM     19  N   UNL A   1      43.411  27.529  27.364  1.00  0.00    -0.248 NA
ATOM     20  C   UNL A   1      43.372  25.355  26.517  1.00  0.00     0.031 C 
ATOM     21  C   UNL A   1      39.342  26.918  29.088  1.00  0.00     0.029 A 
ATOM     22  N   UNL A   1      41.010  28.380  28.821  1.00  0.00    -0.354 N 
ATOM     23  C   UNL A   1      44.620  27.267  26.736  1.00  0.00     0.074 A 
ATOM     24  C   UNL A   1      44.550  25.905  26.247  1.00  0.00     0.031 C 
ATOM     25  C   UNL A   1      38.966  28.061  29.677  1.00  0.00     0.029 A 
ATOM     26  C   UNL A   1      40.043  29.035  29.548  1.00  0.00     0.049 A 
ATOM     27  H   UNL A   1      41.867  28.795  28.567  1.00  0.00     0.167 HD
ATOM     28  C   UNL A   1      45.685  28.093  26.583  1.00  0.00     0.037 A 
ATOM     29  C   UNL A   1      40.027  30.274  30.071  1.00  0.00     0.037 A 
ATOM     30  C   UNL A   1      45.738  29.456  27.051  1.00  0.00     0.049 A 
ATOM     31  C   UNL A   1      41.217  31.163  29.876  1.00  0.00     0.074 A 
ATOM     32  C   UNL A   1      46.743  30.393  26.869  1.00  0.00     0.029 A 
ATOM     33  N   UNL A   1      44.750  30.075  27.802  1.00  0.00    -0.354 N 
ATOM     34  N   UNL A   1      42.326  30.922  29.222  1.00  0.00    -0.248 NA
ATOM     35  C   UNL A   1      41.163  32.491  30.502  1.00  0.00     0.031 C 
ATOM     36  C   UNL A   1      46.383  31.563  27.547  1.00  0.00     0.029 A 
ATOM     37  C   UNL A   1      45.137  31.369  28.121  1.00  0.00     0.049 A 
ATOM     38  H   UNL A   1      43.899  29.658  28.070  1.00  0.00     0.167 HD
ATOM     39  C   UNL A   1      43.106  32.058  29.364  1.00  0.00     0.074 A 
ATOM     40  C   UNL A   1      42.329  33.007  30.135  1.00  0.00     0.031 C 
ATOM     41  C   UNL A   1      44.361  32.289  28.910  1.00  0.00     0.037 A 
BRANCH  28  42
ATOM     42  C   UNL A   1      46.901  27.556  25.887  1.00  0.00     0.064 A 
ATOM     43  C   UNL A   1      47.069  27.677  24.502  1.00  0.00     0.173 A 
ATOM     44  C   UNL A   1      47.953  27.000  26.632  1.00  0.00     0.173 A 
ATOM     45  F   UNL A   1      46.093  28.203  23.746  1.00  0.00    -0.203 F 
ATOM     46  C   UNL A   1      48.244  27.252  23.883  1.00  0.00     0.198 A 
ATOM     47  C   UNL A   1      49.133  26.593  26.013  1.00  0.00     0.198 A 
ATOM     48  F   UNL A   1      47.847  26.874  27.963  1.00  0.00    -0.203 F 
ATOM     49  F   UNL A   1      48.379  27.364  22.554  1.00  0.00    -0.200 F 
ATOM     50  C   UNL A   1      49.277  26.719  24.639  1.00  0.00     0.200 A 
ATOM     51  F   UNL A   1      50.135  26.090  26.747  1.00  0.00    -0.200 F 
ATOM     52  F   UNL A   1      50.412  26.326  24.044  1.00  0.00    -0.200 F 
ENDBRANCH  28  42
BRANCH  29  53
ATOM     53  C   UNL A   1      38.847  30.728  30.852  1.00  0.00     0.064 A 
ATOM     54  C   UNL A   1      37.728  31.285  30.217  1.00  0.00     0.173 A 
ATOM     55  C   UNL A   1      38.809  30.601  32.248  1.00  0.00     0.173 A 
ATOM     56  F   UNL A   1      37.726  31.449  28.886  1.00  0.00    -0.203 F 
ATOM     57  C   UNL A   1      36.620  31.703  30.951  1.00  0.00     0.198 A 
ATOM     58  C   UNL A   1      37.691  30.993  32.978  1.00  0.00     0.198 A 
ATOM     59  F   UNL A   1      39.854  30.072  32.903  1.00  0.00    -0.203 F 
ATOM     60  F   UNL A   1      35.579  32.266  30.323  1.00  0.00    -0.200 F 
ATOM     61  C   UNL A   1      36.599  31.550  32.329  1.00  0.00     0.200 A 
ATOM     62  F   UNL A   1      37.668  30.827  34.307  1.00  0.00    -0.200 F 
ATOM     63  F   UNL A   1      35.529  31.944  33.033  1.00  0.00    -0.200 F 
ENDBRANCH  29  53
BRANCH  41  64
ATOM     64  C   UNL A   1      44.971  33.611  29.259  1.00  0.00     0.064 A 
ATOM     65  C   UNL A   1      44.782  34.733  28.438  1.00  0.00     0.173 A 
ATOM     66  C   UNL A   1      45.735  33.766  30.425  1.00  0.00     0.173 A 
ATOM     67  F   UNL A   1      44.076  34.626  27.302  1.00  0.00    -0.203 F 
ATOM     68  C   UNL A   1      45.355  35.960  28.762  1.00  0.00     0.198 A 
ATOM     69  C   UNL A   1      46.287  35.000  30.757  1.00  0.00     0.198 A 
ATOM     70  F   UNL A   1      45.943  32.722  31.240  1.00  0.00    -0.203 F 
ATOM     71  F   UNL A   1      45.197  37.008  27.942  1.00  0.00    -0.200 F 
ATOM     72  C   UNL A   1      46.102  36.093  29.923  1.00  0.00     0.200 A 
ATOM     73  F   UNL A   1      47.004  35.130  31.881  1.00  0.00    -0.200 F 
ATOM     74  F   UNL A   1      46.652  37.275  30.234  1.00  0.00    -0.200 F 
ENDBRANCH  41  64
ENDBRANCH  15  16
ENDBRANCH   8  10
ENDBRANCH   5   6
ENDBRANCH   4   5
ENDBRANCH   3   4
ENDBRANCH   2   3
ENDBRANCH   1   2
BRANCH   1  75
ATOM     75  C   UNL A   1      33.953  26.266  25.402  1.00  0.00     0.116 C 
BRANCH  75  76
ATOM     76  N   UNL A   1      34.100  26.828  24.072  1.00  0.00    -0.352 N 
ATOM     77  C   UNL A   1      33.991  28.167  23.727  1.00  0.00     0.251 C 
ATOM     78  H   UNL A   1      34.296  26.198  23.342  1.00  0.00     0.163 HD
ATOM     79  O   UNL A   1      34.603  28.607  22.756  1.00  0.00    -0.269 OA
BRANCH  77  80
ATOM     80  C   UNL A   1      33.057  29.087  24.427  1.00  0.00     0.046 A 
ATOM     81  C   UNL A   1      33.550  29.546  25.664  1.00  0.00     0.014 A 
ATOM     82  C   UNL A   1      31.698  29.312  24.077  1.00  0.00    -0.001 A 
ATOM     83  C   UNL A   1      32.728  30.236  26.552  1.00  0.00     0.001 A 
ATOM     84  C   UNL A   1      30.894  30.025  25.001  1.00  0.00     0.007 A 
ATOM     85  C   UNL A   1      31.402  30.477  26.220  1.00  0.00     0.000 A 
BRANCH  82  86
ATOM     86  C   UNL A   1      30.996  28.856  22.801  1.00  0.00     0.197 C 
ATOM     87  S   UNL A   1      29.868  30.082  22.122  1.00  0.00    -0.120 SA
ATOM     88  N   UNL A   1      30.255  27.624  22.945  1.00  0.00    -0.236 N 
ATOM     89  C   UNL A   1      28.424  29.017  22.354  1.00  0.00     0.174 C 
ATOM     90  C   UNL A   1      28.895  27.823  23.157  1.00  0.00     0.252 C 
ATOM     91  O   UNL A   1      28.148  27.174  23.886  1.00  0.00    -0.272 OA
BRANCH  88  92
ATOM     92  N   UNL A   1      31.049  26.481  23.182  1.00  0.00    -0.270 N 
ATOM     93  H   UNL A   1      31.508  26.476  24.052  1.00  0.00     0.191 HD
BRANCH  92  94
ATOM     94  C   UNL A   1      31.287  25.386  22.411  1.00  0.00     0.189 C 
ATOM     95  S   UNL A   1      32.519  25.515  21.280  1.00  0.00    -0.039 S 
BRANCH  94  96
ATOM     96  N   UNL A   1      30.820  24.172  22.751  1.00  0.00    -0.331 N 
ATOM     97  H   UNL A   1      29.976  23.919  22.313  1.00  0.00     0.169 HD
BRANCH  96  98
ATOM     98  C   UNL A   1      31.334  23.209  23.624  1.00  0.00     0.040 A 
ATOM     99  C   UNL A   1      32.248  22.296  23.072  1.00  0.00     0.026 A 
ATOM    100  C   UNL A   1      31.028  23.154  24.974  1.00  0.00     0.026 A 
ATOM    101  C   UNL A   1      32.921  21.386  23.871  1.00  0.00     0.002 A 
ATOM    102  C   UNL A   1      31.671  22.203  25.771  1.00  0.00     0.002 A 
ATOM    103  C   UNL A   1      32.628  21.338  25.226  1.00  0.00     0.000 A 
ENDBRANCH  96  98
ENDBRANCH  94  96
ENDBRANCH  92  94
ENDBRANCH  88  92
ENDBRANCH  82  86
ENDBRANCH  77  80
ENDBRANCH  75  76
ENDBRANCH   1  75
TORSDOF 18
ENDMDL
MODEL 3
REMARK VINA RESULT:     -12.4      2.161      4.146
REMARK SMILES O=C(NCCCCCCNC(=O)c1ccccc1[C@@H]1SCC(=O)N1NC(=S)Nc1ccccc1)c1ccc(-c2c3nc(c(-c4c(F)c(F)c(F)c(F)c4F)c4ccc([nH]4)c(-c4c(F)c(F)c(F)c(F)c4F)c4nc(c(-c5c(F)c(F)c(F)c(F)c5F)c5ccc2[nH]5)C=C4)C=C3)cc1
REMARK SMILES IDX 8 1 7 2 6 3 5 4 4 5 3 6 1 7 2 8 35 10 36 11 97 12 37 13
REMARK SMILES IDX 96 14 38 15 39 16 40 17 90 18 41 19 95 20 89 21 91 22 42 23
REMARK SMILES IDX 94 24 88 25 87 26 43 28 75 29 55 30 74 31 56 32 59 33 73 34
REMARK SMILES IDX 92 35 57 36 58 37 72 39 93 40 60 41 44 42 45 43 53 44 46 45
REMARK SMILES IDX 47 46 51 47 54 48 48 49 49 50 52 51 50 52 76 53 77 54 85 55
REMARK SMILES IDX 78 56 79 57 83 58 86 59 80 60 81 61 84 62 82 63 61 64 62 65
REMARK SMILES IDX 70 66 63 67 64 68 68 69 71 70 65 71 66 72 69 73 67 74 9 75
REMARK SMILES IDX 10 76 11 77 12 79 13 80 14 81 18 82 15 83 17 84 16 85 19 86
REMARK SMILES IDX 20 87 24 88 21 89 22 90 23 91 25 92 26 94 27 95 28 96 29 98
REMARK SMILES IDX 30 99 34 100 31 101 33 102 32 103
REMARK H PARENT 3 9 91 27 59 38 10 78 25 93 28 97
REMARK Flexibility Score: inf
ROOT
ATOM      1  C   UNL A   1      34.333  24.644  25.515  1.00  0.00     0.021 C 
ENDROOT
BRANCH   1   2
ATOM      2  C   UNL A   1      35.768  24.112  25.315  1.00  0.00     0.002 C 
BRANCH   2   3
ATOM      3  C   UNL A   1      36.202  23.339  24.047  1.00  0.00     0.002 C 
BRANCH   3   4
ATOM      4  C   UNL A   1      36.799  21.935  24.175  1.00  0.00     0.021 C 
BRANCH   4   5
ATOM      5  C   UNL A   1      37.030  21.381  25.578  1.00  0.00     0.116 C 
BRANCH   5   6
ATOM      6  N   UNL A   1      38.276  20.635  25.704  1.00  0.00    -0.352 N 
ATOM      7  O   UNL A   1      40.437  20.152  25.986  1.00  0.00    -0.269 OA
ATOM      8  C   UNL A   1      39.536  20.978  26.141  1.00  0.00     0.251 C 
ATOM      9  H   UNL A   1      38.201  19.696  25.417  1.00  0.00     0.163 HD
BRANCH   8  10
ATOM     10  C   UNL A   1      39.874  22.269  26.813  1.00  0.00     0.039 A 
ATOM     11  C   UNL A   1      40.959  22.421  27.675  1.00  0.00     0.014 A 
ATOM     12  C   UNL A   1      39.169  23.424  26.424  1.00  0.00     0.014 A 
ATOM     13  C   UNL A   1      41.302  23.679  28.184  1.00  0.00     0.010 A 
ATOM     14  C   UNL A   1      39.563  24.700  26.862  1.00  0.00     0.010 A 
ATOM     15  C   UNL A   1      40.651  24.840  27.731  1.00  0.00    -0.014 A 
BRANCH  15  16
ATOM     16  C   UNL A   1      41.281  26.165  27.987  1.00  0.00     0.031 A 
ATOM     17  C   UNL A   1      40.567  27.277  28.697  1.00  0.00     0.074 A 
ATOM     18  C   UNL A   1      42.542  26.352  27.545  1.00  0.00     0.049 A 
ATOM     19  N   UNL A   1      41.009  28.474  29.000  1.00  0.00    -0.248 NA
ATOM     20  C   UNL A   1      39.180  27.028  29.111  1.00  0.00     0.031 C 
ATOM     21  C   UNL A   1      43.321  25.361  26.795  1.00  0.00     0.029 A 
ATOM     22  N   UNL A   1      43.399  27.417  27.665  1.00  0.00    -0.354 N 
ATOM     23  C   UNL A   1      39.956  29.126  29.625  1.00  0.00     0.074 A 
ATOM     24  C   UNL A   1      38.845  28.195  29.650  1.00  0.00     0.031 C 
ATOM     25  C   UNL A   1      44.549  25.843  26.564  1.00  0.00     0.029 A 
ATOM     26  C   UNL A   1      44.631  27.198  27.094  1.00  0.00     0.049 A 
ATOM     27  H   UNL A   1      43.156  28.258  28.117  1.00  0.00     0.167 HD
ATOM     28  C   UNL A   1      39.925  30.384  30.130  1.00  0.00     0.037 A 
ATOM     29  C   UNL A   1      45.705  28.002  26.989  1.00  0.00     0.037 A 
ATOM     30  C   UNL A   1      41.042  31.296  30.122  1.00  0.00     0.049 A 
ATOM     31  C   UNL A   1      45.640  29.384  27.566  1.00  0.00     0.074 A 
ATOM     32  C   UNL A   1      41.128  32.561  30.684  1.00  0.00     0.029 A 
ATOM     33  N   UNL A   1      42.264  31.049  29.515  1.00  0.00    -0.354 N 
ATOM     34  N   UNL A   1      44.658  29.961  28.212  1.00  0.00    -0.248 NA
ATOM     35  C   UNL A   1      46.825  30.233  27.388  1.00  0.00     0.031 C 
ATOM     36  C   UNL A   1      42.386  33.094  30.379  1.00  0.00     0.029 A 
ATOM     37  C   UNL A   1      43.097  32.149  29.658  1.00  0.00     0.049 A 
ATOM     38  H   UNL A   1      42.505  30.214  29.050  1.00  0.00     0.167 HD
ATOM     39  C   UNL A   1      45.097  31.240  28.509  1.00  0.00     0.074 A 
ATOM     40  C   UNL A   1      46.452  31.345  28.006  1.00  0.00     0.031 C 
ATOM     41  C   UNL A   1      44.433  32.244  29.129  1.00  0.00     0.037 A 
BRANCH  28  42
ATOM     42  C   UNL A   1      38.641  30.873  30.732  1.00  0.00     0.064 A 
ATOM     43  C   UNL A   1      38.410  30.820  32.113  1.00  0.00     0.173 A 
ATOM     44  C   UNL A   1      37.672  31.489  29.926  1.00  0.00     0.173 A 
ATOM     45  F   UNL A   1      39.306  30.242  32.926  1.00  0.00    -0.203 F 
ATOM     46  C   UNL A   1      37.249  31.359  32.666  1.00  0.00     0.198 A 
ATOM     47  C   UNL A   1      36.521  32.043  30.483  1.00  0.00     0.198 A 
ATOM     48  F   UNL A   1      37.852  31.577  28.599  1.00  0.00    -0.203 F 
ATOM     49  F   UNL A   1      37.041  31.285  33.988  1.00  0.00    -0.200 F 
ATOM     50  C   UNL A   1      36.311  31.976  31.852  1.00  0.00     0.200 A 
ATOM     51  F   UNL A   1      35.622  32.650  29.697  1.00  0.00    -0.200 F 
ATOM     52  F   UNL A   1      35.203  32.508  32.388  1.00  0.00    -0.200 F 
ENDBRANCH  28  42
BRANCH  29  53
ATOM     53  C   UNL A   1      46.920  27.519  26.283  1.00  0.00     0.064 A 
ATOM     54  C   UNL A   1      47.049  27.644  24.893  1.00  0.00     0.173 A 
ATOM     55  C   UNL A   1      47.983  26.935  26.989  1.00  0.00     0.173 A 
ATOM     56  F   UNL A   1      46.050  28.173  24.173  1.00  0.00    -0.203 F 
ATOM     57  C   UNL A   1      48.193  27.195  24.236  1.00  0.00     0.198 A 
ATOM     58  C   UNL A   1      49.138  26.515  26.334  1.00  0.00     0.198 A 
ATOM     59  F   UNL A   1      47.909  26.796  28.321  1.00  0.00    -0.203 F 
ATOM     60  F   UNL A   1      48.276  27.292  22.902  1.00  0.00    -0.200 F 
ATOM     61  C   UNL A   1      49.239  26.639  24.956  1.00  0.00     0.200 A 
ATOM     62  F   UNL A   1      50.152  25.993  27.037  1.00  0.00    -0.200 F 
ATOM     63  F   UNL A   1      50.343  26.218  24.324  1.00  0.00    -0.200 F 
ENDBRANCH  29  53
BRANCH  41  64
ATOM     64  C   UNL A   1      45.160  33.545  29.274  1.00  0.00     0.064 A 
ATOM     65  C   UNL A   1      45.982  33.794  30.383  1.00  0.00     0.173 A 
ATOM     66  C   UNL A   1      45.050  34.544  28.295  1.00  0.00     0.173 A 
ATOM     67  F   UNL A   1      46.099  32.876  31.355  1.00  0.00    -0.203 F 
ATOM     68  C   UNL A   1      46.652  35.006  30.518  1.00  0.00     0.198 A 
ATOM     69  C   UNL A   1      45.741  35.745  28.423  1.00  0.00     0.198 A 
ATOM     70  F   UNL A   1      44.276  34.351  27.217  1.00  0.00    -0.203 F 
ATOM     71  F   UNL A   1      47.398  35.239  31.607  1.00  0.00    -0.200 F 
ATOM     72  C   UNL A   1      46.536  35.978  29.535  1.00  0.00     0.200 A 
ATOM     73  F   UNL A   1      45.632  36.682  27.471  1.00  0.00    -0.200 F 
ATOM     74  F   UNL A   1      47.182  37.144  29.666  1.00  0.00    -0.200 F 
ENDBRANCH  41  64
ENDBRANCH  15  16
ENDBRANCH   8  10
ENDBRANCH   5   6
ENDBRANCH   4   5
ENDBRANCH   3   4
ENDBRANCH   2   3
ENDBRANCH   1   2
BRANCH   1  75
ATOM     75  C   UNL A   1      34.023  26.145  25.395  1.00  0.00     0.116 C 
BRANCH  75  76
ATOM     76  N   UNL A   1      34.134  26.753  24.082  1.00  0.00    -0.352 N 
ATOM     77  C   UNL A   1      34.024  28.103  23.786  1.00  0.00     0.251 C 
ATOM     78  H   UNL A   1      34.303  26.147  23.324  1.00  0.00     0.163 HD
ATOM     79  O   UNL A   1      34.610  28.573  22.814  1.00  0.00    -0.269 OA
BRANCH  77  80
ATOM     80  C   UNL A   1      33.118  29.005  24.547  1.00  0.00     0.046 A 
ATOM     81  C   UNL A   1      33.647  29.408  25.788  1.00  0.00     0.014 A 
ATOM     82  C   UNL A   1      31.754  29.258  24.239  1.00  0.00    -0.001 A 
ATOM     83  C   UNL A   1      32.855  30.070  26.724  1.00  0.00     0.001 A 
ATOM     84  C   UNL A   1      30.982  29.941  25.211  1.00  0.00     0.007 A 
ATOM     85  C   UNL A   1      31.524  30.338  26.435  1.00  0.00     0.000 A 
BRANCH  82  86
ATOM     86  C   UNL A   1      31.016  28.861  22.964  1.00  0.00     0.197 C 
ATOM     87  S   UNL A   1      29.772  30.056  22.451  1.00  0.00    -0.120 SA
ATOM     88  N   UNL A   1      30.368  27.571  23.036  1.00  0.00    -0.236 N 
ATOM     89  C   UNL A   1      28.418  28.874  22.659  1.00  0.00     0.174 C 
ATOM     90  C   UNL A   1      29.012  27.653  23.331  1.00  0.00     0.252 C 
ATOM     91  O   UNL A   1      28.351  26.893  24.036  1.00  0.00    -0.272 OA
BRANCH  88  92
ATOM     92  N   UNL A   1      31.250  26.472  23.133  1.00  0.00    -0.270 N 
ATOM     93  H   UNL A   1      31.827  26.482  23.929  1.00  0.00     0.191 HD
BRANCH  92  94
ATOM     94  C   UNL A   1      31.435  25.404  22.312  1.00  0.00     0.189 C 
ATOM     95  S   UNL A   1      32.559  25.587  21.080  1.00  0.00    -0.039 S 
BRANCH  94  96
ATOM     96  N   UNL A   1      31.020  24.173  22.656  1.00  0.00    -0.331 N 
ATOM     97  H   UNL A   1      30.165  23.899  22.252  1.00  0.00     0.169 HD
BRANCH  96  98
ATOM     98  C   UNL A   1      31.600  23.215  23.493  1.00  0.00     0.040 A 
ATOM     99  C   UNL A   1      31.091  23.143  24.800  1.00  0.00     0.026 A 
ATOM    100  C   UNL A   1      32.586  22.333  23.083  1.00  0.00     0.026 A 
ATOM    101  C   UNL A   1      31.495  22.144  25.671  1.00  0.00     0.002 A 
ATOM    102  C   UNL A   1      33.030  21.356  23.979  1.00  0.00     0.002 A 
ATOM    103  C   UNL A   1      32.472  21.250  25.259  1.00  0.00     0.000 A 
ENDBRANCH  96  98
ENDBRANCH  94  96
ENDBRANCH  92  94
ENDBRANCH  88  92
ENDBRANCH  82  86
ENDBRANCH  77  80
ENDBRANCH  75  76
ENDBRANCH   1  75
TORSDOF 18
ENDMDL
