MODEL 1
REMARK VINA RESULT:     -13.5      0.000      0.000
REMARK SMILES COc1ccc(NC(=O)N[C@@H]2C=C[C@H](C(=O)NCCCCCCNC(=O)c3ccc(-c4c5nc(c(-c6c(F)c(F)c(F)c(F)c6F)c6ccc([nH]6)c(-c6c(F)c(F)c(F)c(F)c6F)c6nc(c(-c7c(F)c(F)c(F)c(F)c7F)c7ccc4[nH]7)C=C6)C=C5)cc3)C2)c(C)c1
REMARK SMILES IDX 20 1 19 2 18 3 17 4 15 5 16 6 14 8 11 9 12 10 90 11 13 12
REMARK SMILES IDX 10 13 7 14 8 15 9 17 6 19 3 20 4 21 93 22 5 23 91 24 92 25
REMARK SMILES IDX 2 26 1 27 21 28 22 29 23 30 24 31 25 32 26 34 27 35 28 36
REMARK SMILES IDX 89 37 29 38 88 39 30 40 31 41 32 42 82 43 33 44 87 45 81 46
REMARK SMILES IDX 83 47 34 48 86 49 80 50 79 51 35 53 67 54 47 55 66 56 48 57
REMARK SMILES IDX 51 58 65 59 84 60 49 61 50 62 64 64 85 65 52 66 36 67 37 68
REMARK SMILES IDX 45 69 38 70 39 71 43 72 46 73 40 74 41 75 44 76 42 77 68 78
REMARK SMILES IDX 69 79 77 80 70 81 71 82 75 83 78 84 72 85 73 86 76 87 74 88
REMARK SMILES IDX 53 89 54 90 62 91 55 92 56 93 60 94 63 95 57 96 58 97 61 98
REMARK SMILES IDX 59 99
REMARK H PARENT 17 7 7 16 10 18 24 33 83 52 51 63
REMARK Flexibility Score: inf
ROOT
ATOM      1  C   UNL A   1      40.988  19.875  26.240  1.00  0.00     0.002 C 
ENDROOT
BRANCH   1   2
ATOM      2  C   UNL A   1      40.445  21.138  26.928  1.00  0.00     0.021 C 
BRANCH   2   3
ATOM      3  C   UNL A   1      39.348  21.872  26.148  1.00  0.00     0.116 C 
BRANCH   3   4
ATOM      4  N   UNL A   1      38.496  20.916  25.499  1.00  0.00    -0.356 N 
ATOM      5  C   UNL A   1      37.230  21.064  25.028  1.00  0.00     0.227 C 
ATOM      6  O   UNL A   1      36.569  20.028  25.091  1.00  0.00    -0.274 OA
ATOM      7  H   UNL A   1      38.886  20.020  25.378  1.00  0.00     0.163 HD
BRANCH   5   8
ATOM      8  C   UNL A   1      36.839  22.535  24.319  1.00  0.00     0.103 C 
ATOM      9  C   UNL A   1      34.425  24.439  25.317  1.00  0.00     0.107 C 
ATOM     10  C   UNL A   1      34.276  24.259  23.434  1.00  0.00    -0.006 C 
ATOM     11  C   UNL A   1      36.218  23.702  25.945  1.00  0.00     0.047 C 
ATOM     12  C   UNL A   1      35.331  23.248  22.856  1.00  0.00    -0.016 C 
BRANCH   9  13
ATOM     13  N   UNL A   1      33.119  23.377  25.649  1.00  0.00    -0.332 N 
ATOM     14  N   UNL A   1      30.943  24.735  25.762  1.00  0.00    -0.308 N 
ATOM     15  C   UNL A   1      31.686  23.492  25.844  1.00  0.00     0.319 C 
ATOM     16  H   UNL A   1      29.982  24.706  25.971  1.00  0.00     0.171 HD
ATOM     17  O   UNL A   1      31.063  22.448  26.067  1.00  0.00    -0.248 OA
ATOM     18  H   UNL A   1      33.422  22.443  25.727  1.00  0.00     0.165 HD
BRANCH  14  19
ATOM     19  C   UNL A   1      31.497  25.984  25.404  1.00  0.00     0.046 A 
ATOM     20  C   UNL A   1      32.030  29.606  25.870  1.00  0.00     0.119 A 
ATOM     21  C   UNL A   1      32.038  28.529  27.269  1.00  0.00     0.048 A 
ATOM     22  C   UNL A   1      31.889  28.811  24.331  1.00  0.00     0.052 A 
ATOM     23  C   UNL A   1      31.876  26.565  26.748  1.00  0.00     0.030 A 
ATOM     24  C   UNL A   1      31.574  27.082  24.126  1.00  0.00    -0.024 A 
ATOM     25  C   UNL A   1      31.406  26.588  22.718  1.00  0.00     0.047 C 
BRANCH  20  26
ATOM     26  O   UNL A   1      32.263  30.940  25.909  1.00  0.00    -0.497 OA
ATOM     27  C   UNL A   1      31.182  31.650  26.505  1.00  0.00     0.278 C 
ENDBRANCH  20  26
ENDBRANCH  14  19
ENDBRANCH   9  13
ENDBRANCH   5   8
ENDBRANCH   3   4
ENDBRANCH   2   3
ENDBRANCH   1   2
BRANCH   1  28
ATOM     28  C   UNL A   1      42.006  19.058  27.045  1.00  0.00     0.002 C 
BRANCH  28  29
ATOM     29  C   UNL A   1      43.115  18.413  26.225  1.00  0.00     0.021 C 
BRANCH  29  30
ATOM     30  C   UNL A   1      43.589  19.278  25.086  1.00  0.00     0.116 C 
BRANCH  30  31
ATOM     31  N   UNL A   1      44.888  19.874  25.329  1.00  0.00    -0.352 N 
ATOM     32  C   UNL A   1      45.280  21.196  25.259  1.00  0.00     0.251 C 
ATOM     33  H   UNL A   1      45.598  19.240  25.582  1.00  0.00     0.163 HD
ATOM     34  O   UNL A   1      46.475  21.471  25.252  1.00  0.00    -0.269 OA
BRANCH  32  35
ATOM     35  C   UNL A   1      44.273  22.276  25.432  1.00  0.00     0.039 A 
ATOM     36  C   UNL A   1      44.456  23.393  24.602  1.00  0.00     0.014 A 
ATOM     37  C   UNL A   1      43.597  22.411  26.633  1.00  0.00     0.014 A 
ATOM     38  C   UNL A   1      44.291  24.659  25.135  1.00  0.00     0.010 A 
ATOM     39  C   UNL A   1      43.661  23.630  27.242  1.00  0.00     0.010 A 
ATOM     40  C   UNL A   1      44.052  24.741  26.496  1.00  0.00    -0.014 A 
BRANCH  40  41
ATOM     41  C   UNL A   1      43.989  25.961  27.254  1.00  0.00     0.031 A 
ATOM     42  C   UNL A   1      42.659  26.582  27.320  1.00  0.00     0.074 A 
ATOM     43  C   UNL A   1      45.037  26.264  28.051  1.00  0.00     0.049 A 
ATOM     44  N   UNL A   1      42.439  27.753  27.778  1.00  0.00    -0.248 NA
ATOM     45  C   UNL A   1      41.440  25.925  26.843  1.00  0.00     0.031 C 
ATOM     46  C   UNL A   1      45.081  27.167  29.194  1.00  0.00     0.029 A 
ATOM     47  N   UNL A   1      46.382  25.911  27.849  1.00  0.00    -0.354 N 
ATOM     48  C   UNL A   1      41.081  27.877  27.973  1.00  0.00     0.074 A 
ATOM     49  C   UNL A   1      40.495  26.763  27.276  1.00  0.00     0.031 C 
ATOM     50  C   UNL A   1      46.351  27.571  29.379  1.00  0.00     0.029 A 
ATOM     51  C   UNL A   1      47.124  27.042  28.270  1.00  0.00     0.049 A 
ATOM     52  H   UNL A   1      46.733  25.061  27.493  1.00  0.00     0.167 HD
ATOM     53  C   UNL A   1      40.672  28.845  28.838  1.00  0.00     0.037 A 
ATOM     54  C   UNL A   1      47.787  27.804  27.346  1.00  0.00     0.037 A 
ATOM     55  C   UNL A   1      41.834  29.636  29.242  1.00  0.00     0.049 A 
ATOM     56  C   UNL A   1      47.221  29.205  27.265  1.00  0.00     0.074 A 
ATOM     57  C   UNL A   1      42.666  29.590  30.350  1.00  0.00     0.029 A 
ATOM     58  N   UNL A   1      42.522  30.337  28.260  1.00  0.00    -0.354 N 
ATOM     59  N   UNL A   1      45.980  29.510  27.541  1.00  0.00    -0.248 NA
ATOM     60  C   UNL A   1      48.032  30.377  26.959  1.00  0.00     0.031 C 
ATOM     61  C   UNL A   1      43.878  30.249  30.008  1.00  0.00     0.029 A 
ATOM     62  C   UNL A   1      43.775  30.701  28.702  1.00  0.00     0.049 A 
ATOM     63  H   UNL A   1      42.162  30.546  27.368  1.00  0.00     0.167 HD
ATOM     64  C   UNL A   1      45.828  30.877  27.518  1.00  0.00     0.074 A 
ATOM     65  C   UNL A   1      47.140  31.368  27.138  1.00  0.00     0.031 C 
ATOM     66  C   UNL A   1      44.650  31.492  27.851  1.00  0.00     0.037 A 
BRANCH  53  67
ATOM     67  C   UNL A   1      39.326  28.967  29.511  1.00  0.00     0.064 A 
ATOM     68  C   UNL A   1      38.231  29.492  28.786  1.00  0.00     0.173 A 
ATOM     69  C   UNL A   1      39.034  28.637  30.847  1.00  0.00     0.173 A 
ATOM     70  F   UNL A   1      38.337  29.819  27.491  1.00  0.00    -0.203 F 
ATOM     71  C   UNL A   1      36.978  29.715  29.360  1.00  0.00     0.198 A 
ATOM     72  C   UNL A   1      37.783  28.874  31.427  1.00  0.00     0.198 A 
ATOM     73  F   UNL A   1      39.925  28.043  31.644  1.00  0.00    -0.203 F 
ATOM     74  F   UNL A   1      35.992  30.233  28.616  1.00  0.00    -0.200 F 
ATOM     75  C   UNL A   1      36.756  29.416  30.685  1.00  0.00     0.200 A 
ATOM     76  F   UNL A   1      37.582  28.567  32.718  1.00  0.00    -0.200 F 
ATOM     77  F   UNL A   1      35.557  29.636  31.242  1.00  0.00    -0.200 F 
ENDBRANCH  53  67
BRANCH  54  78
ATOM     78  C   UNL A   1      48.308  26.961  26.226  1.00  0.00     0.064 A 
ATOM     79  C   UNL A   1      47.694  27.154  24.967  1.00  0.00     0.173 A 
ATOM     80  C   UNL A   1      49.618  26.466  26.230  1.00  0.00     0.173 A 
ATOM     81  F   UNL A   1      46.426  27.590  24.905  1.00  0.00    -0.203 F 
ATOM     82  C   UNL A   1      48.431  27.090  23.786  1.00  0.00     0.198 A 
ATOM     83  C   UNL A   1      50.336  26.349  25.033  1.00  0.00     0.198 A 
ATOM     84  F   UNL A   1      50.254  26.236  27.387  1.00  0.00    -0.203 F 
ATOM     85  F   UNL A   1      47.875  27.483  22.631  1.00  0.00    -0.200 F 
ATOM     86  C   UNL A   1      49.765  26.730  23.827  1.00  0.00     0.200 A 
ATOM     87  F   UNL A   1      51.622  25.972  25.062  1.00  0.00    -0.200 F 
ATOM     88  F   UNL A   1      50.511  26.794  22.714  1.00  0.00    -0.200 F 
ENDBRANCH  54  78
BRANCH  66  89
ATOM     89  C   UNL A   1      44.213  32.914  27.518  1.00  0.00     0.064 A 
ATOM     90  C   UNL A   1      43.975  33.917  28.470  1.00  0.00     0.173 A 
ATOM     91  C   UNL A   1      44.163  33.364  26.167  1.00  0.00     0.173 A 
ATOM     92  F   UNL A   1      44.120  33.697  29.780  1.00  0.00    -0.203 F 
ATOM     93  C   UNL A   1      43.639  35.227  28.107  1.00  0.00     0.198 A 
ATOM     94  C   UNL A   1      43.918  34.688  25.812  1.00  0.00     0.198 A 
ATOM     95  F   UNL A   1      44.383  32.549  25.127  1.00  0.00    -0.203 F 
ATOM     96  F   UNL A   1      43.359  36.122  29.064  1.00  0.00    -0.200 F 
ATOM     97  C   UNL A   1      43.627  35.616  26.783  1.00  0.00     0.200 A 
ATOM     98  F   UNL A   1      43.988  35.055  24.525  1.00  0.00    -0.200 F 
ATOM     99  F   UNL A   1      43.359  36.884  26.446  1.00  0.00    -0.200 F 
ENDBRANCH  66  89
ENDBRANCH  40  41
ENDBRANCH  32  35
ENDBRANCH  30  31
ENDBRANCH  29  30
ENDBRANCH  28  29
ENDBRANCH   1  28
TORSDOF 16
ENDMDL
MODEL 2
REMARK VINA RESULT:     -13.4      5.187     11.599
REMARK SMILES COc1ccc(NC(=O)N[C@@H]2C=C[C@H](C(=O)NCCCCCCNC(=O)c3ccc(-c4c5nc(c(-c6c(F)c(F)c(F)c(F)c6F)c6ccc([nH]6)c(-c6c(F)c(F)c(F)c(F)c6F)c6nc(c(-c7c(F)c(F)c(F)c(F)c7F)c7ccc4[nH]7)C=C6)C=C5)cc3)C2)c(C)c1
REMARK SMILES IDX 20 1 19 2 18 3 17 4 15 5 16 6 14 8 11 9 12 10 90 11 13 12
REMARK SMILES IDX 10 13 7 14 8 15 9 17 6 19 3 20 4 21 93 22 5 23 91 24 92 25
REMARK SMILES IDX 2 26 1 27 21 28 22 29 23 30 24 31 25 32 26 34 27 35 28 36
REMARK SMILES IDX 89 37 29 38 88 39 30 40 31 41 32 42 82 43 33 44 87 45 81 46
REMARK SMILES IDX 83 47 34 48 86 49 80 50 79 51 35 53 67 54 47 55 66 56 48 57
REMARK SMILES IDX 51 58 65 59 84 60 49 61 50 62 64 64 85 65 52 66 36 67 37 68
REMARK SMILES IDX 45 69 38 70 39 71 43 72 46 73 40 74 41 75 44 76 42 77 68 78
REMARK SMILES IDX 69 79 77 80 70 81 71 82 75 83 78 84 72 85 73 86 76 87 74 88
REMARK SMILES IDX 53 89 54 90 62 91 55 92 56 93 60 94 63 95 57 96 58 97 61 98
REMARK SMILES IDX 59 99
REMARK H PARENT 17 7 7 16 10 18 24 33 83 52 51 63
REMARK Flexibility Score: inf
ROOT
ATOM      1  C   UNL A   1      33.730  34.200  28.319  1.00  0.00     0.002 C 
ENDROOT
BRANCH   1   2
ATOM      2  C   UNL A   1      34.937  33.311  27.975  1.00  0.00     0.021 C 
BRANCH   2   3
ATOM      3  C   UNL A   1      34.637  31.808  27.939  1.00  0.00     0.116 C 
BRANCH   3   4
ATOM      4  N   UNL A   1      33.241  31.601  27.673  1.00  0.00    -0.356 N 
ATOM      5  C   UNL A   1      32.646  30.802  26.748  1.00  0.00     0.227 C 
ATOM      6  O   UNL A   1      31.573  31.249  26.345  1.00  0.00    -0.274 OA
ATOM      7  H   UNL A   1      32.625  32.115  28.242  1.00  0.00     0.163 HD
BRANCH   5   8
ATOM      8  C   UNL A   1      33.366  29.318  26.436  1.00  0.00     0.103 C 
ATOM      9  C   UNL A   1      32.369  27.274  24.137  1.00  0.00     0.107 C 
ATOM     10  C   UNL A   1      32.584  26.280  25.739  1.00  0.00    -0.006 C 
ATOM     11  C   UNL A   1      33.189  29.127  24.356  1.00  0.00     0.047 C 
ATOM     12  C   UNL A   1      32.947  27.202  26.959  1.00  0.00    -0.016 C 
BRANCH   9  13
ATOM     13  N   UNL A   1      30.656  27.291  24.229  1.00  0.00    -0.332 N 
ATOM     14  N   UNL A   1      29.747  25.061  23.337  1.00  0.00    -0.308 N 
ATOM     15  C   UNL A   1      29.570  26.390  23.892  1.00  0.00     0.319 C 
ATOM     16  H   UNL A   1      28.938  24.559  23.090  1.00  0.00     0.171 HD
ATOM     17  O   UNL A   1      28.421  26.782  24.124  1.00  0.00    -0.248 OA
ATOM     18  H   UNL A   1      30.322  28.135  24.611  1.00  0.00     0.165 HD
BRANCH  14  19
ATOM     19  C   UNL A   1      30.995  24.435  23.126  1.00  0.00     0.046 A 
ATOM     20  C   UNL A   1      34.160  22.926  24.279  1.00  0.00     0.119 A 
ATOM     21  C   UNL A   1      32.658  22.582  25.139  1.00  0.00     0.048 A 
ATOM     22  C   UNL A   1      33.981  23.883  22.839  1.00  0.00     0.052 A 
ATOM     23  C   UNL A   1      31.027  23.401  24.230  1.00  0.00     0.030 A 
ATOM     24  C   UNL A   1      32.468  24.649  22.332  1.00  0.00    -0.024 A 
ATOM     25  C   UNL A   1      32.525  25.504  21.100  1.00  0.00     0.047 C 
BRANCH  20  26
ATOM     26  O   UNL A   1      35.370  22.395  24.576  1.00  0.00    -0.497 OA
ATOM     27  C   UNL A   1      35.913  22.945  25.772  1.00  0.00     0.278 C 
ENDBRANCH  20  26
ENDBRANCH  14  19
ENDBRANCH   9  13
ENDBRANCH   5   8
ENDBRANCH   3   4
ENDBRANCH   2   3
ENDBRANCH   1   2
BRANCH   1  28
ATOM     28  C   UNL A   1      33.993  35.710  28.336  1.00  0.00     0.002 C 
BRANCH  28  29
ATOM     29  C   UNL A   1      33.184  36.498  29.358  1.00  0.00     0.021 C 
BRANCH  29  30
ATOM     30  C   UNL A   1      32.903  35.721  30.618  1.00  0.00     0.116 C 
BRANCH  30  31
ATOM     31  N   UNL A   1      33.721  36.141  31.738  1.00  0.00    -0.352 N 
ATOM     32  C   UNL A   1      34.451  35.383  32.631  1.00  0.00     0.251 C 
ATOM     33  H   UNL A   1      33.761  37.114  31.885  1.00  0.00     0.163 HD
ATOM     34  O   UNL A   1      34.872  35.902  33.660  1.00  0.00    -0.269 OA
BRANCH  32  35
ATOM     35  C   UNL A   1      34.924  34.029  32.239  1.00  0.00     0.039 A 
ATOM     36  C   UNL A   1      35.100  33.133  33.304  1.00  0.00     0.014 A 
ATOM     37  C   UNL A   1      35.636  33.854  31.064  1.00  0.00     0.014 A 
ATOM     38  C   UNL A   1      36.218  32.318  33.318  1.00  0.00     0.010 A 
ATOM     39  C   UNL A   1      36.853  33.247  31.165  1.00  0.00     0.010 A 
ATOM     40  C   UNL A   1      37.152  32.517  32.316  1.00  0.00    -0.014 A 
BRANCH  40  41
ATOM     41  C   UNL A   1      38.434  31.870  32.238  1.00  0.00     0.031 A 
ATOM     42  C   UNL A   1      38.455  30.631  31.448  1.00  0.00     0.074 A 
ATOM     43  C   UNL A   1      39.520  32.573  32.625  1.00  0.00     0.049 A 
ATOM     44  N   UNL A   1      39.441  29.820  31.418  1.00  0.00    -0.248 NA
ATOM     45  C   UNL A   1      37.331  30.183  30.624  1.00  0.00     0.031 C 
ATOM     46  C   UNL A   1      40.920  32.348  32.285  1.00  0.00     0.029 A 
ATOM     47  N   UNL A   1      39.569  33.585  33.599  1.00  0.00    -0.354 N 
ATOM     48  C   UNL A   1      39.241  28.960  30.360  1.00  0.00     0.074 A 
ATOM     49  C   UNL A   1      37.871  29.153  29.969  1.00  0.00     0.031 C 
ATOM     50  C   UNL A   1      41.692  32.908  33.234  1.00  0.00     0.029 A 
ATOM     51  C   UNL A   1      40.799  33.383  34.275  1.00  0.00     0.049 A 
ATOM     52  H   UNL A   1      38.897  34.283  33.773  1.00  0.00     0.167 HD
ATOM     53  C   UNL A   1      40.340  28.315  29.880  1.00  0.00     0.037 A 
ATOM     54  C   UNL A   1      40.799  32.937  35.568  1.00  0.00     0.037 A 
ATOM     55  C   UNL A   1      41.477  28.609  30.753  1.00  0.00     0.049 A 
ATOM     56  C   UNL A   1      41.428  31.567  35.689  1.00  0.00     0.074 A 
ATOM     57  C   UNL A   1      42.508  29.531  30.679  1.00  0.00     0.029 A 
ATOM     58  N   UNL A   1      41.405  28.201  32.080  1.00  0.00    -0.354 N 
ATOM     59  N   UNL A   1      41.435  30.678  34.730  1.00  0.00    -0.248 NA
ATOM     60  C   UNL A   1      42.176  31.131  36.862  1.00  0.00     0.031 C 
ATOM     61  C   UNL A   1      43.037  29.695  31.988  1.00  0.00     0.029 A 
ATOM     62  C   UNL A   1      42.335  28.866  32.848  1.00  0.00     0.049 A 
ATOM     63  H   UNL A   1      40.774  27.528  32.423  1.00  0.00     0.167 HD
ATOM     64  C   UNL A   1      42.212  29.606  35.104  1.00  0.00     0.074 A 
ATOM     65  C   UNL A   1      42.640  29.939  36.451  1.00  0.00     0.031 C 
ATOM     66  C   UNL A   1      42.471  28.556  34.263  1.00  0.00     0.037 A 
BRANCH  53  67
ATOM     67  C   UNL A   1      40.491  27.627  28.545  1.00  0.00     0.064 A 
ATOM     68  C   UNL A   1      39.919  26.347  28.354  1.00  0.00     0.173 A 
ATOM     69  C   UNL A   1      41.198  28.120  27.433  1.00  0.00     0.173 A 
ATOM     70  F   UNL A   1      39.182  25.757  29.305  1.00  0.00    -0.203 F 
ATOM     71  C   UNL A   1      40.085  25.610  27.180  1.00  0.00     0.198 A 
ATOM     72  C   UNL A   1      41.377  27.375  26.262  1.00  0.00     0.198 A 
ATOM     73  F   UNL A   1      41.719  29.348  27.409  1.00  0.00    -0.203 F 
ATOM     74  F   UNL A   1      39.528  24.395  27.077  1.00  0.00    -0.200 F 
ATOM     75  C   UNL A   1      40.824  26.119  26.136  1.00  0.00     0.200 A 
ATOM     76  F   UNL A   1      42.093  27.892  25.252  1.00  0.00    -0.200 F 
ATOM     77  F   UNL A   1      40.993  25.411  25.012  1.00  0.00    -0.200 F 
ENDBRANCH  53  67
BRANCH  54  78
ATOM     78  C   UNL A   1      39.627  33.477  36.325  1.00  0.00     0.064 A 
ATOM     79  C   UNL A   1      38.632  32.537  36.679  1.00  0.00     0.173 A 
ATOM     80  C   UNL A   1      39.733  34.626  37.118  1.00  0.00     0.173 A 
ATOM     81  F   UNL A   1      38.461  31.435  35.931  1.00  0.00    -0.203 F 
ATOM     82  C   UNL A   1      37.954  32.625  37.893  1.00  0.00     0.198 A 
ATOM     83  C   UNL A   1      39.005  34.735  38.309  1.00  0.00     0.198 A 
ATOM     84  F   UNL A   1      40.638  35.571  36.827  1.00  0.00    -0.203 F 
ATOM     85  F   UNL A   1      37.174  31.611  38.297  1.00  0.00    -0.200 F 
ATOM     86  C   UNL A   1      38.176  33.704  38.728  1.00  0.00     0.200 A 
ATOM     87  F   UNL A   1      39.194  35.794  39.110  1.00  0.00    -0.200 F 
ATOM     88  F   UNL A   1      37.628  33.729  39.952  1.00  0.00    -0.200 F 
ENDBRANCH  54  78
BRANCH  66  89
ATOM     89  C   UNL A   1      42.969  27.164  34.634  1.00  0.00     0.064 A 
ATOM     90  C   UNL A   1      44.317  26.825  34.821  1.00  0.00     0.173 A 
ATOM     91  C   UNL A   1      42.052  26.127  34.971  1.00  0.00     0.173 A 
ATOM     92  F   UNL A   1      45.298  27.723  34.686  1.00  0.00    -0.203 F 
ATOM     93  C   UNL A   1      44.716  25.545  35.226  1.00  0.00     0.198 A 
ATOM     94  C   UNL A   1      42.449  24.885  35.460  1.00  0.00     0.198 A 
ATOM     95  F   UNL A   1      40.724  26.279  34.872  1.00  0.00    -0.203 F 
ATOM     96  F   UNL A   1      46.023  25.265  35.323  1.00  0.00    -0.200 F 
ATOM     97  C   UNL A   1      43.786  24.583  35.562  1.00  0.00     0.200 A 
ATOM     98  F   UNL A   1      41.524  23.998  35.850  1.00  0.00    -0.200 F 
ATOM     99  F   UNL A   1      44.174  23.381  36.002  1.00  0.00    -0.200 F 
ENDBRANCH  66  89
ENDBRANCH  40  41
ENDBRANCH  32  35
ENDBRANCH  30  31
ENDBRANCH  29  30
ENDBRANCH  28  29
ENDBRANCH   1  28
TORSDOF 16
ENDMDL
MODEL 3
REMARK VINA RESULT:     -13.3      0.774      1.651
REMARK SMILES COc1ccc(NC(=O)N[C@@H]2C=C[C@H](C(=O)NCCCCCCNC(=O)c3ccc(-c4c5nc(c(-c6c(F)c(F)c(F)c(F)c6F)c6ccc([nH]6)c(-c6c(F)c(F)c(F)c(F)c6F)c6nc(c(-c7c(F)c(F)c(F)c(F)c7F)c7ccc4[nH]7)C=C6)C=C5)cc3)C2)c(C)c1
REMARK SMILES IDX 20 1 19 2 18 3 17 4 15 5 16 6 14 8 11 9 12 10 90 11 13 12
REMARK SMILES IDX 10 13 7 14 8 15 9 17 6 19 3 20 4 21 93 22 5 23 91 24 92 25
REMARK SMILES IDX 2 26 1 27 21 28 22 29 23 30 24 31 25 32 26 34 27 35 28 36
REMARK SMILES IDX 89 37 29 38 88 39 30 40 31 41 32 42 82 43 33 44 87 45 81 46
REMARK SMILES IDX 83 47 34 48 86 49 80 50 79 51 35 53 67 54 47 55 66 56 48 57
REMARK SMILES IDX 51 58 65 59 84 60 49 61 50 62 64 64 85 65 52 66 36 67 37 68
REMARK SMILES IDX 45 69 38 70 39 71 43 72 46 73 40 74 41 75 44 76 42 77 68 78
REMARK SMILES IDX 69 79 77 80 70 81 71 82 75 83 78 84 72 85 73 86 76 87 74 88
REMARK SMILES IDX 53 89 54 90 62 91 55 92 56 93 60 94 63 95 57 96 58 97 61 98
REMARK SMILES IDX 59 99
REMARK H PARENT 17 7 7 16 10 18 24 33 83 52 51 63
REMARK Flexibility Score: inf
ROOT
ATOM      1  C   UNL A   1      40.893  20.127  26.178  1.00  0.00     0.002 C 
ENDROOT
BRANCH   1   2
ATOM      2  C   UNL A   1      40.169  21.322  26.819  1.00  0.00     0.021 C 
BRANCH   2   3
ATOM      3  C   UNL A   1      39.140  22.009  25.914  1.00  0.00     0.116 C 
BRANCH   3   4
ATOM      4  N   UNL A   1      38.262  21.024  25.348  1.00  0.00    -0.356 N 
ATOM      5  C   UNL A   1      36.952  21.130  25.002  1.00  0.00     0.227 C 
ATOM      6  O   UNL A   1      36.334  20.072  25.127  1.00  0.00    -0.274 OA
ATOM      7  H   UNL A   1      38.668  20.142  25.188  1.00  0.00     0.163 HD
BRANCH   5   8
ATOM      8  C   UNL A   1      36.445  22.586  24.338  1.00  0.00     0.103 C 
ATOM      9  C   UNL A   1      33.805  24.189  25.294  1.00  0.00     0.107 C 
ATOM     10  C   UNL A   1      33.761  24.084  23.400  1.00  0.00    -0.006 C 
ATOM     11  C   UNL A   1      35.634  23.606  25.979  1.00  0.00     0.047 C 
ATOM     12  C   UNL A   1      34.940  23.212  22.832  1.00  0.00    -0.016 C 
BRANCH   9  13
ATOM     13  N   UNL A   1      32.601  22.986  25.514  1.00  0.00    -0.332 N 
ATOM     14  N   UNL A   1      30.288  24.101  25.478  1.00  0.00    -0.308 N 
ATOM     15  C   UNL A   1      31.153  22.944  25.602  1.00  0.00     0.319 C 
ATOM     16  H   UNL A   1      29.323  23.965  25.614  1.00  0.00     0.171 HD
ATOM     17  O   UNL A   1      30.633  21.835  25.765  1.00  0.00    -0.248 OA
ATOM     18  H   UNL A   1      32.997  22.089  25.604  1.00  0.00     0.165 HD
BRANCH  14  19
ATOM     19  C   UNL A   1      30.729  25.409  25.176  1.00  0.00     0.046 A 
ATOM     20  C   UNL A   1      32.417  27.906  23.045  1.00  0.00     0.119 A 
ATOM     21  C   UNL A   1      31.390  26.673  22.309  1.00  0.00     0.048 A 
ATOM     22  C   UNL A   1      32.439  27.903  24.783  1.00  0.00     0.052 A 
ATOM     23  C   UNL A   1      30.448  25.507  23.692  1.00  0.00     0.030 A 
ATOM     24  C   UNL A   1      31.673  26.664  25.789  1.00  0.00    -0.024 A 
ATOM     25  C   UNL A   1      31.866  26.785  27.273  1.00  0.00     0.047 C 
BRANCH  20  26
ATOM     26  O   UNL A   1      33.046  28.901  22.376  1.00  0.00    -0.497 OA
ATOM     27  C   UNL A   1      34.403  28.575  22.092  1.00  0.00     0.278 C 
ENDBRANCH  20  26
ENDBRANCH  14  19
ENDBRANCH   9  13
ENDBRANCH   5   8
ENDBRANCH   3   4
ENDBRANCH   2   3
ENDBRANCH   1   2
BRANCH   1  28
ATOM     28  C   UNL A   1      41.738  19.268  27.127  1.00  0.00     0.002 C 
BRANCH  28  29
ATOM     29  C   UNL A   1      42.930  18.572  26.484  1.00  0.00     0.021 C 
BRANCH  29  30
ATOM     30  C   UNL A   1      43.431  19.275  25.249  1.00  0.00     0.116 C 
BRANCH  30  31
ATOM     31  N   UNL A   1      44.751  19.847  25.419  1.00  0.00    -0.352 N 
ATOM     32  C   UNL A   1      45.180  21.148  25.242  1.00  0.00     0.251 C 
ATOM     33  H   UNL A   1      45.450  19.213  25.702  1.00  0.00     0.163 HD
ATOM     34  O   UNL A   1      46.381  21.386  25.188  1.00  0.00    -0.269 OA
BRANCH  32  35
ATOM     35  C   UNL A   1      44.208  22.268  25.356  1.00  0.00     0.039 A 
ATOM     36  C   UNL A   1      44.483  23.374  24.536  1.00  0.00     0.014 A 
ATOM     37  C   UNL A   1      43.471  22.434  26.517  1.00  0.00     0.014 A 
ATOM     38  C   UNL A   1      44.339  24.647  25.058  1.00  0.00     0.010 A 
ATOM     39  C   UNL A   1      43.548  23.651  27.127  1.00  0.00     0.010 A 
ATOM     40  C   UNL A   1      44.025  24.743  26.403  1.00  0.00    -0.014 A 
BRANCH  40  41
ATOM     41  C   UNL A   1      43.968  25.967  27.155  1.00  0.00     0.031 A 
ATOM     42  C   UNL A   1      42.644  26.603  27.204  1.00  0.00     0.074 A 
ATOM     43  C   UNL A   1      45.010  26.261  27.963  1.00  0.00     0.049 A 
ATOM     44  N   UNL A   1      42.433  27.779  27.655  1.00  0.00    -0.248 NA
ATOM     45  C   UNL A   1      41.424  25.959  26.716  1.00  0.00     0.031 C 
ATOM     46  C   UNL A   1      45.052  27.168  29.103  1.00  0.00     0.029 A 
ATOM     47  N   UNL A   1      46.353  25.892  27.777  1.00  0.00    -0.354 N 
ATOM     48  C   UNL A   1      41.074  27.919  27.833  1.00  0.00     0.074 A 
ATOM     49  C   UNL A   1      40.484  26.810  27.135  1.00  0.00     0.031 C 
ATOM     50  C   UNL A   1      46.324  27.559  29.300  1.00  0.00     0.029 A 
ATOM     51  C   UNL A   1      47.104  27.017  28.202  1.00  0.00     0.049 A 
ATOM     52  H   UNL A   1      46.698  25.037  27.430  1.00  0.00     0.167 HD
ATOM     53  C   UNL A   1      40.667  28.896  28.690  1.00  0.00     0.037 A 
ATOM     54  C   UNL A   1      47.785  27.767  27.283  1.00  0.00     0.037 A 
ATOM     55  C   UNL A   1      41.834  29.675  29.104  1.00  0.00     0.049 A 
ATOM     56  C   UNL A   1      47.237  29.173  27.189  1.00  0.00     0.074 A 
ATOM     57  C   UNL A   1      42.652  29.624  30.221  1.00  0.00     0.029 A 
ATOM     58  N   UNL A   1      42.541  30.364  28.126  1.00  0.00    -0.354 N 
ATOM     59  N   UNL A   1      45.997  29.494  27.450  1.00  0.00    -0.248 NA
ATOM     60  C   UNL A   1      48.065  30.335  26.888  1.00  0.00     0.031 C 
ATOM     61  C   UNL A   1      43.876  30.268  29.890  1.00  0.00     0.029 A 
ATOM     62  C   UNL A   1      43.792  30.716  28.581  1.00  0.00     0.049 A 
ATOM     63  H   UNL A   1      42.193  30.573  27.229  1.00  0.00     0.167 HD
ATOM     64  C   UNL A   1      45.860  30.863  27.419  1.00  0.00     0.074 A 
ATOM     65  C   UNL A   1      47.183  31.337  27.052  1.00  0.00     0.031 C 
ATOM     66  C   UNL A   1      44.686  31.493  27.736  1.00  0.00     0.037 A 
BRANCH  53  67
ATOM     67  C   UNL A   1      39.315  29.036  29.347  1.00  0.00     0.064 A 
ATOM     68  C   UNL A   1      38.226  29.539  28.597  1.00  0.00     0.173 A 
ATOM     69  C   UNL A   1      39.011  28.745  30.690  1.00  0.00     0.173 A 
ATOM     70  F   UNL A   1      38.343  29.828  27.294  1.00  0.00    -0.203 F 
ATOM     71  C   UNL A   1      36.968  29.777  29.154  1.00  0.00     0.198 A 
ATOM     72  C   UNL A   1      37.755  28.997  31.252  1.00  0.00     0.198 A 
ATOM     73  F   UNL A   1      39.895  28.175  31.511  1.00  0.00    -0.203 F 
ATOM     74  F   UNL A   1      35.988  30.273  28.386  1.00  0.00    -0.200 F 
ATOM     75  C   UNL A   1      36.734  29.517  30.485  1.00  0.00     0.200 A 
ATOM     76  F   UNL A   1      37.543  28.728  32.548  1.00  0.00    -0.200 F 
ATOM     77  F   UNL A   1      35.531  29.752  31.024  1.00  0.00    -0.200 F 
ENDBRANCH  53  67
BRANCH  54  78
ATOM     78  C   UNL A   1      48.309  26.913  26.172  1.00  0.00     0.064 A 
ATOM     79  C   UNL A   1      47.702  27.097  24.909  1.00  0.00     0.173 A 
ATOM     80  C   UNL A   1      49.618  26.414  26.186  1.00  0.00     0.173 A 
ATOM     81  F   UNL A   1      46.435  27.537  24.837  1.00  0.00    -0.203 F 
ATOM     82  C   UNL A   1      48.444  27.022  23.732  1.00  0.00     0.198 A 
ATOM     83  C   UNL A   1      50.341  26.285  24.994  1.00  0.00     0.198 A 
ATOM     84  F   UNL A   1      50.248  26.192  27.348  1.00  0.00    -0.203 F 
ATOM     85  F   UNL A   1      47.895  27.406  22.570  1.00  0.00    -0.200 F 
ATOM     86  C   UNL A   1      49.777  26.658  23.782  1.00  0.00     0.200 A 
ATOM     87  F   UNL A   1      51.626  25.904  25.032  1.00  0.00    -0.200 F 
ATOM     88  F   UNL A   1      50.529  26.710  22.672  1.00  0.00    -0.200 F 
ENDBRANCH  54  78
BRANCH  66  89
ATOM     89  C   UNL A   1      44.269  32.918  27.393  1.00  0.00     0.064 A 
ATOM     90  C   UNL A   1      43.843  33.339  26.124  1.00  0.00     0.173 A 
ATOM     91  C   UNL A   1      44.140  33.905  28.412  1.00  0.00     0.173 A 
ATOM     92  F   UNL A   1      43.767  32.498  25.089  1.00  0.00    -0.203 F 
ATOM     93  C   UNL A   1      43.408  34.647  25.879  1.00  0.00     0.198 A 
ATOM     94  C   UNL A   1      43.621  35.177  28.182  1.00  0.00     0.198 A 
ATOM     95  F   UNL A   1      44.480  33.674  29.688  1.00  0.00    -0.203 F 
ATOM     96  F   UNL A   1      43.078  35.006  24.631  1.00  0.00    -0.200 F 
ATOM     97  C   UNL A   1      43.281  35.559  26.907  1.00  0.00     0.200 A 
ATOM     98  F   UNL A   1      43.436  36.015  29.211  1.00  0.00    -0.200 F 
ATOM     99  F   UNL A   1      42.811  36.790  26.674  1.00  0.00    -0.200 F 
ENDBRANCH  66  89
ENDBRANCH  40  41
ENDBRANCH  32  35
ENDBRANCH  30  31
ENDBRANCH  29  30
ENDBRANCH  28  29
ENDBRANCH   1  28
TORSDOF 16
ENDMDL
