MODEL 1
REMARK VINA RESULT:     -12.6      0.000      0.000
REMARK SMILES O=C(NCCCCCCNC(=O)[C@@H]1CN(C(=O)CCC(F)(F)F)C[C@H]1c1ccc2c(c1)OCO2)c1ccc(-c2c3nc(c(-c4c(F)c(F)c(F)c(F)c4F)c4ccc([nH]4)c(-c4c(F)c(F)c(F)c(F)c4F)c4nc(c(-c5c(F)c(F)c(F)c(F)c5F)c5ccc2[nH]5)C=C4)C=C3)cc1
REMARK SMILES IDX 7 1 6 2 5 3 4 4 3 5 1 6 2 7 35 9 36 10 97 11 37 12 96 13
REMARK SMILES IDX 38 14 39 15 40 16 90 17 41 18 95 19 89 20 91 21 42 22 94 23
REMARK SMILES IDX 88 24 87 25 43 27 75 28 55 29 74 30 56 31 59 32 73 33 92 34
REMARK SMILES IDX 57 35 58 36 72 38 93 39 60 40 44 41 45 42 53 43 46 44 47 45
REMARK SMILES IDX 51 46 54 47 48 48 49 49 52 50 50 51 76 52 77 53 85 54 78 55
REMARK SMILES IDX 79 56 83 57 86 58 80 59 81 60 84 61 82 62 61 63 62 64 70 65
REMARK SMILES IDX 63 66 64 67 68 68 71 69 65 70 66 71 69 72 67 73 8 74 9 75
REMARK SMILES IDX 10 76 11 77 12 79 13 80 14 81 25 82 15 83 24 84 26 85 27 86
REMARK SMILES IDX 31 87 28 88 30 89 29 90 32 91 34 92 33 93 16 94 17 95 18 96
REMARK SMILES IDX 19 97 20 98 21 99 22 100 23 101
REMARK H PARENT 3 8 91 26 59 37 10 78
REMARK Flexibility Score: inf
ROOT
ATOM      1  C   UNL A   1      34.474  32.163  28.744  1.00  0.00     0.002 C 
ENDROOT
BRANCH   1   2
ATOM      2  C   UNL A   1      34.578  33.684  28.885  1.00  0.00     0.002 C 
BRANCH   2   3
ATOM      3  C   UNL A   1      33.253  34.441  28.987  1.00  0.00     0.021 C 
BRANCH   3   4
ATOM      4  C   UNL A   1      33.366  35.916  29.361  1.00  0.00     0.116 C 
BRANCH   4   5
ATOM      5  N   UNL A   1      32.557  36.263  30.518  1.00  0.00    -0.352 N 
ATOM      6  O   UNL A   1      31.776  36.118  32.628  1.00  0.00    -0.269 OA
ATOM      7  C   UNL A   1      32.661  35.840  31.816  1.00  0.00     0.251 C 
ATOM      8  H   UNL A   1      31.826  36.899  30.342  1.00  0.00     0.163 HD
BRANCH   7   9
ATOM      9  C   UNL A   1      33.819  35.034  32.252  1.00  0.00     0.039 A 
ATOM     10  C   UNL A   1      33.659  33.714  32.685  1.00  0.00     0.014 A 
ATOM     11  C   UNL A   1      35.095  35.598  32.180  1.00  0.00     0.014 A 
ATOM     12  C   UNL A   1      34.760  32.996  33.149  1.00  0.00     0.010 A 
ATOM     13  C   UNL A   1      36.207  34.855  32.581  1.00  0.00     0.010 A 
ATOM     14  C   UNL A   1      36.045  33.556  33.087  1.00  0.00    -0.014 A 
BRANCH  14  15
ATOM     15  C   UNL A   1      37.231  32.765  33.498  1.00  0.00     0.031 A 
ATOM     16  C   UNL A   1      37.952  33.076  34.776  1.00  0.00     0.074 A 
ATOM     17  C   UNL A   1      37.689  31.799  32.680  1.00  0.00     0.049 A 
ATOM     18  N   UNL A   1      39.068  32.573  35.241  1.00  0.00    -0.248 NA
ATOM     19  C   UNL A   1      37.344  34.096  35.640  1.00  0.00     0.031 C 
ATOM     20  C   UNL A   1      37.074  31.413  31.410  1.00  0.00     0.029 A 
ATOM     21  N   UNL A   1      38.787  30.983  32.782  1.00  0.00    -0.354 N 
ATOM     22  C   UNL A   1      39.310  33.233  36.439  1.00  0.00     0.074 A 
ATOM     23  C   UNL A   1      38.237  34.189  36.616  1.00  0.00     0.031 C 
ATOM     24  C   UNL A   1      37.802  30.438  30.848  1.00  0.00     0.029 A 
ATOM     25  C   UNL A   1      38.968  30.177  31.686  1.00  0.00     0.049 A 
ATOM     26  H   UNL A   1      39.386  30.977  33.563  1.00  0.00     0.167 HD
ATOM     27  C   UNL A   1      40.334  33.051  37.308  1.00  0.00     0.037 A 
ATOM     28  C   UNL A   1      39.981  29.348  31.367  1.00  0.00     0.037 A 
ATOM     29  C   UNL A   1      41.395  32.095  37.118  1.00  0.00     0.049 A 
ATOM     30  C   UNL A   1      41.129  29.194  32.322  1.00  0.00     0.074 A 
ATOM     31  C   UNL A   1      42.453  31.799  37.959  1.00  0.00     0.029 A 
ATOM     32  N   UNL A   1      41.541  31.290  35.996  1.00  0.00    -0.354 N 
ATOM     33  N   UNL A   1      41.329  29.787  33.474  1.00  0.00    -0.248 NA
ATOM     34  C   UNL A   1      42.191  28.255  31.939  1.00  0.00     0.031 C 
ATOM     35  C   UNL A   1      43.272  30.864  37.320  1.00  0.00     0.029 A 
ATOM     36  C   UNL A   1      42.690  30.522  36.109  1.00  0.00     0.049 A 
ATOM     37  H   UNL A   1      40.920  31.267  35.232  1.00  0.00     0.167 HD
ATOM     38  C   UNL A   1      42.520  29.277  33.967  1.00  0.00     0.074 A 
ATOM     39  C   UNL A   1      43.001  28.322  32.988  1.00  0.00     0.031 C 
ATOM     40  C   UNL A   1      43.152  29.568  35.130  1.00  0.00     0.037 A 
BRANCH  27  41
ATOM     41  C   UNL A   1      40.377  33.936  38.522  1.00  0.00     0.064 A 
ATOM     42  C   UNL A   1      39.736  33.588  39.722  1.00  0.00     0.173 A 
ATOM     43  C   UNL A   1      41.080  35.151  38.489  1.00  0.00     0.173 A 
ATOM     44  F   UNL A   1      39.044  32.442  39.810  1.00  0.00    -0.203 F 
ATOM     45  C   UNL A   1      39.757  34.442  40.822  1.00  0.00     0.198 A 
ATOM     46  C   UNL A   1      41.129  35.986  39.602  1.00  0.00     0.198 A 
ATOM     47  F   UNL A   1      41.722  35.531  37.374  1.00  0.00    -0.203 F 
ATOM     48  F   UNL A   1      39.080  34.118  41.933  1.00  0.00    -0.200 F 
ATOM     49  C   UNL A   1      40.456  35.638  40.763  1.00  0.00     0.200 A 
ATOM     50  F   UNL A   1      41.819  37.134  39.548  1.00  0.00    -0.200 F 
ATOM     51  F   UNL A   1      40.472  36.460  41.822  1.00  0.00    -0.200 F 
ENDBRANCH  27  41
BRANCH  28  52
ATOM     52  C   UNL A   1      39.939  28.625  30.072  1.00  0.00     0.064 A 
ATOM     53  C   UNL A   1      40.510  29.175  28.918  1.00  0.00     0.173 A 
ATOM     54  C   UNL A   1      39.380  27.340  29.979  1.00  0.00     0.173 A 
ATOM     55  F   UNL A   1      41.042  30.406  28.956  1.00  0.00    -0.203 F 
ATOM     56  C   UNL A   1      40.527  28.466  27.719  1.00  0.00     0.198 A 
ATOM     57  C   UNL A   1      39.423  26.622  28.786  1.00  0.00     0.198 A 
ATOM     58  F   UNL A   1      38.829  26.767  31.058  1.00  0.00    -0.203 F 
ATOM     59  F   UNL A   1      41.061  29.023  26.622  1.00  0.00    -0.200 F 
ATOM     60  C   UNL A   1      39.993  27.188  27.656  1.00  0.00     0.200 A 
ATOM     61  F   UNL A   1      38.925  25.379  28.737  1.00  0.00    -0.200 F 
ATOM     62  F   UNL A   1      40.030  26.499  26.507  1.00  0.00    -0.200 F 
ENDBRANCH  28  52
BRANCH  40  63
ATOM     63  C   UNL A   1      44.412  28.815  35.446  1.00  0.00     0.064 A 
ATOM     64  C   UNL A   1      44.393  27.593  36.133  1.00  0.00     0.173 A 
ATOM     65  C   UNL A   1      45.649  29.288  34.979  1.00  0.00     0.173 A 
ATOM     66  F   UNL A   1      43.238  27.107  36.614  1.00  0.00    -0.203 F 
ATOM     67  C   UNL A   1      45.566  26.875  36.346  1.00  0.00     0.198 A 
ATOM     68  C   UNL A   1      46.815  28.554  35.168  1.00  0.00     0.198 A 
ATOM     69  F   UNL A   1      45.720  30.451  34.313  1.00  0.00    -0.203 F 
ATOM     70  F   UNL A   1      45.531  25.723  37.029  1.00  0.00    -0.200 F 
ATOM     71  C   UNL A   1      46.774  27.349  35.852  1.00  0.00     0.200 A 
ATOM     72  F   UNL A   1      47.977  29.007  34.678  1.00  0.00    -0.200 F 
ATOM     73  F   UNL A   1      47.899  26.645  36.039  1.00  0.00    -0.200 F 
ENDBRANCH  40  63
ENDBRANCH  14  15
ENDBRANCH   7   9
ENDBRANCH   4   5
ENDBRANCH   3   4
ENDBRANCH   2   3
ENDBRANCH   1   2
BRANCH   1  74
ATOM     74  C   UNL A   1      33.852  31.641  27.442  1.00  0.00     0.021 C 
BRANCH  74  75
ATOM     75  C   UNL A   1      33.857  30.125  27.260  1.00  0.00     0.116 C 
BRANCH  75  76
ATOM     76  N   UNL A   1      32.691  29.477  27.828  1.00  0.00    -0.356 N 
ATOM     77  C   UNL A   1      31.916  28.466  27.357  1.00  0.00     0.225 C 
ATOM     78  H   UNL A   1      32.414  29.831  28.703  1.00  0.00     0.163 HD
ATOM     79  O   UNL A   1      31.078  28.003  28.138  1.00  0.00    -0.275 OA
BRANCH  77  80
ATOM     80  C   UNL A   1      32.004  27.929  25.936  1.00  0.00     0.107 C 
ATOM     81  C   UNL A   1      31.372  28.834  24.897  1.00  0.00     0.133 C 
ATOM     82  C   UNL A   1      31.395  26.517  25.764  1.00  0.00     0.053 C 
ATOM     83  N   UNL A   1      30.544  27.992  24.056  1.00  0.00    -0.341 N 
ATOM     84  C   UNL A   1      30.613  26.593  24.442  1.00  0.00     0.128 C 
BRANCH  82  85
ATOM     85  C   UNL A   1      32.492  25.459  25.894  1.00  0.00    -0.038 A 
ATOM     86  C   UNL A   1      33.761  25.745  25.319  1.00  0.00     0.008 A 
ATOM     87  C   UNL A   1      32.295  24.192  26.465  1.00  0.00     0.054 A 
ATOM     88  C   UNL A   1      34.775  24.785  25.248  1.00  0.00     0.051 A 
ATOM     89  C   UNL A   1      33.316  23.262  26.380  1.00  0.00     0.166 A 
ATOM     90  C   UNL A   1      34.516  23.545  25.777  1.00  0.00     0.165 A 
ATOM     91  O   UNL A   1      33.254  21.981  26.834  1.00  0.00    -0.454 OA
ATOM     92  O   UNL A   1      35.356  22.478  25.761  1.00  0.00    -0.454 OA
ATOM     93  C   UNL A   1      34.529  21.474  26.383  1.00  0.00     0.468 C 
ENDBRANCH  82  85
BRANCH  83  94
ATOM     94  C   UNL A   1      29.822  28.369  22.947  1.00  0.00     0.222 C 
ATOM     95  O   UNL A   1      30.318  28.392  21.820  1.00  0.00    -0.275 OA
BRANCH  94  96
ATOM     96  C   UNL A   1      28.361  28.729  23.131  1.00  0.00     0.109 C 
BRANCH  96  97
ATOM     97  C   UNL A   1      28.002  29.997  22.365  1.00  0.00     0.125 C 
BRANCH  97  98
ATOM     98  C   UNL A   1      28.110  31.243  23.210  1.00  0.00     0.389 C 
ATOM     99  F   UNL A   1      26.984  31.442  23.932  1.00  0.00    -0.171 F 
ATOM    100  F   UNL A   1      29.135  31.147  24.085  1.00  0.00    -0.171 F 
ATOM    101  F   UNL A   1      28.320  32.351  22.471  1.00  0.00    -0.171 F 
ENDBRANCH  97  98
ENDBRANCH  96  97
ENDBRANCH  94  96
ENDBRANCH  83  94
ENDBRANCH  77  80
ENDBRANCH  75  76
ENDBRANCH  74  75
ENDBRANCH   1  74
TORSDOF 18
ENDMDL
MODEL 2
REMARK VINA RESULT:     -12.2      6.753     12.569
REMARK SMILES O=C(NCCCCCCNC(=O)[C@@H]1CN(C(=O)CCC(F)(F)F)C[C@H]1c1ccc2c(c1)OCO2)c1ccc(-c2c3nc(c(-c4c(F)c(F)c(F)c(F)c4F)c4ccc([nH]4)c(-c4c(F)c(F)c(F)c(F)c4F)c4nc(c(-c5c(F)c(F)c(F)c(F)c5F)c5ccc2[nH]5)C=C4)C=C3)cc1
REMARK SMILES IDX 7 1 6 2 5 3 4 4 3 5 1 6 2 7 35 9 36 10 97 11 37 12 96 13
REMARK SMILES IDX 38 14 39 15 40 16 90 17 41 18 95 19 89 20 91 21 42 22 94 23
REMARK SMILES IDX 88 24 87 25 43 27 75 28 55 29 74 30 56 31 59 32 73 33 92 34
REMARK SMILES IDX 57 35 58 36 72 38 93 39 60 40 44 41 45 42 53 43 46 44 47 45
REMARK SMILES IDX 51 46 54 47 48 48 49 49 52 50 50 51 76 52 77 53 85 54 78 55
REMARK SMILES IDX 79 56 83 57 86 58 80 59 81 60 84 61 82 62 61 63 62 64 70 65
REMARK SMILES IDX 63 66 64 67 68 68 71 69 65 70 66 71 69 72 67 73 8 74 9 75
REMARK SMILES IDX 10 76 11 77 12 79 13 80 14 81 25 82 15 83 24 84 26 85 27 86
REMARK SMILES IDX 31 87 28 88 30 89 29 90 32 91 34 92 33 93 16 94 17 95 18 96
REMARK SMILES IDX 19 97 20 98 21 99 22 100 23 101
REMARK H PARENT 3 8 91 26 59 37 10 78
REMARK Flexibility Score: inf
ROOT
ATOM      1  C   UNL A   1      40.713  22.050  26.062  1.00  0.00     0.002 C 
ENDROOT
BRANCH   1   2
ATOM      2  C   UNL A   1      41.104  20.800  26.855  1.00  0.00     0.002 C 
BRANCH   2   3
ATOM      3  C   UNL A   1      41.492  19.574  26.026  1.00  0.00     0.021 C 
BRANCH   3   4
ATOM      4  C   UNL A   1      42.823  18.925  26.395  1.00  0.00     0.116 C 
BRANCH   4   5
ATOM      5  N   UNL A   1      43.654  18.654  25.234  1.00  0.00    -0.352 N 
ATOM      6  O   UNL A   1      44.907  19.121  23.418  1.00  0.00    -0.269 OA
ATOM      7  C   UNL A   1      44.396  19.514  24.468  1.00  0.00     0.251 C 
ATOM      8  H   UNL A   1      43.691  17.709  24.957  1.00  0.00     0.163 HD
BRANCH   7   9
ATOM      9  C   UNL A   1      44.575  20.920  24.882  1.00  0.00     0.039 A 
ATOM     10  C   UNL A   1      45.179  21.245  26.100  1.00  0.00     0.014 A 
ATOM     11  C   UNL A   1      44.171  21.934  24.008  1.00  0.00     0.014 A 
ATOM     12  C   UNL A   1      45.280  22.578  26.494  1.00  0.00     0.010 A 
ATOM     13  C   UNL A   1      44.334  23.271  24.373  1.00  0.00     0.010 A 
ATOM     14  C   UNL A   1      44.871  23.602  25.627  1.00  0.00    -0.014 A 
BRANCH  14  15
ATOM     15  C   UNL A   1      45.056  25.026  26.003  1.00  0.00     0.031 A 
ATOM     16  C   UNL A   1      46.412  25.664  25.937  1.00  0.00     0.074 A 
ATOM     17  C   UNL A   1      44.000  25.725  26.460  1.00  0.00     0.049 A 
ATOM     18  N   UNL A   1      46.787  26.855  26.333  1.00  0.00    -0.248 NA
ATOM     19  C   UNL A   1      47.492  24.852  25.361  1.00  0.00     0.031 C 
ATOM     20  C   UNL A   1      42.637  25.206  26.574  1.00  0.00     0.029 A 
ATOM     21  N   UNL A   1      43.911  27.008  26.935  1.00  0.00    -0.354 N 
ATOM     22  C   UNL A   1      48.150  26.927  26.077  1.00  0.00     0.074 A 
ATOM     23  C   UNL A   1      48.540  25.650  25.515  1.00  0.00     0.031 C 
ATOM     24  C   UNL A   1      41.847  26.160  27.087  1.00  0.00     0.029 A 
ATOM     25  C   UNL A   1      42.660  27.331  27.398  1.00  0.00     0.049 A 
ATOM     26  H   UNL A   1      44.670  27.636  26.943  1.00  0.00     0.167 HD
ATOM     27  C   UNL A   1      48.993  27.966  26.292  1.00  0.00     0.037 A 
ATOM     28  C   UNL A   1      42.221  28.431  28.039  1.00  0.00     0.037 A 
ATOM     29  C   UNL A   1      48.590  29.230  26.851  1.00  0.00     0.049 A 
ATOM     30  C   UNL A   1      43.181  29.554  28.308  1.00  0.00     0.074 A 
ATOM     31  C   UNL A   1      49.355  30.363  27.066  1.00  0.00     0.029 A 
ATOM     32  N   UNL A   1      47.310  29.522  27.303  1.00  0.00    -0.354 N 
ATOM     33  N   UNL A   1      44.459  29.633  28.023  1.00  0.00    -0.248 NA
ATOM     34  C   UNL A   1      42.643  30.741  28.983  1.00  0.00     0.031 C 
ATOM     35  C   UNL A   1      48.556  31.316  27.704  1.00  0.00     0.029 A 
ATOM     36  C   UNL A   1      47.273  30.806  27.826  1.00  0.00     0.049 A 
ATOM     37  H   UNL A   1      46.541  28.909  27.258  1.00  0.00     0.167 HD
ATOM     38  C   UNL A   1      44.872  30.884  28.456  1.00  0.00     0.074 A 
ATOM     39  C   UNL A   1      43.707  31.533  29.025  1.00  0.00     0.031 C 
ATOM     40  C   UNL A   1      46.103  31.444  28.381  1.00  0.00     0.037 A 
BRANCH  27  41
ATOM     41  C   UNL A   1      50.444  27.760  25.958  1.00  0.00     0.064 A 
ATOM     42  C   UNL A   1      50.935  27.894  24.649  1.00  0.00     0.173 A 
ATOM     43  C   UNL A   1      51.364  27.432  26.967  1.00  0.00     0.173 A 
ATOM     44  F   UNL A   1      50.102  28.200  23.643  1.00  0.00    -0.203 F 
ATOM     45  C   UNL A   1      52.277  27.660  24.358  1.00  0.00     0.198 A 
ATOM     46  C   UNL A   1      52.711  27.234  26.678  1.00  0.00     0.198 A 
ATOM     47  F   UNL A   1      50.955  27.302  28.238  1.00  0.00    -0.203 F 
ATOM     48  F   UNL A   1      52.707  27.728  23.089  1.00  0.00    -0.200 F 
ATOM     49  C   UNL A   1      53.165  27.335  25.372  1.00  0.00     0.200 A 
ATOM     50  F   UNL A   1      53.570  26.935  27.663  1.00  0.00    -0.200 F 
ATOM     51  F   UNL A   1      54.455  27.107  25.088  1.00  0.00    -0.200 F 
ENDBRANCH  27  41
BRANCH  28  52
ATOM     52  C   UNL A   1      40.804  28.493  28.475  1.00  0.00     0.064 A 
ATOM     53  C   UNL A   1      40.430  28.115  29.771  1.00  0.00     0.173 A 
ATOM     54  C   UNL A   1      39.805  28.991  27.624  1.00  0.00     0.173 A 
ATOM     55  F   UNL A   1      41.347  27.619  30.615  1.00  0.00    -0.203 F 
ATOM     56  C   UNL A   1      39.110  28.235  30.199  1.00  0.00     0.198 A 
ATOM     57  C   UNL A   1      38.492  29.136  28.064  1.00  0.00     0.198 A 
ATOM     58  F   UNL A   1      40.115  29.374  26.377  1.00  0.00    -0.203 F 
ATOM     59  F   UNL A   1      38.772  27.846  31.438  1.00  0.00    -0.200 F 
ATOM     60  C   UNL A   1      38.144  28.754  29.350  1.00  0.00     0.200 A 
ATOM     61  F   UNL A   1      37.568  29.658  27.245  1.00  0.00    -0.200 F 
ATOM     62  F   UNL A   1      36.880  28.889  29.772  1.00  0.00    -0.200 F 
ENDBRANCH  28  52
BRANCH  40  63
ATOM     63  C   UNL A   1      46.259  32.852  28.879  1.00  0.00     0.064 A 
ATOM     64  C   UNL A   1      46.043  33.960  28.047  1.00  0.00     0.173 A 
ATOM     65  C   UNL A   1      46.550  33.091  30.231  1.00  0.00     0.173 A 
ATOM     66  F   UNL A   1      45.779  33.785  26.743  1.00  0.00    -0.203 F 
ATOM     67  C   UNL A   1      46.118  35.256  28.551  1.00  0.00     0.198 A 
ATOM     68  C   UNL A   1      46.595  34.386  30.737  1.00  0.00     0.198 A 
ATOM     69  F   UNL A   1      46.762  32.063  31.068  1.00  0.00    -0.203 F 
ATOM     70  F   UNL A   1      45.936  36.303  27.735  1.00  0.00    -0.200 F 
ATOM     71  C   UNL A   1      46.381  35.467  29.898  1.00  0.00     0.200 A 
ATOM     72  F   UNL A   1      46.835  34.586  32.041  1.00  0.00    -0.200 F 
ATOM     73  F   UNL A   1      46.429  36.715  30.385  1.00  0.00    -0.200 F 
ENDBRANCH  40  63
ENDBRANCH  14  15
ENDBRANCH   7   9
ENDBRANCH   4   5
ENDBRANCH   3   4
ENDBRANCH   2   3
ENDBRANCH   1   2
BRANCH   1  74
ATOM     74  C   UNL A   1      39.441  22.776  26.521  1.00  0.00     0.021 C 
BRANCH  74  75
ATOM     75  C   UNL A   1      38.121  22.186  26.029  1.00  0.00     0.116 C 
BRANCH  75  76
ATOM     76  N   UNL A   1      37.882  22.419  24.619  1.00  0.00    -0.356 N 
ATOM     77  C   UNL A   1      36.729  22.634  23.935  1.00  0.00     0.225 C 
ATOM     78  H   UNL A   1      38.693  22.420  24.062  1.00  0.00     0.163 HD
ATOM     79  O   UNL A   1      36.842  22.969  22.751  1.00  0.00    -0.275 OA
BRANCH  77  80
ATOM     80  C   UNL A   1      35.344  22.440  24.536  1.00  0.00     0.107 C 
ATOM     81  C   UNL A   1      35.039  21.008  24.927  1.00  0.00     0.133 C 
ATOM     82  C   UNL A   1      34.194  22.936  23.627  1.00  0.00     0.053 C 
ATOM     83  N   UNL A   1      33.719  20.704  24.409  1.00  0.00    -0.341 N 
ATOM     84  C   UNL A   1      33.117  21.843  23.737  1.00  0.00     0.128 C 
BRANCH  82  85
ATOM     85  C   UNL A   1      33.812  24.367  24.006  1.00  0.00    -0.038 A 
ATOM     86  C   UNL A   1      34.128  24.812  25.319  1.00  0.00     0.008 A 
ATOM     87  C   UNL A   1      33.092  25.235  23.169  1.00  0.00     0.054 A 
ATOM     88  C   UNL A   1      33.683  26.044  25.811  1.00  0.00     0.051 A 
ATOM     89  C   UNL A   1      32.664  26.446  23.682  1.00  0.00     0.166 A 
ATOM     90  C   UNL A   1      32.939  26.833  24.969  1.00  0.00     0.165 A 
ATOM     91  O   UNL A   1      31.912  27.362  23.015  1.00  0.00    -0.454 OA
ATOM     92  O   UNL A   1      32.386  28.034  25.283  1.00  0.00    -0.454 OA
ATOM     93  C   UNL A   1      31.689  28.337  24.056  1.00  0.00     0.468 C 
ENDBRANCH  82  85
BRANCH  83  94
ATOM     94  C   UNL A   1      33.006  19.539  24.569  1.00  0.00     0.222 C 
ATOM     95  O   UNL A   1      32.093  19.438  25.390  1.00  0.00    -0.275 OA
BRANCH  94  96
ATOM     96  C   UNL A   1      33.342  18.364  23.673  1.00  0.00     0.109 C 
BRANCH  96  97
ATOM     97  C   UNL A   1      34.514  17.561  24.228  1.00  0.00     0.125 C 
BRANCH  97  98
ATOM     98  C   UNL A   1      34.077  16.327  24.978  1.00  0.00     0.389 C 
ATOM     99  F   UNL A   1      33.436  16.654  26.123  1.00  0.00    -0.171 F 
ATOM    100  F   UNL A   1      33.221  15.588  24.239  1.00  0.00    -0.171 F 
ATOM    101  F   UNL A   1      35.112  15.528  25.306  1.00  0.00    -0.171 F 
ENDBRANCH  97  98
ENDBRANCH  96  97
ENDBRANCH  94  96
ENDBRANCH  83  94
ENDBRANCH  77  80
ENDBRANCH  75  76
ENDBRANCH  74  75
ENDBRANCH   1  74
TORSDOF 18
ENDMDL
MODEL 3
REMARK VINA RESULT:     -12.2      1.946      4.064
REMARK SMILES O=C(NCCCCCCNC(=O)[C@@H]1CN(C(=O)CCC(F)(F)F)C[C@H]1c1ccc2c(c1)OCO2)c1ccc(-c2c3nc(c(-c4c(F)c(F)c(F)c(F)c4F)c4ccc([nH]4)c(-c4c(F)c(F)c(F)c(F)c4F)c4nc(c(-c5c(F)c(F)c(F)c(F)c5F)c5ccc2[nH]5)C=C4)C=C3)cc1
REMARK SMILES IDX 7 1 6 2 5 3 4 4 3 5 1 6 2 7 35 9 36 10 97 11 37 12 96 13
REMARK SMILES IDX 38 14 39 15 40 16 90 17 41 18 95 19 89 20 91 21 42 22 94 23
REMARK SMILES IDX 88 24 87 25 43 27 75 28 55 29 74 30 56 31 59 32 73 33 92 34
REMARK SMILES IDX 57 35 58 36 72 38 93 39 60 40 44 41 45 42 53 43 46 44 47 45
REMARK SMILES IDX 51 46 54 47 48 48 49 49 52 50 50 51 76 52 77 53 85 54 78 55
REMARK SMILES IDX 79 56 83 57 86 58 80 59 81 60 84 61 82 62 61 63 62 64 70 65
REMARK SMILES IDX 63 66 64 67 68 68 71 69 65 70 66 71 69 72 67 73 8 74 9 75
REMARK SMILES IDX 10 76 11 77 12 79 13 80 14 81 25 82 15 83 24 84 26 85 27 86
REMARK SMILES IDX 31 87 28 88 30 89 29 90 32 91 34 92 33 93 16 94 17 95 18 96
REMARK SMILES IDX 19 97 20 98 21 99 22 100 23 101
REMARK H PARENT 3 8 91 26 59 37 10 78
REMARK Flexibility Score: inf
ROOT
ATOM      1  C   UNL A   1      34.497  32.279  28.575  1.00  0.00     0.002 C 
ENDROOT
BRANCH   1   2
ATOM      2  C   UNL A   1      34.583  33.773  28.901  1.00  0.00     0.002 C 
BRANCH   2   3
ATOM      3  C   UNL A   1      33.252  34.525  28.958  1.00  0.00     0.021 C 
BRANCH   3   4
ATOM      4  C   UNL A   1      33.344  35.995  29.355  1.00  0.00     0.116 C 
BRANCH   4   5
ATOM      5  N   UNL A   1      32.516  36.318  30.504  1.00  0.00    -0.352 N 
ATOM      6  O   UNL A   1      31.706  36.134  32.600  1.00  0.00    -0.269 OA
ATOM      7  C   UNL A   1      32.604  35.877  31.798  1.00  0.00     0.251 C 
ATOM      8  H   UNL A   1      31.781  36.950  30.327  1.00  0.00     0.163 HD
BRANCH   7   9
ATOM      9  C   UNL A   1      33.763  35.074  32.238  1.00  0.00     0.039 A 
ATOM     10  C   UNL A   1      33.600  33.771  32.718  1.00  0.00     0.014 A 
ATOM     11  C   UNL A   1      35.043  35.624  32.123  1.00  0.00     0.014 A 
ATOM     12  C   UNL A   1      34.704  33.058  33.185  1.00  0.00     0.010 A 
ATOM     13  C   UNL A   1      36.155  34.884  32.528  1.00  0.00     0.010 A 
ATOM     14  C   UNL A   1      35.992  33.604  33.080  1.00  0.00    -0.014 A 
BRANCH  14  15
ATOM     15  C   UNL A   1      37.179  32.816  33.495  1.00  0.00     0.031 A 
ATOM     16  C   UNL A   1      37.894  33.127  34.777  1.00  0.00     0.074 A 
ATOM     17  C   UNL A   1      37.643  31.852  32.678  1.00  0.00     0.049 A 
ATOM     18  N   UNL A   1      39.009  32.627  35.245  1.00  0.00    -0.248 NA
ATOM     19  C   UNL A   1      37.279  34.144  35.640  1.00  0.00     0.031 C 
ATOM     20  C   UNL A   1      37.034  31.466  31.404  1.00  0.00     0.029 A 
ATOM     21  N   UNL A   1      38.743  31.040  32.782  1.00  0.00    -0.354 N 
ATOM     22  C   UNL A   1      39.244  33.285  36.446  1.00  0.00     0.074 A 
ATOM     23  C   UNL A   1      38.167  34.238  36.620  1.00  0.00     0.031 C 
ATOM     24  C   UNL A   1      37.768  30.495  30.844  1.00  0.00     0.029 A 
ATOM     25  C   UNL A   1      38.931  30.236  31.686  1.00  0.00     0.049 A 
ATOM     26  H   UNL A   1      39.339  31.034  33.566  1.00  0.00     0.167 HD
ATOM     27  C   UNL A   1      40.265  33.105  37.319  1.00  0.00     0.037 A 
ATOM     28  C   UNL A   1      39.948  29.411  31.371  1.00  0.00     0.037 A 
ATOM     29  C   UNL A   1      41.329  32.152  37.131  1.00  0.00     0.049 A 
ATOM     30  C   UNL A   1      41.092  29.258  32.330  1.00  0.00     0.074 A 
ATOM     31  C   UNL A   1      42.384  31.858  37.977  1.00  0.00     0.029 A 
ATOM     32  N   UNL A   1      41.482  31.349  36.009  1.00  0.00    -0.354 N 
ATOM     33  N   UNL A   1      41.286  29.850  33.484  1.00  0.00    -0.248 NA
ATOM     34  C   UNL A   1      42.159  28.323  31.950  1.00  0.00     0.031 C 
ATOM     35  C   UNL A   1      43.209  30.926  37.340  1.00  0.00     0.029 A 
ATOM     36  C   UNL A   1      42.633  30.585  36.126  1.00  0.00     0.049 A 
ATOM     37  H   UNL A   1      40.864  31.325  35.243  1.00  0.00     0.167 HD
ATOM     38  C   UNL A   1      42.476  29.342  33.981  1.00  0.00     0.074 A 
ATOM     39  C   UNL A   1      42.964  28.391  33.002  1.00  0.00     0.031 C 
ATOM     40  C   UNL A   1      43.102  29.634  35.147  1.00  0.00     0.037 A 
BRANCH  27  41
ATOM     41  C   UNL A   1      40.300  33.988  38.534  1.00  0.00     0.064 A 
ATOM     42  C   UNL A   1      40.993  35.210  38.550  1.00  0.00     0.173 A 
ATOM     43  C   UNL A   1      39.619  33.611  39.703  1.00  0.00     0.173 A 
ATOM     44  F   UNL A   1      41.665  35.618  37.463  1.00  0.00    -0.203 F 
ATOM     45  C   UNL A   1      41.042  35.993  39.700  1.00  0.00     0.198 A 
ATOM     46  C   UNL A   1      39.641  34.415  40.840  1.00  0.00     0.198 A 
ATOM     47  F   UNL A   1      38.930  32.462  39.744  1.00  0.00    -0.203 F 
ATOM     48  F   UNL A   1      41.767  37.121  39.710  1.00  0.00    -0.200 F 
ATOM     49  C   UNL A   1      40.364  35.597  40.843  1.00  0.00     0.200 A 
ATOM     50  F   UNL A   1      38.971  34.037  41.939  1.00  0.00    -0.200 F 
ATOM     51  F   UNL A   1      40.416  36.351  41.950  1.00  0.00    -0.200 F 
ENDBRANCH  27  41
BRANCH  28  52
ATOM     52  C   UNL A   1      39.913  28.689  30.074  1.00  0.00     0.064 A 
ATOM     53  C   UNL A   1      40.480  29.247  28.921  1.00  0.00     0.173 A 
ATOM     54  C   UNL A   1      39.367  27.399  29.978  1.00  0.00     0.173 A 
ATOM     55  F   UNL A   1      40.999  30.483  28.961  1.00  0.00    -0.203 F 
ATOM     56  C   UNL A   1      40.503  28.540  27.721  1.00  0.00     0.198 A 
ATOM     57  C   UNL A   1      39.418  26.684  28.784  1.00  0.00     0.198 A 
ATOM     58  F   UNL A   1      38.821  26.819  31.056  1.00  0.00    -0.203 F 
ATOM     59  F   UNL A   1      41.032  29.104  26.625  1.00  0.00    -0.200 F 
ATOM     60  C   UNL A   1      39.982  27.257  27.655  1.00  0.00     0.200 A 
ATOM     61  F   UNL A   1      38.932  25.436  28.733  1.00  0.00    -0.200 F 
ATOM     62  F   UNL A   1      40.027  26.570  26.505  1.00  0.00    -0.200 F 
ENDBRANCH  28  52
BRANCH  40  63
ATOM     63  C   UNL A   1      44.363  28.884  35.467  1.00  0.00     0.064 A 
ATOM     64  C   UNL A   1      44.344  27.661  36.153  1.00  0.00     0.173 A 
ATOM     65  C   UNL A   1      45.600  29.360  35.005  1.00  0.00     0.173 A 
ATOM     66  F   UNL A   1      43.190  27.172  36.630  1.00  0.00    -0.203 F 
ATOM     67  C   UNL A   1      45.519  26.946  36.370  1.00  0.00     0.198 A 
ATOM     68  C   UNL A   1      46.768  28.629  35.198  1.00  0.00     0.198 A 
ATOM     69  F   UNL A   1      45.671  30.524  34.340  1.00  0.00    -0.203 F 
ATOM     70  F   UNL A   1      45.485  25.794  37.053  1.00  0.00    -0.200 F 
ATOM     71  C   UNL A   1      46.728  27.424  35.881  1.00  0.00     0.200 A 
ATOM     72  F   UNL A   1      47.931  29.086  34.712  1.00  0.00    -0.200 F 
ATOM     73  F   UNL A   1      47.854  26.723  36.071  1.00  0.00    -0.200 F 
ENDBRANCH  40  63
ENDBRANCH  14  15
ENDBRANCH   7   9
ENDBRANCH   4   5
ENDBRANCH   3   4
ENDBRANCH   2   3
ENDBRANCH   1   2
BRANCH   1  74
ATOM     74  C   UNL A   1      33.484  31.876  27.495  1.00  0.00     0.021 C 
BRANCH  74  75
ATOM     75  C   UNL A   1      33.240  30.377  27.335  1.00  0.00     0.116 C 
BRANCH  75  76
ATOM     76  N   UNL A   1      33.831  29.828  26.132  1.00  0.00    -0.356 N 
ATOM     77  C   UNL A   1      33.399  28.851  25.293  1.00  0.00     0.225 C 
ATOM     78  H   UNL A   1      34.693  30.230  25.880  1.00  0.00     0.163 HD
ATOM     79  O   UNL A   1      34.035  28.702  24.244  1.00  0.00    -0.275 OA
BRANCH  77  80
ATOM     80  C   UNL A   1      32.228  27.930  25.604  1.00  0.00     0.107 C 
ATOM     81  C   UNL A   1      32.587  26.763  26.503  1.00  0.00     0.133 C 
ATOM     82  C   UNL A   1      31.532  27.359  24.346  1.00  0.00     0.053 C 
ATOM     83  N   UNL A   1      32.014  25.577  25.898  1.00  0.00    -0.341 N 
ATOM     84  C   UNL A   1      31.273  25.881  24.686  1.00  0.00     0.128 C 
BRANCH  82  85
ATOM     85  C   UNL A   1      30.335  28.235  23.973  1.00  0.00    -0.038 A 
ATOM     86  C   UNL A   1      29.178  27.590  23.455  1.00  0.00     0.008 A 
ATOM     87  C   UNL A   1      30.342  29.638  24.026  1.00  0.00     0.054 A 
ATOM     88  C   UNL A   1      28.095  28.312  22.941  1.00  0.00     0.051 A 
ATOM     89  C   UNL A   1      29.259  30.326  23.510  1.00  0.00     0.166 A 
ATOM     90  C   UNL A   1      28.173  29.682  22.971  1.00  0.00     0.165 A 
ATOM     91  O   UNL A   1      29.146  31.679  23.439  1.00  0.00    -0.454 OA
ATOM     92  O   UNL A   1      27.246  30.545  22.479  1.00  0.00    -0.454 OA
ATOM     93  C   UNL A   1      27.895  31.809  22.729  1.00  0.00     0.468 C 
ENDBRANCH  82  85
BRANCH  83  94
ATOM     94  C   UNL A   1      32.036  24.293  26.391  1.00  0.00     0.222 C 
ATOM     95  O   UNL A   1      31.293  23.929  27.303  1.00  0.00    -0.275 OA
BRANCH  94  96
ATOM     96  C   UNL A   1      32.984  23.297  25.753  1.00  0.00     0.109 C 
BRANCH  96  97
ATOM     97  C   UNL A   1      34.423  23.539  26.197  1.00  0.00     0.125 C 
BRANCH  97  98
ATOM     98  C   UNL A   1      35.302  24.052  25.082  1.00  0.00     0.389 C 
ATOM     99  F   UNL A   1      35.267  23.223  24.014  1.00  0.00    -0.171 F 
ATOM    100  F   UNL A   1      34.889  25.266  24.658  1.00  0.00    -0.171 F 
ATOM    101  F   UNL A   1      36.591  24.178  25.456  1.00  0.00    -0.171 F 
ENDBRANCH  97  98
ENDBRANCH  96  97
ENDBRANCH  94  96
ENDBRANCH  83  94
ENDBRANCH  77  80
ENDBRANCH  75  76
ENDBRANCH  74  75
ENDBRANCH   1  74
TORSDOF 18
ENDMDL
