MODEL 1
REMARK VINA RESULT:     -11.8      0.000      0.000
REMARK SMILES CC(C)(C(=O)NCCCCCCNC(=O)c1ccc(-c2c3nc(c(-c4c(F)c(F)c(F)c(F)c4F)c4ccc([nH]4)c(-c4c(F)c(F)c(F)c(F)c4F)c4nc(c(-c5c(F)c(F)c(F)c(F)c5F)c5ccc2[nH]5)C=C4)C=C3)cc1)c1ccc(C(=O)CCCCl)cc1
REMARK SMILES IDX 8 1 7 2 6 3 4 4 5 5 2 7 1 8 3 9 79 10 80 11 90 12 81 13
REMARK SMILES IDX 89 14 82 15 83 16 84 17 85 18 86 19 87 20 88 21 9 22 10 23
REMARK SMILES IDX 11 24 12 25 13 26 14 27 15 29 16 30 17 31 78 32 18 33 77 34
REMARK SMILES IDX 19 35 20 36 21 37 71 38 22 39 76 40 70 41 72 42 23 43 75 44
REMARK SMILES IDX 69 45 68 46 24 48 56 49 36 50 55 51 37 52 40 53 54 54 73 55
REMARK SMILES IDX 38 56 39 57 53 59 74 60 41 61 25 62 26 63 34 64 27 65 28 66
REMARK SMILES IDX 32 67 35 68 29 69 30 70 33 71 31 72 57 73 58 74 66 75 59 76
REMARK SMILES IDX 60 77 64 78 67 79 61 80 62 81 65 82 63 83 42 84 43 85 51 86
REMARK SMILES IDX 44 87 45 88 49 89 52 90 46 91 47 92 50 93 48 94
REMARK H PARENT 6 6 13 28 72 47 40 58
REMARK Flexibility Score: inf
ROOT
ATOM      1  C   UNL A   1      36.456  22.578  23.843  1.00  0.00     0.021 C 
ENDROOT
BRANCH   1   2
ATOM      2  C   UNL A   1      35.629  23.650  24.553  1.00  0.00     0.116 C 
BRANCH   2   3
ATOM      3  N   UNL A   1      35.019  24.525  23.580  1.00  0.00    -0.355 N 
ATOM      4  C   UNL A   1      33.740  24.661  23.150  1.00  0.00     0.230 C 
ATOM      5  O   UNL A   1      33.623  25.270  22.081  1.00  0.00    -0.274 OA
ATOM      6  H   UNL A   1      35.653  25.142  23.147  1.00  0.00     0.163 HD
BRANCH   4   7
ATOM      7  C   UNL A   1      32.513  24.131  23.954  1.00  0.00     0.068 C 
ATOM      8  C   UNL A   1      32.671  24.449  25.455  1.00  0.00     0.026 C 
ATOM      9  C   UNL A   1      31.205  24.783  23.439  1.00  0.00     0.026 C 
BRANCH   7  10
ATOM     10  C   UNL A   1      32.372  22.604  23.706  1.00  0.00    -0.033 A 
ATOM     11  C   UNL A   1      32.131  22.045  22.442  1.00  0.00     0.005 A 
ATOM     12  C   UNL A   1      32.477  21.722  24.800  1.00  0.00     0.005 A 
ATOM     13  C   UNL A   1      32.095  20.659  22.265  1.00  0.00     0.012 A 
ATOM     14  C   UNL A   1      32.403  20.342  24.632  1.00  0.00     0.012 A 
ATOM     15  C   UNL A   1      32.280  19.803  23.354  1.00  0.00     0.018 A 
BRANCH  15  16
ATOM     16  C   UNL A   1      32.418  18.344  23.098  1.00  0.00     0.162 C 
ATOM     17  O   UNL A   1      32.379  17.928  21.941  1.00  0.00    -0.294 OA
BRANCH  16  18
ATOM     18  C   UNL A   1      32.708  17.404  24.257  1.00  0.00     0.082 C 
BRANCH  18  19
ATOM     19  C   UNL A   1      34.126  16.823  24.218  1.00  0.00     0.024 C 
BRANCH  19  20
ATOM     20  C   UNL A   1      34.512  15.872  25.350  1.00  0.00     0.110 C 
ATOM     21  Cl  UNL A   1      36.254  15.926  25.710  1.00  0.00    -0.127 Cl
ENDBRANCH  19  20
ENDBRANCH  18  19
ENDBRANCH  16  18
ENDBRANCH  15  16
ENDBRANCH   7  10
ENDBRANCH   4   7
ENDBRANCH   2   3
ENDBRANCH   1   2
BRANCH   1  22
ATOM     22  C   UNL A   1      37.396  21.807  24.779  1.00  0.00     0.002 C 
BRANCH  22  23
ATOM     23  C   UNL A   1      37.009  20.344  25.014  1.00  0.00     0.002 C 
BRANCH  23  24
ATOM     24  C   UNL A   1      38.185  19.365  25.034  1.00  0.00     0.021 C 
BRANCH  24  25
ATOM     25  C   UNL A   1      39.432  19.903  25.724  1.00  0.00     0.116 C 
BRANCH  25  26
ATOM     26  N   UNL A   1      40.432  18.867  25.914  1.00  0.00    -0.352 N 
ATOM     27  C   UNL A   1      41.781  18.999  26.125  1.00  0.00     0.251 C 
ATOM     28  H   UNL A   1      40.096  17.942  25.888  1.00  0.00     0.163 HD
ATOM     29  O   UNL A   1      42.521  18.025  26.055  1.00  0.00    -0.269 OA
BRANCH  27  30
ATOM     30  C   UNL A   1      42.341  20.335  26.416  1.00  0.00     0.039 A 
ATOM     31  C   UNL A   1      42.965  21.044  25.388  1.00  0.00     0.014 A 
ATOM     32  C   UNL A   1      42.243  20.884  27.698  1.00  0.00     0.014 A 
ATOM     33  C   UNL A   1      43.442  22.332  25.633  1.00  0.00     0.010 A 
ATOM     34  C   UNL A   1      42.648  22.197  27.919  1.00  0.00     0.010 A 
ATOM     35  C   UNL A   1      43.256  22.932  26.889  1.00  0.00    -0.014 A 
BRANCH  35  36
ATOM     36  C   UNL A   1      43.690  24.328  27.148  1.00  0.00     0.031 A 
ATOM     37  C   UNL A   1      42.707  25.340  27.664  1.00  0.00     0.074 A 
ATOM     38  C   UNL A   1      44.955  24.694  26.863  1.00  0.00     0.049 A 
ATOM     39  N   UNL A   1      42.876  26.618  27.888  1.00  0.00    -0.248 NA
ATOM     40  C   UNL A   1      41.345  24.858  27.942  1.00  0.00     0.031 C 
ATOM     41  C   UNL A   1      45.989  23.811  26.321  1.00  0.00     0.029 A 
ATOM     42  N   UNL A   1      45.583  25.909  26.981  1.00  0.00    -0.354 N 
ATOM     43  C   UNL A   1      41.645  27.093  28.322  1.00  0.00     0.074 A 
ATOM     44  C   UNL A   1      40.723  25.979  28.275  1.00  0.00     0.031 C 
ATOM     45  C   UNL A   1      47.129  24.505  26.180  1.00  0.00     0.029 A 
ATOM     46  C   UNL A   1      46.896  25.890  26.578  1.00  0.00     0.049 A 
ATOM     47  H   UNL A   1      45.136  26.716  27.323  1.00  0.00     0.167 HD
ATOM     48  C   UNL A   1      41.321  28.337  28.747  1.00  0.00     0.037 A 
ATOM     49  C   UNL A   1      47.806  26.882  26.526  1.00  0.00     0.037 A 
ATOM     50  C   UNL A   1      42.247  29.436  28.809  1.00  0.00     0.049 A 
ATOM     51  C   UNL A   1      47.410  28.262  26.976  1.00  0.00     0.074 A 
ATOM     52  C   UNL A   1      42.030  30.723  29.268  1.00  0.00     0.029 A 
ATOM     53  N   UNL A   1      43.570  29.380  28.392  1.00  0.00    -0.354 N 
ATOM     54  N   UNL A   1      46.260  28.684  27.444  1.00  0.00    -0.248 NA
ATOM     55  C   UNL A   1      48.442  29.305  26.897  1.00  0.00     0.031 C 
ATOM     56  C   UNL A   1      43.204  31.459  29.081  1.00  0.00     0.029 A 
ATOM     57  C   UNL A   1      44.172  30.616  28.562  1.00  0.00     0.049 A 
ATOM     58  H   UNL A   1      44.015  28.579  28.031  1.00  0.00     0.167 HD
ATOM     59  C   UNL A   1      46.439  30.028  27.742  1.00  0.00     0.074 A 
ATOM     60  C   UNL A   1      47.813  30.348  27.417  1.00  0.00     0.031 C 
ATOM     61  C   UNL A   1      45.545  30.917  28.242  1.00  0.00     0.037 A 
BRANCH  48  62
ATOM     62  C   UNL A   1      39.903  28.577  29.181  1.00  0.00     0.064 A 
ATOM     63  C   UNL A   1      39.487  28.337  30.500  1.00  0.00     0.173 A 
ATOM     64  C   UNL A   1      38.959  29.091  28.280  1.00  0.00     0.173 A 
ATOM     65  F   UNL A   1      40.347  27.835  31.399  1.00  0.00    -0.203 F 
ATOM     66  C   UNL A   1      38.173  28.578  30.893  1.00  0.00     0.198 A 
ATOM     67  C   UNL A   1      37.654  29.362  28.685  1.00  0.00     0.198 A 
ATOM     68  F   UNL A   1      39.304  29.344  27.008  1.00  0.00    -0.203 F 
ATOM     69  F   UNL A   1      37.787  28.295  32.144  1.00  0.00    -0.200 F 
ATOM     70  C   UNL A   1      37.260  29.098  29.988  1.00  0.00     0.200 A 
ATOM     71  F   UNL A   1      36.778  29.879  27.812  1.00  0.00    -0.200 F 
ATOM     72  F   UNL A   1      35.998  29.338  30.370  1.00  0.00    -0.200 F 
ENDBRANCH  48  62
BRANCH  49  73
ATOM     73  C   UNL A   1      49.186  26.602  26.051  1.00  0.00     0.064 A 
ATOM     74  C   UNL A   1      50.138  26.028  26.906  1.00  0.00     0.173 A 
ATOM     75  C   UNL A   1      49.588  26.911  24.744  1.00  0.00     0.173 A 
ATOM     76  F   UNL A   1      49.809  25.733  28.172  1.00  0.00    -0.203 F 
ATOM     77  C   UNL A   1      51.444  25.796  26.478  1.00  0.00     0.198 A 
ATOM     78  C   UNL A   1      50.885  26.650  24.307  1.00  0.00     0.198 A 
ATOM     79  F   UNL A   1      48.715  27.457  23.884  1.00  0.00    -0.203 F 
ATOM     80  F   UNL A   1      52.346  25.293  27.331  1.00  0.00    -0.200 F 
ATOM     81  C   UNL A   1      51.815  26.101  25.178  1.00  0.00     0.200 A 
ATOM     82  F   UNL A   1      51.234  26.932  23.045  1.00  0.00    -0.200 F 
ATOM     83  F   UNL A   1      53.069  25.875  24.765  1.00  0.00    -0.200 F 
ENDBRANCH  49  73
BRANCH  61  84
ATOM     84  C   UNL A   1      46.034  32.312  28.508  1.00  0.00     0.064 A 
ATOM     85  C   UNL A   1      45.938  33.324  27.542  1.00  0.00     0.173 A 
ATOM     86  C   UNL A   1      46.565  32.650  29.762  1.00  0.00     0.173 A 
ATOM     87  F   UNL A   1      45.451  33.050  26.322  1.00  0.00    -0.203 F 
ATOM     88  C   UNL A   1      46.381  34.616  27.813  1.00  0.00     0.198 A 
ATOM     89  C   UNL A   1      46.976  33.949  30.041  1.00  0.00     0.198 A 
ATOM     90  F   UNL A   1      46.673  31.720  30.724  1.00  0.00    -0.203 F 
ATOM     91  F   UNL A   1      46.326  35.555  26.858  1.00  0.00    -0.200 F 
ATOM     92  C   UNL A   1      46.892  34.930  29.065  1.00  0.00     0.200 A 
ATOM     93  F   UNL A   1      47.453  34.254  31.256  1.00  0.00    -0.200 F 
ATOM     94  F   UNL A   1      47.307  36.176  29.327  1.00  0.00    -0.200 F 
ENDBRANCH  61  84
ENDBRANCH  35  36
ENDBRANCH  27  30
ENDBRANCH  25  26
ENDBRANCH  24  25
ENDBRANCH  23  24
ENDBRANCH  22  23
ENDBRANCH   1  22
TORSDOF 18
ENDMDL
MODEL 2
REMARK VINA RESULT:     -11.7      6.112     11.512
REMARK SMILES CC(C)(C(=O)NCCCCCCNC(=O)c1ccc(-c2c3nc(c(-c4c(F)c(F)c(F)c(F)c4F)c4ccc([nH]4)c(-c4c(F)c(F)c(F)c(F)c4F)c4nc(c(-c5c(F)c(F)c(F)c(F)c5F)c5ccc2[nH]5)C=C4)C=C3)cc1)c1ccc(C(=O)CCCCl)cc1
REMARK SMILES IDX 8 1 7 2 6 3 4 4 5 5 2 7 1 8 3 9 79 10 80 11 90 12 81 13
REMARK SMILES IDX 89 14 82 15 83 16 84 17 85 18 86 19 87 20 88 21 9 22 10 23
REMARK SMILES IDX 11 24 12 25 13 26 14 27 15 29 16 30 17 31 78 32 18 33 77 34
REMARK SMILES IDX 19 35 20 36 21 37 71 38 22 39 76 40 70 41 72 42 23 43 75 44
REMARK SMILES IDX 69 45 68 46 24 48 56 49 36 50 55 51 37 52 40 53 54 54 73 55
REMARK SMILES IDX 38 56 39 57 53 59 74 60 41 61 25 62 26 63 34 64 27 65 28 66
REMARK SMILES IDX 32 67 35 68 29 69 30 70 33 71 31 72 57 73 58 74 66 75 59 76
REMARK SMILES IDX 60 77 64 78 67 79 61 80 62 81 65 82 63 83 42 84 43 85 51 86
REMARK SMILES IDX 44 87 45 88 49 89 52 90 46 91 47 92 50 93 48 94
REMARK H PARENT 6 6 13 28 72 47 40 58
REMARK Flexibility Score: inf
ROOT
ATOM      1  C   UNL A   1      33.610  28.788  25.588  1.00  0.00     0.021 C 
ENDROOT
BRANCH   1   2
ATOM      2  C   UNL A   1      33.386  27.393  26.171  1.00  0.00     0.116 C 
BRANCH   2   3
ATOM      3  N   UNL A   1      34.033  26.404  25.342  1.00  0.00    -0.355 N 
ATOM      4  C   UNL A   1      33.642  25.179  24.912  1.00  0.00     0.230 C 
ATOM      5  O   UNL A   1      34.563  24.466  24.496  1.00  0.00    -0.274 OA
ATOM      6  H   UNL A   1      34.928  26.670  25.029  1.00  0.00     0.163 HD
BRANCH   4   7
ATOM      7  C   UNL A   1      32.152  24.718  24.900  1.00  0.00     0.068 C 
ATOM      8  C   UNL A   1      32.014  23.350  24.202  1.00  0.00     0.026 C 
ATOM      9  C   UNL A   1      31.609  24.600  26.347  1.00  0.00     0.026 C 
BRANCH   7  10
ATOM     10  C   UNL A   1      31.296  25.807  24.196  1.00  0.00    -0.033 A 
ATOM     11  C   UNL A   1      30.114  26.333  24.739  1.00  0.00     0.005 A 
ATOM     12  C   UNL A   1      31.709  26.293  22.939  1.00  0.00     0.005 A 
ATOM     13  C   UNL A   1      29.430  27.371  24.099  1.00  0.00     0.012 A 
ATOM     14  C   UNL A   1      31.007  27.299  22.281  1.00  0.00     0.012 A 
ATOM     15  C   UNL A   1      29.903  27.889  22.891  1.00  0.00     0.018 A 
BRANCH  15  16
ATOM     16  C   UNL A   1      29.256  29.108  22.336  1.00  0.00     0.162 C 
ATOM     17  O   UNL A   1      29.794  29.706  21.406  1.00  0.00    -0.294 OA
BRANCH  16  18
ATOM     18  C   UNL A   1      27.894  29.537  22.857  1.00  0.00     0.082 C 
BRANCH  18  19
ATOM     19  C   UNL A   1      27.742  31.059  22.955  1.00  0.00     0.024 C 
BRANCH  19  20
ATOM     20  C   UNL A   1      28.804  31.808  23.758  1.00  0.00     0.110 C 
ATOM     21  Cl  UNL A   1      29.051  33.468  23.166  1.00  0.00    -0.127 Cl
ENDBRANCH  19  20
ENDBRANCH  18  19
ENDBRANCH  16  18
ENDBRANCH  15  16
ENDBRANCH   7  10
ENDBRANCH   4   7
ENDBRANCH   2   3
ENDBRANCH   1   2
BRANCH   1  22
ATOM     22  C   UNL A   1      32.311  29.566  25.340  1.00  0.00     0.002 C 
BRANCH  22  23
ATOM     23  C   UNL A   1      31.664  30.151  26.600  1.00  0.00     0.002 C 
BRANCH  23  24
ATOM     24  C   UNL A   1      31.538  31.676  26.606  1.00  0.00     0.021 C 
BRANCH  24  25
ATOM     25  C   UNL A   1      32.770  32.401  27.131  1.00  0.00     0.116 C 
BRANCH  25  26
ATOM     26  N   UNL A   1      32.484  33.788  27.452  1.00  0.00    -0.352 N 
ATOM     27  C   UNL A   1      33.024  34.575  28.438  1.00  0.00     0.251 C 
ATOM     28  H   UNL A   1      31.810  34.226  26.883  1.00  0.00     0.163 HD
ATOM     29  O   UNL A   1      32.524  35.660  28.713  1.00  0.00    -0.269 OA
BRANCH  27  30
ATOM     30  C   UNL A   1      34.204  34.092  29.184  1.00  0.00     0.039 A 
ATOM     31  C   UNL A   1      34.009  33.274  30.299  1.00  0.00     0.014 A 
ATOM     32  C   UNL A   1      35.495  34.442  28.780  1.00  0.00     0.014 A 
ATOM     33  C   UNL A   1      35.115  32.759  30.975  1.00  0.00     0.010 A 
ATOM     34  C   UNL A   1      36.595  33.866  29.407  1.00  0.00     0.010 A 
ATOM     35  C   UNL A   1      36.416  33.022  30.514  1.00  0.00    -0.014 A 
BRANCH  35  36
ATOM     36  C   UNL A   1      37.603  32.424  31.175  1.00  0.00     0.031 A 
ATOM     37  C   UNL A   1      38.368  31.323  30.499  1.00  0.00     0.074 A 
ATOM     38  C   UNL A   1      37.954  32.836  32.409  1.00  0.00     0.049 A 
ATOM     39  N   UNL A   1      39.387  30.630  30.941  1.00  0.00    -0.248 NA
ATOM     40  C   UNL A   1      37.914  30.929  29.155  1.00  0.00     0.031 C 
ATOM     41  C   UNL A   1      37.265  33.869  33.183  1.00  0.00     0.029 A 
ATOM     42  N   UNL A   1      38.973  32.428  33.232  1.00  0.00    -0.354 N 
ATOM     43  C   UNL A   1      39.688  29.717  29.938  1.00  0.00     0.074 A 
ATOM     44  C   UNL A   1      38.708  29.903  28.890  1.00  0.00     0.031 C 
ATOM     45  C   UNL A   1      37.896  34.034  34.356  1.00  0.00     0.029 A 
ATOM     46  C   UNL A   1      39.006  33.089  34.436  1.00  0.00     0.049 A 
ATOM     47  H   UNL A   1      39.620  31.729  32.984  1.00  0.00     0.167 HD
ATOM     48  C   UNL A   1      40.704  28.824  29.886  1.00  0.00     0.037 A 
ATOM     49  C   UNL A   1      39.833  32.942  35.489  1.00  0.00     0.037 A 
ATOM     50  C   UNL A   1      41.686  28.656  30.925  1.00  0.00     0.049 A 
ATOM     51  C   UNL A   1      40.936  31.920  35.416  1.00  0.00     0.074 A 
ATOM     52  C   UNL A   1      42.782  27.812  30.947  1.00  0.00     0.029 A 
ATOM     53  N   UNL A   1      41.688  29.344  32.130  1.00  0.00    -0.354 N 
ATOM     54  N   UNL A   1      41.248  31.105  34.437  1.00  0.00    -0.248 NA
ATOM     55  C   UNL A   1      41.806  31.801  36.594  1.00  0.00     0.031 C 
ATOM     56  C   UNL A   1      43.416  27.951  32.186  1.00  0.00     0.029 A 
ATOM     57  C   UNL A   1      42.752  28.925  32.912  1.00  0.00     0.049 A 
ATOM     58  H   UNL A   1      41.030  30.030  32.390  1.00  0.00     0.167 HD
ATOM     59  C   UNL A   1      42.365  30.403  34.867  1.00  0.00     0.074 A 
ATOM     60  C   UNL A   1      42.686  30.897  36.190  1.00  0.00     0.031 C 
ATOM     61  C   UNL A   1      43.064  29.435  34.224  1.00  0.00     0.037 A 
BRANCH  48  62
ATOM     62  C   UNL A   1      40.808  27.957  28.663  1.00  0.00     0.064 A 
ATOM     63  C   UNL A   1      40.110  26.744  28.561  1.00  0.00     0.173 A 
ATOM     64  C   UNL A   1      41.579  28.364  27.565  1.00  0.00     0.173 A 
ATOM     65  F   UNL A   1      39.366  26.303  29.587  1.00  0.00    -0.203 F 
ATOM     66  C   UNL A   1      40.204  25.957  27.416  1.00  0.00     0.198 A 
ATOM     67  C   UNL A   1      41.644  27.591  26.408  1.00  0.00     0.198 A 
ATOM     68  F   UNL A   1      42.263  29.518  27.607  1.00  0.00    -0.203 F 
ATOM     69  F   UNL A   1      39.568  24.779  27.361  1.00  0.00    -0.200 F 
ATOM     70  C   UNL A   1      40.963  26.385  26.337  1.00  0.00     0.200 A 
ATOM     71  F   UNL A   1      42.368  28.013  25.362  1.00  0.00    -0.200 F 
ATOM     72  F   UNL A   1      41.045  25.631  25.232  1.00  0.00    -0.200 F 
ENDBRANCH  48  62
BRANCH  49  73
ATOM     73  C   UNL A   1      39.665  33.796  36.693  1.00  0.00     0.064 A 
ATOM     74  C   UNL A   1      38.845  33.389  37.755  1.00  0.00     0.173 A 
ATOM     75  C   UNL A   1      40.305  35.039  36.805  1.00  0.00     0.173 A 
ATOM     76  F   UNL A   1      38.195  32.218  37.687  1.00  0.00    -0.203 F 
ATOM     77  C   UNL A   1      38.655  34.201  38.871  1.00  0.00     0.198 A 
ATOM     78  C   UNL A   1      40.139  35.836  37.935  1.00  0.00     0.198 A 
ATOM     79  F   UNL A   1      41.105  35.474  35.819  1.00  0.00    -0.203 F 
ATOM     80  F   UNL A   1      37.826  33.809  39.848  1.00  0.00    -0.200 F 
ATOM     81  C   UNL A   1      39.306  35.421  38.964  1.00  0.00     0.200 A 
ATOM     82  F   UNL A   1      40.783  37.007  38.026  1.00  0.00    -0.200 F 
ATOM     83  F   UNL A   1      39.125  36.201  40.037  1.00  0.00    -0.200 F 
ENDBRANCH  49  73
BRANCH  61  84
ATOM     84  C   UNL A   1      44.269  28.874  34.922  1.00  0.00     0.064 A 
ATOM     85  C   UNL A   1      44.188  27.734  35.736  1.00  0.00     0.173 A 
ATOM     86  C   UNL A   1      45.531  29.459  34.738  1.00  0.00     0.173 A 
ATOM     87  F   UNL A   1      43.002  27.145  35.956  1.00  0.00    -0.203 F 
ATOM     88  C   UNL A   1      45.320  27.219  36.361  1.00  0.00     0.198 A 
ATOM     89  C   UNL A   1      46.666  28.922  35.336  1.00  0.00     0.198 A 
ATOM     90  F   UNL A   1      45.665  30.547  33.963  1.00  0.00    -0.203 F 
ATOM     91  F   UNL A   1      45.210  26.160  37.175  1.00  0.00    -0.200 F 
ATOM     92  C   UNL A   1      46.559  27.808  36.154  1.00  0.00     0.200 A 
ATOM     93  F   UNL A   1      47.865  29.482  35.122  1.00  0.00    -0.200 F 
ATOM     94  F   UNL A   1      47.649  27.304  36.747  1.00  0.00    -0.200 F 
ENDBRANCH  61  84
ENDBRANCH  35  36
ENDBRANCH  27  30
ENDBRANCH  25  26
ENDBRANCH  24  25
ENDBRANCH  23  24
ENDBRANCH  22  23
ENDBRANCH   1  22
TORSDOF 18
ENDMDL
MODEL 3
REMARK VINA RESULT:     -11.7      6.121     10.436
REMARK SMILES CC(C)(C(=O)NCCCCCCNC(=O)c1ccc(-c2c3nc(c(-c4c(F)c(F)c(F)c(F)c4F)c4ccc([nH]4)c(-c4c(F)c(F)c(F)c(F)c4F)c4nc(c(-c5c(F)c(F)c(F)c(F)c5F)c5ccc2[nH]5)C=C4)C=C3)cc1)c1ccc(C(=O)CCCCl)cc1
REMARK SMILES IDX 8 1 7 2 6 3 4 4 5 5 2 7 1 8 3 9 79 10 80 11 90 12 81 13
REMARK SMILES IDX 89 14 82 15 83 16 84 17 85 18 86 19 87 20 88 21 9 22 10 23
REMARK SMILES IDX 11 24 12 25 13 26 14 27 15 29 16 30 17 31 78 32 18 33 77 34
REMARK SMILES IDX 19 35 20 36 21 37 71 38 22 39 76 40 70 41 72 42 23 43 75 44
REMARK SMILES IDX 69 45 68 46 24 48 56 49 36 50 55 51 37 52 40 53 54 54 73 55
REMARK SMILES IDX 38 56 39 57 53 59 74 60 41 61 25 62 26 63 34 64 27 65 28 66
REMARK SMILES IDX 32 67 35 68 29 69 30 70 33 71 31 72 57 73 58 74 66 75 59 76
REMARK SMILES IDX 60 77 64 78 67 79 61 80 62 81 65 82 63 83 42 84 43 85 51 86
REMARK SMILES IDX 44 87 45 88 49 89 52 90 46 91 47 92 50 93 48 94
REMARK H PARENT 6 6 13 28 72 47 40 58
REMARK Flexibility Score: inf
ROOT
ATOM      1  C   UNL A   1      33.239  28.965  25.388  1.00  0.00     0.021 C 
ENDROOT
BRANCH   1   2
ATOM      2  C   UNL A   1      33.172  27.673  26.201  1.00  0.00     0.116 C 
BRANCH   2   3
ATOM      3  N   UNL A   1      33.965  26.649  25.563  1.00  0.00    -0.355 N 
ATOM      4  C   UNL A   1      33.682  25.376  25.190  1.00  0.00     0.230 C 
ATOM      5  O   UNL A   1      34.676  24.674  24.975  1.00  0.00    -0.274 OA
ATOM      6  H   UNL A   1      34.888  26.927  25.360  1.00  0.00     0.163 HD
BRANCH   4   7
ATOM      7  C   UNL A   1      32.225  24.849  25.005  1.00  0.00     0.068 C 
ATOM      8  C   UNL A   1      32.227  23.515  24.233  1.00  0.00     0.026 C 
ATOM      9  C   UNL A   1      31.548  24.632  26.382  1.00  0.00     0.026 C 
BRANCH   7  10
ATOM     10  C   UNL A   1      31.390  25.934  24.269  1.00  0.00    -0.033 A 
ATOM     11  C   UNL A   1      30.178  26.442  24.760  1.00  0.00     0.005 A 
ATOM     12  C   UNL A   1      31.855  26.434  23.036  1.00  0.00     0.005 A 
ATOM     13  C   UNL A   1      29.512  27.476  24.096  1.00  0.00     0.012 A 
ATOM     14  C   UNL A   1      31.173  27.437  22.353  1.00  0.00     0.012 A 
ATOM     15  C   UNL A   1      30.035  28.009  22.915  1.00  0.00     0.018 A 
BRANCH  15  16
ATOM     16  C   UNL A   1      29.400  29.225  22.339  1.00  0.00     0.162 C 
ATOM     17  O   UNL A   1      29.799  29.660  21.260  1.00  0.00    -0.294 OA
BRANCH  16  18
ATOM     18  C   UNL A   1      28.204  29.849  23.039  1.00  0.00     0.082 C 
BRANCH  18  19
ATOM     19  C   UNL A   1      28.515  31.221  23.649  1.00  0.00     0.024 C 
BRANCH  19  20
ATOM     20  C   UNL A   1      28.392  32.431  22.723  1.00  0.00     0.110 C 
ATOM     21  Cl  UNL A   1      29.308  33.833  23.321  1.00  0.00    -0.127 Cl
ENDBRANCH  19  20
ENDBRANCH  18  19
ENDBRANCH  16  18
ENDBRANCH  15  16
ENDBRANCH   7  10
ENDBRANCH   4   7
ENDBRANCH   2   3
ENDBRANCH   1   2
BRANCH   1  22
ATOM     22  C   UNL A   1      31.959  29.808  25.468  1.00  0.00     0.002 C 
BRANCH  22  23
ATOM     23  C   UNL A   1      31.686  30.431  26.840  1.00  0.00     0.002 C 
BRANCH  23  24
ATOM     24  C   UNL A   1      31.519  31.952  26.830  1.00  0.00     0.021 C 
BRANCH  24  25
ATOM     25  C   UNL A   1      32.807  32.723  27.086  1.00  0.00     0.116 C 
BRANCH  25  26
ATOM     26  N   UNL A   1      32.545  34.070  27.561  1.00  0.00    -0.352 N 
ATOM     27  C   UNL A   1      33.081  34.724  28.642  1.00  0.00     0.251 C 
ATOM     28  H   UNL A   1      31.891  34.587  27.036  1.00  0.00     0.163 HD
ATOM     29  O   UNL A   1      32.600  35.781  29.033  1.00  0.00    -0.269 OA
BRANCH  27  30
ATOM     30  C   UNL A   1      34.235  34.130  29.347  1.00  0.00     0.039 A 
ATOM     31  C   UNL A   1      34.000  33.225  30.384  1.00  0.00     0.014 A 
ATOM     32  C   UNL A   1      35.543  34.461  28.980  1.00  0.00     0.014 A 
ATOM     33  C   UNL A   1      35.079  32.608  31.017  1.00  0.00     0.010 A 
ATOM     34  C   UNL A   1      36.614  33.788  29.558  1.00  0.00     0.010 A 
ATOM     35  C   UNL A   1      36.393  32.857  30.586  1.00  0.00    -0.014 A 
BRANCH  35  36
ATOM     36  C   UNL A   1      37.550  32.156  31.196  1.00  0.00     0.031 A 
ATOM     37  C   UNL A   1      38.021  32.536  32.571  1.00  0.00     0.074 A 
ATOM     38  C   UNL A   1      38.208  31.218  30.488  1.00  0.00     0.049 A 
ATOM     39  N   UNL A   1      39.050  32.089  33.246  1.00  0.00    -0.248 NA
ATOM     40  C   UNL A   1      37.250  33.575  33.273  1.00  0.00     0.031 C 
ATOM     41  C   UNL A   1      37.869  30.791  29.130  1.00  0.00     0.029 A 
ATOM     42  N   UNL A   1      39.306  30.460  30.810  1.00  0.00    -0.354 N 
ATOM     43  C   UNL A   1      39.054  32.796  34.442  1.00  0.00     0.074 A 
ATOM     44  C   UNL A   1      37.962  33.742  34.377  1.00  0.00     0.031 C 
ATOM     45  C   UNL A   1      38.722  29.830  28.746  1.00  0.00     0.029 A 
ATOM     46  C   UNL A   1      39.695  29.603  29.810  1.00  0.00     0.049 A 
ATOM     47  H   UNL A   1      39.770  30.524  31.676  1.00  0.00     0.167 HD
ATOM     48  C   UNL A   1      39.877  32.650  35.507  1.00  0.00     0.037 A 
ATOM     49  C   UNL A   1      40.726  28.738  29.755  1.00  0.00     0.037 A 
ATOM     50  C   UNL A   1      40.951  31.694  35.573  1.00  0.00     0.049 A 
ATOM     51  C   UNL A   1      41.644  28.618  30.942  1.00  0.00     0.074 A 
ATOM     52  C   UNL A   1      41.812  31.435  36.624  1.00  0.00     0.029 A 
ATOM     53  N   UNL A   1      41.315  30.841  34.540  1.00  0.00    -0.354 N 
ATOM     54  N   UNL A   1      41.600  29.247  32.091  1.00  0.00    -0.248 NA
ATOM     55  C   UNL A   1      42.753  27.661  30.826  1.00  0.00     0.031 C 
ATOM     56  C   UNL A   1      42.729  30.464  36.210  1.00  0.00     0.029 A 
ATOM     57  C   UNL A   1      42.404  30.074  34.922  1.00  0.00     0.049 A 
ATOM     58  H   UNL A   1      40.865  30.789  33.665  1.00  0.00     0.167 HD
ATOM     59  C   UNL A   1      42.652  28.742  32.843  1.00  0.00     0.074 A 
ATOM     60  C   UNL A   1      43.307  27.743  32.026  1.00  0.00     0.031 C 
ATOM     61  C   UNL A   1      43.039  29.075  34.099  1.00  0.00     0.037 A 
BRANCH  48  62
ATOM     62  C   UNL A   1      39.648  33.544  36.692  1.00  0.00     0.064 A 
ATOM     63  C   UNL A   1      38.820  33.157  37.757  1.00  0.00     0.173 A 
ATOM     64  C   UNL A   1      40.296  34.785  36.784  1.00  0.00     0.173 A 
ATOM     65  F   UNL A   1      38.168  31.985  37.714  1.00  0.00    -0.203 F 
ATOM     66  C   UNL A   1      38.628  33.990  38.856  1.00  0.00     0.198 A 
ATOM     67  C   UNL A   1      40.128  35.601  37.900  1.00  0.00     0.198 A 
ATOM     68  F   UNL A   1      41.103  35.203  35.797  1.00  0.00    -0.203 F 
ATOM     69  F   UNL A   1      37.794  33.620  39.837  1.00  0.00    -0.200 F 
ATOM     70  C   UNL A   1      39.288  35.207  38.931  1.00  0.00     0.200 A 
ATOM     71  F   UNL A   1      40.779  36.770  37.977  1.00  0.00    -0.200 F 
ATOM     72  F   UNL A   1      39.110  36.003  39.994  1.00  0.00    -0.200 F 
ENDBRANCH  48  62
BRANCH  49  73
ATOM     73  C   UNL A   1      40.934  27.903  28.543  1.00  0.00     0.064 A 
ATOM     74  C   UNL A   1      41.788  28.327  27.515  1.00  0.00     0.173 A 
ATOM     75  C   UNL A   1      40.279  26.674  28.379  1.00  0.00     0.173 A 
ATOM     76  F   UNL A   1      42.422  29.505  27.616  1.00  0.00    -0.203 F 
ATOM     77  C   UNL A   1      41.960  27.566  26.361  1.00  0.00     0.198 A 
ATOM     78  C   UNL A   1      40.476  25.899  27.238  1.00  0.00     0.198 A 
ATOM     79  F   UNL A   1      39.454  26.219  29.335  1.00  0.00    -0.203 F 
ATOM     80  F   UNL A   1      42.743  28.020  25.373  1.00  0.00    -0.200 F 
ATOM     81  C   UNL A   1      41.309  26.350  26.225  1.00  0.00     0.200 A 
ATOM     82  F   UNL A   1      39.856  24.717  27.120  1.00  0.00    -0.200 F 
ATOM     83  F   UNL A   1      41.476  25.617  25.117  1.00  0.00    -0.200 F 
ENDBRANCH  49  73
BRANCH  61  84
ATOM     84  C   UNL A   1      44.201  28.325  34.685  1.00  0.00     0.064 A 
ATOM     85  C   UNL A   1      45.513  28.811  34.598  1.00  0.00     0.173 A 
ATOM     86  C   UNL A   1      43.991  27.125  35.381  1.00  0.00     0.173 A 
ATOM     87  F   UNL A   1      45.770  29.947  33.931  1.00  0.00    -0.203 F 
ATOM     88  C   UNL A   1      46.575  28.110  35.163  1.00  0.00     0.198 A 
ATOM     89  C   UNL A   1      45.050  26.444  35.974  1.00  0.00     0.198 A 
ATOM     90  F   UNL A   1      42.753  26.619  35.500  1.00  0.00    -0.203 F 
ATOM     91  F   UNL A   1      47.827  28.568  35.023  1.00  0.00    -0.200 F 
ATOM     92  C   UNL A   1      46.342  26.932  35.857  1.00  0.00     0.200 A 
ATOM     93  F   UNL A   1      44.820  25.315  36.659  1.00  0.00    -0.200 F 
ATOM     94  F   UNL A   1      47.364  26.264  36.409  1.00  0.00    -0.200 F 
ENDBRANCH  61  84
ENDBRANCH  35  36
ENDBRANCH  27  30
ENDBRANCH  25  26
ENDBRANCH  24  25
ENDBRANCH  23  24
ENDBRANCH  22  23
ENDBRANCH   1  22
TORSDOF 18
ENDMDL
