MODEL 1
REMARK VINA RESULT:     -10.9      0.000      0.000
REMARK SMILES O=C(NCCCCCCNC(=O)c1ccc(C[NH2+]CCOc2ccccc2)nc1)c1ccc(-c2c3nc(c(-c4c(F)c(F)c(F)c(F)c4F)c4ccc([nH]4)c(-c4c(F)c(F)c(F)c(F)c4F)c4nc(c(-c5c(F)c(F)c(F)c(F)c5F)c5ccc2[nH]5)C=C4)C=C3)cc1
REMARK SMILES IDX 8 1 7 2 6 3 5 4 4 5 3 6 1 7 2 8 30 10 31 11 92 12 32 13
REMARK SMILES IDX 91 14 33 15 34 16 35 17 85 18 36 19 90 20 84 21 86 22 37 23
REMARK SMILES IDX 89 24 83 25 82 26 38 28 70 29 50 30 69 31 51 32 54 33 68 34
REMARK SMILES IDX 87 35 52 36 53 37 67 39 88 40 55 41 39 42 40 43 48 44 41 45
REMARK SMILES IDX 42 46 46 47 49 48 43 49 44 50 47 51 45 52 71 53 72 54 80 55
REMARK SMILES IDX 73 56 74 57 78 58 81 59 75 60 76 61 79 62 77 63 56 64 57 65
REMARK SMILES IDX 65 66 58 67 59 68 63 69 66 70 60 71 61 72 64 73 62 74 9 75
REMARK SMILES IDX 10 76 11 77 12 79 13 80 14 81 29 82 15 83 28 84 16 85 17 86
REMARK SMILES IDX 18 87 19 90 20 91 21 92 22 93 23 94 27 95 24 96 26 97 25 98
REMARK H PARENT 3 9 86 27 54 38 10 78 18 88 18 89
REMARK Flexibility Score: inf
ROOT
ATOM      1  C   UNL A   1      35.541  21.811  26.150  1.00  0.00     0.021 C 
ENDROOT
BRANCH   1   2
ATOM      2  C   UNL A   1      35.920  20.860  25.010  1.00  0.00     0.002 C 
BRANCH   2   3
ATOM      3  C   UNL A   1      37.380  20.917  24.552  1.00  0.00     0.002 C 
BRANCH   3   4
ATOM      4  C   UNL A   1      38.238  19.707  24.919  1.00  0.00     0.021 C 
BRANCH   4   5
ATOM      5  C   UNL A   1      39.213  19.928  26.069  1.00  0.00     0.116 C 
BRANCH   5   6
ATOM      6  N   UNL A   1      40.364  19.045  26.004  1.00  0.00    -0.352 N 
ATOM      7  O   UNL A   1      42.545  18.497  25.832  1.00  0.00    -0.269 OA
ATOM      8  C   UNL A   1      41.703  19.355  26.053  1.00  0.00     0.251 C 
ATOM      9  H   UNL A   1      40.156  18.087  25.913  1.00  0.00     0.163 HD
BRANCH   8  10
ATOM     10  C   UNL A   1      42.125  20.743  26.350  1.00  0.00     0.039 A 
ATOM     11  C   UNL A   1      42.213  21.699  25.335  1.00  0.00     0.014 A 
ATOM     12  C   UNL A   1      42.418  21.093  27.671  1.00  0.00     0.014 A 
ATOM     13  C   UNL A   1      42.715  22.964  25.620  1.00  0.00     0.010 A 
ATOM     14  C   UNL A   1      42.846  22.389  27.969  1.00  0.00     0.010 A 
ATOM     15  C   UNL A   1      43.022  23.329  26.941  1.00  0.00    -0.014 A 
BRANCH  15  16
ATOM     16  C   UNL A   1      43.456  24.718  27.232  1.00  0.00     0.031 A 
ATOM     17  C   UNL A   1      42.512  25.725  27.821  1.00  0.00     0.074 A 
ATOM     18  C   UNL A   1      44.734  25.059  26.972  1.00  0.00     0.049 A 
ATOM     19  N   UNL A   1      42.734  26.974  28.146  1.00  0.00    -0.248 NA
ATOM     20  C   UNL A   1      41.133  25.278  28.072  1.00  0.00     0.031 C 
ATOM     21  C   UNL A   1      45.737  24.169  26.385  1.00  0.00     0.029 A 
ATOM     22  N   UNL A   1      45.411  26.233  27.178  1.00  0.00    -0.354 N 
ATOM     23  C   UNL A   1      41.528  27.466  28.625  1.00  0.00     0.074 A 
ATOM     24  C   UNL A   1      40.565  26.389  28.524  1.00  0.00     0.031 C 
ATOM     25  C   UNL A   1      46.910  24.813  26.314  1.00  0.00     0.029 A 
ATOM     26  C   UNL A   1      46.729  26.178  26.796  1.00  0.00     0.049 A 
ATOM     27  H   UNL A   1      44.992  27.038  27.561  1.00  0.00     0.167 HD
ATOM     28  C   UNL A   1      41.253  28.702  29.109  1.00  0.00     0.037 A 
ATOM     29  C   UNL A   1      47.682  27.126  26.814  1.00  0.00     0.037 A 
ATOM     30  C   UNL A   1      42.220  29.764  29.217  1.00  0.00     0.049 A 
ATOM     31  C   UNL A   1      47.343  28.493  27.336  1.00  0.00     0.074 A 
ATOM     32  C   UNL A   1      42.049  31.038  29.733  1.00  0.00     0.029 A 
ATOM     33  N   UNL A   1      43.539  29.680  28.795  1.00  0.00    -0.354 N 
ATOM     34  N   UNL A   1      46.208  28.932  27.823  1.00  0.00    -0.248 NA
ATOM     35  C   UNL A   1      48.415  29.495  27.306  1.00  0.00     0.031 C 
ATOM     36  C   UNL A   1      43.251  31.738  29.581  1.00  0.00     0.029 A 
ATOM     37  C   UNL A   1      44.186  30.887  29.016  1.00  0.00     0.049 A 
ATOM     38  H   UNL A   1      43.955  28.882  28.397  1.00  0.00     0.167 HD
ATOM     39  C   UNL A   1      46.431  30.256  28.171  1.00  0.00     0.074 A 
ATOM     40  C   UNL A   1      47.818  30.541  27.860  1.00  0.00     0.031 C 
ATOM     41  C   UNL A   1      45.565  31.155  28.696  1.00  0.00     0.037 A 
BRANCH  28  42
ATOM     42  C   UNL A   1      39.846  28.983  29.550  1.00  0.00     0.064 A 
ATOM     43  C   UNL A   1      38.867  29.431  28.651  1.00  0.00     0.173 A 
ATOM     44  C   UNL A   1      39.458  28.749  30.878  1.00  0.00     0.173 A 
ATOM     45  F   UNL A   1      39.188  29.681  27.372  1.00  0.00    -0.203 F 
ATOM     46  C   UNL A   1      37.557  29.655  29.070  1.00  0.00     0.198 A 
ATOM     47  C   UNL A   1      38.142  28.949  31.287  1.00  0.00     0.198 A 
ATOM     48  F   UNL A   1      40.353  28.313  31.778  1.00  0.00    -0.203 F 
ATOM     49  F   UNL A   1      36.649  30.120  28.201  1.00  0.00    -0.200 F 
ATOM     50  C   UNL A   1      37.194  29.407  30.385  1.00  0.00     0.200 A 
ATOM     51  F   UNL A   1      37.789  28.697  32.556  1.00  0.00    -0.200 F 
ATOM     52  F   UNL A   1      35.931  29.615  30.784  1.00  0.00    -0.200 F 
ENDBRANCH  28  42
BRANCH  29  53
ATOM     53  C   UNL A   1      49.045  26.807  26.319  1.00  0.00     0.064 A 
ATOM     54  C   UNL A   1      49.405  27.047  24.987  1.00  0.00     0.173 A 
ATOM     55  C   UNL A   1      50.021  26.272  27.175  1.00  0.00     0.173 A 
ATOM     56  F   UNL A   1      48.499  27.540  24.128  1.00  0.00    -0.203 F 
ATOM     57  C   UNL A   1      50.686  26.755  24.525  1.00  0.00     0.198 A 
ATOM     58  C   UNL A   1      51.311  26.008  26.719  1.00  0.00     0.198 A 
ATOM     59  F   UNL A   1      49.728  26.030  28.460  1.00  0.00    -0.203 F 
ATOM     60  F   UNL A   1      50.993  26.960  23.237  1.00  0.00    -0.200 F 
ATOM     61  C   UNL A   1      51.640  26.243  25.393  1.00  0.00     0.200 A 
ATOM     62  F   UNL A   1      52.232  25.531  27.565  1.00  0.00    -0.200 F 
ATOM     63  F   UNL A   1      52.875  25.972  24.950  1.00  0.00    -0.200 F 
ENDBRANCH  29  53
BRANCH  41  64
ATOM     64  C   UNL A   1      46.101  32.526  28.986  1.00  0.00     0.064 A 
ATOM     65  C   UNL A   1      46.698  32.835  30.217  1.00  0.00     0.173 A 
ATOM     66  C   UNL A   1      46.035  33.536  28.015  1.00  0.00     0.173 A 
ATOM     67  F   UNL A   1      46.767  31.908  31.185  1.00  0.00    -0.203 F 
ATOM     68  C   UNL A   1      47.188  34.113  30.473  1.00  0.00     0.198 A 
ATOM     69  C   UNL A   1      46.551  34.804  28.264  1.00  0.00     0.198 A 
ATOM     70  F   UNL A   1      45.476  33.289  26.819  1.00  0.00    -0.203 F 
ATOM     71  F   UNL A   1      47.710  34.399  31.674  1.00  0.00    -0.200 F 
ATOM     72  C   UNL A   1      47.120  35.094  29.496  1.00  0.00     0.200 A 
ATOM     73  F   UNL A   1      46.494  35.748  27.315  1.00  0.00    -0.200 F 
ATOM     74  F   UNL A   1      47.594  36.322  29.744  1.00  0.00    -0.200 F 
ENDBRANCH  41  64
ENDBRANCH  15  16
ENDBRANCH   8  10
ENDBRANCH   5   6
ENDBRANCH   4   5
ENDBRANCH   3   4
ENDBRANCH   2   3
ENDBRANCH   1   2
BRANCH   1  75
ATOM     75  C   UNL A   1      34.273  21.436  26.914  1.00  0.00     0.116 C 
BRANCH  75  76
ATOM     76  N   UNL A   1      33.673  20.212  26.417  1.00  0.00    -0.352 N 
ATOM     77  C   UNL A   1      32.621  20.061  25.549  1.00  0.00     0.252 C 
ATOM     78  H   UNL A   1      34.076  19.376  26.746  1.00  0.00     0.163 HD
ATOM     79  O   UNL A   1      32.128  18.957  25.348  1.00  0.00    -0.269 OA
BRANCH  77  80
ATOM     80  C   UNL A   1      32.074  21.240  24.866  1.00  0.00     0.058 A 
ATOM     81  C   UNL A   1      32.389  21.540  23.543  1.00  0.00     0.017 A 
ATOM     82  C   UNL A   1      31.222  22.085  25.554  1.00  0.00     0.125 A 
ATOM     83  C   UNL A   1      31.890  22.712  22.980  1.00  0.00     0.030 A 
ATOM     84  N   UNL A   1      30.731  23.234  25.030  1.00  0.00    -0.255 NA
ATOM     85  C   UNL A   1      31.078  23.544  23.753  1.00  0.00     0.094 A 
BRANCH  85  86
ATOM     86  C   UNL A   1      30.526  24.831  23.159  1.00  0.00     0.318 C 
BRANCH  86  87
ATOM     87  N   UNL A   1      29.444  25.400  23.967  1.00  0.00    -0.338 N 
ATOM     88  H   UNL A   1      29.186  24.717  24.680  1.00  0.00     0.346 HD
ATOM     89  H   UNL A   1      28.681  25.612  23.326  1.00  0.00     0.346 HD
BRANCH  87  90
ATOM     90  C   UNL A   1      29.788  26.655  24.639  1.00  0.00     0.302 C 
BRANCH  90  91
ATOM     91  C   UNL A   1      30.759  27.594  23.893  1.00  0.00     0.290 C 
BRANCH  91  92
ATOM     92  O   UNL A   1      31.933  27.864  24.674  1.00  0.00    -0.488 OA
BRANCH  92  93
ATOM     93  C   UNL A   1      32.793  26.803  24.722  1.00  0.00     0.119 A 
ATOM     94  C   UNL A   1      33.034  26.105  25.905  1.00  0.00     0.046 A 
ATOM     95  C   UNL A   1      33.489  26.483  23.559  1.00  0.00     0.046 A 
ATOM     96  C   UNL A   1      33.935  25.039  25.904  1.00  0.00     0.004 A 
ATOM     97  C   UNL A   1      34.368  25.403  23.552  1.00  0.00     0.004 A 
ATOM     98  C   UNL A   1      34.591  24.680  24.723  1.00  0.00     0.000 A 
ENDBRANCH  92  93
ENDBRANCH  91  92
ENDBRANCH  90  91
ENDBRANCH  87  90
ENDBRANCH  86  87
ENDBRANCH  85  86
ENDBRANCH  77  80
ENDBRANCH  75  76
ENDBRANCH   1  75
TORSDOF 19
ENDMDL
MODEL 2
REMARK VINA RESULT:     -10.9      5.169      9.755
REMARK SMILES O=C(NCCCCCCNC(=O)c1ccc(C[NH2+]CCOc2ccccc2)nc1)c1ccc(-c2c3nc(c(-c4c(F)c(F)c(F)c(F)c4F)c4ccc([nH]4)c(-c4c(F)c(F)c(F)c(F)c4F)c4nc(c(-c5c(F)c(F)c(F)c(F)c5F)c5ccc2[nH]5)C=C4)C=C3)cc1
REMARK SMILES IDX 8 1 7 2 6 3 5 4 4 5 3 6 1 7 2 8 30 10 31 11 92 12 32 13
REMARK SMILES IDX 91 14 33 15 34 16 35 17 85 18 36 19 90 20 84 21 86 22 37 23
REMARK SMILES IDX 89 24 83 25 82 26 38 28 70 29 50 30 69 31 51 32 54 33 68 34
REMARK SMILES IDX 87 35 52 36 53 37 67 39 88 40 55 41 39 42 40 43 48 44 41 45
REMARK SMILES IDX 42 46 46 47 49 48 43 49 44 50 47 51 45 52 71 53 72 54 80 55
REMARK SMILES IDX 73 56 74 57 78 58 81 59 75 60 76 61 79 62 77 63 56 64 57 65
REMARK SMILES IDX 65 66 58 67 59 68 63 69 66 70 60 71 61 72 64 73 62 74 9 75
REMARK SMILES IDX 10 76 11 77 12 79 13 80 14 81 29 82 15 83 28 84 16 85 17 86
REMARK SMILES IDX 18 87 19 90 20 91 21 92 22 93 23 94 27 95 24 96 26 97 25 98
REMARK H PARENT 3 9 86 27 54 38 10 78 18 88 18 89
REMARK Flexibility Score: inf
ROOT
ATOM      1  C   UNL A   1      34.620  29.208  27.107  1.00  0.00     0.021 C 
ENDROOT
BRANCH   1   2
ATOM      2  C   UNL A   1      33.935  30.533  27.456  1.00  0.00     0.002 C 
BRANCH   2   3
ATOM      3  C   UNL A   1      32.423  30.585  27.222  1.00  0.00     0.002 C 
BRANCH   3   4
ATOM      4  C   UNL A   1      31.803  31.982  27.195  1.00  0.00     0.021 C 
BRANCH   4   5
ATOM      5  C   UNL A   1      32.777  33.118  26.907  1.00  0.00     0.116 C 
BRANCH   5   6
ATOM      6  N   UNL A   1      32.436  34.339  27.615  1.00  0.00    -0.352 N 
ATOM      7  O   UNL A   1      32.457  35.820  29.316  1.00  0.00    -0.269 OA
ATOM      8  C   UNL A   1      32.968  34.850  28.775  1.00  0.00     0.251 C 
ATOM      9  H   UNL A   1      31.722  34.878  27.205  1.00  0.00     0.163 HD
BRANCH   8  10
ATOM     10  C   UNL A   1      34.154  34.207  29.385  1.00  0.00     0.039 A 
ATOM     11  C   UNL A   1      35.444  34.661  29.100  1.00  0.00     0.014 A 
ATOM     12  C   UNL A   1      33.965  33.143  30.273  1.00  0.00     0.014 A 
ATOM     13  C   UNL A   1      36.545  33.973  29.598  1.00  0.00     0.010 A 
ATOM     14  C   UNL A   1      35.072  32.503  30.837  1.00  0.00     0.010 A 
ATOM     15  C   UNL A   1      36.372  32.898  30.485  1.00  0.00    -0.014 A 
BRANCH  15  16
ATOM     16  C   UNL A   1      37.564  32.249  31.085  1.00  0.00     0.031 A 
ATOM     17  C   UNL A   1      38.049  32.620  32.456  1.00  0.00     0.074 A 
ATOM     18  C   UNL A   1      38.201  31.295  30.376  1.00  0.00     0.049 A 
ATOM     19  N   UNL A   1      39.065  32.141  33.130  1.00  0.00    -0.248 NA
ATOM     20  C   UNL A   1      37.304  33.672  33.164  1.00  0.00     0.031 C 
ATOM     21  C   UNL A   1      37.829  30.864  29.028  1.00  0.00     0.029 A 
ATOM     22  N   UNL A   1      39.280  30.510  30.691  1.00  0.00    -0.354 N 
ATOM     23  C   UNL A   1      39.092  32.838  34.330  1.00  0.00     0.074 A 
ATOM     24  C   UNL A   1      38.005  33.794  34.284  1.00  0.00     0.031 C 
ATOM     25  C   UNL A   1      38.639  29.866  28.646  1.00  0.00     0.029 A 
ATOM     26  C   UNL A   1      39.622  29.627  29.697  1.00  0.00     0.049 A 
ATOM     27  H   UNL A   1      39.763  30.575  31.547  1.00  0.00     0.167 HD
ATOM     28  C   UNL A   1      39.942  32.687  35.374  1.00  0.00     0.037 A 
ATOM     29  C   UNL A   1      40.627  28.736  29.630  1.00  0.00     0.037 A 
ATOM     30  C   UNL A   1      41.013  31.725  35.417  1.00  0.00     0.049 A 
ATOM     31  C   UNL A   1      41.566  28.606  30.794  1.00  0.00     0.074 A 
ATOM     32  C   UNL A   1      41.903  31.467  36.446  1.00  0.00     0.029 A 
ATOM     33  N   UNL A   1      41.347  30.866  34.379  1.00  0.00    -0.354 N 
ATOM     34  N   UNL A   1      41.554  29.244  31.939  1.00  0.00    -0.248 NA
ATOM     35  C   UNL A   1      42.660  27.637  30.654  1.00  0.00     0.031 C 
ATOM     36  C   UNL A   1      42.801  30.485  36.016  1.00  0.00     0.029 A 
ATOM     37  C   UNL A   1      42.443  30.094  34.736  1.00  0.00     0.049 A 
ATOM     38  H   UNL A   1      40.875  30.811  33.517  1.00  0.00     0.167 HD
ATOM     39  C   UNL A   1      42.628  28.745  32.662  1.00  0.00     0.074 A 
ATOM     40  C   UNL A   1      43.255  27.734  31.834  1.00  0.00     0.031 C 
ATOM     41  C   UNL A   1      43.058  29.096  33.898  1.00  0.00     0.037 A 
BRANCH  28  42
ATOM     42  C   UNL A   1      39.761  33.592  36.559  1.00  0.00     0.064 A 
ATOM     43  C   UNL A   1      40.405  34.835  36.642  1.00  0.00     0.173 A 
ATOM     44  C   UNL A   1      38.890  33.234  37.599  1.00  0.00     0.173 A 
ATOM     45  F   UNL A   1      41.256  35.222  35.679  1.00  0.00    -0.203 F 
ATOM     46  C   UNL A   1      40.200  35.678  37.733  1.00  0.00     0.198 A 
ATOM     47  C   UNL A   1      38.668  34.090  38.675  1.00  0.00     0.198 A 
ATOM     48  F   UNL A   1      38.245  32.059  37.566  1.00  0.00    -0.203 F 
ATOM     49  F   UNL A   1      40.855  36.844  37.809  1.00  0.00    -0.200 F 
ATOM     50  C   UNL A   1      39.326  35.308  38.745  1.00  0.00     0.200 A 
ATOM     51  F   UNL A   1      37.814  33.736  39.647  1.00  0.00    -0.200 F 
ATOM     52  F   UNL A   1      39.123  36.123  39.789  1.00  0.00    -0.200 F 
ENDBRANCH  28  42
BRANCH  29  53
ATOM     53  C   UNL A   1      40.788  27.901  28.413  1.00  0.00     0.064 A 
ATOM     54  C   UNL A   1      40.136  26.667  28.293  1.00  0.00     0.173 A 
ATOM     55  C   UNL A   1      41.582  28.330  27.338  1.00  0.00     0.173 A 
ATOM     56  F   UNL A   1      39.382  26.207  29.302  1.00  0.00    -0.203 F 
ATOM     57  C   UNL A   1      40.280  25.887  27.147  1.00  0.00     0.198 A 
ATOM     58  C   UNL A   1      41.701  27.563  26.181  1.00  0.00     0.198 A 
ATOM     59  F   UNL A   1      42.221  29.506  27.403  1.00  0.00    -0.203 F 
ATOM     60  F   UNL A   1      39.676  24.694  27.072  1.00  0.00    -0.200 F 
ATOM     61  C   UNL A   1      41.057  26.339  26.090  1.00  0.00     0.200 A 
ATOM     62  F   UNL A   1      42.437  28.012  25.156  1.00  0.00    -0.200 F 
ATOM     63  F   UNL A   1      41.186  25.593  24.984  1.00  0.00    -0.200 F 
ENDBRANCH  29  53
BRANCH  41  64
ATOM     64  C   UNL A   1      44.252  28.365  34.436  1.00  0.00     0.064 A 
ATOM     65  C   UNL A   1      45.557  28.824  34.208  1.00  0.00     0.173 A 
ATOM     66  C   UNL A   1      44.087  27.204  35.207  1.00  0.00     0.173 A 
ATOM     67  F   UNL A   1      45.766  29.919  33.462  1.00  0.00    -0.203 F 
ATOM     68  C   UNL A   1      46.656  28.133  34.711  1.00  0.00     0.198 A 
ATOM     69  C   UNL A   1      45.187  26.531  35.730  1.00  0.00     0.198 A 
ATOM     70  F   UNL A   1      42.858  26.726  35.456  1.00  0.00    -0.203 F 
ATOM     71  F   UNL A   1      47.896  28.562  34.439  1.00  0.00    -0.200 F 
ATOM     72  C   UNL A   1      46.471  26.992  35.476  1.00  0.00     0.200 A 
ATOM     73  F   UNL A   1      45.006  25.434  36.479  1.00  0.00    -0.200 F 
ATOM     74  F   UNL A   1      47.530  26.329  35.961  1.00  0.00    -0.200 F 
ENDBRANCH  41  64
ENDBRANCH  15  16
ENDBRANCH   8  10
ENDBRANCH   5   6
ENDBRANCH   4   5
ENDBRANCH   3   4
ENDBRANCH   2   3
ENDBRANCH   1   2
BRANCH   1  75
ATOM     75  C   UNL A   1      33.675  28.062  26.754  1.00  0.00     0.116 C 
BRANCH  75  76
ATOM     76  N   UNL A   1      33.579  27.850  25.322  1.00  0.00    -0.352 N 
ATOM     77  C   UNL A   1      33.664  26.675  24.618  1.00  0.00     0.252 C 
ATOM     78  H   UNL A   1      33.431  28.660  24.780  1.00  0.00     0.163 HD
ATOM     79  O   UNL A   1      33.721  26.680  23.394  1.00  0.00    -0.269 OA
BRANCH  77  80
ATOM     80  C   UNL A   1      33.703  25.400  25.346  1.00  0.00     0.058 A 
ATOM     81  C   UNL A   1      32.564  24.848  25.927  1.00  0.00     0.017 A 
ATOM     82  C   UNL A   1      34.904  24.725  25.463  1.00  0.00     0.125 A 
ATOM     83  C   UNL A   1      32.686  23.671  26.663  1.00  0.00     0.030 A 
ATOM     84  N   UNL A   1      35.048  23.584  26.180  1.00  0.00    -0.255 NA
ATOM     85  C   UNL A   1      33.941  23.073  26.783  1.00  0.00     0.094 A 
BRANCH  85  86
ATOM     86  C   UNL A   1      34.097  21.789  27.585  1.00  0.00     0.318 C 
BRANCH  86  87
ATOM     87  N   UNL A   1      33.419  20.653  26.957  1.00  0.00    -0.338 N 
ATOM     88  H   UNL A   1      32.413  20.811  27.016  1.00  0.00     0.346 HD
ATOM     89  H   UNL A   1      33.720  19.819  27.460  1.00  0.00     0.346 HD
BRANCH  87  90
ATOM     90  C   UNL A   1      33.768  20.443  25.550  1.00  0.00     0.302 C 
BRANCH  90  91
ATOM     91  C   UNL A   1      32.596  20.407  24.546  1.00  0.00     0.290 C 
BRANCH  91  92
ATOM     92  O   UNL A   1      31.865  19.175  24.636  1.00  0.00    -0.488 OA
BRANCH  92  93
ATOM     93  C   UNL A   1      32.667  18.074  24.527  1.00  0.00     0.119 A 
ATOM     94  C   UNL A   1      33.310  17.749  23.333  1.00  0.00     0.046 A 
ATOM     95  C   UNL A   1      32.762  17.232  25.632  1.00  0.00     0.046 A 
ATOM     96  C   UNL A   1      34.104  16.603  23.269  1.00  0.00     0.004 A 
ATOM     97  C   UNL A   1      33.577  16.104  25.576  1.00  0.00     0.004 A 
ATOM     98  C   UNL A   1      34.249  15.789  24.396  1.00  0.00     0.000 A 
ENDBRANCH  92  93
ENDBRANCH  91  92
ENDBRANCH  90  91
ENDBRANCH  87  90
ENDBRANCH  86  87
ENDBRANCH  85  86
ENDBRANCH  77  80
ENDBRANCH  75  76
ENDBRANCH   1  75
TORSDOF 19
ENDMDL
MODEL 3
REMARK VINA RESULT:     -10.9      0.938      7.304
REMARK SMILES O=C(NCCCCCCNC(=O)c1ccc(C[NH2+]CCOc2ccccc2)nc1)c1ccc(-c2c3nc(c(-c4c(F)c(F)c(F)c(F)c4F)c4ccc([nH]4)c(-c4c(F)c(F)c(F)c(F)c4F)c4nc(c(-c5c(F)c(F)c(F)c(F)c5F)c5ccc2[nH]5)C=C4)C=C3)cc1
REMARK SMILES IDX 8 1 7 2 6 3 5 4 4 5 3 6 1 7 2 8 30 10 31 11 92 12 32 13
REMARK SMILES IDX 91 14 33 15 34 16 35 17 85 18 36 19 90 20 84 21 86 22 37 23
REMARK SMILES IDX 89 24 83 25 82 26 38 28 70 29 50 30 69 31 51 32 54 33 68 34
REMARK SMILES IDX 87 35 52 36 53 37 67 39 88 40 55 41 39 42 40 43 48 44 41 45
REMARK SMILES IDX 42 46 46 47 49 48 43 49 44 50 47 51 45 52 71 53 72 54 80 55
REMARK SMILES IDX 73 56 74 57 78 58 81 59 75 60 76 61 79 62 77 63 56 64 57 65
REMARK SMILES IDX 65 66 58 67 59 68 63 69 66 70 60 71 61 72 64 73 62 74 9 75
REMARK SMILES IDX 10 76 11 77 12 79 13 80 14 81 29 82 15 83 28 84 16 85 17 86
REMARK SMILES IDX 18 87 19 90 20 91 21 92 22 93 23 94 27 95 24 96 26 97 25 98
REMARK H PARENT 3 9 86 27 54 38 10 78 18 88 18 89
REMARK Flexibility Score: inf
ROOT
ATOM      1  C   UNL A   1      35.237  21.763  25.778  1.00  0.00     0.021 C 
ENDROOT
BRANCH   1   2
ATOM      2  C   UNL A   1      35.991  21.076  24.635  1.00  0.00     0.002 C 
BRANCH   2   3
ATOM      3  C   UNL A   1      36.721  19.781  25.001  1.00  0.00     0.002 C 
BRANCH   3   4
ATOM      4  C   UNL A   1      38.222  19.762  24.711  1.00  0.00     0.021 C 
BRANCH   4   5
ATOM      5  C   UNL A   1      39.119  19.992  25.920  1.00  0.00     0.116 C 
BRANCH   5   6
ATOM      6  N   UNL A   1      40.238  19.068  25.971  1.00  0.00    -0.352 N 
ATOM      7  O   UNL A   1      42.405  18.441  25.994  1.00  0.00    -0.269 OA
ATOM      8  C   UNL A   1      41.579  19.333  26.126  1.00  0.00     0.251 C 
ATOM      9  H   UNL A   1      40.004  18.116  25.881  1.00  0.00     0.163 HD
BRANCH   8  10
ATOM     10  C   UNL A   1      42.025  20.711  26.430  1.00  0.00     0.039 A 
ATOM     11  C   UNL A   1      42.258  21.115  27.747  1.00  0.00     0.014 A 
ATOM     12  C   UNL A   1      42.231  21.605  25.375  1.00  0.00     0.014 A 
ATOM     13  C   UNL A   1      42.572  22.443  28.018  1.00  0.00     0.010 A 
ATOM     14  C   UNL A   1      42.624  22.919  25.643  1.00  0.00     0.010 A 
ATOM     15  C   UNL A   1      42.774  23.355  26.969  1.00  0.00    -0.014 A 
BRANCH  15  16
ATOM     16  C   UNL A   1      43.210  24.739  27.281  1.00  0.00     0.031 A 
ATOM     17  C   UNL A   1      44.603  25.207  26.974  1.00  0.00     0.074 A 
ATOM     18  C   UNL A   1      42.318  25.584  27.833  1.00  0.00     0.049 A 
ATOM     19  N   UNL A   1      45.140  26.386  27.171  1.00  0.00    -0.248 NA
ATOM     20  C   UNL A   1      45.519  24.225  26.375  1.00  0.00     0.031 C 
ATOM     21  C   UNL A   1      40.941  25.236  28.190  1.00  0.00     0.029 A 
ATOM     22  N   UNL A   1      42.426  26.907  28.180  1.00  0.00    -0.354 N 
ATOM     23  C   UNL A   1      46.454  26.285  26.737  1.00  0.00     0.074 A 
ATOM     24  C   UNL A   1      46.646  24.922  26.288  1.00  0.00     0.031 C 
ATOM     25  C   UNL A   1      40.321  26.324  28.666  1.00  0.00     0.029 A 
ATOM     26  C   UNL A   1      41.270  27.431  28.704  1.00  0.00     0.049 A 
ATOM     27  H   UNL A   1      43.253  27.429  28.064  1.00  0.00     0.167 HD
ATOM     28  C   UNL A   1      47.410  27.246  26.710  1.00  0.00     0.037 A 
ATOM     29  C   UNL A   1      41.008  28.661  29.179  1.00  0.00     0.037 A 
ATOM     30  C   UNL A   1      47.208  28.604  27.147  1.00  0.00     0.049 A 
ATOM     31  C   UNL A   1      42.093  29.699  29.156  1.00  0.00     0.074 A 
ATOM     32  C   UNL A   1      48.101  29.662  27.121  1.00  0.00     0.029 A 
ATOM     33  N   UNL A   1      46.031  29.091  27.698  1.00  0.00    -0.354 N 
ATOM     34  N   UNL A   1      43.319  29.601  28.705  1.00  0.00    -0.248 NA
ATOM     35  C   UNL A   1      41.757  31.016  29.713  1.00  0.00     0.031 C 
ATOM     36  C   UNL A   1      47.481  30.776  27.696  1.00  0.00     0.029 A 
ATOM     37  C   UNL A   1      46.184  30.428  28.037  1.00  0.00     0.049 A 
ATOM     38  H   UNL A   1      45.209  28.567  27.828  1.00  0.00     0.167 HD
ATOM     39  C   UNL A   1      43.899  30.844  28.909  1.00  0.00     0.074 A 
ATOM     40  C   UNL A   1      42.881  31.687  29.504  1.00  0.00     0.031 C 
ATOM     41  C   UNL A   1      45.162  31.250  28.633  1.00  0.00     0.037 A 
BRANCH  28  42
ATOM     42  C   UNL A   1      48.770  26.865  26.202  1.00  0.00     0.064 A 
ATOM     43  C   UNL A   1      49.129  27.031  24.857  1.00  0.00     0.173 A 
ATOM     44  C   UNL A   1      49.746  26.376  27.085  1.00  0.00     0.173 A 
ATOM     45  F   UNL A   1      48.231  27.485  23.969  1.00  0.00    -0.203 F 
ATOM     46  C   UNL A   1      50.407  26.703  24.410  1.00  0.00     0.198 A 
ATOM     47  C   UNL A   1      51.030  26.074  26.640  1.00  0.00     0.198 A 
ATOM     48  F   UNL A   1      49.457  26.204  28.384  1.00  0.00    -0.203 F 
ATOM     49  F   UNL A   1      50.715  26.836  23.112  1.00  0.00    -0.200 F 
ATOM     50  C   UNL A   1      51.359  26.232  25.302  1.00  0.00     0.200 A 
ATOM     51  F   UNL A   1      51.952  25.630  27.506  1.00  0.00    -0.200 F 
ATOM     52  F   UNL A   1      52.590  25.926  24.872  1.00  0.00    -0.200 F 
ENDBRANCH  28  42
BRANCH  29  53
ATOM     53  C   UNL A   1      39.658  28.969  29.715  1.00  0.00     0.064 A 
ATOM     54  C   UNL A   1      39.354  28.765  31.067  1.00  0.00     0.173 A 
ATOM     55  C   UNL A   1      38.650  29.491  28.889  1.00  0.00     0.173 A 
ATOM     56  F   UNL A   1      40.280  28.250  31.890  1.00  0.00    -0.203 F 
ATOM     57  C   UNL A   1      38.090  29.061  31.572  1.00  0.00     0.198 A 
ATOM     58  C   UNL A   1      37.396  29.815  29.401  1.00  0.00     0.198 A 
ATOM     59  F   UNL A   1      38.894  29.709  27.589  1.00  0.00    -0.203 F 
ATOM     60  F   UNL A   1      37.814  28.822  32.861  1.00  0.00    -0.200 F 
ATOM     61  C   UNL A   1      37.115  29.593  30.740  1.00  0.00     0.200 A 
ATOM     62  F   UNL A   1      36.464  30.344  28.598  1.00  0.00    -0.200 F 
ATOM     63  F   UNL A   1      35.903  29.887  31.229  1.00  0.00    -0.200 F 
ENDBRANCH  29  53
BRANCH  41  64
ATOM     64  C   UNL A   1      45.504  32.675  28.953  1.00  0.00     0.064 A 
ATOM     65  C   UNL A   1      46.080  33.032  30.181  1.00  0.00     0.173 A 
ATOM     66  C   UNL A   1      45.273  33.691  28.014  1.00  0.00     0.173 A 
ATOM     67  F   UNL A   1      46.302  32.099  31.119  1.00  0.00    -0.203 F 
ATOM     68  C   UNL A   1      46.389  34.360  30.466  1.00  0.00     0.198 A 
ATOM     69  C   UNL A   1      45.609  35.012  28.291  1.00  0.00     0.198 A 
ATOM     70  F   UNL A   1      44.728  33.399  26.822  1.00  0.00    -0.203 F 
ATOM     71  F   UNL A   1      46.892  34.685  31.665  1.00  0.00    -0.200 F 
ATOM     72  C   UNL A   1      46.159  35.347  29.520  1.00  0.00     0.200 A 
ATOM     73  F   UNL A   1      45.396  35.964  27.372  1.00  0.00    -0.200 F 
ATOM     74  F   UNL A   1      46.460  36.624  29.796  1.00  0.00    -0.200 F 
ENDBRANCH  41  64
ENDBRANCH  15  16
ENDBRANCH   8  10
ENDBRANCH   5   6
ENDBRANCH   4   5
ENDBRANCH   3   4
ENDBRANCH   2   3
ENDBRANCH   1   2
BRANCH   1  75
ATOM     75  C   UNL A   1      33.716  21.642  25.718  1.00  0.00     0.116 C 
BRANCH  75  76
ATOM     76  N   UNL A   1      33.276  20.769  24.646  1.00  0.00    -0.352 N 
ATOM     77  C   UNL A   1      32.594  21.091  23.499  1.00  0.00     0.252 C 
ATOM     78  H   UNL A   1      33.496  19.816  24.755  1.00  0.00     0.163 HD
ATOM     79  O   UNL A   1      32.154  20.215  22.764  1.00  0.00    -0.269 OA
BRANCH  77  80
ATOM     80  C   UNL A   1      32.379  22.504  23.161  1.00  0.00     0.058 A 
ATOM     81  C   UNL A   1      31.206  23.173  23.500  1.00  0.00     0.017 A 
ATOM     82  C   UNL A   1      33.367  23.195  22.482  1.00  0.00     0.125 A 
ATOM     83  C   UNL A   1      31.039  24.493  23.086  1.00  0.00     0.030 A 
ATOM     84  N   UNL A   1      33.223  24.475  22.063  1.00  0.00    -0.255 NA
ATOM     85  C   UNL A   1      32.058  25.110  22.358  1.00  0.00     0.094 A 
BRANCH  85  86
ATOM     86  C   UNL A   1      31.895  26.549  21.893  1.00  0.00     0.318 C 
BRANCH  86  87
ATOM     87  N   UNL A   1      30.653  27.155  22.379  1.00  0.00    -0.338 N 
ATOM     88  H   UNL A   1      30.358  26.651  23.214  1.00  0.00     0.346 HD
ATOM     89  H   UNL A   1      29.979  27.091  21.617  1.00  0.00     0.346 HD
BRANCH  87  90
ATOM     90  C   UNL A   1      30.767  28.575  22.719  1.00  0.00     0.302 C 
BRANCH  90  91
ATOM     91  C   UNL A   1      31.850  28.953  23.753  1.00  0.00     0.290 C 
BRANCH  91  92
ATOM     92  O   UNL A   1      31.484  28.529  25.075  1.00  0.00    -0.488 OA
BRANCH  92  93
ATOM     93  C   UNL A   1      32.057  27.340  25.427  1.00  0.00     0.119 A 
ATOM     94  C   UNL A   1      31.358  26.374  26.150  1.00  0.00     0.046 A 
ATOM     95  C   UNL A   1      33.399  27.150  25.108  1.00  0.00     0.046 A 
ATOM     96  C   UNL A   1      31.996  25.182  26.501  1.00  0.00     0.004 A 
ATOM     97  C   UNL A   1      34.026  25.950  25.433  1.00  0.00     0.004 A 
ATOM     98  C   UNL A   1      33.325  24.965  26.128  1.00  0.00     0.000 A 
ENDBRANCH  92  93
ENDBRANCH  91  92
ENDBRANCH  90  91
ENDBRANCH  87  90
ENDBRANCH  86  87
ENDBRANCH  85  86
ENDBRANCH  77  80
ENDBRANCH  75  76
ENDBRANCH   1  75
TORSDOF 19
ENDMDL
