MODEL 1
REMARK VINA RESULT:     -12.4      0.000      0.000
REMARK SMILES C[C@@H](C(=O)NCCCCCCNC(=O)c1ccc(-c2c3nc(c(-c4c(F)c(F)c(F)c(F)c4F)c4ccc([nH]4)c(-c4c(F)c(F)c(F)c(F)c4F)c4nc(c(-c5c(F)c(F)c(F)c(F)c5F)c5ccc2[nH]5)C=C4)C=C3)cc1)c1ccc(NC2CCCC2)cc1F
REMARK SMILES IDX 8 1 7 2 6 3 5 4 3 5 4 6 2 8 1 9 78 10 79 11 89 12 80 13
REMARK SMILES IDX 88 14 90 15 81 16 82 17 83 19 84 20 87 21 85 22 86 23 9 24
REMARK SMILES IDX 10 25 11 26 12 27 13 28 14 30 15 31 16 32 77 33 17 34 76 35
REMARK SMILES IDX 18 36 19 37 20 38 70 39 21 40 75 41 69 42 71 43 22 44 74 45
REMARK SMILES IDX 68 46 67 47 23 49 55 50 35 51 54 52 36 53 39 54 53 55 72 56
REMARK SMILES IDX 37 57 38 58 52 60 73 61 40 62 24 63 25 64 33 65 26 66 27 67
REMARK SMILES IDX 31 68 34 69 28 70 29 71 32 72 30 73 56 74 57 75 65 76 58 77
REMARK SMILES IDX 59 78 63 79 66 80 60 81 61 82 64 83 62 84 41 85 42 86 50 87
REMARK SMILES IDX 43 88 44 89 48 90 51 91 45 92 46 93 49 94 47 95
REMARK H PARENT 5 7 82 18 12 29 71 48 39 59
REMARK Flexibility Score: inf
ROOT
ATOM      1  C   UNL A   1      32.971  29.813  26.832  1.00  0.00     0.002 C 
ENDROOT
BRANCH   1   2
ATOM      2  C   UNL A   1      32.779  28.302  27.010  1.00  0.00     0.021 C 
BRANCH   2   3
ATOM      3  C   UNL A   1      31.609  27.732  26.198  1.00  0.00     0.116 C 
BRANCH   3   4
ATOM      4  N   UNL A   1      31.146  26.506  26.812  1.00  0.00    -0.356 N 
ATOM      5  C   UNL A   1      30.830  25.328  26.190  1.00  0.00     0.227 C 
ATOM      6  O   UNL A   1      29.978  24.617  26.723  1.00  0.00    -0.274 OA
ATOM      7  H   UNL A   1      31.048  26.519  27.792  1.00  0.00     0.163 HD
BRANCH   5   8
ATOM      8  C   UNL A   1      31.540  24.979  24.873  1.00  0.00     0.108 C 
ATOM      9  C   UNL A   1      30.501  25.022  23.737  1.00  0.00     0.023 C 
BRANCH   8  10
ATOM     10  C   UNL A   1      32.289  23.650  24.902  1.00  0.00     0.000 A 
ATOM     11  C   UNL A   1      31.929  22.610  24.042  1.00  0.00     0.009 A 
ATOM     12  C   UNL A   1      33.378  23.412  25.747  1.00  0.00     0.129 A 
ATOM     13  C   UNL A   1      32.540  21.360  24.121  1.00  0.00     0.026 A 
ATOM     14  C   UNL A   1      33.967  22.147  25.849  1.00  0.00     0.065 A 
ATOM     15  F   UNL A   1      33.901  24.407  26.478  1.00  0.00    -0.207 F 
ATOM     16  C   UNL A   1      33.527  21.077  25.064  1.00  0.00     0.037 A 
BRANCH  16  17
ATOM     17  N   UNL A   1      34.112  19.836  25.205  1.00  0.00    -0.382 N 
ATOM     18  H   UNL A   1      34.954  19.810  25.716  1.00  0.00     0.160 HD
BRANCH  17  19
ATOM     19  C   UNL A   1      33.637  18.558  24.693  1.00  0.00     0.079 C 
ATOM     20  C   UNL A   1      34.744  17.581  24.306  1.00  0.00     0.025 C 
ATOM     21  C   UNL A   1      32.714  17.823  25.665  1.00  0.00     0.025 C 
ATOM     22  C   UNL A   1      34.099  16.210  24.441  1.00  0.00     0.002 C 
ATOM     23  C   UNL A   1      33.039  16.340  25.529  1.00  0.00     0.002 C 
ENDBRANCH  17  19
ENDBRANCH  16  17
ENDBRANCH   8  10
ENDBRANCH   5   8
ENDBRANCH   3   4
ENDBRANCH   2   3
ENDBRANCH   1   2
BRANCH   1  24
ATOM     24  C   UNL A   1      31.809  30.516  26.129  1.00  0.00     0.002 C 
BRANCH  24  25
ATOM     25  C   UNL A   1      31.492  31.905  26.683  1.00  0.00     0.021 C 
BRANCH  25  26
ATOM     26  C   UNL A   1      32.691  32.605  27.309  1.00  0.00     0.116 C 
BRANCH  26  27
ATOM     27  N   UNL A   1      32.417  34.009  27.572  1.00  0.00    -0.352 N 
ATOM     28  C   UNL A   1      32.963  34.817  28.536  1.00  0.00     0.251 C 
ATOM     29  H   UNL A   1      31.754  34.435  26.981  1.00  0.00     0.163 HD
ATOM     30  O   UNL A   1      32.485  35.919  28.784  1.00  0.00    -0.269 OA
BRANCH  28  31
ATOM     31  C   UNL A   1      34.136  34.330  29.287  1.00  0.00     0.039 A 
ATOM     32  C   UNL A   1      33.943  33.574  30.445  1.00  0.00     0.014 A 
ATOM     33  C   UNL A   1      35.423  34.600  28.816  1.00  0.00     0.014 A 
ATOM     34  C   UNL A   1      35.051  33.040  31.107  1.00  0.00     0.010 A 
ATOM     35  C   UNL A   1      36.515  34.001  29.427  1.00  0.00     0.010 A 
ATOM     36  C   UNL A   1      36.341  33.226  30.585  1.00  0.00    -0.014 A 
BRANCH  36  37
ATOM     37  C   UNL A   1      37.543  32.662  31.245  1.00  0.00     0.031 A 
ATOM     38  C   UNL A   1      38.281  31.532  30.584  1.00  0.00     0.074 A 
ATOM     39  C   UNL A   1      37.905  33.085  32.470  1.00  0.00     0.049 A 
ATOM     40  N   UNL A   1      39.245  30.782  31.052  1.00  0.00    -0.248 NA
ATOM     41  C   UNL A   1      37.846  31.176  29.224  1.00  0.00     0.031 C 
ATOM     42  C   UNL A   1      37.247  34.150  33.226  1.00  0.00     0.029 A 
ATOM     43  N   UNL A   1      38.901  32.648  33.306  1.00  0.00    -0.354 N 
ATOM     44  C   UNL A   1      39.508  29.849  30.058  1.00  0.00     0.074 A 
ATOM     45  C   UNL A   1      38.565  30.090  28.988  1.00  0.00     0.031 C 
ATOM     46  C   UNL A   1      37.860  34.289  34.411  1.00  0.00     0.029 A 
ATOM     47  C   UNL A   1      38.921  33.290  34.519  1.00  0.00     0.049 A 
ATOM     48  H   UNL A   1      39.540  31.940  33.061  1.00  0.00     0.167 HD
ATOM     49  C   UNL A   1      40.463  28.889  30.034  1.00  0.00     0.037 A 
ATOM     50  C   UNL A   1      39.694  33.082  35.603  1.00  0.00     0.037 A 
ATOM     51  C   UNL A   1      41.411  28.672  31.095  1.00  0.00     0.049 A 
ATOM     52  C   UNL A   1      40.743  32.003  35.562  1.00  0.00     0.074 A 
ATOM     53  C   UNL A   1      42.455  27.768  31.147  1.00  0.00     0.029 A 
ATOM     54  N   UNL A   1      41.422  29.369  32.296  1.00  0.00    -0.354 N 
ATOM     55  N   UNL A   1      41.022  31.158  34.599  1.00  0.00    -0.248 NA
ATOM     56  C   UNL A   1      41.586  31.850  36.755  1.00  0.00     0.031 C 
ATOM     57  C   UNL A   1      43.063  27.876  32.402  1.00  0.00     0.029 A 
ATOM     58  C   UNL A   1      42.442  28.897  33.105  1.00  0.00     0.049 A 
ATOM     59  H   UNL A   1      40.799  30.092  32.535  1.00  0.00     0.167 HD
ATOM     60  C   UNL A   1      42.095  30.402  35.050  1.00  0.00     0.074 A 
ATOM     61  C   UNL A   1      42.415  30.887  36.377  1.00  0.00     0.031 C 
ATOM     62  C   UNL A   1      42.759  29.403  34.418  1.00  0.00     0.037 A 
BRANCH  49  63
ATOM     63  C   UNL A   1      40.512  27.994  28.826  1.00  0.00     0.064 A 
ATOM     64  C   UNL A   1      41.266  28.323  27.688  1.00  0.00     0.173 A 
ATOM     65  C   UNL A   1      39.789  26.792  28.806  1.00  0.00     0.173 A 
ATOM     66  F   UNL A   1      41.968  29.466  27.651  1.00  0.00    -0.203 F 
ATOM     67  C   UNL A   1      41.255  27.508  26.560  1.00  0.00     0.198 A 
ATOM     68  C   UNL A   1      39.813  25.960  27.689  1.00  0.00     0.198 A 
ATOM     69  F   UNL A   1      39.057  26.423  29.867  1.00  0.00    -0.203 F 
ATOM     70  F   UNL A   1      41.923  27.882  25.459  1.00  0.00    -0.200 F 
ATOM     71  C   UNL A   1      40.533  26.325  26.563  1.00  0.00     0.200 A 
ATOM     72  F   UNL A   1      39.127  24.808  27.701  1.00  0.00    -0.200 F 
ATOM     73  F   UNL A   1      40.521  25.543  25.475  1.00  0.00    -0.200 F 
ENDBRANCH  49  63
BRANCH  50  74
ATOM     74  C   UNL A   1      39.511  33.932  36.807  1.00  0.00     0.064 A 
ATOM     75  C   UNL A   1      38.728  33.496  37.885  1.00  0.00     0.173 A 
ATOM     76  C   UNL A   1      40.137  35.183  36.920  1.00  0.00     0.173 A 
ATOM     77  F   UNL A   1      38.096  32.315  37.817  1.00  0.00    -0.203 F 
ATOM     78  C   UNL A   1      38.569  34.282  39.025  1.00  0.00     0.198 A 
ATOM     79  C   UNL A   1      39.999  35.956  38.071  1.00  0.00     0.198 A 
ATOM     80  F   UNL A   1      40.902  35.644  35.920  1.00  0.00    -0.203 F 
ATOM     81  F   UNL A   1      37.787  33.855  40.026  1.00  0.00    -0.200 F 
ATOM     82  C   UNL A   1      39.211  35.507  39.120  1.00  0.00     0.200 A 
ATOM     83  F   UNL A   1      40.635  37.131  38.167  1.00  0.00    -0.200 F 
ATOM     84  F   UNL A   1      39.068  36.257  40.222  1.00  0.00    -0.200 F 
ENDBRANCH  50  74
BRANCH  62  85
ATOM     85  C   UNL A   1      43.941  28.798  35.119  1.00  0.00     0.064 A 
ATOM     86  C   UNL A   1      45.232  29.331  34.997  1.00  0.00     0.173 A 
ATOM     87  C   UNL A   1      43.759  27.711  35.989  1.00  0.00     0.173 A 
ATOM     88  F   UNL A   1      45.462  30.362  34.168  1.00  0.00    -0.203 F 
ATOM     89  C   UNL A   1      46.299  28.791  35.711  1.00  0.00     0.198 A 
ATOM     90  C   UNL A   1      44.821  27.194  36.724  1.00  0.00     0.198 A 
ATOM     91  F   UNL A   1      42.542  27.167  36.146  1.00  0.00    -0.203 F 
ATOM     92  F   UNL A   1      47.532  29.294  35.553  1.00  0.00    -0.200 F 
ATOM     93  C   UNL A   1      46.091  27.732  36.581  1.00  0.00     0.200 A 
ATOM     94  F   UNL A   1      44.615  26.182  37.578  1.00  0.00    -0.200 F 
ATOM     95  F   UNL A   1      47.116  27.226  37.281  1.00  0.00    -0.200 F 
ENDBRANCH  62  85
ENDBRANCH  36  37
ENDBRANCH  28  31
ENDBRANCH  26  27
ENDBRANCH  25  26
ENDBRANCH  24  25
ENDBRANCH   1  24
TORSDOF 16
ENDMDL
MODEL 2
REMARK VINA RESULT:     -12.4      0.348      1.699
REMARK SMILES C[C@@H](C(=O)NCCCCCCNC(=O)c1ccc(-c2c3nc(c(-c4c(F)c(F)c(F)c(F)c4F)c4ccc([nH]4)c(-c4c(F)c(F)c(F)c(F)c4F)c4nc(c(-c5c(F)c(F)c(F)c(F)c5F)c5ccc2[nH]5)C=C4)C=C3)cc1)c1ccc(NC2CCCC2)cc1F
REMARK SMILES IDX 8 1 7 2 6 3 5 4 3 5 4 6 2 8 1 9 78 10 79 11 89 12 80 13
REMARK SMILES IDX 88 14 90 15 81 16 82 17 83 19 84 20 87 21 85 22 86 23 9 24
REMARK SMILES IDX 10 25 11 26 12 27 13 28 14 30 15 31 16 32 77 33 17 34 76 35
REMARK SMILES IDX 18 36 19 37 20 38 70 39 21 40 75 41 69 42 71 43 22 44 74 45
REMARK SMILES IDX 68 46 67 47 23 49 55 50 35 51 54 52 36 53 39 54 53 55 72 56
REMARK SMILES IDX 37 57 38 58 52 60 73 61 40 62 24 63 25 64 33 65 26 66 27 67
REMARK SMILES IDX 31 68 34 69 28 70 29 71 32 72 30 73 56 74 57 75 65 76 58 77
REMARK SMILES IDX 59 78 63 79 66 80 60 81 61 82 64 83 62 84 41 85 42 86 50 87
REMARK SMILES IDX 43 88 44 89 48 90 51 91 45 92 46 93 49 94 47 95
REMARK H PARENT 5 7 82 18 12 29 71 48 39 59
REMARK Flexibility Score: inf
ROOT
ATOM      1  C   UNL A   1      32.300  29.903  26.845  1.00  0.00     0.002 C 
ENDROOT
BRANCH   1   2
ATOM      2  C   UNL A   1      31.652  28.592  27.305  1.00  0.00     0.021 C 
BRANCH   2   3
ATOM      3  C   UNL A   1      32.148  27.360  26.536  1.00  0.00     0.116 C 
BRANCH   3   4
ATOM      4  N   UNL A   1      31.409  26.193  26.966  1.00  0.00    -0.356 N 
ATOM      5  C   UNL A   1      30.878  25.204  26.181  1.00  0.00     0.227 C 
ATOM      6  O   UNL A   1      29.871  24.631  26.596  1.00  0.00    -0.274 OA
ATOM      7  H   UNL A   1      31.270  26.097  27.937  1.00  0.00     0.163 HD
BRANCH   5   8
ATOM      8  C   UNL A   1      31.557  24.888  24.840  1.00  0.00     0.108 C 
ATOM      9  C   UNL A   1      30.487  24.941  23.733  1.00  0.00     0.023 C 
BRANCH   8  10
ATOM     10  C   UNL A   1      32.320  23.566  24.825  1.00  0.00     0.000 A 
ATOM     11  C   UNL A   1      31.882  22.499  24.037  1.00  0.00     0.009 A 
ATOM     12  C   UNL A   1      33.496  23.362  25.554  1.00  0.00     0.129 A 
ATOM     13  C   UNL A   1      32.513  21.258  24.083  1.00  0.00     0.026 A 
ATOM     14  C   UNL A   1      34.107  22.105  25.627  1.00  0.00     0.065 A 
ATOM     15  F   UNL A   1      34.082  24.382  26.197  1.00  0.00    -0.207 F 
ATOM     16  C   UNL A   1      33.598  21.011  24.922  1.00  0.00     0.037 A 
BRANCH  16  17
ATOM     17  N   UNL A   1      34.209  19.779  25.034  1.00  0.00    -0.382 N 
ATOM     18  H   UNL A   1      35.102  19.775  25.450  1.00  0.00     0.160 HD
BRANCH  17  19
ATOM     19  C   UNL A   1      33.697  18.482  24.613  1.00  0.00     0.079 C 
ATOM     20  C   UNL A   1      34.773  17.437  24.333  1.00  0.00     0.025 C 
ATOM     21  C   UNL A   1      32.723  17.863  25.615  1.00  0.00     0.025 C 
ATOM     22  C   UNL A   1      34.071  16.106  24.560  1.00  0.00     0.002 C 
ATOM     23  C   UNL A   1      32.993  16.363  25.606  1.00  0.00     0.002 C 
ENDBRANCH  17  19
ENDBRANCH  16  17
ENDBRANCH   8  10
ENDBRANCH   5   8
ENDBRANCH   3   4
ENDBRANCH   2   3
ENDBRANCH   1   2
BRANCH   1  24
ATOM     24  C   UNL A   1      31.397  30.781  25.977  1.00  0.00     0.002 C 
BRANCH  24  25
ATOM     25  C   UNL A   1      31.280  32.227  26.457  1.00  0.00     0.021 C 
BRANCH  25  26
ATOM     26  C   UNL A   1      32.521  32.736  27.177  1.00  0.00     0.116 C 
BRANCH  26  27
ATOM     27  N   UNL A   1      32.357  34.110  27.629  1.00  0.00    -0.352 N 
ATOM     28  C   UNL A   1      33.043  34.769  28.616  1.00  0.00     0.251 C 
ATOM     29  H   UNL A   1      31.663  34.633  27.166  1.00  0.00     0.163 HD
ATOM     30  O   UNL A   1      32.655  35.853  29.039  1.00  0.00    -0.269 OA
BRANCH  28  31
ATOM     31  C   UNL A   1      34.255  34.144  29.175  1.00  0.00     0.039 A 
ATOM     32  C   UNL A   1      35.511  34.553  28.722  1.00  0.00     0.014 A 
ATOM     33  C   UNL A   1      34.138  33.176  30.176  1.00  0.00     0.014 A 
ATOM     34  C   UNL A   1      36.660  34.024  29.314  1.00  0.00     0.010 A 
ATOM     35  C   UNL A   1      35.278  32.713  30.818  1.00  0.00     0.010 A 
ATOM     36  C   UNL A   1      36.550  33.123  30.385  1.00  0.00    -0.014 A 
BRANCH  36  37
ATOM     37  C   UNL A   1      37.742  32.551  31.054  1.00  0.00     0.031 A 
ATOM     38  C   UNL A   1      38.487  31.426  30.391  1.00  0.00     0.074 A 
ATOM     39  C   UNL A   1      38.089  32.961  32.288  1.00  0.00     0.049 A 
ATOM     40  N   UNL A   1      39.444  30.670  30.863  1.00  0.00    -0.248 NA
ATOM     41  C   UNL A   1      38.068  31.084  29.023  1.00  0.00     0.031 C 
ATOM     42  C   UNL A   1      37.424  34.019  33.045  1.00  0.00     0.029 A 
ATOM     43  N   UNL A   1      39.075  32.513  33.132  1.00  0.00    -0.354 N 
ATOM     44  C   UNL A   1      39.718  29.746  29.863  1.00  0.00     0.074 A 
ATOM     45  C   UNL A   1      38.789  29.999  28.785  1.00  0.00     0.031 C 
ATOM     46  C   UNL A   1      38.023  34.145  34.240  1.00  0.00     0.029 A 
ATOM     47  C   UNL A   1      39.080  33.144  34.351  1.00  0.00     0.049 A 
ATOM     48  H   UNL A   1      39.716  31.807  32.887  1.00  0.00     0.167 HD
ATOM     49  C   UNL A   1      40.671  28.784  29.842  1.00  0.00     0.037 A 
ATOM     50  C   UNL A   1      39.839  32.923  35.443  1.00  0.00     0.037 A 
ATOM     51  C   UNL A   1      41.605  28.556  30.913  1.00  0.00     0.049 A 
ATOM     52  C   UNL A   1      40.886  31.843  35.404  1.00  0.00     0.074 A 
ATOM     53  C   UNL A   1      42.647  27.649  30.969  1.00  0.00     0.029 A 
ATOM     54  N   UNL A   1      41.603  29.241  32.120  1.00  0.00    -0.354 N 
ATOM     55  N   UNL A   1      41.177  31.007  34.436  1.00  0.00    -0.248 NA
ATOM     56  C   UNL A   1      41.714  31.676  36.606  1.00  0.00     0.031 C 
ATOM     57  C   UNL A   1      43.239  27.743  32.233  1.00  0.00     0.029 A 
ATOM     58  C   UNL A   1      42.611  28.758  32.938  1.00  0.00     0.049 A 
ATOM     59  H   UNL A   1      40.977  29.962  32.359  1.00  0.00     0.167 HD
ATOM     60  C   UNL A   1      42.242  30.245  34.893  1.00  0.00     0.074 A 
ATOM     61  C   UNL A   1      42.547  30.715  36.229  1.00  0.00     0.031 C 
ATOM     62  C   UNL A   1      42.913  29.251  34.260  1.00  0.00     0.037 A 
BRANCH  49  63
ATOM     63  C   UNL A   1      40.734  27.902  28.626  1.00  0.00     0.064 A 
ATOM     64  C   UNL A   1      41.516  28.232  27.508  1.00  0.00     0.173 A 
ATOM     65  C   UNL A   1      39.996  26.710  28.578  1.00  0.00     0.173 A 
ATOM     66  F   UNL A   1      42.233  29.366  27.497  1.00  0.00    -0.203 F 
ATOM     67  C   UNL A   1      41.518  27.429  26.371  1.00  0.00     0.198 A 
ATOM     68  C   UNL A   1      40.032  25.889  27.453  1.00  0.00     0.198 A 
ATOM     69  F   UNL A   1      39.237  26.340  29.620  1.00  0.00    -0.203 F 
ATOM     70  F   UNL A   1      42.214  27.806  25.288  1.00  0.00    -0.200 F 
ATOM     71  C   UNL A   1      40.780  26.255  26.346  1.00  0.00     0.200 A 
ATOM     72  F   UNL A   1      39.331  24.746  27.438  1.00  0.00    -0.200 F 
ATOM     73  F   UNL A   1      40.781  25.485  25.250  1.00  0.00    -0.200 F 
ENDBRANCH  49  63
BRANCH  50  74
ATOM     74  C   UNL A   1      39.643  33.762  36.653  1.00  0.00     0.064 A 
ATOM     75  C   UNL A   1      40.258  35.016  36.767  1.00  0.00     0.173 A 
ATOM     76  C   UNL A   1      38.815  33.343  37.705  1.00  0.00     0.173 A 
ATOM     77  F   UNL A   1      41.073  35.453  35.796  1.00  0.00    -0.203 F 
ATOM     78  C   UNL A   1      40.062  35.815  37.893  1.00  0.00     0.198 A 
ATOM     79  C   UNL A   1      38.598  34.154  38.818  1.00  0.00     0.198 A 
ATOM     80  F   UNL A   1      38.196  32.154  37.642  1.00  0.00    -0.203 F 
ATOM     81  F   UNL A   1      40.690  36.994  37.991  1.00  0.00    -0.200 F 
ATOM     82  C   UNL A   1      39.226  35.387  38.912  1.00  0.00     0.200 A 
ATOM     83  F   UNL A   1      37.775  33.745  39.792  1.00  0.00    -0.200 F 
ATOM     84  F   UNL A   1      39.027  36.161  39.989  1.00  0.00    -0.200 F 
ENDBRANCH  50  74
BRANCH  62  85
ATOM     85  C   UNL A   1      44.085  28.637  34.969  1.00  0.00     0.064 A 
ATOM     86  C   UNL A   1      43.955  27.492  35.768  1.00  0.00     0.173 A 
ATOM     87  C   UNL A   1      45.373  29.164  34.780  1.00  0.00     0.173 A 
ATOM     88  F   UNL A   1      42.745  26.957  35.991  1.00  0.00    -0.203 F 
ATOM     89  C   UNL A   1      45.070  26.903  36.361  1.00  0.00     0.198 A 
ATOM     90  C   UNL A   1      46.488  28.555  35.348  1.00  0.00     0.198 A 
ATOM     91  F   UNL A   1      45.552  30.254  34.020  1.00  0.00    -0.203 F 
ATOM     92  F   UNL A   1      44.919  25.830  37.149  1.00  0.00    -0.200 F 
ATOM     93  C   UNL A   1      46.335  27.428  36.142  1.00  0.00     0.200 A 
ATOM     94  F   UNL A   1      47.711  29.053  35.121  1.00  0.00    -0.200 F 
ATOM     95  F   UNL A   1      47.408  26.849  36.697  1.00  0.00    -0.200 F 
ENDBRANCH  62  85
ENDBRANCH  36  37
ENDBRANCH  28  31
ENDBRANCH  26  27
ENDBRANCH  25  26
ENDBRANCH  24  25
ENDBRANCH   1  24
TORSDOF 16
ENDMDL
MODEL 3
REMARK VINA RESULT:     -12.3      2.306      4.415
REMARK SMILES C[C@@H](C(=O)NCCCCCCNC(=O)c1ccc(-c2c3nc(c(-c4c(F)c(F)c(F)c(F)c4F)c4ccc([nH]4)c(-c4c(F)c(F)c(F)c(F)c4F)c4nc(c(-c5c(F)c(F)c(F)c(F)c5F)c5ccc2[nH]5)C=C4)C=C3)cc1)c1ccc(NC2CCCC2)cc1F
REMARK SMILES IDX 8 1 7 2 6 3 5 4 3 5 4 6 2 8 1 9 78 10 79 11 89 12 80 13
REMARK SMILES IDX 88 14 90 15 81 16 82 17 83 19 84 20 87 21 85 22 86 23 9 24
REMARK SMILES IDX 10 25 11 26 12 27 13 28 14 30 15 31 16 32 77 33 17 34 76 35
REMARK SMILES IDX 18 36 19 37 20 38 70 39 21 40 75 41 69 42 71 43 22 44 74 45
REMARK SMILES IDX 68 46 67 47 23 49 55 50 35 51 54 52 36 53 39 54 53 55 72 56
REMARK SMILES IDX 37 57 38 58 52 60 73 61 40 62 24 63 25 64 33 65 26 66 27 67
REMARK SMILES IDX 31 68 34 69 28 70 29 71 32 72 30 73 56 74 57 75 65 76 58 77
REMARK SMILES IDX 59 78 63 79 66 80 60 81 61 82 64 83 62 84 41 85 42 86 50 87
REMARK SMILES IDX 43 88 44 89 48 90 51 91 45 92 46 93 49 94 47 95
REMARK H PARENT 5 7 82 18 12 29 71 48 39 59
REMARK Flexibility Score: inf
ROOT
ATOM      1  C   UNL A   1      32.244  29.467  26.881  1.00  0.00     0.002 C 
ENDROOT
BRANCH   1   2
ATOM      2  C   UNL A   1      33.707  29.059  26.675  1.00  0.00     0.021 C 
BRANCH   2   3
ATOM      3  C   UNL A   1      33.887  27.576  26.324  1.00  0.00     0.116 C 
BRANCH   3   4
ATOM      4  N   UNL A   1      34.016  27.432  24.890  1.00  0.00    -0.356 N 
ATOM      5  C   UNL A   1      33.374  26.534  24.080  1.00  0.00     0.227 C 
ATOM      6  O   UNL A   1      33.958  26.174  23.058  1.00  0.00    -0.274 OA
ATOM      7  H   UNL A   1      34.638  28.051  24.443  1.00  0.00     0.163 HD
BRANCH   5   8
ATOM      8  C   UNL A   1      31.986  26.027  24.502  1.00  0.00     0.108 C 
ATOM      9  C   UNL A   1      31.903  24.522  24.183  1.00  0.00     0.023 C 
BRANCH   8  10
ATOM     10  C   UNL A   1      30.825  26.800  23.880  1.00  0.00     0.000 A 
ATOM     11  C   UNL A   1      31.055  27.751  22.883  1.00  0.00     0.009 A 
ATOM     12  C   UNL A   1      29.492  26.580  24.237  1.00  0.00     0.129 A 
ATOM     13  C   UNL A   1      30.018  28.530  22.373  1.00  0.00     0.026 A 
ATOM     14  C   UNL A   1      28.457  27.387  23.750  1.00  0.00     0.065 A 
ATOM     15  F   UNL A   1      29.165  25.568  25.054  1.00  0.00    -0.207 F 
ATOM     16  C   UNL A   1      28.709  28.413  22.835  1.00  0.00     0.037 A 
BRANCH  16  17
ATOM     17  N   UNL A   1      27.671  29.207  22.392  1.00  0.00    -0.382 N 
ATOM     18  H   UNL A   1      26.923  28.737  21.956  1.00  0.00     0.160 HD
BRANCH  17  19
ATOM     19  C   UNL A   1      27.545  30.655  22.489  1.00  0.00     0.079 C 
ATOM     20  C   UNL A   1      28.315  31.281  23.649  1.00  0.00     0.025 C 
ATOM     21  C   UNL A   1      27.981  31.385  21.219  1.00  0.00     0.025 C 
ATOM     22  C   UNL A   1      28.581  32.708  23.196  1.00  0.00     0.002 C 
ATOM     23  C   UNL A   1      28.671  32.666  21.675  1.00  0.00     0.002 C 
ENDBRANCH  17  19
ENDBRANCH  16  17
ENDBRANCH   8  10
ENDBRANCH   5   8
ENDBRANCH   3   4
ENDBRANCH   2   3
ENDBRANCH   1   2
BRANCH   1  24
ATOM     24  C   UNL A   1      31.775  30.607  25.976  1.00  0.00     0.002 C 
BRANCH  24  25
ATOM     25  C   UNL A   1      31.449  31.903  26.718  1.00  0.00     0.021 C 
BRANCH  25  26
ATOM     26  C   UNL A   1      32.673  32.607  27.290  1.00  0.00     0.116 C 
BRANCH  26  27
ATOM     27  N   UNL A   1      32.416  34.018  27.535  1.00  0.00    -0.352 N 
ATOM     28  C   UNL A   1      32.975  34.831  28.487  1.00  0.00     0.251 C 
ATOM     29  H   UNL A   1      31.756  34.443  26.942  1.00  0.00     0.163 HD
ATOM     30  O   UNL A   1      32.510  35.941  28.723  1.00  0.00    -0.269 OA
BRANCH  28  31
ATOM     31  C   UNL A   1      34.144  34.341  29.241  1.00  0.00     0.039 A 
ATOM     32  C   UNL A   1      33.948  33.575  30.391  1.00  0.00     0.014 A 
ATOM     33  C   UNL A   1      35.434  34.617  28.778  1.00  0.00     0.014 A 
ATOM     34  C   UNL A   1      35.053  33.037  31.054  1.00  0.00     0.010 A 
ATOM     35  C   UNL A   1      36.524  34.016  29.390  1.00  0.00     0.010 A 
ATOM     36  C   UNL A   1      36.345  33.231  30.541  1.00  0.00    -0.014 A 
BRANCH  36  37
ATOM     37  C   UNL A   1      37.545  32.664  31.202  1.00  0.00     0.031 A 
ATOM     38  C   UNL A   1      38.282  31.533  30.542  1.00  0.00     0.074 A 
ATOM     39  C   UNL A   1      37.906  33.086  32.428  1.00  0.00     0.049 A 
ATOM     40  N   UNL A   1      39.244  30.781  31.010  1.00  0.00    -0.248 NA
ATOM     41  C   UNL A   1      37.848  31.178  29.181  1.00  0.00     0.031 C 
ATOM     42  C   UNL A   1      37.250  34.151  33.183  1.00  0.00     0.029 A 
ATOM     43  N   UNL A   1      38.901  32.646  33.265  1.00  0.00    -0.354 N 
ATOM     44  C   UNL A   1      39.506  29.847  30.016  1.00  0.00     0.074 A 
ATOM     45  C   UNL A   1      38.565  30.091  28.946  1.00  0.00     0.031 C 
ATOM     46  C   UNL A   1      37.862  34.289  34.369  1.00  0.00     0.029 A 
ATOM     47  C   UNL A   1      38.920  33.288  34.478  1.00  0.00     0.049 A 
ATOM     48  H   UNL A   1      39.539  31.937  33.020  1.00  0.00     0.167 HD
ATOM     49  C   UNL A   1      40.459  28.885  29.993  1.00  0.00     0.037 A 
ATOM     50  C   UNL A   1      39.691  33.078  35.563  1.00  0.00     0.037 A 
ATOM     51  C   UNL A   1      41.405  28.666  31.056  1.00  0.00     0.049 A 
ATOM     52  C   UNL A   1      40.738  31.996  35.523  1.00  0.00     0.074 A 
ATOM     53  C   UNL A   1      42.448  27.759  31.109  1.00  0.00     0.029 A 
ATOM     54  N   UNL A   1      41.416  29.363  32.256  1.00  0.00    -0.354 N 
ATOM     55  N   UNL A   1      41.017  31.151  34.560  1.00  0.00    -0.248 NA
ATOM     56  C   UNL A   1      41.579  31.841  36.717  1.00  0.00     0.031 C 
ATOM     57  C   UNL A   1      43.053  27.866  32.365  1.00  0.00     0.029 A 
ATOM     58  C   UNL A   1      42.433  28.887  33.067  1.00  0.00     0.049 A 
ATOM     59  H   UNL A   1      40.794  30.086  32.496  1.00  0.00     0.167 HD
ATOM     60  C   UNL A   1      42.087  30.393  35.012  1.00  0.00     0.074 A 
ATOM     61  C   UNL A   1      42.407  30.876  36.340  1.00  0.00     0.031 C 
ATOM     62  C   UNL A   1      42.750  29.392  34.381  1.00  0.00     0.037 A 
BRANCH  49  63
ATOM     63  C   UNL A   1      40.508  27.991  28.785  1.00  0.00     0.064 A 
ATOM     64  C   UNL A   1      41.258  28.322  27.646  1.00  0.00     0.173 A 
ATOM     65  C   UNL A   1      39.789  26.787  28.766  1.00  0.00     0.173 A 
ATOM     66  F   UNL A   1      41.956  29.467  27.606  1.00  0.00    -0.203 F 
ATOM     67  C   UNL A   1      41.247  27.507  26.517  1.00  0.00     0.198 A 
ATOM     68  C   UNL A   1      39.812  25.954  27.650  1.00  0.00     0.198 A 
ATOM     69  F   UNL A   1      39.060  26.415  29.830  1.00  0.00    -0.203 F 
ATOM     70  F   UNL A   1      41.911  27.884  25.415  1.00  0.00    -0.200 F 
ATOM     71  C   UNL A   1      40.528  26.322  26.521  1.00  0.00     0.200 A 
ATOM     72  F   UNL A   1      39.130  24.800  27.663  1.00  0.00    -0.200 F 
ATOM     73  F   UNL A   1      40.516  25.540  25.434  1.00  0.00    -0.200 F 
ENDBRANCH  49  63
BRANCH  50  74
ATOM     74  C   UNL A   1      39.509  33.928  36.768  1.00  0.00     0.064 A 
ATOM     75  C   UNL A   1      38.728  33.490  37.846  1.00  0.00     0.173 A 
ATOM     76  C   UNL A   1      40.132  35.179  36.880  1.00  0.00     0.173 A 
ATOM     77  F   UNL A   1      38.096  32.309  37.779  1.00  0.00    -0.203 F 
ATOM     78  C   UNL A   1      38.568  34.276  38.986  1.00  0.00     0.198 A 
ATOM     79  C   UNL A   1      39.995  35.952  38.031  1.00  0.00     0.198 A 
ATOM     80  F   UNL A   1      40.897  35.641  35.879  1.00  0.00    -0.203 F 
ATOM     81  F   UNL A   1      37.788  33.848  39.987  1.00  0.00    -0.200 F 
ATOM     82  C   UNL A   1      39.209  35.502  39.080  1.00  0.00     0.200 A 
ATOM     83  F   UNL A   1      40.630  37.128  38.126  1.00  0.00    -0.200 F 
ATOM     84  F   UNL A   1      39.066  36.252  40.182  1.00  0.00    -0.200 F 
ENDBRANCH  50  74
BRANCH  62  85
ATOM     85  C   UNL A   1      43.930  28.785  35.083  1.00  0.00     0.064 A 
ATOM     86  C   UNL A   1      45.226  29.300  34.942  1.00  0.00     0.173 A 
ATOM     87  C   UNL A   1      43.741  27.715  35.973  1.00  0.00     0.173 A 
ATOM     88  F   UNL A   1      45.462  30.312  34.094  1.00  0.00    -0.203 F 
ATOM     89  C   UNL A   1      46.292  28.758  35.657  1.00  0.00     0.198 A 
ATOM     90  C   UNL A   1      44.803  27.198  36.709  1.00  0.00     0.198 A 
ATOM     91  F   UNL A   1      42.519  27.189  36.149  1.00  0.00    -0.203 F 
ATOM     92  F   UNL A   1      47.530  29.243  35.481  1.00  0.00    -0.200 F 
ATOM     93  C   UNL A   1      46.078  27.716  36.547  1.00  0.00     0.200 A 
ATOM     94  F   UNL A   1      44.590  26.203  37.581  1.00  0.00    -0.200 F 
ATOM     95  F   UNL A   1      47.102  27.210  37.248  1.00  0.00    -0.200 F 
ENDBRANCH  62  85
ENDBRANCH  36  37
ENDBRANCH  28  31
ENDBRANCH  26  27
ENDBRANCH  25  26
ENDBRANCH  24  25
ENDBRANCH   1  24
TORSDOF 16
ENDMDL
