MODEL 1
REMARK VINA RESULT:     -11.9      0.000      0.000
REMARK SMILES CC(C)C[NH2+][C@@H](CC(=O)Nc1cccc(Cl)c1)C(=O)NCCCCCCNC(=O)c1ccc(-c2c3nc(c(-c4c(F)c(F)c(F)c(F)c4F)c4ccc([nH]4)c(-c4c(F)c(F)c(F)c(F)c4F)c4nc(c(-c5c(F)c(F)c(F)c(F)c5F)c5ccc2[nH]5)C=C4)C=C3)cc1
REMARK SMILES IDX 23 1 22 2 21 3 20 4 18 5 19 6 6 8 5 9 4 12 2 13 1 14 3 15
REMARK SMILES IDX 7 16 8 17 9 18 10 19 11 21 12 22 17 23 13 24 15 25 14 26
REMARK SMILES IDX 16 27 24 28 25 29 26 30 27 31 28 32 29 34 30 35 31 36 92 37
REMARK SMILES IDX 32 38 91 39 33 40 34 41 35 42 85 43 36 44 90 45 84 46 86 47
REMARK SMILES IDX 37 48 89 49 83 50 82 51 38 53 70 54 50 55 69 56 51 57 54 58
REMARK SMILES IDX 68 59 87 60 52 61 53 62 67 64 88 65 55 66 39 67 40 68 48 69
REMARK SMILES IDX 41 70 42 71 46 72 49 73 43 74 44 75 47 76 45 77 71 78 72 79
REMARK SMILES IDX 80 80 73 81 74 82 78 83 81 84 75 85 76 86 79 87 77 88 56 89
REMARK SMILES IDX 57 90 65 91 58 92 59 93 63 94 66 95 60 96 61 97 64 98 62 99
REMARK H PARENT 20 7 5 10 5 11 10 20 27 33 86 52 54 63
REMARK Flexibility Score: inf
ROOT
ATOM      1  C   UNL A   1      32.098  29.883  26.728  1.00  0.00     0.002 C 
ENDROOT
BRANCH   1   2
ATOM      2  C   UNL A   1      31.712  28.423  26.547  1.00  0.00     0.021 C 
BRANCH   2   3
ATOM      3  C   UNL A   1      32.811  27.538  25.973  1.00  0.00     0.116 C 
BRANCH   3   4
ATOM      4  N   UNL A   1      33.534  28.061  24.844  1.00  0.00    -0.351 N 
ATOM      5  C   UNL A   1      33.050  28.539  23.656  1.00  0.00     0.278 C 
ATOM      6  O   UNL A   1      33.884  29.039  22.890  1.00  0.00    -0.268 OA
ATOM      7  H   UNL A   1      34.515  28.075  24.940  1.00  0.00     0.163 HD
BRANCH   5   8
ATOM      8  C   UNL A   1      31.554  28.410  23.194  1.00  0.00     0.281 C 
BRANCH   8   9
ATOM      9  N   UNL A   1      31.241  29.466  22.241  1.00  0.00    -0.335 N 
ATOM     10  H   UNL A   1      31.669  30.320  22.599  1.00  0.00     0.346 HD
ATOM     11  H   UNL A   1      31.593  29.093  21.359  1.00  0.00     0.346 HD
BRANCH   9  12
ATOM     12  C   UNL A   1      29.851  29.793  21.930  1.00  0.00     0.264 C 
BRANCH  12  13
ATOM     13  C   UNL A   1      28.903  30.931  22.992  1.00  0.00     0.038 C 
ATOM     14  C   UNL A   1      28.924  33.125  23.049  1.00  0.00     0.013 C 
ATOM     15  C   UNL A   1      27.544  29.848  23.015  1.00  0.00     0.013 C 
ENDBRANCH  12  13
ENDBRANCH   9  12
ENDBRANCH   8   9
BRANCH   8  16
ATOM     16  C   UNL A   1      31.074  26.995  22.912  1.00  0.00     0.175 C 
BRANCH  16  17
ATOM     17  C   UNL A   1      31.857  25.962  22.119  1.00  0.00     0.230 C 
ATOM     18  O   UNL A   1      31.802  26.015  20.881  1.00  0.00    -0.274 OA
ATOM     19  N   UNL A   1      32.748  25.067  22.627  1.00  0.00    -0.326 N 
ATOM     20  H   UNL A   1      33.333  24.686  21.933  1.00  0.00     0.169 HD
BRANCH  19  21
ATOM     21  C   UNL A   1      33.032  24.559  23.905  1.00  0.00     0.042 A 
ATOM     22  C   UNL A   1      31.840  23.842  25.084  1.00  0.00     0.026 A 
ATOM     23  C   UNL A   1      34.788  24.493  24.281  1.00  0.00     0.046 A 
ATOM     24  C   UNL A   1      32.408  23.099  26.633  1.00  0.00     0.004 A 
ATOM     25  C   UNL A   1      35.346  23.713  25.798  1.00  0.00     0.043 A 
ATOM     26  C   UNL A   1      34.165  23.075  27.000  1.00  0.00     0.020 A 
ATOM     27  Cl  UNL A   1      37.030  23.428  26.021  1.00  0.00    -0.084 Cl
ENDBRANCH  19  21
ENDBRANCH  16  17
ENDBRANCH   8  16
ENDBRANCH   5   8
ENDBRANCH   3   4
ENDBRANCH   2   3
ENDBRANCH   1   2
BRANCH   1  28
ATOM     28  C   UNL A   1      31.241  30.877  25.937  1.00  0.00     0.002 C 
BRANCH  28  29
ATOM     29  C   UNL A   1      31.243  32.318  26.458  1.00  0.00     0.021 C 
BRANCH  29  30
ATOM     30  C   UNL A   1      32.570  32.787  27.046  1.00  0.00     0.116 C 
BRANCH  30  31
ATOM     31  N   UNL A   1      32.476  34.127  27.605  1.00  0.00    -0.352 N 
ATOM     32  C   UNL A   1      33.131  34.687  28.669  1.00  0.00     0.251 C 
ATOM     33  H   UNL A   1      31.843  34.725  27.145  1.00  0.00     0.163 HD
ATOM     34  O   UNL A   1      32.753  35.762  29.125  1.00  0.00    -0.269 OA
BRANCH  32  35
ATOM     35  C   UNL A   1      34.291  34.002  29.274  1.00  0.00     0.039 A 
ATOM     36  C   UNL A   1      35.577  34.415  28.922  1.00  0.00     0.014 A 
ATOM     37  C   UNL A   1      34.116  32.930  30.155  1.00  0.00     0.014 A 
ATOM     38  C   UNL A   1      36.686  33.776  29.479  1.00  0.00     0.010 A 
ATOM     39  C   UNL A   1      35.219  32.358  30.780  1.00  0.00     0.010 A 
ATOM     40  C   UNL A   1      36.517  32.759  30.432  1.00  0.00    -0.014 A 
BRANCH  40  41
ATOM     41  C   UNL A   1      37.689  32.086  31.048  1.00  0.00     0.031 A 
ATOM     42  C   UNL A   1      38.144  32.473  32.429  1.00  0.00     0.074 A 
ATOM     43  C   UNL A   1      38.362  31.149  30.352  1.00  0.00     0.049 A 
ATOM     44  N   UNL A   1      39.158  32.023  33.125  1.00  0.00    -0.248 NA
ATOM     45  C   UNL A   1      37.373  33.524  33.112  1.00  0.00     0.031 C 
ATOM     46  C   UNL A   1      38.042  30.716  28.991  1.00  0.00     0.029 A 
ATOM     47  N   UNL A   1      39.455  30.393  30.693  1.00  0.00    -0.354 N 
ATOM     48  C   UNL A   1      39.148  32.736  34.315  1.00  0.00     0.074 A 
ATOM     49  C   UNL A   1      38.073  33.699  34.223  1.00  0.00     0.031 C 
ATOM     50  C   UNL A   1      38.896  29.747  28.626  1.00  0.00     0.029 A 
ATOM     51  C   UNL A   1      39.853  29.524  29.706  1.00  0.00     0.049 A 
ATOM     52  H   UNL A   1      39.911  30.465  31.563  1.00  0.00     0.167 HD
ATOM     53  C   UNL A   1      39.944  32.584  35.401  1.00  0.00     0.037 A 
ATOM     54  C   UNL A   1      40.879  28.653  29.673  1.00  0.00     0.037 A 
ATOM     55  C   UNL A   1      41.008  31.618  35.491  1.00  0.00     0.049 A 
ATOM     56  C   UNL A   1      41.772  28.530  30.881  1.00  0.00     0.074 A 
ATOM     57  C   UNL A   1      41.848  31.357  36.559  1.00  0.00     0.029 A 
ATOM     58  N   UNL A   1      41.384  30.759  34.469  1.00  0.00    -0.354 N 
ATOM     59  N   UNL A   1      41.713  29.167  32.025  1.00  0.00    -0.248 NA
ATOM     60  C   UNL A   1      42.869  27.558  30.793  1.00  0.00     0.031 C 
ATOM     61  C   UNL A   1      42.777  30.392  36.160  1.00  0.00     0.029 A 
ATOM     62  C   UNL A   1      42.462  29.987  34.873  1.00  0.00     0.049 A 
ATOM     63  H   UNL A   1      40.950  30.706  33.587  1.00  0.00     0.167 HD
ATOM     64  C   UNL A   1      42.733  28.641  32.809  1.00  0.00     0.074 A 
ATOM     65  C   UNL A   1      43.386  27.624  32.011  1.00  0.00     0.031 C 
ATOM     66  C   UNL A   1      43.095  28.968  34.074  1.00  0.00     0.037 A 
BRANCH  53  67
ATOM     67  C   UNL A   1      39.698  33.485  36.580  1.00  0.00     0.064 A 
ATOM     68  C   UNL A   1      38.824  33.126  37.617  1.00  0.00     0.173 A 
ATOM     69  C   UNL A   1      40.377  34.709  36.694  1.00  0.00     0.173 A 
ATOM     70  F   UNL A   1      38.140  31.972  37.556  1.00  0.00    -0.203 F 
ATOM     71  C   UNL A   1      38.613  33.970  38.705  1.00  0.00     0.198 A 
ATOM     72  C   UNL A   1      40.193  35.532  37.801  1.00  0.00     0.198 A 
ATOM     73  F   UNL A   1      41.229  35.102  35.735  1.00  0.00    -0.203 F 
ATOM     74  F   UNL A   1      37.728  33.631  39.653  1.00  0.00    -0.200 F 
ATOM     75  C   UNL A   1      39.304  35.168  38.800  1.00  0.00     0.200 A 
ATOM     76  F   UNL A   1      40.877  36.680  37.901  1.00  0.00    -0.200 F 
ATOM     77  F   UNL A   1      39.109  35.974  39.853  1.00  0.00    -0.200 F 
ENDBRANCH  53  67
BRANCH  54  78
ATOM     78  C   UNL A   1      41.113  27.814  28.467  1.00  0.00     0.064 A 
ATOM     79  C   UNL A   1      41.963  28.246  27.438  1.00  0.00     0.173 A 
ATOM     80  C   UNL A   1      40.468  26.579  28.300  1.00  0.00     0.173 A 
ATOM     81  F   UNL A   1      42.591  29.427  27.539  1.00  0.00    -0.203 F 
ATOM     82  C   UNL A   1      42.128  27.495  26.275  1.00  0.00     0.198 A 
ATOM     83  C   UNL A   1      40.665  25.812  27.155  1.00  0.00     0.198 A 
ATOM     84  F   UNL A   1      39.650  26.114  29.255  1.00  0.00    -0.203 F 
ATOM     85  F   UNL A   1      42.891  27.966  25.280  1.00  0.00    -0.200 F 
ATOM     86  C   UNL A   1      41.483  26.276  26.137  1.00  0.00     0.200 A 
ATOM     87  F   UNL A   1      40.054  24.625  27.035  1.00  0.00    -0.200 F 
ATOM     88  F   UNL A   1      41.638  25.556  25.018  1.00  0.00    -0.200 F 
ENDBRANCH  54  78
BRANCH  66  89
ATOM     89  C   UNL A   1      44.204  28.171  34.704  1.00  0.00     0.064 A 
ATOM     90  C   UNL A   1      43.964  26.976  35.401  1.00  0.00     0.173 A 
ATOM     91  C   UNL A   1      45.535  28.601  34.587  1.00  0.00     0.173 A 
ATOM     92  F   UNL A   1      42.710  26.521  35.551  1.00  0.00    -0.203 F 
ATOM     93  C   UNL A   1      45.008  26.269  35.992  1.00  0.00     0.198 A 
ATOM     94  C   UNL A   1      46.580  27.869  35.143  1.00  0.00     0.198 A 
ATOM     95  F   UNL A   1      45.825  29.730  33.923  1.00  0.00    -0.203 F 
ATOM     96  F   UNL A   1      44.746  25.170  36.713  1.00  0.00    -0.200 F 
ATOM     97  C   UNL A   1      46.315  26.712  35.857  1.00  0.00     0.200 A 
ATOM     98  F   UNL A   1      47.844  28.288  34.989  1.00  0.00    -0.200 F 
ATOM     99  F   UNL A   1      47.318  26.028  36.423  1.00  0.00    -0.200 F 
ENDBRANCH  66  89
ENDBRANCH  40  41
ENDBRANCH  32  35
ENDBRANCH  30  31
ENDBRANCH  29  30
ENDBRANCH  28  29
ENDBRANCH   1  28
TORSDOF 19
ENDMDL
MODEL 2
REMARK VINA RESULT:     -11.8      1.134      7.422
REMARK SMILES CC(C)C[NH2+][C@@H](CC(=O)Nc1cccc(Cl)c1)C(=O)NCCCCCCNC(=O)c1ccc(-c2c3nc(c(-c4c(F)c(F)c(F)c(F)c4F)c4ccc([nH]4)c(-c4c(F)c(F)c(F)c(F)c4F)c4nc(c(-c5c(F)c(F)c(F)c(F)c5F)c5ccc2[nH]5)C=C4)C=C3)cc1
REMARK SMILES IDX 23 1 22 2 21 3 20 4 18 5 19 6 6 8 5 9 4 12 2 13 1 14 3 15
REMARK SMILES IDX 7 16 8 17 9 18 10 19 11 21 12 22 17 23 13 24 15 25 14 26
REMARK SMILES IDX 16 27 24 28 25 29 26 30 27 31 28 32 29 34 30 35 31 36 92 37
REMARK SMILES IDX 32 38 91 39 33 40 34 41 35 42 85 43 36 44 90 45 84 46 86 47
REMARK SMILES IDX 37 48 89 49 83 50 82 51 38 53 70 54 50 55 69 56 51 57 54 58
REMARK SMILES IDX 68 59 87 60 52 61 53 62 67 64 88 65 55 66 39 67 40 68 48 69
REMARK SMILES IDX 41 70 42 71 46 72 49 73 43 74 44 75 47 76 45 77 71 78 72 79
REMARK SMILES IDX 80 80 73 81 74 82 78 83 81 84 75 85 76 86 79 87 77 88 56 89
REMARK SMILES IDX 57 90 65 91 58 92 59 93 63 94 66 95 60 96 61 97 64 98 62 99
REMARK H PARENT 20 7 5 10 5 11 10 20 27 33 86 52 54 63
REMARK Flexibility Score: inf
ROOT
ATOM      1  C   UNL A   1      32.315  30.037  27.053  1.00  0.00     0.002 C 
ENDROOT
BRANCH   1   2
ATOM      2  C   UNL A   1      32.045  28.541  27.008  1.00  0.00     0.021 C 
BRANCH   2   3
ATOM      3  C   UNL A   1      33.128  27.716  26.325  1.00  0.00     0.116 C 
BRANCH   3   4
ATOM      4  N   UNL A   1      33.778  28.318  25.191  1.00  0.00    -0.351 N 
ATOM      5  C   UNL A   1      33.324  28.451  23.907  1.00  0.00     0.278 C 
ATOM      6  O   UNL A   1      34.036  29.115  23.143  1.00  0.00    -0.268 OA
ATOM      7  H   UNL A   1      34.675  28.687  25.364  1.00  0.00     0.163 HD
BRANCH   5   8
ATOM      8  C   UNL A   1      32.033  27.750  23.349  1.00  0.00     0.281 C 
BRANCH   8   9
ATOM      9  N   UNL A   1      31.471  28.547  22.265  1.00  0.00    -0.335 N 
ATOM     10  H   UNL A   1      32.192  29.213  21.987  1.00  0.00     0.346 HD
ATOM     11  H   UNL A   1      31.189  27.841  21.584  1.00  0.00     0.346 HD
BRANCH   9  12
ATOM     12  C   UNL A   1      30.246  29.316  22.471  1.00  0.00     0.264 C 
BRANCH  12  13
ATOM     13  C   UNL A   1      28.683  28.478  22.895  1.00  0.00     0.038 C 
ATOM     14  C   UNL A   1      28.361  26.596  23.977  1.00  0.00     0.013 C 
ATOM     15  C   UNL A   1      27.866  30.001  23.079  1.00  0.00     0.013 C 
ENDBRANCH  12  13
ENDBRANCH   9  12
ENDBRANCH   8   9
BRANCH   8  16
ATOM     16  C   UNL A   1      32.122  26.241  23.186  1.00  0.00     0.175 C 
BRANCH  16  17
ATOM     17  C   UNL A   1      33.203  25.523  22.396  1.00  0.00     0.230 C 
ATOM     18  O   UNL A   1      33.456  25.932  21.252  1.00  0.00    -0.274 OA
ATOM     19  N   UNL A   1      34.040  24.563  22.872  1.00  0.00    -0.326 N 
ATOM     20  H   UNL A   1      34.825  24.429  22.292  1.00  0.00     0.169 HD
BRANCH  19  21
ATOM     21  C   UNL A   1      34.055  23.718  23.994  1.00  0.00     0.042 A 
ATOM     22  C   UNL A   1      34.428  24.195  25.715  1.00  0.00     0.026 A 
ATOM     23  C   UNL A   1      33.481  22.050  23.650  1.00  0.00     0.046 A 
ATOM     24  C   UNL A   1      34.256  23.001  27.061  1.00  0.00     0.004 A 
ATOM     25  C   UNL A   1      33.270  20.885  24.998  1.00  0.00     0.043 A 
ATOM     26  C   UNL A   1      33.713  21.331  26.687  1.00  0.00     0.020 A 
ATOM     27  Cl  UNL A   1      32.479  19.385  24.691  1.00  0.00    -0.084 Cl
ENDBRANCH  19  21
ENDBRANCH  16  17
ENDBRANCH   8  16
ENDBRANCH   5   8
ENDBRANCH   3   4
ENDBRANCH   2   3
ENDBRANCH   1   2
BRANCH   1  28
ATOM     28  C   UNL A   1      31.352  30.889  26.222  1.00  0.00     0.002 C 
BRANCH  28  29
ATOM     29  C   UNL A   1      31.360  32.391  26.527  1.00  0.00     0.021 C 
BRANCH  29  30
ATOM     30  C   UNL A   1      32.623  32.899  27.215  1.00  0.00     0.116 C 
BRANCH  30  31
ATOM     31  N   UNL A   1      32.471  34.264  27.694  1.00  0.00    -0.352 N 
ATOM     32  C   UNL A   1      33.069  34.901  28.749  1.00  0.00     0.251 C 
ATOM     33  H   UNL A   1      31.840  34.817  27.179  1.00  0.00     0.163 HD
ATOM     34  O   UNL A   1      32.645  35.988  29.130  1.00  0.00    -0.269 OA
BRANCH  32  35
ATOM     35  C   UNL A   1      34.223  34.284  29.434  1.00  0.00     0.039 A 
ATOM     36  C   UNL A   1      33.993  33.483  30.555  1.00  0.00     0.014 A 
ATOM     37  C   UNL A   1      35.531  34.524  29.002  1.00  0.00     0.014 A 
ATOM     38  C   UNL A   1      35.071  32.896  31.219  1.00  0.00     0.010 A 
ATOM     39  C   UNL A   1      36.595  33.864  29.607  1.00  0.00     0.010 A 
ATOM     40  C   UNL A   1      36.380  33.060  30.736  1.00  0.00    -0.014 A 
BRANCH  40  41
ATOM     41  C   UNL A   1      37.533  32.424  31.422  1.00  0.00     0.031 A 
ATOM     42  C   UNL A   1      38.269  31.287  30.766  1.00  0.00     0.074 A 
ATOM     43  C   UNL A   1      37.897  32.848  32.647  1.00  0.00     0.049 A 
ATOM     44  N   UNL A   1      39.280  30.585  31.215  1.00  0.00    -0.248 NA
ATOM     45  C   UNL A   1      37.792  30.863  29.440  1.00  0.00     0.031 C 
ATOM     46  C   UNL A   1      37.238  33.914  33.403  1.00  0.00     0.029 A 
ATOM     47  N   UNL A   1      38.911  32.434  33.474  1.00  0.00    -0.354 N 
ATOM     48  C   UNL A   1      39.552  29.642  30.233  1.00  0.00     0.074 A 
ATOM     49  C   UNL A   1      38.558  29.811  29.196  1.00  0.00     0.031 C 
ATOM     50  C   UNL A   1      37.885  34.094  34.565  1.00  0.00     0.029 A 
ATOM     51  C   UNL A   1      38.973  33.125  34.659  1.00  0.00     0.049 A 
ATOM     52  H   UNL A   1      39.536  31.709  33.240  1.00  0.00     0.167 HD
ATOM     53  C   UNL A   1      40.556  28.734  30.184  1.00  0.00     0.037 A 
ATOM     54  C   UNL A   1      39.808  32.987  35.706  1.00  0.00     0.037 A 
ATOM     55  C   UNL A   1      41.549  28.576  31.216  1.00  0.00     0.049 A 
ATOM     56  C   UNL A   1      40.894  31.945  35.643  1.00  0.00     0.074 A 
ATOM     57  C   UNL A   1      42.630  27.713  31.247  1.00  0.00     0.029 A 
ATOM     58  N   UNL A   1      41.575  29.291  32.404  1.00  0.00    -0.354 N 
ATOM     59  N   UNL A   1      41.179  31.101  34.681  1.00  0.00    -0.248 NA
ATOM     60  C   UNL A   1      41.781  31.845  36.809  1.00  0.00     0.031 C 
ATOM     61  C   UNL A   1      43.269  27.856  32.483  1.00  0.00     0.029 A 
ATOM     62  C   UNL A   1      42.639  28.869  33.187  1.00  0.00     0.049 A 
ATOM     63  H   UNL A   1      40.933  29.994  32.655  1.00  0.00     0.167 HD
ATOM     64  C   UNL A   1      42.304  30.403  35.106  1.00  0.00     0.074 A 
ATOM     65  C   UNL A   1      42.653  30.933  36.407  1.00  0.00     0.031 C 
ATOM     66  C   UNL A   1      42.985  29.415  34.475  1.00  0.00     0.037 A 
BRANCH  53  67
ATOM     67  C   UNL A   1      40.633  27.838  28.979  1.00  0.00     0.064 A 
ATOM     68  C   UNL A   1      41.496  28.112  27.907  1.00  0.00     0.173 A 
ATOM     69  C   UNL A   1      39.860  26.668  28.912  1.00  0.00     0.173 A 
ATOM     70  F   UNL A   1      42.251  29.222  27.912  1.00  0.00    -0.203 F 
ATOM     71  C   UNL A   1      41.558  27.267  26.801  1.00  0.00     0.198 A 
ATOM     72  C   UNL A   1      39.953  25.807  27.823  1.00  0.00     0.198 A 
ATOM     73  F   UNL A   1      39.021  26.353  29.911  1.00  0.00    -0.203 F 
ATOM     74  F   UNL A   1      42.347  27.581  25.764  1.00  0.00    -0.200 F 
ATOM     75  C   UNL A   1      40.794  26.111  26.764  1.00  0.00     0.200 A 
ATOM     76  F   UNL A   1      39.228  24.680  27.798  1.00  0.00    -0.200 F 
ATOM     77  F   UNL A   1      40.863  25.294  25.704  1.00  0.00    -0.200 F 
ENDBRANCH  53  67
BRANCH  54  78
ATOM     78  C   UNL A   1      39.666  33.865  36.900  1.00  0.00     0.064 A 
ATOM     79  C   UNL A   1      38.895  33.469  38.003  1.00  0.00     0.173 A 
ATOM     80  C   UNL A   1      40.269  35.131  36.950  1.00  0.00     0.173 A 
ATOM     81  F   UNL A   1      38.283  32.276  37.999  1.00  0.00    -0.203 F 
ATOM     82  C   UNL A   1      38.703  34.318  39.091  1.00  0.00     0.198 A 
ATOM     83  C   UNL A   1      40.108  35.963  38.056  1.00  0.00     0.198 A 
ATOM     84  F   UNL A   1      41.023  35.558  35.926  1.00  0.00    -0.203 F 
ATOM     85  F   UNL A   1      37.906  33.941  40.099  1.00  0.00    -0.200 F 
ATOM     86  C   UNL A   1      39.314  35.563  39.119  1.00  0.00     0.200 A 
ATOM     87  F   UNL A   1      40.716  37.157  38.086  1.00  0.00    -0.200 F 
ATOM     88  F   UNL A   1      39.126  36.381  40.163  1.00  0.00    -0.200 F 
ENDBRANCH  54  78
BRANCH  66  89
ATOM     89  C   UNL A   1      44.223  28.890  35.149  1.00  0.00     0.064 A 
ATOM     90  C   UNL A   1      44.189  27.796  36.029  1.00  0.00     0.173 A 
ATOM     91  C   UNL A   1      45.470  29.480  34.889  1.00  0.00     0.173 A 
ATOM     92  F   UNL A   1      43.024  27.199  36.321  1.00  0.00    -0.203 F 
ATOM     93  C   UNL A   1      45.348  27.345  36.655  1.00  0.00     0.198 A 
ATOM     94  C   UNL A   1      46.633  28.997  35.483  1.00  0.00     0.198 A 
ATOM     95  F   UNL A   1      45.565  30.520  34.048  1.00  0.00    -0.203 F 
ATOM     96  F   UNL A   1      45.280  26.346  37.546  1.00  0.00    -0.200 F 
ATOM     97  C   UNL A   1      46.569  27.940  36.376  1.00  0.00     0.200 A 
ATOM     98  F   UNL A   1      47.814  29.561  35.193  1.00  0.00    -0.200 F 
ATOM     99  F   UNL A   1      47.684  27.501  36.977  1.00  0.00    -0.200 F 
ENDBRANCH  66  89
ENDBRANCH  40  41
ENDBRANCH  32  35
ENDBRANCH  30  31
ENDBRANCH  29  30
ENDBRANCH  28  29
ENDBRANCH   1  28
TORSDOF 19
ENDMDL
MODEL 3
REMARK VINA RESULT:     -11.7      0.924      2.291
REMARK SMILES CC(C)C[NH2+][C@@H](CC(=O)Nc1cccc(Cl)c1)C(=O)NCCCCCCNC(=O)c1ccc(-c2c3nc(c(-c4c(F)c(F)c(F)c(F)c4F)c4ccc([nH]4)c(-c4c(F)c(F)c(F)c(F)c4F)c4nc(c(-c5c(F)c(F)c(F)c(F)c5F)c5ccc2[nH]5)C=C4)C=C3)cc1
REMARK SMILES IDX 23 1 22 2 21 3 20 4 18 5 19 6 6 8 5 9 4 12 2 13 1 14 3 15
REMARK SMILES IDX 7 16 8 17 9 18 10 19 11 21 12 22 17 23 13 24 15 25 14 26
REMARK SMILES IDX 16 27 24 28 25 29 26 30 27 31 28 32 29 34 30 35 31 36 92 37
REMARK SMILES IDX 32 38 91 39 33 40 34 41 35 42 85 43 36 44 90 45 84 46 86 47
REMARK SMILES IDX 37 48 89 49 83 50 82 51 38 53 70 54 50 55 69 56 51 57 54 58
REMARK SMILES IDX 68 59 87 60 52 61 53 62 67 64 88 65 55 66 39 67 40 68 48 69
REMARK SMILES IDX 41 70 42 71 46 72 49 73 43 74 44 75 47 76 45 77 71 78 72 79
REMARK SMILES IDX 80 80 73 81 74 82 78 83 81 84 75 85 76 86 79 87 77 88 56 89
REMARK SMILES IDX 57 90 65 91 58 92 59 93 63 94 66 95 60 96 61 97 64 98 62 99
REMARK H PARENT 20 7 5 10 5 11 10 20 27 33 86 52 54 63
REMARK Flexibility Score: inf
ROOT
ATOM      1  C   UNL A   1      31.860  29.702  26.932  1.00  0.00     0.002 C 
ENDROOT
BRANCH   1   2
ATOM      2  C   UNL A   1      31.807  28.327  26.283  1.00  0.00     0.021 C 
BRANCH   2   3
ATOM      3  C   UNL A   1      33.164  27.748  25.903  1.00  0.00     0.116 C 
BRANCH   3   4
ATOM      4  N   UNL A   1      33.691  28.130  24.620  1.00  0.00    -0.351 N 
ATOM      5  C   UNL A   1      33.084  28.097  23.393  1.00  0.00     0.278 C 
ATOM      6  O   UNL A   1      33.724  28.592  22.456  1.00  0.00    -0.268 OA
ATOM      7  H   UNL A   1      34.619  28.462  24.626  1.00  0.00     0.163 HD
BRANCH   5   8
ATOM      8  C   UNL A   1      31.702  27.406  23.109  1.00  0.00     0.281 C 
BRANCH   8   9
ATOM      9  N   UNL A   1      30.878  28.278  22.283  1.00  0.00    -0.335 N 
ATOM     10  H   UNL A   1      31.436  28.519  21.464  1.00  0.00     0.346 HD
ATOM     11  H   UNL A   1      30.034  27.724  22.136  1.00  0.00     0.346 HD
BRANCH   9  12
ATOM     12  C   UNL A   1      30.360  29.534  22.822  1.00  0.00     0.264 C 
BRANCH  12  13
ATOM     13  C   UNL A   1      28.565  29.845  22.892  1.00  0.00     0.038 C 
ATOM     14  C   UNL A   1      26.926  28.452  23.326  1.00  0.00     0.013 C 
ATOM     15  C   UNL A   1      28.824  31.454  23.495  1.00  0.00     0.013 C 
ENDBRANCH  12  13
ENDBRANCH   9  12
ENDBRANCH   8   9
BRANCH   8  16
ATOM     16  C   UNL A   1      31.765  25.922  22.783  1.00  0.00     0.175 C 
BRANCH  16  17
ATOM     17  C   UNL A   1      32.926  25.244  22.076  1.00  0.00     0.230 C 
ATOM     18  O   UNL A   1      33.194  25.604  20.920  1.00  0.00    -0.274 OA
ATOM     19  N   UNL A   1      33.813  24.380  22.640  1.00  0.00    -0.326 N 
ATOM     20  H   UNL A   1      34.628  24.273  22.098  1.00  0.00     0.169 HD
BRANCH  19  21
ATOM     21  C   UNL A   1      33.845  23.605  23.811  1.00  0.00     0.042 A 
ATOM     22  C   UNL A   1      34.148  24.204  25.508  1.00  0.00     0.026 A 
ATOM     23  C   UNL A   1      33.372  21.891  23.557  1.00  0.00     0.046 A 
ATOM     24  C   UNL A   1      34.008  23.084  26.920  1.00  0.00     0.004 A 
ATOM     25  C   UNL A   1      33.190  20.798  24.968  1.00  0.00     0.043 A 
ATOM     26  C   UNL A   1      33.565  21.366  26.635  1.00  0.00     0.020 A 
ATOM     27  Cl  UNL A   1      32.491  19.240  24.734  1.00  0.00    -0.084 Cl
ENDBRANCH  19  21
ENDBRANCH  16  17
ENDBRANCH   8  16
ENDBRANCH   5   8
ENDBRANCH   3   4
ENDBRANCH   2   3
ENDBRANCH   1   2
BRANCH   1  28
ATOM     28  C   UNL A   1      31.435  30.859  26.023  1.00  0.00     0.002 C 
BRANCH  28  29
ATOM     29  C   UNL A   1      31.354  32.235  26.692  1.00  0.00     0.021 C 
BRANCH  29  30
ATOM     30  C   UNL A   1      32.699  32.839  27.082  1.00  0.00     0.116 C 
BRANCH  30  31
ATOM     31  N   UNL A   1      32.551  34.155  27.685  1.00  0.00    -0.352 N 
ATOM     32  C   UNL A   1      33.175  34.702  28.774  1.00  0.00     0.251 C 
ATOM     33  H   UNL A   1      31.902  34.746  27.239  1.00  0.00     0.163 HD
ATOM     34  O   UNL A   1      32.754  35.747  29.262  1.00  0.00    -0.269 OA
BRANCH  32  35
ATOM     35  C   UNL A   1      34.353  34.038  29.369  1.00  0.00     0.039 A 
ATOM     36  C   UNL A   1      34.153  33.051  30.337  1.00  0.00     0.014 A 
ATOM     37  C   UNL A   1      35.650  34.412  29.008  1.00  0.00     0.014 A 
ATOM     38  C   UNL A   1      35.253  32.415  30.915  1.00  0.00     0.010 A 
ATOM     39  C   UNL A   1      36.741  33.715  29.516  1.00  0.00     0.010 A 
ATOM     40  C   UNL A   1      36.557  32.724  30.491  1.00  0.00    -0.014 A 
BRANCH  40  41
ATOM     41  C   UNL A   1      37.734  32.041  31.084  1.00  0.00     0.031 A 
ATOM     42  C   UNL A   1      38.207  32.409  32.464  1.00  0.00     0.074 A 
ATOM     43  C   UNL A   1      38.397  31.111  30.367  1.00  0.00     0.049 A 
ATOM     44  N   UNL A   1      39.229  31.947  33.142  1.00  0.00    -0.248 NA
ATOM     45  C   UNL A   1      37.447  33.453  33.170  1.00  0.00     0.031 C 
ATOM     46  C   UNL A   1      38.060  30.697  29.005  1.00  0.00     0.029 A 
ATOM     47  N   UNL A   1      39.492  30.349  30.685  1.00  0.00    -0.354 N 
ATOM     48  C   UNL A   1      39.234  32.646  34.342  1.00  0.00     0.074 A 
ATOM     49  C   UNL A   1      38.160  33.612  34.275  1.00  0.00     0.031 C 
ATOM     50  C   UNL A   1      38.907  29.731  28.617  1.00  0.00     0.029 A 
ATOM     51  C   UNL A   1      39.877  29.492  29.683  1.00  0.00     0.049 A 
ATOM     52  H   UNL A   1      39.959  30.409  31.550  1.00  0.00     0.167 HD
ATOM     53  C   UNL A   1      40.042  32.478  35.416  1.00  0.00     0.037 A 
ATOM     54  C   UNL A   1      40.900  28.620  29.626  1.00  0.00     0.037 A 
ATOM     55  C   UNL A   1      41.105  31.509  35.480  1.00  0.00     0.049 A 
ATOM     56  C   UNL A   1      41.808  28.479  30.821  1.00  0.00     0.074 A 
ATOM     57  C   UNL A   1      41.958  31.232  36.535  1.00  0.00     0.029 A 
ATOM     58  N   UNL A   1      41.468  30.662  34.442  1.00  0.00    -0.354 N 
ATOM     59  N   UNL A   1      41.764  29.101  31.974  1.00  0.00    -0.248 NA
ATOM     60  C   UNL A   1      42.902  27.506  30.707  1.00  0.00     0.031 C 
ATOM     61  C   UNL A   1      42.879  30.270  36.112  1.00  0.00     0.029 A 
ATOM     62  C   UNL A   1      42.549  29.883  34.824  1.00  0.00     0.049 A 
ATOM     63  H   UNL A   1      41.023  30.621  33.565  1.00  0.00     0.167 HD
ATOM     64  C   UNL A   1      42.792  28.563  32.739  1.00  0.00     0.074 A 
ATOM     65  C   UNL A   1      43.433  27.555  31.920  1.00  0.00     0.031 C 
ATOM     66  C   UNL A   1      43.170  28.873  34.004  1.00  0.00     0.037 A 
BRANCH  53  67
ATOM     67  C   UNL A   1      39.813  33.364  36.609  1.00  0.00     0.064 A 
ATOM     68  C   UNL A   1      40.487  34.585  36.764  1.00  0.00     0.173 A 
ATOM     69  C   UNL A   1      38.878  33.006  37.592  1.00  0.00     0.173 A 
ATOM     70  F   UNL A   1      41.401  34.974  35.861  1.00  0.00    -0.203 F 
ATOM     71  C   UNL A   1      40.258  35.397  37.873  1.00  0.00     0.198 A 
ATOM     72  C   UNL A   1      38.623  33.838  38.678  1.00  0.00     0.198 A 
ATOM     73  F   UNL A   1      38.199  31.853  37.493  1.00  0.00    -0.203 F 
ATOM     74  F   UNL A   1      40.958  36.530  38.028  1.00  0.00    -0.200 F 
ATOM     75  C   UNL A   1      39.320  35.027  38.824  1.00  0.00     0.200 A 
ATOM     76  F   UNL A   1      37.702  33.487  39.586  1.00  0.00    -0.200 F 
ATOM     77  F   UNL A   1      39.092  35.814  39.885  1.00  0.00    -0.200 F 
ENDBRANCH  53  67
BRANCH  54  78
ATOM     78  C   UNL A   1      41.118  27.796  28.406  1.00  0.00     0.064 A 
ATOM     79  C   UNL A   1      40.556  26.517  28.285  1.00  0.00     0.173 A 
ATOM     80  C   UNL A   1      41.920  28.256  27.350  1.00  0.00     0.173 A 
ATOM     81  F   UNL A   1      39.796  26.023  29.274  1.00  0.00    -0.203 F 
ATOM     82  C   UNL A   1      40.817  25.716  27.174  1.00  0.00     0.198 A 
ATOM     83  C   UNL A   1      42.147  27.470  26.223  1.00  0.00     0.198 A 
ATOM     84  F   UNL A   1      42.477  29.474  27.409  1.00  0.00    -0.203 F 
ATOM     85  F   UNL A   1      40.323  24.472  27.118  1.00  0.00    -0.200 F 
ATOM     86  C   UNL A   1      41.609  26.195  26.142  1.00  0.00     0.200 A 
ATOM     87  F   UNL A   1      42.897  27.945  25.219  1.00  0.00    -0.200 F 
ATOM     88  F   UNL A   1      41.863  25.424  25.076  1.00  0.00    -0.200 F 
ENDBRANCH  54  78
BRANCH  66  89
ATOM     89  C   UNL A   1      44.284  28.065  34.610  1.00  0.00     0.064 A 
ATOM     90  C   UNL A   1      45.626  28.468  34.537  1.00  0.00     0.173 A 
ATOM     91  C   UNL A   1      43.997  26.876  35.299  1.00  0.00     0.173 A 
ATOM     92  F   UNL A   1      45.960  29.592  33.883  1.00  0.00    -0.203 F 
ATOM     93  C   UNL A   1      46.640  27.689  35.089  1.00  0.00     0.198 A 
ATOM     94  C   UNL A   1      45.009  26.122  35.888  1.00  0.00     0.198 A 
ATOM     95  F   UNL A   1      42.731  26.447  35.411  1.00  0.00    -0.203 F 
ATOM     96  F   UNL A   1      47.920  28.059  34.943  1.00  0.00    -0.200 F 
ATOM     97  C   UNL A   1      46.330  26.522  35.770  1.00  0.00     0.200 A 
ATOM     98  F   UNL A   1      44.703  25.007  36.565  1.00  0.00    -0.200 F 
ATOM     99  F   UNL A   1      47.307  25.776  36.305  1.00  0.00    -0.200 F 
ENDBRANCH  66  89
ENDBRANCH  40  41
ENDBRANCH  32  35
ENDBRANCH  30  31
ENDBRANCH  29  30
ENDBRANCH  28  29
ENDBRANCH   1  28
TORSDOF 19
ENDMDL
