MODEL 1
REMARK VINA RESULT:     -14.3      0.000      0.000
REMARK SMILES O=C(NCCCCCCNC(=O)[C@@H]1CC(=O)N(c2ccc(Cl)cc2C(=O)c2ccccc2)C1)c1ccc(-c2c3nc(c(-c4c(F)c(F)c(F)c(F)c4F)c4ccc([nH]4)c(-c4c(F)c(F)c(F)c(F)c4F)c4nc(c(-c5c(F)c(F)c(F)c(F)c5F)c5ccc2[nH]5)C=C4)C=C3)cc1
REMARK SMILES IDX 7 1 6 2 5 3 4 4 3 5 1 6 2 7 34 9 35 10 96 11 36 12 95 13
REMARK SMILES IDX 37 14 38 15 39 16 89 17 40 18 94 19 88 20 90 21 41 22 93 23
REMARK SMILES IDX 87 24 86 25 42 27 74 28 54 29 73 30 55 31 58 32 72 33 91 34
REMARK SMILES IDX 56 35 57 36 71 38 92 39 59 40 43 41 44 42 52 43 45 44 46 45
REMARK SMILES IDX 50 46 53 47 47 48 48 49 51 50 49 51 75 52 76 53 84 54 77 55
REMARK SMILES IDX 78 56 82 57 85 58 79 59 80 60 83 61 81 62 60 63 61 64 69 65
REMARK SMILES IDX 62 66 63 67 67 68 70 69 64 70 65 71 68 72 66 73 8 74 9 75
REMARK SMILES IDX 10 76 11 77 12 79 13 80 14 81 33 82 15 83 17 84 16 85 18 86
REMARK SMILES IDX 19 87 24 88 20 89 23 90 21 91 22 92 25 93 26 94 27 95 28 96
REMARK SMILES IDX 32 97 29 98 31 99 30 100
REMARK H PARENT 3 8 90 26 58 37 10 78
REMARK Flexibility Score: inf
ROOT
ATOM      1  C   UNL A   1      32.509  29.708  26.968  1.00  0.00     0.002 C 
ENDROOT
BRANCH   1   2
ATOM      2  C   UNL A   1      31.636  30.659  26.139  1.00  0.00     0.002 C 
BRANCH   2   3
ATOM      3  C   UNL A   1      31.450  32.057  26.730  1.00  0.00     0.021 C 
BRANCH   3   4
ATOM      4  C   UNL A   1      32.728  32.665  27.291  1.00  0.00     0.116 C 
BRANCH   4   5
ATOM      5  N   UNL A   1      32.533  34.067  27.627  1.00  0.00    -0.352 N 
ATOM      6  O   UNL A   1      32.594  35.844  29.015  1.00  0.00    -0.269 OA
ATOM      7  C   UNL A   1      33.083  34.782  28.650  1.00  0.00     0.251 C 
ATOM      8  H   UNL A   1      31.924  34.566  27.037  1.00  0.00     0.163 HD
BRANCH   7   9
ATOM      9  C   UNL A   1      34.287  34.248  29.297  1.00  0.00     0.039 A 
ATOM     10  C   UNL A   1      34.159  33.411  30.412  1.00  0.00     0.014 A 
ATOM     11  C   UNL A   1      35.537  34.582  28.782  1.00  0.00     0.014 A 
ATOM     12  C   UNL A   1      35.293  32.976  31.074  1.00  0.00     0.010 A 
ATOM     13  C   UNL A   1      36.674  34.068  29.393  1.00  0.00     0.010 A 
ATOM     14  C   UNL A   1      36.555  33.265  30.542  1.00  0.00    -0.014 A 
BRANCH  14  15
ATOM     15  C   UNL A   1      37.760  32.646  31.126  1.00  0.00     0.031 A 
ATOM     16  C   UNL A   1      38.443  31.516  30.429  1.00  0.00     0.074 A 
ATOM     17  C   UNL A   1      38.174  33.072  32.332  1.00  0.00     0.049 A 
ATOM     18  N   UNL A   1      39.407  30.744  30.860  1.00  0.00    -0.248 NA
ATOM     19  C   UNL A   1      37.963  31.193  29.078  1.00  0.00     0.031 C 
ATOM     20  C   UNL A   1      37.568  34.169  33.090  1.00  0.00     0.029 A 
ATOM     21  N   UNL A   1      39.178  32.619  33.144  1.00  0.00    -0.354 N 
ATOM     22  C   UNL A   1      39.632  29.826  29.845  1.00  0.00     0.074 A 
ATOM     23  C   UNL A   1      38.681  30.117  28.792  1.00  0.00     0.031 C 
ATOM     24  C   UNL A   1      38.212  34.305  34.257  1.00  0.00     0.029 A 
ATOM     25  C   UNL A   1      39.218  33.255  34.359  1.00  0.00     0.049 A 
ATOM     26  H   UNL A   1      39.808  31.909  32.883  1.00  0.00     0.167 HD
ATOM     27  C   UNL A   1      40.554  28.834  29.807  1.00  0.00     0.037 A 
ATOM     28  C   UNL A   1      39.947  32.989  35.458  1.00  0.00     0.037 A 
ATOM     29  C   UNL A   1      41.477  28.563  30.879  1.00  0.00     0.049 A 
ATOM     30  C   UNL A   1      40.921  31.849  35.418  1.00  0.00     0.074 A 
ATOM     31  C   UNL A   1      42.479  27.612  30.935  1.00  0.00     0.029 A 
ATOM     32  N   UNL A   1      41.494  29.233  32.097  1.00  0.00    -0.354 N 
ATOM     33  N   UNL A   1      41.161  31.005  34.443  1.00  0.00    -0.248 NA
ATOM     34  C   UNL A   1      41.727  31.622  36.623  1.00  0.00     0.031 C 
ATOM     35  C   UNL A   1      43.045  27.650  32.212  1.00  0.00     0.029 A 
ATOM     36  C   UNL A   1      42.464  28.687  32.924  1.00  0.00     0.049 A 
ATOM     37  H   UNL A   1      40.905  29.985  32.337  1.00  0.00     0.167 HD
ATOM     38  C   UNL A   1      42.168  30.169  34.900  1.00  0.00     0.074 A 
ATOM     39  C   UNL A   1      42.490  30.605  36.245  1.00  0.00     0.031 C 
ATOM     40  C   UNL A   1      42.777  29.142  34.259  1.00  0.00     0.037 A 
BRANCH  27  41
ATOM     41  C   UNL A   1      40.560  27.943  28.597  1.00  0.00     0.064 A 
ATOM     42  C   UNL A   1      39.855  26.730  28.557  1.00  0.00     0.173 A 
ATOM     43  C   UNL A   1      41.299  28.305  27.458  1.00  0.00     0.173 A 
ATOM     44  F   UNL A   1      39.135  26.331  29.618  1.00  0.00    -0.203 F 
ATOM     45  C   UNL A   1      39.936  25.888  27.451  1.00  0.00     0.198 A 
ATOM     46  C   UNL A   1      41.342  27.481  26.337  1.00  0.00     0.198 A 
ATOM     47  F   UNL A   1      41.985  29.457  27.433  1.00  0.00    -0.203 F 
ATOM     48  F   UNL A   1      39.322  24.697  27.471  1.00  0.00    -0.200 F 
ATOM     49  C   UNL A   1      40.676  26.265  26.340  1.00  0.00     0.200 A 
ATOM     50  F   UNL A   1      42.042  27.857  25.258  1.00  0.00    -0.200 F 
ATOM     51  F   UNL A   1      40.758  25.451  25.280  1.00  0.00    -0.200 F 
ENDBRANCH  27  41
BRANCH  28  52
ATOM     52  C   UNL A   1      39.752  33.820  36.671  1.00  0.00     0.064 A 
ATOM     53  C   UNL A   1      40.357  35.077  36.789  1.00  0.00     0.173 A 
ATOM     54  C   UNL A   1      38.901  33.402  37.707  1.00  0.00     0.173 A 
ATOM     55  F   UNL A   1      41.184  35.514  35.829  1.00  0.00    -0.203 F 
ATOM     56  C   UNL A   1      40.123  35.884  37.900  1.00  0.00     0.198 A 
ATOM     57  C   UNL A   1      38.644  34.223  38.801  1.00  0.00     0.198 A 
ATOM     58  F   UNL A   1      38.286  32.212  37.632  1.00  0.00    -0.203 F 
ATOM     59  F   UNL A   1      40.736  37.071  38.003  1.00  0.00    -0.200 F 
ATOM     60  C   UNL A   1      39.259  35.461  38.900  1.00  0.00     0.200 A 
ATOM     61  F   UNL A   1      37.788  33.821  39.752  1.00  0.00    -0.200 F 
ATOM     62  F   UNL A   1      39.018  36.248  39.958  1.00  0.00    -0.200 F 
ENDBRANCH  28  52
BRANCH  40  63
ATOM     63  C   UNL A   1      43.905  28.448  34.967  1.00  0.00     0.064 A 
ATOM     64  C   UNL A   1      45.230  28.895  34.876  1.00  0.00     0.173 A 
ATOM     65  C   UNL A   1      43.631  27.372  35.826  1.00  0.00     0.173 A 
ATOM     66  F   UNL A   1      45.548  29.908  34.057  1.00  0.00    -0.203 F 
ATOM     67  C   UNL A   1      46.240  28.287  35.618  1.00  0.00     0.198 A 
ATOM     68  C   UNL A   1      44.635  26.790  36.591  1.00  0.00     0.198 A 
ATOM     69  F   UNL A   1      42.377  26.907  35.950  1.00  0.00    -0.203 F 
ATOM     70  F   UNL A   1      47.506  28.709  35.495  1.00  0.00    -0.200 F 
ATOM     71  C   UNL A   1      45.940  27.246  36.486  1.00  0.00     0.200 A 
ATOM     72  F   UNL A   1      44.338  25.798  37.443  1.00  0.00    -0.200 F 
ATOM     73  F   UNL A   1      46.909  26.683  37.220  1.00  0.00    -0.200 F 
ENDBRANCH  40  63
ENDBRANCH  14  15
ENDBRANCH   7   9
ENDBRANCH   4   5
ENDBRANCH   3   4
ENDBRANCH   2   3
ENDBRANCH   1   2
BRANCH   1  74
ATOM     74  C   UNL A   1      33.082  28.529  26.194  1.00  0.00     0.021 C 
BRANCH  74  75
ATOM     75  C   UNL A   1      33.690  28.973  24.866  1.00  0.00     0.116 C 
BRANCH  75  76
ATOM     76  N   UNL A   1      32.628  28.742  23.652  1.00  0.00    -0.356 N 
ATOM     77  C   UNL A   1      31.156  27.637  22.986  1.00  0.00     0.225 C 
ATOM     78  H   UNL A   1      32.793  29.443  22.981  1.00  0.00     0.163 HD
ATOM     79  O   UNL A   1      30.407  27.837  21.965  1.00  0.00    -0.275 OA
BRANCH  77  80
ATOM     80  C   UNL A   1      30.446  26.119  23.578  1.00  0.00     0.107 C 
ATOM     81  C   UNL A   1      29.823  26.008  24.986  1.00  0.00     0.116 C 
ATOM     82  C   UNL A   1      30.956  24.707  23.362  1.00  0.00     0.139 C 
ATOM     83  C   UNL A   1      30.720  24.984  25.669  1.00  0.00     0.227 C 
ATOM     84  N   UNL A   1      31.471  24.349  24.659  1.00  0.00    -0.311 N 
ATOM     85  O   UNL A   1      30.846  24.878  26.878  1.00  0.00    -0.274 OA
BRANCH  84  86
ATOM     86  C   UNL A   1      32.786  23.879  24.896  1.00  0.00     0.055 A 
ATOM     87  C   UNL A   1      33.857  24.778  24.789  1.00  0.00     0.028 A 
ATOM     88  C   UNL A   1      33.071  22.537  25.207  1.00  0.00     0.048 A 
ATOM     89  C   UNL A   1      35.173  24.365  25.035  1.00  0.00     0.023 A 
ATOM     90  C   UNL A   1      34.393  22.124  25.451  1.00  0.00     0.035 A 
ATOM     91  C   UNL A   1      35.434  23.040  25.366  1.00  0.00     0.041 A 
ATOM     92  Cl  UNL A   1      37.050  22.520  25.649  1.00  0.00    -0.084 Cl
BRANCH  88  93
ATOM     93  C   UNL A   1      32.054  21.470  25.261  1.00  0.00     0.195 C 
ATOM     94  O   UNL A   1      31.013  21.667  25.881  1.00  0.00    -0.289 OA
BRANCH  93  95
ATOM     95  C   UNL A   1      32.239  20.151  24.613  1.00  0.00     0.023 A 
ATOM     96  C   UNL A   1      32.908  18.833  25.684  1.00  0.00     0.012 A 
ATOM     97  C   UNL A   1      32.128  19.873  22.782  1.00  0.00     0.012 A 
ATOM     98  C   UNL A   1      33.537  17.284  24.971  1.00  0.00     0.001 A 
ATOM     99  C   UNL A   1      32.733  18.296  22.074  1.00  0.00     0.001 A 
ATOM    100  C   UNL A   1      33.453  17.019  23.154  1.00  0.00     0.000 A 
ENDBRANCH  93  95
ENDBRANCH  88  93
ENDBRANCH  84  86
ENDBRANCH  77  80
ENDBRANCH  75  76
ENDBRANCH  74  75
ENDBRANCH   1  74
TORSDOF 16
ENDMDL
MODEL 2
REMARK VINA RESULT:     -14.0      0.947      2.175
REMARK SMILES O=C(NCCCCCCNC(=O)[C@@H]1CC(=O)N(c2ccc(Cl)cc2C(=O)c2ccccc2)C1)c1ccc(-c2c3nc(c(-c4c(F)c(F)c(F)c(F)c4F)c4ccc([nH]4)c(-c4c(F)c(F)c(F)c(F)c4F)c4nc(c(-c5c(F)c(F)c(F)c(F)c5F)c5ccc2[nH]5)C=C4)C=C3)cc1
REMARK SMILES IDX 7 1 6 2 5 3 4 4 3 5 1 6 2 7 34 9 35 10 96 11 36 12 95 13
REMARK SMILES IDX 37 14 38 15 39 16 89 17 40 18 94 19 88 20 90 21 41 22 93 23
REMARK SMILES IDX 87 24 86 25 42 27 74 28 54 29 73 30 55 31 58 32 72 33 91 34
REMARK SMILES IDX 56 35 57 36 71 38 92 39 59 40 43 41 44 42 52 43 45 44 46 45
REMARK SMILES IDX 50 46 53 47 47 48 48 49 51 50 49 51 75 52 76 53 84 54 77 55
REMARK SMILES IDX 78 56 82 57 85 58 79 59 80 60 83 61 81 62 60 63 61 64 69 65
REMARK SMILES IDX 62 66 63 67 67 68 70 69 64 70 65 71 68 72 66 73 8 74 9 75
REMARK SMILES IDX 10 76 11 77 12 79 13 80 14 81 33 82 15 83 17 84 16 85 18 86
REMARK SMILES IDX 19 87 24 88 20 89 23 90 21 91 22 92 25 93 26 94 27 95 28 96
REMARK SMILES IDX 32 97 29 98 31 99 30 100
REMARK H PARENT 3 8 90 26 58 37 10 78
REMARK Flexibility Score: inf
ROOT
ATOM      1  C   UNL A   1      32.789  29.673  25.503  1.00  0.00     0.002 C 
ENDROOT
BRANCH   1   2
ATOM      2  C   UNL A   1      31.552  30.157  26.271  1.00  0.00     0.002 C 
BRANCH   2   3
ATOM      3  C   UNL A   1      31.464  31.669  26.481  1.00  0.00     0.021 C 
BRANCH   3   4
ATOM      4  C   UNL A   1      32.682  32.269  27.168  1.00  0.00     0.116 C 
BRANCH   4   5
ATOM      5  N   UNL A   1      32.483  33.684  27.438  1.00  0.00    -0.352 N 
ATOM      6  O   UNL A   1      32.522  35.521  28.747  1.00  0.00    -0.269 OA
ATOM      7  C   UNL A   1      33.016  34.444  28.438  1.00  0.00     0.251 C 
ATOM      8  H   UNL A   1      31.884  34.157  26.816  1.00  0.00     0.163 HD
BRANCH   7   9
ATOM      9  C   UNL A   1      34.208  33.938  29.129  1.00  0.00     0.039 A 
ATOM     10  C   UNL A   1      34.064  33.007  30.164  1.00  0.00     0.014 A 
ATOM     11  C   UNL A   1      35.463  34.394  28.734  1.00  0.00     0.014 A 
ATOM     12  C   UNL A   1      35.178  32.594  30.873  1.00  0.00     0.010 A 
ATOM     13  C   UNL A   1      36.589  33.907  29.386  1.00  0.00     0.010 A 
ATOM     14  C   UNL A   1      36.450  33.007  30.458  1.00  0.00    -0.014 A 
BRANCH  14  15
ATOM     15  C   UNL A   1      37.654  32.423  31.079  1.00  0.00     0.031 A 
ATOM     16  C   UNL A   1      38.356  31.274  30.435  1.00  0.00     0.074 A 
ATOM     17  C   UNL A   1      38.048  32.899  32.274  1.00  0.00     0.049 A 
ATOM     18  N   UNL A   1      39.322  30.529  30.906  1.00  0.00    -0.248 NA
ATOM     19  C   UNL A   1      37.896  30.895  29.091  1.00  0.00     0.031 C 
ATOM     20  C   UNL A   1      37.422  34.017  32.982  1.00  0.00     0.029 A 
ATOM     21  N   UNL A   1      39.046  32.486  33.115  1.00  0.00    -0.354 N 
ATOM     22  C   UNL A   1      39.568  29.575  29.930  1.00  0.00     0.074 A 
ATOM     23  C   UNL A   1      38.628  29.817  28.855  1.00  0.00     0.031 C 
ATOM     24  C   UNL A   1      38.050  34.203  34.151  1.00  0.00     0.029 A 
ATOM     25  C   UNL A   1      39.065  33.168  34.305  1.00  0.00     0.049 A 
ATOM     26  H   UNL A   1      39.686  31.773  32.889  1.00  0.00     0.167 HD
ATOM     27  C   UNL A   1      40.500  28.592  29.941  1.00  0.00     0.037 A 
ATOM     28  C   UNL A   1      39.783  32.951  35.422  1.00  0.00     0.037 A 
ATOM     29  C   UNL A   1      41.412  28.370  31.033  1.00  0.00     0.049 A 
ATOM     30  C   UNL A   1      40.768  31.820  35.437  1.00  0.00     0.074 A 
ATOM     31  C   UNL A   1      42.422  27.432  31.137  1.00  0.00     0.029 A 
ATOM     32  N   UNL A   1      41.407  29.086  32.225  1.00  0.00    -0.354 N 
ATOM     33  N   UNL A   1      41.028  30.942  34.498  1.00  0.00    -0.248 NA
ATOM     34  C   UNL A   1      41.560  31.647  36.660  1.00  0.00     0.031 C 
ATOM     35  C   UNL A   1      42.971  27.524  32.419  1.00  0.00     0.029 A 
ATOM     36  C   UNL A   1      42.372  28.582  33.084  1.00  0.00     0.049 A 
ATOM     37  H   UNL A   1      40.808  29.841  32.429  1.00  0.00     0.167 HD
ATOM     38  C   UNL A   1      42.037  30.134  34.999  1.00  0.00     0.074 A 
ATOM     39  C   UNL A   1      42.338  30.624  36.330  1.00  0.00     0.031 C 
ATOM     40  C   UNL A   1      42.664  29.090  34.404  1.00  0.00     0.037 A 
BRANCH  27  41
ATOM     41  C   UNL A   1      40.530  27.656  28.766  1.00  0.00     0.064 A 
ATOM     42  C   UNL A   1      41.344  27.887  27.646  1.00  0.00     0.173 A 
ATOM     43  C   UNL A   1      39.717  26.511  28.754  1.00  0.00     0.173 A 
ATOM     44  F   UNL A   1      42.139  28.968  27.599  1.00  0.00    -0.203 F 
ATOM     45  C   UNL A   1      41.300  27.044  26.539  1.00  0.00     0.198 A 
ATOM     46  C   UNL A   1      39.708  25.646  27.663  1.00  0.00     0.198 A 
ATOM     47  F   UNL A   1      38.925  26.231  29.800  1.00  0.00    -0.203 F 
ATOM     48  F   UNL A   1      42.024  27.333  25.448  1.00  0.00    -0.200 F 
ATOM     49  C   UNL A   1      40.485  25.922  26.549  1.00  0.00     0.200 A 
ATOM     50  F   UNL A   1      38.935  24.552  27.685  1.00  0.00    -0.200 F 
ATOM     51  F   UNL A   1      40.439  25.115  25.481  1.00  0.00    -0.200 F 
ENDBRANCH  27  41
BRANCH  28  52
ATOM     52  C   UNL A   1      39.564  33.826  36.600  1.00  0.00     0.064 A 
ATOM     53  C   UNL A   1      38.743  33.420  37.658  1.00  0.00     0.173 A 
ATOM     54  C   UNL A   1      40.229  35.058  36.720  1.00  0.00     0.173 A 
ATOM     55  F   UNL A   1      38.082  32.256  37.582  1.00  0.00    -0.203 F 
ATOM     56  C   UNL A   1      38.589  34.215  38.791  1.00  0.00     0.198 A 
ATOM     57  C   UNL A   1      40.098  35.836  37.868  1.00  0.00     0.198 A 
ATOM     58  F   UNL A   1      41.039  35.483  35.740  1.00  0.00    -0.203 F 
ATOM     59  F   UNL A   1      37.774  33.817  39.779  1.00  0.00    -0.200 F 
ATOM     60  C   UNL A   1      39.274  35.417  38.900  1.00  0.00     0.200 A 
ATOM     61  F   UNL A   1      40.782  36.983  37.979  1.00  0.00    -0.200 F 
ATOM     62  F   UNL A   1      39.140  36.169  40.001  1.00  0.00    -0.200 F 
ENDBRANCH  28  52
BRANCH  40  63
ATOM     63  C   UNL A   1      43.789  28.434  35.152  1.00  0.00     0.064 A 
ATOM     64  C   UNL A   1      43.576  27.359  36.026  1.00  0.00     0.173 A 
ATOM     65  C   UNL A   1      45.113  28.834  34.911  1.00  0.00     0.173 A 
ATOM     66  F   UNL A   1      42.330  26.950  36.304  1.00  0.00    -0.203 F 
ATOM     67  C   UNL A   1      44.649  26.711  36.634  1.00  0.00     0.198 A 
ATOM     68  C   UNL A   1      46.183  28.163  35.491  1.00  0.00     0.198 A 
ATOM     69  F   UNL A   1      45.370  29.857  34.080  1.00  0.00    -0.203 F 
ATOM     70  F   UNL A   1      44.424  25.705  37.490  1.00  0.00    -0.200 F 
ATOM     71  C   UNL A   1      45.951  27.103  36.355  1.00  0.00     0.200 A 
ATOM     72  F   UNL A   1      47.439  28.531  35.204  1.00  0.00    -0.200 F 
ATOM     73  F   UNL A   1      46.982  26.458  36.917  1.00  0.00    -0.200 F 
ENDBRANCH  40  63
ENDBRANCH  14  15
ENDBRANCH   7   9
ENDBRANCH   4   5
ENDBRANCH   3   4
ENDBRANCH   2   3
ENDBRANCH   1   2
BRANCH   1  74
ATOM     74  C   UNL A   1      32.491  28.996  24.173  1.00  0.00     0.021 C 
BRANCH  74  75
ATOM     75  C   UNL A   1      33.663  29.127  23.203  1.00  0.00     0.116 C 
BRANCH  75  76
ATOM     76  N   UNL A   1      33.603  27.948  22.080  1.00  0.00    -0.356 N 
ATOM     77  C   UNL A   1      33.006  26.126  21.685  1.00  0.00     0.225 C 
ATOM     78  H   UNL A   1      34.048  28.291  21.272  1.00  0.00     0.163 HD
ATOM     79  O   UNL A   1      33.016  25.510  20.562  1.00  0.00    -0.275 OA
BRANCH  77  80
ATOM     80  C   UNL A   1      32.293  24.860  22.709  1.00  0.00     0.107 C 
ATOM     81  C   UNL A   1      31.663  25.184  24.080  1.00  0.00     0.116 C 
ATOM     82  C   UNL A   1      32.804  23.451  22.937  1.00  0.00     0.139 C 
ATOM     83  C   UNL A   1      32.555  24.419  25.048  1.00  0.00     0.227 C 
ATOM     84  N   UNL A   1      33.312  23.507  24.284  1.00  0.00    -0.311 N 
ATOM     85  O   UNL A   1      32.675  24.688  26.233  1.00  0.00    -0.274 OA
BRANCH  84  86
ATOM     86  C   UNL A   1      34.626  23.134  24.660  1.00  0.00     0.055 A 
ATOM     87  C   UNL A   1      35.699  23.951  24.277  1.00  0.00     0.028 A 
ATOM     88  C   UNL A   1      34.907  21.958  25.380  1.00  0.00     0.048 A 
ATOM     89  C   UNL A   1      37.013  23.634  24.644  1.00  0.00     0.023 A 
ATOM     90  C   UNL A   1      36.227  21.641  25.745  1.00  0.00     0.035 A 
ATOM     91  C   UNL A   1      37.271  22.481  25.377  1.00  0.00     0.041 A 
ATOM     92  Cl  UNL A   1      38.885  22.074  25.813  1.00  0.00    -0.084 Cl
BRANCH  88  93
ATOM     93  C   UNL A   1      33.888  20.964  25.767  1.00  0.00     0.195 C 
ATOM     94  O   UNL A   1      33.281  21.110  26.825  1.00  0.00    -0.289 OA
BRANCH  93  95
ATOM     95  C   UNL A   1      33.570  19.777  24.941  1.00  0.00     0.023 A 
ATOM     96  C   UNL A   1      34.727  18.374  25.100  1.00  0.00     0.012 A 
ATOM     97  C   UNL A   1      32.301  19.766  23.587  1.00  0.00     0.012 A 
ATOM     98  C   UNL A   1      34.700  17.006  23.904  1.00  0.00     0.001 A 
ATOM     99  C   UNL A   1      32.260  18.368  22.406  1.00  0.00     0.001 A 
ATOM    100  C   UNL A   1      33.462  17.008  22.545  1.00  0.00     0.000 A 
ENDBRANCH  93  95
ENDBRANCH  88  93
ENDBRANCH  84  86
ENDBRANCH  77  80
ENDBRANCH  75  76
ENDBRANCH  74  75
ENDBRANCH   1  74
TORSDOF 16
ENDMDL
MODEL 3
REMARK VINA RESULT:     -13.3      6.362     10.712
REMARK SMILES O=C(NCCCCCCNC(=O)[C@@H]1CC(=O)N(c2ccc(Cl)cc2C(=O)c2ccccc2)C1)c1ccc(-c2c3nc(c(-c4c(F)c(F)c(F)c(F)c4F)c4ccc([nH]4)c(-c4c(F)c(F)c(F)c(F)c4F)c4nc(c(-c5c(F)c(F)c(F)c(F)c5F)c5ccc2[nH]5)C=C4)C=C3)cc1
REMARK SMILES IDX 7 1 6 2 5 3 4 4 3 5 1 6 2 7 34 9 35 10 96 11 36 12 95 13
REMARK SMILES IDX 37 14 38 15 39 16 89 17 40 18 94 19 88 20 90 21 41 22 93 23
REMARK SMILES IDX 87 24 86 25 42 27 74 28 54 29 73 30 55 31 58 32 72 33 91 34
REMARK SMILES IDX 56 35 57 36 71 38 92 39 59 40 43 41 44 42 52 43 45 44 46 45
REMARK SMILES IDX 50 46 53 47 47 48 48 49 51 50 49 51 75 52 76 53 84 54 77 55
REMARK SMILES IDX 78 56 82 57 85 58 79 59 80 60 83 61 81 62 60 63 61 64 69 65
REMARK SMILES IDX 62 66 63 67 67 68 70 69 64 70 65 71 68 72 66 73 8 74 9 75
REMARK SMILES IDX 10 76 11 77 12 79 13 80 14 81 33 82 15 83 17 84 16 85 18 86
REMARK SMILES IDX 19 87 24 88 20 89 23 90 21 91 22 92 25 93 26 94 27 95 28 96
REMARK SMILES IDX 32 97 29 98 31 99 30 100
REMARK H PARENT 3 8 90 26 58 37 10 78
REMARK Flexibility Score: inf
ROOT
ATOM      1  C   UNL A   1      40.659  20.434  26.695  1.00  0.00     0.002 C 
ENDROOT
BRANCH   1   2
ATOM      2  C   UNL A   1      41.643  19.658  27.581  1.00  0.00     0.002 C 
BRANCH   2   3
ATOM      3  C   UNL A   1      42.704  18.854  26.829  1.00  0.00     0.021 C 
BRANCH   3   4
ATOM      4  C   UNL A   1      42.812  19.204  25.351  1.00  0.00     0.116 C 
BRANCH   4   5
ATOM      5  N   UNL A   1      44.079  18.751  24.800  1.00  0.00    -0.352 N 
ATOM      6  O   UNL A   1      45.967  19.002  23.592  1.00  0.00    -0.269 OA
ATOM      7  C   UNL A   1      45.113  19.498  24.316  1.00  0.00     0.251 C 
ATOM      8  H   UNL A   1      44.209  17.775  24.775  1.00  0.00     0.163 HD
BRANCH   7   9
ATOM      9  C   UNL A   1      45.179  20.914  24.696  1.00  0.00     0.039 A 
ATOM     10  C   UNL A   1      45.637  21.267  25.971  1.00  0.00     0.014 A 
ATOM     11  C   UNL A   1      44.789  21.881  23.773  1.00  0.00     0.014 A 
ATOM     12  C   UNL A   1      45.620  22.594  26.361  1.00  0.00     0.010 A 
ATOM     13  C   UNL A   1      44.862  23.220  24.134  1.00  0.00     0.010 A 
ATOM     14  C   UNL A   1      45.275  23.580  25.429  1.00  0.00    -0.014 A 
BRANCH  14  15
ATOM     15  C   UNL A   1      45.440  25.007  25.770  1.00  0.00     0.031 A 
ATOM     16  C   UNL A   1      46.785  25.650  25.700  1.00  0.00     0.074 A 
ATOM     17  C   UNL A   1      44.367  25.681  26.221  1.00  0.00     0.049 A 
ATOM     18  N   UNL A   1      47.154  26.835  26.113  1.00  0.00    -0.248 NA
ATOM     19  C   UNL A   1      47.866  24.848  25.109  1.00  0.00     0.031 C 
ATOM     20  C   UNL A   1      43.013  25.134  26.326  1.00  0.00     0.029 A 
ATOM     21  N   UNL A   1      44.252  26.959  26.699  1.00  0.00    -0.354 N 
ATOM     22  C   UNL A   1      48.515  26.912  25.858  1.00  0.00     0.074 A 
ATOM     23  C   UNL A   1      48.912  25.642  25.285  1.00  0.00     0.031 C 
ATOM     24  C   UNL A   1      42.201  26.069  26.838  1.00  0.00     0.029 A 
ATOM     25  C   UNL A   1      42.995  27.247  27.168  1.00  0.00     0.049 A 
ATOM     26  H   UNL A   1      44.994  27.604  26.707  1.00  0.00     0.167 HD
ATOM     27  C   UNL A   1      49.349  27.955  26.085  1.00  0.00     0.037 A 
ATOM     28  C   UNL A   1      42.541  28.320  27.840  1.00  0.00     0.037 A 
ATOM     29  C   UNL A   1      48.924  29.202  26.670  1.00  0.00     0.049 A 
ATOM     30  C   UNL A   1      43.492  29.441  28.135  1.00  0.00     0.074 A 
ATOM     31  C   UNL A   1      49.670  30.341  26.909  1.00  0.00     0.029 A 
ATOM     32  N   UNL A   1      47.638  29.463  27.128  1.00  0.00    -0.354 N 
ATOM     33  N   UNL A   1      44.772  29.529  27.859  1.00  0.00    -0.248 NA
ATOM     34  C   UNL A   1      42.945  30.610  28.831  1.00  0.00     0.031 C 
ATOM     35  C   UNL A   1      48.862  31.257  27.586  1.00  0.00     0.029 A 
ATOM     36  C   UNL A   1      47.582  30.731  27.686  1.00  0.00     0.049 A 
ATOM     37  H   UNL A   1      46.878  28.840  27.066  1.00  0.00     0.167 HD
ATOM     38  C   UNL A   1      45.176  30.776  28.313  1.00  0.00     0.074 A 
ATOM     39  C   UNL A   1      44.004  31.406  28.889  1.00  0.00     0.031 C 
ATOM     40  C   UNL A   1      46.403  31.347  28.247  1.00  0.00     0.037 A 
BRANCH  27  41
ATOM     41  C   UNL A   1      50.802  27.763  25.756  1.00  0.00     0.064 A 
ATOM     42  C   UNL A   1      51.306  27.946  24.458  1.00  0.00     0.173 A 
ATOM     43  C   UNL A   1      51.708  27.374  26.756  1.00  0.00     0.173 A 
ATOM     44  F   UNL A   1      50.487  28.314  23.461  1.00  0.00    -0.203 F 
ATOM     45  C   UNL A   1      52.643  27.692  24.163  1.00  0.00     0.198 A 
ATOM     46  C   UNL A   1      53.053  27.162  26.467  1.00  0.00     0.198 A 
ATOM     47  F   UNL A   1      51.288  27.193  28.018  1.00  0.00    -0.203 F 
ATOM     48  F   UNL A   1      53.080  27.792  22.901  1.00  0.00    -0.200 F 
ATOM     49  C   UNL A   1      53.516  27.303  25.168  1.00  0.00     0.200 A 
ATOM     50  F   UNL A   1      53.898  26.807  27.444  1.00  0.00    -0.200 F 
ATOM     51  F   UNL A   1      54.800  27.052  24.882  1.00  0.00    -0.200 F 
ENDBRANCH  27  41
BRANCH  28  52
ATOM     52  C   UNL A   1      41.123  28.350  28.276  1.00  0.00     0.064 A 
ATOM     53  C   UNL A   1      40.748  27.887  29.543  1.00  0.00     0.173 A 
ATOM     54  C   UNL A   1      40.125  28.906  27.459  1.00  0.00     0.173 A 
ATOM     55  F   UNL A   1      41.666  27.341  30.353  1.00  0.00    -0.203 F 
ATOM     56  C   UNL A   1      39.427  27.974  29.975  1.00  0.00     0.198 A 
ATOM     57  C   UNL A   1      38.811  29.020  27.905  1.00  0.00     0.198 A 
ATOM     58  F   UNL A   1      40.438  29.378  26.243  1.00  0.00    -0.203 F 
ATOM     59  F   UNL A   1      39.089  27.498  31.182  1.00  0.00    -0.200 F 
ATOM     60  C   UNL A   1      38.462  28.549  29.161  1.00  0.00     0.200 A 
ATOM     61  F   UNL A   1      37.888  29.601  27.126  1.00  0.00    -0.200 F 
ATOM     62  F   UNL A   1      37.196  28.651  29.588  1.00  0.00    -0.200 F 
ENDBRANCH  28  52
BRANCH  40  63
ATOM     63  C   UNL A   1      46.544  32.754  28.751  1.00  0.00     0.064 A 
ATOM     64  C   UNL A   1      46.279  33.867  27.941  1.00  0.00     0.173 A 
ATOM     65  C   UNL A   1      46.861  32.984  30.100  1.00  0.00     0.173 A 
ATOM     66  F   UNL A   1      45.990  33.704  26.641  1.00  0.00    -0.203 F 
ATOM     67  C   UNL A   1      46.329  35.157  28.461  1.00  0.00     0.198 A 
ATOM     68  C   UNL A   1      46.875  34.271  30.625  1.00  0.00     0.198 A 
ATOM     69  F   UNL A   1      47.121  31.952  30.918  1.00  0.00    -0.203 F 
ATOM     70  F   UNL A   1      46.102  36.210  27.663  1.00  0.00    -0.200 F 
ATOM     71  C   UNL A   1      46.612  35.358  29.806  1.00  0.00     0.200 A 
ATOM     72  F   UNL A   1      47.129  34.459  31.928  1.00  0.00    -0.200 F 
ATOM     73  F   UNL A   1      46.630  36.598  30.311  1.00  0.00    -0.200 F 
ENDBRANCH  40  63
ENDBRANCH  14  15
ENDBRANCH   7   9
ENDBRANCH   4   5
ENDBRANCH   3   4
ENDBRANCH   2   3
ENDBRANCH   1   2
BRANCH   1  74
ATOM     74  C   UNL A   1      41.029  21.890  26.454  1.00  0.00     0.021 C 
BRANCH  74  75
ATOM     75  C   UNL A   1      40.575  22.783  27.606  1.00  0.00     0.116 C 
BRANCH  75  76
ATOM     76  N   UNL A   1      39.279  23.665  27.162  1.00  0.00    -0.356 N 
ATOM     77  C   UNL A   1      37.623  23.686  26.119  1.00  0.00     0.225 C 
ATOM     78  H   UNL A   1      39.363  24.546  27.595  1.00  0.00     0.163 HD
ATOM     79  O   UNL A   1      36.705  24.580  26.098  1.00  0.00    -0.275 OA
BRANCH  77  80
ATOM     80  C   UNL A   1      36.928  22.525  24.967  1.00  0.00     0.107 C 
ATOM     81  C   UNL A   1      36.641  22.909  23.500  1.00  0.00     0.116 C 
ATOM     82  C   UNL A   1      35.850  21.491  25.224  1.00  0.00     0.139 C 
ATOM     83  C   UNL A   1      35.128  22.767  23.406  1.00  0.00     0.227 C 
ATOM     84  N   UNL A   1      34.708  22.040  24.539  1.00  0.00    -0.311 N 
ATOM     85  O   UNL A   1      34.434  23.330  22.575  1.00  0.00    -0.274 OA
BRANCH  84  86
ATOM     86  C   UNL A   1      33.445  22.266  25.140  1.00  0.00     0.055 A 
ATOM     87  C   UNL A   1      33.367  23.118  26.251  1.00  0.00     0.028 A 
ATOM     88  C   UNL A   1      32.265  21.649  24.689  1.00  0.00     0.048 A 
ATOM     89  C   UNL A   1      32.138  23.389  26.867  1.00  0.00     0.023 A 
ATOM     90  C   UNL A   1      31.033  21.920  25.310  1.00  0.00     0.035 A 
ATOM     91  C   UNL A   1      30.977  22.789  26.393  1.00  0.00     0.041 A 
ATOM     92  Cl  UNL A   1      29.466  23.101  27.156  1.00  0.00    -0.084 Cl
BRANCH  88  93
ATOM     93  C   UNL A   1      32.217  20.662  23.593  1.00  0.00     0.195 C 
ATOM     94  O   UNL A   1      31.874  21.030  22.473  1.00  0.00    -0.289 OA
BRANCH  93  95
ATOM     95  C   UNL A   1      32.548  19.232  23.785  1.00  0.00     0.023 A 
ATOM     96  C   UNL A   1      32.497  18.635  25.509  1.00  0.00     0.012 A 
ATOM     97  C   UNL A   1      33.281  18.153  22.466  1.00  0.00     0.012 A 
ATOM     98  C   UNL A   1      33.224  17.031  25.961  1.00  0.00     0.001 A 
ATOM     99  C   UNL A   1      33.982  16.524  22.923  1.00  0.00     0.001 A 
ATOM    100  C   UNL A   1      33.977  15.974  24.659  1.00  0.00     0.000 A 
ENDBRANCH  93  95
ENDBRANCH  88  93
ENDBRANCH  84  86
ENDBRANCH  77  80
ENDBRANCH  75  76
ENDBRANCH  74  75
ENDBRANCH   1  74
TORSDOF 16
ENDMDL
