MODEL 1
REMARK VINA RESULT:     -13.2      0.000      0.000
REMARK SMILES Cc1cccc(C[N@H+]2CCn3nc(CCC(=O)NCCCCCCNC(=O)c4ccc(-c5c6nc(c(-c7c(F)c(F)c(F)c(F)c7F)c7ccc([nH]7)c(-c7c(F)c(F)c(F)c(F)c7F)c7nc(c(-c8c(F)c(F)c(F)c(F)c8F)c8ccc5[nH]8)C=C7)C=C6)cc4)cc3C2)c1
REMARK SMILES IDX 20 1 19 2 18 3 16 4 17 5 15 7 14 8 13 9 8 10 9 11 93 12
REMARK SMILES IDX 10 14 92 15 11 16 91 17 12 18 7 19 6 20 1 21 2 22 3 23 94 24
REMARK SMILES IDX 4 25 5 26 21 27 22 28 23 29 24 30 25 31 26 32 27 34 28 35
REMARK SMILES IDX 29 36 90 37 30 38 89 39 31 40 32 41 33 42 83 43 34 44 88 45
REMARK SMILES IDX 82 46 84 47 35 48 87 49 81 50 80 51 36 53 68 54 48 55 67 56
REMARK SMILES IDX 49 57 52 58 66 59 85 60 50 61 51 62 65 64 86 65 53 66 37 67
REMARK SMILES IDX 38 68 46 69 39 70 40 71 44 72 47 73 41 74 42 75 45 76 43 77
REMARK SMILES IDX 69 78 70 79 78 80 71 81 72 82 76 83 79 84 73 85 74 86 77 87
REMARK SMILES IDX 75 88 54 89 55 90 63 91 56 92 57 93 61 94 64 95 58 96 59 97
REMARK SMILES IDX 62 98 60 99
REMARK H PARENT 18 6 8 13 25 33 84 52 52 63
REMARK Flexibility Score: inf
ROOT
ATOM      1  C   UNL A   1      30.904  26.568  26.153  1.00  0.00     0.021 C 
ENDROOT
BRANCH   1   2
ATOM      2  C   UNL A   1      30.803  25.051  25.973  1.00  0.00     0.116 C 
BRANCH   2   3
ATOM      3  N   UNL A   1      31.465  24.343  27.056  1.00  0.00    -0.356 N 
ATOM      4  C   UNL A   1      31.996  23.089  27.095  1.00  0.00     0.220 C 
ATOM      5  O   UNL A   1      32.385  22.656  28.182  1.00  0.00    -0.275 OA
ATOM      6  H   UNL A   1      31.543  24.851  27.897  1.00  0.00     0.163 HD
BRANCH   4   7
ATOM      7  C   UNL A   1      32.154  22.255  25.842  1.00  0.00     0.106 C 
BRANCH   7   8
ATOM      8  C   UNL A   1      33.532  22.422  25.197  1.00  0.00     0.068 C 
BRANCH   8   9
ATOM      9  C   UNL A   1      33.582  23.586  24.266  1.00  0.00     0.063 A 
ATOM     10  N   UNL A   1      32.278  27.385  22.816  1.00  0.00    -0.325 N 
ATOM     11  C   UNL A   1      31.957  26.733  21.548  1.00  0.00     0.286 C 
ATOM     12  C   UNL A   1      33.650  27.096  23.226  1.00  0.00     0.319 C 
ATOM     13  H   UNL A   1      31.655  26.956  23.500  1.00  0.00     0.348 HD
ATOM     14  C   UNL A   1      32.289  25.225  21.477  1.00  0.00     0.206 C 
ATOM     15  C   UNL A   1      33.699  25.641  23.475  1.00  0.00     0.093 A 
ATOM     16  N   UNL A   1      33.077  24.789  22.612  1.00  0.00    -0.258 N 
ATOM     17  C   UNL A   1      34.108  24.874  24.538  1.00  0.00     0.055 A 
ATOM     18  N   UNL A   1      33.031  23.519  23.047  1.00  0.00    -0.177 NA
BRANCH  10  19
ATOM     19  C   UNL A   1      31.911  28.793  22.924  1.00  0.00     0.299 C 
BRANCH  19  20
ATOM     20  C   UNL A   1      30.426  28.934  22.654  1.00  0.00     0.006 A 
ATOM     21  C   UNL A   1      28.041  31.344  20.908  1.00  0.00     0.044 C 
ATOM     22  C   UNL A   1      28.557  30.208  21.740  1.00  0.00    -0.051 A 
ATOM     23  C   UNL A   1      27.666  29.420  22.476  1.00  0.00     0.003 A 
ATOM     24  C   UNL A   1      29.933  29.964  21.842  1.00  0.00     0.013 A 
ATOM     25  C   UNL A   1      28.140  28.365  23.252  1.00  0.00     0.001 A 
ATOM     26  C   UNL A   1      29.510  28.114  23.326  1.00  0.00     0.009 A 
ENDBRANCH  19  20
ENDBRANCH  10  19
ENDBRANCH   8   9
ENDBRANCH   7   8
ENDBRANCH   4   7
ENDBRANCH   2   3
ENDBRANCH   1   2
BRANCH   1  27
ATOM     27  C   UNL A   1      32.262  27.120  26.608  1.00  0.00     0.002 C 
BRANCH  27  28
ATOM     28  C   UNL A   1      32.237  28.204  27.688  1.00  0.00     0.002 C 
BRANCH  28  29
ATOM     29  C   UNL A   1      32.394  29.651  27.214  1.00  0.00     0.021 C 
BRANCH  29  30
ATOM     30  C   UNL A   1      33.834  30.151  27.051  1.00  0.00     0.116 C 
BRANCH  30  31
ATOM     31  N   UNL A   1      34.220  30.997  28.191  1.00  0.00    -0.352 N 
ATOM     32  C   UNL A   1      35.381  31.070  28.938  1.00  0.00     0.251 C 
ATOM     33  H   UNL A   1      33.522  31.631  28.474  1.00  0.00     0.163 HD
ATOM     34  O   UNL A   1      35.573  31.987  29.713  1.00  0.00    -0.269 OA
BRANCH  32  35
ATOM     35  C   UNL A   1      36.422  30.048  28.734  1.00  0.00     0.039 A 
ATOM     36  C   UNL A   1      36.744  29.179  29.780  1.00  0.00     0.014 A 
ATOM     37  C   UNL A   1      37.160  30.053  27.559  1.00  0.00     0.014 A 
ATOM     38  C   UNL A   1      37.970  28.515  29.754  1.00  0.00     0.010 A 
ATOM     39  C   UNL A   1      38.382  29.409  27.543  1.00  0.00     0.010 A 
ATOM     40  C   UNL A   1      38.832  28.735  28.679  1.00  0.00    -0.014 A 
BRANCH  40  41
ATOM     41  C   UNL A   1      40.272  28.512  28.755  1.00  0.00     0.031 A 
ATOM     42  C   UNL A   1      40.912  27.309  28.196  1.00  0.00     0.074 A 
ATOM     43  C   UNL A   1      41.049  29.478  29.300  1.00  0.00     0.049 A 
ATOM     44  N   UNL A   1      41.984  26.781  28.683  1.00  0.00    -0.248 NA
ATOM     45  C   UNL A   1      40.391  26.602  27.036  1.00  0.00     0.031 C 
ATOM     46  C   UNL A   1      42.508  29.554  29.299  1.00  0.00     0.029 A 
ATOM     47  N   UNL A   1      40.648  30.504  30.173  1.00  0.00    -0.354 N 
ATOM     48  C   UNL A   1      42.441  25.850  27.781  1.00  0.00     0.074 A 
ATOM     49  C   UNL A   1      41.379  25.730  26.803  1.00  0.00     0.031 C 
ATOM     50  C   UNL A   1      42.898  30.310  30.338  1.00  0.00     0.029 A 
ATOM     51  C   UNL A   1      41.706  30.643  31.098  1.00  0.00     0.049 A 
ATOM     52  H   UNL A   1      39.808  31.017  30.145  1.00  0.00     0.167 HD
ATOM     53  C   UNL A   1      43.721  25.386  27.882  1.00  0.00     0.037 A 
ATOM     54  C   UNL A   1      41.529  30.414  32.430  1.00  0.00     0.037 A 
ATOM     55  C   UNL A   1      44.431  26.012  28.994  1.00  0.00     0.049 A 
ATOM     56  C   UNL A   1      42.450  29.368  33.002  1.00  0.00     0.074 A 
ATOM     57  C   UNL A   1      45.327  27.069  29.046  1.00  0.00     0.029 A 
ATOM     58  N   UNL A   1      44.044  25.760  30.304  1.00  0.00    -0.354 N 
ATOM     59  N   UNL A   1      43.054  28.463  32.285  1.00  0.00    -0.248 NA
ATOM     60  C   UNL A   1      42.730  29.234  34.427  1.00  0.00     0.031 C 
ATOM     61  C   UNL A   1      45.479  27.455  30.398  1.00  0.00     0.029 A 
ATOM     62  C   UNL A   1      44.676  26.633  31.168  1.00  0.00     0.049 A 
ATOM     63  H   UNL A   1      43.411  25.057  30.578  1.00  0.00     0.167 HD
ATOM     64  C   UNL A   1      43.769  27.629  33.109  1.00  0.00     0.074 A 
ATOM     65  C   UNL A   1      43.551  28.169  34.437  1.00  0.00     0.031 C 
ATOM     66  C   UNL A   1      44.464  26.564  32.607  1.00  0.00     0.037 A 
BRANCH  53  67
ATOM     67  C   UNL A   1      44.424  24.596  26.797  1.00  0.00     0.064 A 
ATOM     68  C   UNL A   1      44.190  23.211  26.628  1.00  0.00     0.173 A 
ATOM     69  C   UNL A   1      45.371  25.143  25.915  1.00  0.00     0.173 A 
ATOM     70  F   UNL A   1      43.226  22.572  27.301  1.00  0.00    -0.203 F 
ATOM     71  C   UNL A   1      44.942  22.423  25.754  1.00  0.00     0.198 A 
ATOM     72  C   UNL A   1      46.161  24.347  25.076  1.00  0.00     0.198 A 
ATOM     73  F   UNL A   1      45.527  26.469  25.801  1.00  0.00    -0.203 F 
ATOM     74  F   UNL A   1      44.684  21.112  25.652  1.00  0.00    -0.200 F 
ATOM     75  C   UNL A   1      45.958  22.983  25.009  1.00  0.00     0.200 A 
ATOM     76  F   UNL A   1      47.124  24.914  24.335  1.00  0.00    -0.200 F 
ATOM     77  F   UNL A   1      46.716  22.220  24.212  1.00  0.00    -0.200 F 
ENDBRANCH  53  67
BRANCH  54  78
ATOM     78  C   UNL A   1      40.141  30.667  32.896  1.00  0.00     0.064 A 
ATOM     79  C   UNL A   1      39.644  31.984  32.848  1.00  0.00     0.173 A 
ATOM     80  C   UNL A   1      39.212  29.629  33.032  1.00  0.00     0.173 A 
ATOM     81  F   UNL A   1      40.493  33.015  32.709  1.00  0.00    -0.203 F 
ATOM     82  C   UNL A   1      38.276  32.243  32.818  1.00  0.00     0.198 A 
ATOM     83  C   UNL A   1      37.842  29.895  33.026  1.00  0.00     0.198 A 
ATOM     84  F   UNL A   1      39.619  28.352  33.056  1.00  0.00    -0.203 F 
ATOM     85  F   UNL A   1      37.837  33.498  32.646  1.00  0.00    -0.200 F 
ATOM     86  C   UNL A   1      37.376  31.194  32.884  1.00  0.00     0.200 A 
ATOM     87  F   UNL A   1      36.967  28.878  33.055  1.00  0.00    -0.200 F 
ATOM     88  F   UNL A   1      36.062  31.430  32.760  1.00  0.00    -0.200 F 
ENDBRANCH  54  78
BRANCH  66  89
ATOM     89  C   UNL A   1      45.109  25.429  33.379  1.00  0.00     0.064 A 
ATOM     90  C   UNL A   1      46.490  25.183  33.438  1.00  0.00     0.173 A 
ATOM     91  C   UNL A   1      44.321  24.597  34.219  1.00  0.00     0.173 A 
ATOM     92  F   UNL A   1      47.370  25.966  32.804  1.00  0.00    -0.203 F 
ATOM     93  C   UNL A   1      47.032  24.151  34.214  1.00  0.00     0.198 A 
ATOM     94  C   UNL A   1      44.870  23.611  35.039  1.00  0.00     0.198 A 
ATOM     95  F   UNL A   1      42.989  24.732  34.300  1.00  0.00    -0.203 F 
ATOM     96  F   UNL A   1      48.356  23.936  34.197  1.00  0.00    -0.200 F 
ATOM     97  C   UNL A   1      46.226  23.375  35.023  1.00  0.00     0.200 A 
ATOM     98  F   UNL A   1      44.074  22.908  35.858  1.00  0.00    -0.200 F 
ATOM     99  F   UNL A   1      46.756  22.422  35.802  1.00  0.00    -0.200 F 
ENDBRANCH  66  89
ENDBRANCH  40  41
ENDBRANCH  32  35
ENDBRANCH  30  31
ENDBRANCH  29  30
ENDBRANCH  28  29
ENDBRANCH  27  28
ENDBRANCH   1  27
TORSDOF 17
ENDMDL
MODEL 2
REMARK VINA RESULT:     -12.8      3.630      9.501
REMARK SMILES Cc1cccc(C[N@H+]2CCn3nc(CCC(=O)NCCCCCCNC(=O)c4ccc(-c5c6nc(c(-c7c(F)c(F)c(F)c(F)c7F)c7ccc([nH]7)c(-c7c(F)c(F)c(F)c(F)c7F)c7nc(c(-c8c(F)c(F)c(F)c(F)c8F)c8ccc5[nH]8)C=C7)C=C6)cc4)cc3C2)c1
REMARK SMILES IDX 20 1 19 2 18 3 16 4 17 5 15 7 14 8 13 9 8 10 9 11 93 12
REMARK SMILES IDX 10 14 92 15 11 16 91 17 12 18 7 19 6 20 1 21 2 22 3 23 94 24
REMARK SMILES IDX 4 25 5 26 21 27 22 28 23 29 24 30 25 31 26 32 27 34 28 35
REMARK SMILES IDX 29 36 90 37 30 38 89 39 31 40 32 41 33 42 83 43 34 44 88 45
REMARK SMILES IDX 82 46 84 47 35 48 87 49 81 50 80 51 36 53 68 54 48 55 67 56
REMARK SMILES IDX 49 57 52 58 66 59 85 60 50 61 51 62 65 64 86 65 53 66 37 67
REMARK SMILES IDX 38 68 46 69 39 70 40 71 44 72 47 73 41 74 42 75 45 76 43 77
REMARK SMILES IDX 69 78 70 79 78 80 71 81 72 82 76 83 79 84 73 85 74 86 77 87
REMARK SMILES IDX 75 88 54 89 55 90 63 91 56 92 57 93 61 94 64 95 58 96 59 97
REMARK SMILES IDX 62 98 60 99
REMARK H PARENT 18 6 8 13 25 33 84 52 52 63
REMARK Flexibility Score: inf
ROOT
ATOM      1  C   UNL A   1      35.822  21.855  24.572  1.00  0.00     0.021 C 
ENDROOT
BRANCH   1   2
ATOM      2  C   UNL A   1      35.195  21.365  25.879  1.00  0.00     0.116 C 
BRANCH   2   3
ATOM      3  N   UNL A   1      34.278  20.262  25.647  1.00  0.00    -0.356 N 
ATOM      4  C   UNL A   1      32.958  20.268  25.312  1.00  0.00     0.220 C 
ATOM      5  O   UNL A   1      32.355  19.192  25.305  1.00  0.00    -0.275 OA
ATOM      6  H   UNL A   1      34.675  19.366  25.748  1.00  0.00     0.163 HD
BRANCH   4   7
ATOM      7  C   UNL A   1      32.247  21.543  24.912  1.00  0.00     0.106 C 
BRANCH   7   8
ATOM      8  C   UNL A   1      32.537  21.945  23.464  1.00  0.00     0.068 C 
BRANCH   8   9
ATOM      9  C   UNL A   1      31.915  23.252  23.106  1.00  0.00     0.063 A 
ATOM     10  N   UNL A   1      31.246  27.439  23.616  1.00  0.00    -0.325 N 
ATOM     11  C   UNL A   1      29.833  27.135  23.832  1.00  0.00     0.286 C 
ATOM     12  C   UNL A   1      31.733  26.837  22.378  1.00  0.00     0.319 C 
ATOM     13  H   UNL A   1      31.735  26.991  24.391  1.00  0.00     0.348 HD
ATOM     14  C   UNL A   1      29.453  25.642  23.713  1.00  0.00     0.206 C 
ATOM     15  C   UNL A   1      31.642  25.376  22.576  1.00  0.00     0.093 A 
ATOM     16  N   UNL A   1      30.539  24.846  23.177  1.00  0.00    -0.258 N 
ATOM     17  C   UNL A   1      32.537  24.343  22.448  1.00  0.00     0.055 A 
ATOM     18  N   UNL A   1      30.658  23.541  23.471  1.00  0.00    -0.177 NA
BRANCH  10  19
ATOM     19  C   UNL A   1      31.635  28.835  23.789  1.00  0.00     0.299 C 
BRANCH  19  20
ATOM     20  C   UNL A   1      32.282  28.998  25.151  1.00  0.00     0.006 A 
ATOM     21  C   UNL A   1      33.167  31.791  27.593  1.00  0.00     0.044 C 
ATOM     22  C   UNL A   1      33.082  30.438  26.950  1.00  0.00    -0.051 A 
ATOM     23  C   UNL A   1      33.813  29.367  27.475  1.00  0.00     0.003 A 
ATOM     24  C   UNL A   1      32.328  30.247  25.784  1.00  0.00     0.013 A 
ATOM     25  C   UNL A   1      33.741  28.111  26.880  1.00  0.00     0.001 A 
ATOM     26  C   UNL A   1      32.966  27.924  25.736  1.00  0.00     0.009 A 
ENDBRANCH  19  20
ENDBRANCH  10  19
ENDBRANCH   8   9
ENDBRANCH   7   8
ENDBRANCH   4   7
ENDBRANCH   2   3
ENDBRANCH   1   2
BRANCH   1  27
ATOM     27  C   UNL A   1      36.424  23.266  24.581  1.00  0.00     0.002 C 
BRANCH  27  28
ATOM     28  C   UNL A   1      37.637  23.491  25.486  1.00  0.00     0.002 C 
BRANCH  28  29
ATOM     29  C   UNL A   1      38.597  22.311  25.657  1.00  0.00     0.021 C 
BRANCH  29  30
ATOM     30  C   UNL A   1      39.485  22.345  26.907  1.00  0.00     0.116 C 
BRANCH  30  31
ATOM     31  N   UNL A   1      40.845  22.790  26.565  1.00  0.00    -0.352 N 
ATOM     32  C   UNL A   1      41.466  24.021  26.655  1.00  0.00     0.251 C 
ATOM     33  H   UNL A   1      41.420  22.077  26.203  1.00  0.00     0.163 HD
ATOM     34  O   UNL A   1      42.668  24.131  26.510  1.00  0.00    -0.269 OA
BRANCH  32  35
ATOM     35  C   UNL A   1      40.656  25.202  27.001  1.00  0.00     0.039 A 
ATOM     36  C   UNL A   1      40.819  26.382  26.271  1.00  0.00     0.014 A 
ATOM     37  C   UNL A   1      39.847  25.167  28.128  1.00  0.00     0.014 A 
ATOM     38  C   UNL A   1      40.393  27.586  26.830  1.00  0.00     0.010 A 
ATOM     39  C   UNL A   1      39.441  26.362  28.688  1.00  0.00     0.010 A 
ATOM     40  C   UNL A   1      39.811  27.572  28.097  1.00  0.00    -0.014 A 
BRANCH  40  41
ATOM     41  C   UNL A   1      39.773  28.741  28.969  1.00  0.00     0.031 A 
ATOM     42  C   UNL A   1      38.741  29.784  28.843  1.00  0.00     0.074 A 
ATOM     43  C   UNL A   1      40.681  28.831  29.970  1.00  0.00     0.049 A 
ATOM     44  N   UNL A   1      38.943  31.025  29.136  1.00  0.00    -0.248 NA
ATOM     45  C   UNL A   1      37.392  29.509  28.373  1.00  0.00     0.031 C 
ATOM     46  C   UNL A   1      40.705  29.796  31.067  1.00  0.00     0.029 A 
ATOM     47  N   UNL A   1      41.916  28.167  30.065  1.00  0.00    -0.354 N 
ATOM     48  C   UNL A   1      37.722  31.656  29.151  1.00  0.00     0.074 A 
ATOM     49  C   UNL A   1      36.796  30.685  28.605  1.00  0.00     0.031 C 
ATOM     50  C   UNL A   1      41.967  29.908  31.511  1.00  0.00     0.029 A 
ATOM     51  C   UNL A   1      42.803  29.107  30.635  1.00  0.00     0.049 A 
ATOM     52  H   UNL A   1      42.120  27.243  29.791  1.00  0.00     0.167 HD
ATOM     53  C   UNL A   1      37.603  32.877  29.750  1.00  0.00     0.037 A 
ATOM     54  C   UNL A   1      43.902  29.554  29.965  1.00  0.00     0.037 A 
ATOM     55  C   UNL A   1      38.872  33.320  30.320  1.00  0.00     0.049 A 
ATOM     56  C   UNL A   1      43.955  31.051  29.800  1.00  0.00     0.074 A 
ATOM     57  C   UNL A   1      39.375  33.278  31.611  1.00  0.00     0.029 A 
ATOM     58  N   UNL A   1      39.943  33.630  29.491  1.00  0.00    -0.354 N 
ATOM     59  N   UNL A   1      42.911  31.827  29.881  1.00  0.00    -0.248 NA
ATOM     60  C   UNL A   1      45.176  31.784  29.490  1.00  0.00     0.031 C 
ATOM     61  C   UNL A   1      40.759  33.563  31.557  1.00  0.00     0.029 A 
ATOM     62  C   UNL A   1      41.098  33.780  30.234  1.00  0.00     0.049 A 
ATOM     63  H   UNL A   1      39.886  33.730  28.513  1.00  0.00     0.167 HD
ATOM     64  C   UNL A   1      43.284  33.123  29.625  1.00  0.00     0.074 A 
ATOM     65  C   UNL A   1      44.716  33.046  29.409  1.00  0.00     0.031 C 
ATOM     66  C   UNL A   1      42.363  34.134  29.607  1.00  0.00     0.037 A 
BRANCH  53  67
ATOM     67  C   UNL A   1      36.278  33.531  30.085  1.00  0.00     0.064 A 
ATOM     68  C   UNL A   1      35.451  34.075  29.075  1.00  0.00     0.173 A 
ATOM     69  C   UNL A   1      35.786  33.685  31.392  1.00  0.00     0.173 A 
ATOM     70  F   UNL A   1      35.715  33.896  27.775  1.00  0.00    -0.203 F 
ATOM     71  C   UNL A   1      34.311  34.830  29.362  1.00  0.00     0.198 A 
ATOM     72  C   UNL A   1      34.673  34.483  31.685  1.00  0.00     0.198 A 
ATOM     73  F   UNL A   1      36.336  33.028  32.421  1.00  0.00    -0.203 F 
ATOM     74  F   UNL A   1      33.579  35.336  28.359  1.00  0.00    -0.200 F 
ATOM     75  C   UNL A   1      33.946  35.072  30.669  1.00  0.00     0.200 A 
ATOM     76  F   UNL A   1      34.315  34.682  32.961  1.00  0.00    -0.200 F 
ATOM     77  F   UNL A   1      32.885  35.841  30.947  1.00  0.00    -0.200 F 
ENDBRANCH  53  67
BRANCH  54  78
ATOM     78  C   UNL A   1      44.440  28.575  28.986  1.00  0.00     0.064 A 
ATOM     79  C   UNL A   1      44.047  28.688  27.637  1.00  0.00     0.173 A 
ATOM     80  C   UNL A   1      45.568  27.797  29.269  1.00  0.00     0.173 A 
ATOM     81  F   UNL A   1      42.976  29.430  27.312  1.00  0.00    -0.203 F 
ATOM     82  C   UNL A   1      44.816  28.145  26.610  1.00  0.00     0.198 A 
ATOM     83  C   UNL A   1      46.322  27.235  28.237  1.00  0.00     0.198 A 
ATOM     84  F   UNL A   1      46.009  27.673  30.528  1.00  0.00    -0.203 F 
ATOM     85  F   UNL A   1      44.483  28.377  25.332  1.00  0.00    -0.200 F 
ATOM     86  C   UNL A   1      45.966  27.438  26.911  1.00  0.00     0.200 A 
ATOM     87  F   UNL A   1      47.457  26.579  28.524  1.00  0.00    -0.200 F 
ATOM     88  F   UNL A   1      46.759  26.997  25.924  1.00  0.00    -0.200 F 
ENDBRANCH  54  78
BRANCH  66  89
ATOM     89  C   UNL A   1      42.558  35.560  29.127  1.00  0.00     0.064 A 
ATOM     90  C   UNL A   1      41.936  36.118  27.999  1.00  0.00     0.173 A 
ATOM     91  C   UNL A   1      43.317  36.478  29.902  1.00  0.00     0.173 A 
ATOM     92  F   UNL A   1      41.086  35.411  27.245  1.00  0.00    -0.203 F 
ATOM     93  C   UNL A   1      42.110  37.459  27.636  1.00  0.00     0.198 A 
ATOM     94  C   UNL A   1      43.439  37.828  29.572  1.00  0.00     0.198 A 
ATOM     95  F   UNL A   1      43.943  36.105  31.028  1.00  0.00    -0.203 F 
ATOM     96  F   UNL A   1      41.525  37.924  26.523  1.00  0.00    -0.200 F 
ATOM     97  C   UNL A   1      42.850  38.315  28.427  1.00  0.00     0.200 A 
ATOM     98  F   UNL A   1      44.114  38.653  30.385  1.00  0.00    -0.200 F 
ATOM     99  F   UNL A   1      42.973  39.609  28.102  1.00  0.00    -0.200 F 
ENDBRANCH  66  89
ENDBRANCH  40  41
ENDBRANCH  32  35
ENDBRANCH  30  31
ENDBRANCH  29  30
ENDBRANCH  28  29
ENDBRANCH  27  28
ENDBRANCH   1  27
TORSDOF 17
ENDMDL
MODEL 3
REMARK VINA RESULT:     -12.8      3.497      9.377
REMARK SMILES Cc1cccc(C[N@H+]2CCn3nc(CCC(=O)NCCCCCCNC(=O)c4ccc(-c5c6nc(c(-c7c(F)c(F)c(F)c(F)c7F)c7ccc([nH]7)c(-c7c(F)c(F)c(F)c(F)c7F)c7nc(c(-c8c(F)c(F)c(F)c(F)c8F)c8ccc5[nH]8)C=C7)C=C6)cc4)cc3C2)c1
REMARK SMILES IDX 20 1 19 2 18 3 16 4 17 5 15 7 14 8 13 9 8 10 9 11 93 12
REMARK SMILES IDX 10 14 92 15 11 16 91 17 12 18 7 19 6 20 1 21 2 22 3 23 94 24
REMARK SMILES IDX 4 25 5 26 21 27 22 28 23 29 24 30 25 31 26 32 27 34 28 35
REMARK SMILES IDX 29 36 90 37 30 38 89 39 31 40 32 41 33 42 83 43 34 44 88 45
REMARK SMILES IDX 82 46 84 47 35 48 87 49 81 50 80 51 36 53 68 54 48 55 67 56
REMARK SMILES IDX 49 57 52 58 66 59 85 60 50 61 51 62 65 64 86 65 53 66 37 67
REMARK SMILES IDX 38 68 46 69 39 70 40 71 44 72 47 73 41 74 42 75 45 76 43 77
REMARK SMILES IDX 69 78 70 79 78 80 71 81 72 82 76 83 79 84 73 85 74 86 77 87
REMARK SMILES IDX 75 88 54 89 55 90 63 91 56 92 57 93 61 94 64 95 58 96 59 97
REMARK SMILES IDX 62 98 60 99
REMARK H PARENT 18 6 8 13 25 33 84 52 52 63
REMARK Flexibility Score: inf
ROOT
ATOM      1  C   UNL A   1      35.410  22.092  25.307  1.00  0.00     0.021 C 
ENDROOT
BRANCH   1   2
ATOM      2  C   UNL A   1      34.552  21.415  26.378  1.00  0.00     0.116 C 
BRANCH   2   3
ATOM      3  N   UNL A   1      33.829  20.276  25.838  1.00  0.00    -0.356 N 
ATOM      4  C   UNL A   1      32.628  20.216  25.199  1.00  0.00     0.220 C 
ATOM      5  O   UNL A   1      32.154  19.104  24.954  1.00  0.00    -0.275 OA
ATOM      6  H   UNL A   1      34.280  19.407  25.952  1.00  0.00     0.163 HD
BRANCH   4   7
ATOM      7  C   UNL A   1      31.904  21.469  24.753  1.00  0.00     0.106 C 
BRANCH   7   8
ATOM      8  C   UNL A   1      32.477  22.046  23.456  1.00  0.00     0.068 C 
BRANCH   8   9
ATOM      9  C   UNL A   1      31.891  23.377  23.124  1.00  0.00     0.063 A 
ATOM     10  N   UNL A   1      31.378  27.579  23.688  1.00  0.00    -0.325 N 
ATOM     11  C   UNL A   1      29.960  27.321  23.933  1.00  0.00     0.286 C 
ATOM     12  C   UNL A   1      31.816  26.972  22.434  1.00  0.00     0.319 C 
ATOM     13  H   UNL A   1      31.868  27.106  24.447  1.00  0.00     0.348 HD
ATOM     14  C   UNL A   1      29.527  25.843  23.809  1.00  0.00     0.206 C 
ATOM     15  C   UNL A   1      31.679  25.514  22.621  1.00  0.00     0.093 A 
ATOM     16  N   UNL A   1      30.572  25.016  23.241  1.00  0.00    -0.258 N 
ATOM     17  C   UNL A   1      32.535  24.453  22.463  1.00  0.00     0.055 A 
ATOM     18  N   UNL A   1      30.653  23.704  23.520  1.00  0.00    -0.177 NA
BRANCH  10  19
ATOM     19  C   UNL A   1      31.818  28.959  23.865  1.00  0.00     0.299 C 
BRANCH  19  20
ATOM     20  C   UNL A   1      32.643  29.051  25.133  1.00  0.00     0.006 A 
ATOM     21  C   UNL A   1      33.694  31.679  27.689  1.00  0.00     0.044 C 
ATOM     22  C   UNL A   1      33.603  30.385  26.937  1.00  0.00    -0.051 A 
ATOM     23  C   UNL A   1      34.467  29.331  27.250  1.00  0.00     0.003 A 
ATOM     24  C   UNL A   1      32.702  30.240  25.873  1.00  0.00     0.013 A 
ATOM     25  C   UNL A   1      34.388  28.129  26.552  1.00  0.00     0.001 A 
ATOM     26  C   UNL A   1      33.469  27.985  25.512  1.00  0.00     0.009 A 
ENDBRANCH  19  20
ENDBRANCH  10  19
ENDBRANCH   8   9
ENDBRANCH   7   8
ENDBRANCH   4   7
ENDBRANCH   2   3
ENDBRANCH   1   2
BRANCH   1  27
ATOM     27  C   UNL A   1      35.768  23.566  25.538  1.00  0.00     0.002 C 
BRANCH  27  28
ATOM     28  C   UNL A   1      37.252  23.894  25.710  1.00  0.00     0.002 C 
BRANCH  28  29
ATOM     29  C   UNL A   1      38.247  22.781  25.374  1.00  0.00     0.021 C 
BRANCH  29  30
ATOM     30  C   UNL A   1      39.201  22.371  26.503  1.00  0.00     0.116 C 
BRANCH  30  31
ATOM     31  N   UNL A   1      40.590  22.706  26.155  1.00  0.00    -0.352 N 
ATOM     32  C   UNL A   1      41.334  23.858  26.322  1.00  0.00     0.251 C 
ATOM     33  H   UNL A   1      41.082  21.971  25.721  1.00  0.00     0.163 HD
ATOM     34  O   UNL A   1      42.538  23.860  26.149  1.00  0.00    -0.269 OA
BRANCH  32  35
ATOM     35  C   UNL A   1      40.655  25.081  26.783  1.00  0.00     0.039 A 
ATOM     36  C   UNL A   1      40.902  26.290  26.129  1.00  0.00     0.014 A 
ATOM     37  C   UNL A   1      39.891  25.041  27.942  1.00  0.00     0.014 A 
ATOM     38  C   UNL A   1      40.616  27.486  26.786  1.00  0.00     0.010 A 
ATOM     39  C   UNL A   1      39.625  26.226  28.600  1.00  0.00     0.010 A 
ATOM     40  C   UNL A   1      40.085  27.435  28.076  1.00  0.00    -0.014 A 
BRANCH  40  41
ATOM     41  C   UNL A   1      40.194  28.537  29.026  1.00  0.00     0.031 A 
ATOM     42  C   UNL A   1      39.136  29.550  29.180  1.00  0.00     0.074 A 
ATOM     43  C   UNL A   1      41.277  28.587  29.837  1.00  0.00     0.049 A 
ATOM     44  N   UNL A   1      39.366  30.773  29.523  1.00  0.00    -0.248 NA
ATOM     45  C   UNL A   1      37.727  29.263  28.958  1.00  0.00     0.031 C 
ATOM     46  C   UNL A   1      41.493  29.471  30.980  1.00  0.00     0.029 A 
ATOM     47  N   UNL A   1      42.519  27.961  29.642  1.00  0.00    -0.354 N 
ATOM     48  C   UNL A   1      38.159  31.359  29.820  1.00  0.00     0.074 A 
ATOM     49  C   UNL A   1      37.164  30.398  29.390  1.00  0.00     0.031 C 
ATOM     50  C   UNL A   1      42.815  29.596  31.180  1.00  0.00     0.029 A 
ATOM     51  C   UNL A   1      43.481  28.888  30.101  1.00  0.00     0.049 A 
ATOM     52  H   UNL A   1      42.685  27.067  29.264  1.00  0.00     0.167 HD
ATOM     53  C   UNL A   1      38.134  32.529  30.523  1.00  0.00     0.037 A 
ATOM     54  C   UNL A   1      44.421  29.419  29.269  1.00  0.00     0.037 A 
ATOM     55  C   UNL A   1      39.480  32.974  30.871  1.00  0.00     0.049 A 
ATOM     56  C   UNL A   1      44.410  30.925  29.212  1.00  0.00     0.074 A 
ATOM     57  C   UNL A   1      40.225  32.858  32.033  1.00  0.00     0.029 A 
ATOM     58  N   UNL A   1      40.363  33.379  29.877  1.00  0.00    -0.354 N 
ATOM     59  N   UNL A   1      43.386  31.656  29.551  1.00  0.00    -0.248 NA
ATOM     60  C   UNL A   1      45.533  31.720  28.730  1.00  0.00     0.031 C 
ATOM     61  C   UNL A   1      41.566  33.194  31.737  1.00  0.00     0.029 A 
ATOM     62  C   UNL A   1      41.637  33.516  30.394  1.00  0.00     0.049 A 
ATOM     63  H   UNL A   1      40.116  33.546  28.939  1.00  0.00     0.167 HD
ATOM     64  C   UNL A   1      43.677  32.980  29.328  1.00  0.00     0.074 A 
ATOM     65  C   UNL A   1      45.041  32.967  28.836  1.00  0.00     0.031 C 
ATOM     66  C   UNL A   1      42.750  33.958  29.565  1.00  0.00     0.037 A 
BRANCH  53  67
ATOM     67  C   UNL A   1      36.886  33.112  31.155  1.00  0.00     0.064 A 
ATOM     68  C   UNL A   1      36.610  32.937  32.531  1.00  0.00     0.173 A 
ATOM     69  C   UNL A   1      35.904  33.824  30.445  1.00  0.00     0.173 A 
ATOM     70  F   UNL A   1      37.504  32.396  33.367  1.00  0.00    -0.203 F 
ATOM     71  C   UNL A   1      35.395  33.314  33.108  1.00  0.00     0.198 A 
ATOM     72  C   UNL A   1      34.666  34.157  31.009  1.00  0.00     0.198 A 
ATOM     73  F   UNL A   1      36.132  34.263  29.201  1.00  0.00    -0.203 F 
ATOM     74  F   UNL A   1      35.186  33.104  34.415  1.00  0.00    -0.200 F 
ATOM     75  C   UNL A   1      34.405  33.884  32.337  1.00  0.00     0.200 A 
ATOM     76  F   UNL A   1      33.727  34.739  30.251  1.00  0.00    -0.200 F 
ATOM     77  F   UNL A   1      33.219  34.196  32.876  1.00  0.00    -0.200 F 
ENDBRANCH  53  67
BRANCH  54  78
ATOM     78  C   UNL A   1      44.777  28.531  28.132  1.00  0.00     0.064 A 
ATOM     79  C   UNL A   1      45.492  27.348  28.403  1.00  0.00     0.173 A 
ATOM     80  C   UNL A   1      44.137  28.632  26.892  1.00  0.00     0.173 A 
ATOM     81  F   UNL A   1      46.118  27.197  29.582  1.00  0.00    -0.203 F 
ATOM     82  C   UNL A   1      45.469  26.269  27.522  1.00  0.00     0.198 A 
ATOM     83  C   UNL A   1      44.136  27.557  26.002  1.00  0.00     0.198 A 
ATOM     84  F   UNL A   1      43.418  29.721  26.586  1.00  0.00    -0.203 F 
ATOM     85  F   UNL A   1      46.055  25.113  27.865  1.00  0.00    -0.200 F 
ATOM     86  C   UNL A   1      44.771  26.367  26.332  1.00  0.00     0.200 A 
ATOM     87  F   UNL A   1      43.431  27.637  24.863  1.00  0.00    -0.200 F 
ATOM     88  F   UNL A   1      44.666  25.301  25.526  1.00  0.00    -0.200 F 
ENDBRANCH  54  78
BRANCH  66  89
ATOM     89  C   UNL A   1      42.819  35.419  29.167  1.00  0.00     0.064 A 
ATOM     90  C   UNL A   1      43.355  36.442  29.965  1.00  0.00     0.173 A 
ATOM     91  C   UNL A   1      42.443  35.823  27.857  1.00  0.00     0.173 A 
ATOM     92  F   UNL A   1      43.872  36.191  31.173  1.00  0.00    -0.203 F 
ATOM     93  C   UNL A   1      43.445  37.768  29.520  1.00  0.00     0.198 A 
ATOM     94  C   UNL A   1      42.591  37.131  27.396  1.00  0.00     0.198 A 
ATOM     95  F   UNL A   1      41.947  34.954  26.964  1.00  0.00    -0.203 F 
ATOM     96  F   UNL A   1      43.926  38.710  30.344  1.00  0.00    -0.200 F 
ATOM     97  C   UNL A   1      43.075  38.109  28.235  1.00  0.00     0.200 A 
ATOM     98  F   UNL A   1      42.279  37.428  26.126  1.00  0.00    -0.200 F 
ATOM     99  F   UNL A   1      43.209  39.369  27.798  1.00  0.00    -0.200 F 
ENDBRANCH  66  89
ENDBRANCH  40  41
ENDBRANCH  32  35
ENDBRANCH  30  31
ENDBRANCH  29  30
ENDBRANCH  28  29
ENDBRANCH  27  28
ENDBRANCH   1  27
TORSDOF 17
ENDMDL
