MODEL 1
REMARK VINA RESULT:     -13.4      0.000      0.000
REMARK SMILES Cc1ccc(Nc2c(F)cccc2Cl)c(CC(=O)NCCCCCCNC(=O)c2ccc(-c3c4nc(c(-c5c(F)c(F)c(F)c(F)c5F)c5ccc([nH]5)c(-c5c(F)c(F)c(F)c(F)c5F)c5nc(c(-c6c(F)c(F)c(F)c(F)c6F)c6ccc3[nH]6)C=C5)C=C4)cc2)c1
REMARK SMILES IDX 22 1 21 2 20 3 19 4 17 5 18 6 16 8 15 9 1 10 2 11 3 12 92 13
REMARK SMILES IDX 4 14 5 15 6 16 7 18 8 19 13 20 9 21 10 22 12 23 14 24 11 25
REMARK SMILES IDX 23 26 24 27 25 28 26 29 27 30 28 32 29 33 30 34 91 35 31 36
REMARK SMILES IDX 90 37 32 38 33 39 34 40 84 41 35 42 89 43 83 44 85 45 36 46
REMARK SMILES IDX 88 47 82 48 81 49 37 51 69 52 49 53 68 54 50 55 53 56 67 57
REMARK SMILES IDX 86 58 51 59 52 60 66 62 87 63 54 64 38 65 39 66 47 67 40 68
REMARK SMILES IDX 41 69 45 70 48 71 42 72 43 73 46 74 44 75 70 76 71 77 79 78
REMARK SMILES IDX 72 79 73 80 77 81 80 82 74 83 75 84 78 85 76 86 55 87 56 88
REMARK SMILES IDX 64 89 57 90 58 91 62 92 65 93 59 94 60 95 63 96 61 97
REMARK H PARENT 19 7 6 17 26 31 85 50 53 61
REMARK Flexibility Score: inf
ROOT
ATOM      1  C   UNL A   1      31.890  28.495  27.145  1.00  0.00     0.002 C 
ENDROOT
BRANCH   1   2
ATOM      2  C   UNL A   1      32.116  27.291  26.217  1.00  0.00     0.021 C 
BRANCH   2   3
ATOM      3  C   UNL A   1      30.899  26.382  26.023  1.00  0.00     0.116 C 
BRANCH   3   4
ATOM      4  N   UNL A   1      30.972  25.197  26.849  1.00  0.00    -0.356 N 
ATOM      5  C   UNL A   1      31.543  23.994  26.566  1.00  0.00     0.224 C 
ATOM      6  O   UNL A   1      31.362  23.058  27.348  1.00  0.00    -0.275 OA
ATOM      7  H   UNL A   1      30.552  25.270  27.737  1.00  0.00     0.163 HD
BRANCH   5   8
ATOM      8  C   UNL A   1      32.368  23.800  25.306  1.00  0.00     0.137 C 
BRANCH   8   9
ATOM      9  C   UNL A   1      33.685  23.089  25.532  1.00  0.00    -0.015 A 
ATOM     10  C   UNL A   1      37.314  24.184  26.082  1.00  0.00     0.044 C 
ATOM     11  C   UNL A   1      36.097  23.326  25.910  1.00  0.00    -0.051 A 
ATOM     12  C   UNL A   1      36.216  21.940  25.893  1.00  0.00     0.005 A 
ATOM     13  C   UNL A   1      34.828  23.889  25.760  1.00  0.00     0.009 A 
ATOM     14  C   UNL A   1      35.086  21.137  25.711  1.00  0.00     0.026 A 
ATOM     15  C   UNL A   1      33.808  21.684  25.512  1.00  0.00     0.042 A 
BRANCH  15  16
ATOM     16  N   UNL A   1      32.682  20.851  25.335  1.00  0.00    -0.352 N 
ATOM     17  H   UNL A   1      31.883  21.110  25.847  1.00  0.00     0.167 HD
BRANCH  16  18
ATOM     18  C   UNL A   1      32.537  19.699  24.528  1.00  0.00     0.094 A 
ATOM     19  C   UNL A   1      32.708  18.403  25.040  1.00  0.00     0.148 A 
ATOM     20  C   UNL A   1      32.304  19.820  23.145  1.00  0.00     0.067 A 
ATOM     21  F   UNL A   1      32.914  18.217  26.354  1.00  0.00    -0.205 F 
ATOM     22  C   UNL A   1      32.655  17.275  24.223  1.00  0.00     0.041 A 
ATOM     23  C   UNL A   1      32.258  18.692  22.317  1.00  0.00     0.023 A 
ATOM     24  Cl  UNL A   1      32.118  21.375  22.407  1.00  0.00    -0.082 Cl
ATOM     25  C   UNL A   1      32.437  17.419  22.855  1.00  0.00     0.005 A 
ENDBRANCH  16  18
ENDBRANCH  15  16
ENDBRANCH   8   9
ENDBRANCH   5   8
ENDBRANCH   3   4
ENDBRANCH   2   3
ENDBRANCH   1   2
BRANCH   1  26
ATOM     26  C   UNL A   1      31.900  29.882  26.481  1.00  0.00     0.002 C 
BRANCH  26  27
ATOM     27  C   UNL A   1      32.830  30.919  27.113  1.00  0.00     0.021 C 
BRANCH  27  28
ATOM     28  C   UNL A   1      33.944  30.329  27.966  1.00  0.00     0.116 C 
BRANCH  28  29
ATOM     29  N   UNL A   1      34.764  31.331  28.633  1.00  0.00    -0.352 N 
ATOM     30  C   UNL A   1      36.009  31.219  29.229  1.00  0.00     0.251 C 
ATOM     31  H   UNL A   1      34.369  32.231  28.666  1.00  0.00     0.163 HD
ATOM     32  O   UNL A   1      36.487  32.173  29.815  1.00  0.00    -0.269 OA
BRANCH  30  33
ATOM     33  C   UNL A   1      36.827  29.995  29.019  1.00  0.00     0.039 A 
ATOM     34  C   UNL A   1      37.003  29.143  30.118  1.00  0.00     0.014 A 
ATOM     35  C   UNL A   1      37.576  29.797  27.863  1.00  0.00     0.014 A 
ATOM     36  C   UNL A   1      38.108  28.296  30.160  1.00  0.00     0.010 A 
ATOM     37  C   UNL A   1      38.724  29.037  27.938  1.00  0.00     0.010 A 
ATOM     38  C   UNL A   1      39.034  28.362  29.123  1.00  0.00    -0.014 A 
BRANCH  38  39
ATOM     39  C   UNL A   1      40.418  27.925  29.246  1.00  0.00     0.031 A 
ATOM     40  C   UNL A   1      40.836  26.586  28.786  1.00  0.00     0.074 A 
ATOM     41  C   UNL A   1      41.344  28.842  29.610  1.00  0.00     0.049 A 
ATOM     42  N   UNL A   1      42.014  26.100  28.978  1.00  0.00    -0.248 NA
ATOM     43  C   UNL A   1      39.931  25.648  28.126  1.00  0.00     0.031 C 
ATOM     44  C   UNL A   1      42.791  28.780  29.421  1.00  0.00     0.029 A 
ATOM     45  N   UNL A   1      41.155  29.960  30.444  1.00  0.00    -0.354 N 
ATOM     46  C   UNL A   1      42.120  24.955  28.231  1.00  0.00     0.074 A 
ATOM     47  C   UNL A   1      40.769  24.644  27.838  1.00  0.00     0.031 C 
ATOM     48  C   UNL A   1      43.379  29.578  30.326  1.00  0.00     0.029 A 
ATOM     49  C   UNL A   1      42.337  30.040  31.224  1.00  0.00     0.049 A 
ATOM     50  H   UNL A   1      40.372  30.556  30.480  1.00  0.00     0.167 HD
ATOM     51  C   UNL A   1      43.366  24.487  27.938  1.00  0.00     0.037 A 
ATOM     52  C   UNL A   1      42.300  29.795  32.567  1.00  0.00     0.037 A 
ATOM     53  C   UNL A   1      44.369  25.089  28.820  1.00  0.00     0.049 A 
ATOM     54  C   UNL A   1      43.125  28.608  33.024  1.00  0.00     0.074 A 
ATOM     55  C   UNL A   1      45.377  26.025  28.685  1.00  0.00     0.029 A 
ATOM     56  N   UNL A   1      44.231  24.873  30.183  1.00  0.00    -0.354 N 
ATOM     57  N   UNL A   1      43.769  27.803  32.224  1.00  0.00    -0.248 NA
ATOM     58  C   UNL A   1      43.200  28.177  34.422  1.00  0.00     0.031 C 
ATOM     59  C   UNL A   1      45.782  26.426  29.998  1.00  0.00     0.029 A 
ATOM     60  C   UNL A   1      45.043  25.707  30.921  1.00  0.00     0.049 A 
ATOM     61  H   UNL A   1      43.626  24.202  30.575  1.00  0.00     0.167 HD
ATOM     62  C   UNL A   1      44.269  26.752  32.945  1.00  0.00     0.074 A 
ATOM     63  C   UNL A   1      43.893  27.032  34.318  1.00  0.00     0.031 C 
ATOM     64  C   UNL A   1      44.913  25.699  32.368  1.00  0.00     0.037 A 
BRANCH  51  65
ATOM     65  C   UNL A   1      43.715  23.572  26.784  1.00  0.00     0.064 A 
ATOM     66  C   UNL A   1      43.297  22.222  26.803  1.00  0.00     0.173 A 
ATOM     67  C   UNL A   1      44.559  23.907  25.702  1.00  0.00     0.173 A 
ATOM     68  F   UNL A   1      42.503  21.753  27.776  1.00  0.00    -0.203 F 
ATOM     69  C   UNL A   1      43.701  21.295  25.834  1.00  0.00     0.198 A 
ATOM     70  C   UNL A   1      44.917  22.994  24.707  1.00  0.00     0.198 A 
ATOM     71  F   UNL A   1      45.133  25.108  25.585  1.00  0.00    -0.203 F 
ATOM     72  F   UNL A   1      43.323  20.013  25.941  1.00  0.00    -0.200 F 
ATOM     73  C   UNL A   1      44.503  21.684  24.780  1.00  0.00     0.200 A 
ATOM     74  F   UNL A   1      45.701  23.394  23.694  1.00  0.00    -0.200 F 
ATOM     75  F   UNL A   1      44.893  20.798  23.854  1.00  0.00    -0.200 F 
ENDBRANCH  51  65
BRANCH  52  76
ATOM     76  C   UNL A   1      41.022  30.230  33.191  1.00  0.00     0.064 A 
ATOM     77  C   UNL A   1      40.799  31.610  33.374  1.00  0.00     0.173 A 
ATOM     78  C   UNL A   1      39.911  29.382  33.252  1.00  0.00     0.173 A 
ATOM     79  F   UNL A   1      41.831  32.468  33.325  1.00  0.00    -0.203 F 
ATOM     80  C   UNL A   1      39.511  32.126  33.486  1.00  0.00     0.198 A 
ATOM     81  C   UNL A   1      38.623  29.902  33.386  1.00  0.00     0.198 A 
ATOM     82  F   UNL A   1      40.053  28.062  33.064  1.00  0.00    -0.203 F 
ATOM     83  F   UNL A   1      39.324  33.453  33.538  1.00  0.00    -0.200 F 
ATOM     84  C   UNL A   1      38.422  31.272  33.464  1.00  0.00     0.200 A 
ATOM     85  F   UNL A   1      37.567  29.078  33.336  1.00  0.00    -0.200 F 
ATOM     86  F   UNL A   1      37.177  31.769  33.476  1.00  0.00    -0.200 F 
ENDBRANCH  52  76
BRANCH  64  87
ATOM     87  C   UNL A   1      45.454  24.554  33.166  1.00  0.00     0.064 A 
ATOM     88  C   UNL A   1      44.660  23.448  33.506  1.00  0.00     0.173 A 
ATOM     89  C   UNL A   1      46.753  24.587  33.711  1.00  0.00     0.173 A 
ATOM     90  F   UNL A   1      43.401  23.348  33.054  1.00  0.00    -0.203 F 
ATOM     91  C   UNL A   1      45.144  22.427  34.324  1.00  0.00     0.198 A 
ATOM     92  C   UNL A   1      47.217  23.591  34.567  1.00  0.00     0.198 A 
ATOM     93  F   UNL A   1      47.610  25.572  33.402  1.00  0.00    -0.203 F 
ATOM     94  F   UNL A   1      44.371  21.365  34.590  1.00  0.00    -0.200 F 
ATOM     95  C   UNL A   1      46.415  22.506  34.867  1.00  0.00     0.200 A 
ATOM     96  F   UNL A   1      48.446  23.686  35.095  1.00  0.00    -0.200 F 
ATOM     97  F   UNL A   1      46.869  21.538  35.674  1.00  0.00    -0.200 F 
ENDBRANCH  64  87
ENDBRANCH  38  39
ENDBRANCH  30  33
ENDBRANCH  28  29
ENDBRANCH  27  28
ENDBRANCH  26  27
ENDBRANCH   1  26
TORSDOF 16
ENDMDL
MODEL 2
REMARK VINA RESULT:     -13.2      1.851      2.986
REMARK SMILES Cc1ccc(Nc2c(F)cccc2Cl)c(CC(=O)NCCCCCCNC(=O)c2ccc(-c3c4nc(c(-c5c(F)c(F)c(F)c(F)c5F)c5ccc([nH]5)c(-c5c(F)c(F)c(F)c(F)c5F)c5nc(c(-c6c(F)c(F)c(F)c(F)c6F)c6ccc3[nH]6)C=C5)C=C4)cc2)c1
REMARK SMILES IDX 22 1 21 2 20 3 19 4 17 5 18 6 16 8 15 9 1 10 2 11 3 12 92 13
REMARK SMILES IDX 4 14 5 15 6 16 7 18 8 19 13 20 9 21 10 22 12 23 14 24 11 25
REMARK SMILES IDX 23 26 24 27 25 28 26 29 27 30 28 32 29 33 30 34 91 35 31 36
REMARK SMILES IDX 90 37 32 38 33 39 34 40 84 41 35 42 89 43 83 44 85 45 36 46
REMARK SMILES IDX 88 47 82 48 81 49 37 51 69 52 49 53 68 54 50 55 53 56 67 57
REMARK SMILES IDX 86 58 51 59 52 60 66 62 87 63 54 64 38 65 39 66 47 67 40 68
REMARK SMILES IDX 41 69 45 70 48 71 42 72 43 73 46 74 44 75 70 76 71 77 79 78
REMARK SMILES IDX 72 79 73 80 77 81 80 82 74 83 75 84 78 85 76 86 55 87 56 88
REMARK SMILES IDX 64 89 57 90 58 91 62 92 65 93 59 94 60 95 63 96 61 97
REMARK H PARENT 19 7 6 17 26 31 85 50 53 61
REMARK Flexibility Score: inf
ROOT
ATOM      1  C   UNL A   1      33.413  28.077  25.858  1.00  0.00     0.002 C 
ENDROOT
BRANCH   1   2
ATOM      2  C   UNL A   1      33.286  26.553  26.017  1.00  0.00     0.021 C 
BRANCH   2   3
ATOM      3  C   UNL A   1      33.911  25.728  24.889  1.00  0.00     0.116 C 
BRANCH   3   4
ATOM      4  N   UNL A   1      34.164  26.529  23.711  1.00  0.00    -0.356 N 
ATOM      5  C   UNL A   1      33.560  26.467  22.492  1.00  0.00     0.224 C 
ATOM      6  O   UNL A   1      34.029  27.136  21.568  1.00  0.00    -0.275 OA
ATOM      7  H   UNL A   1      34.868  27.210  23.802  1.00  0.00     0.163 HD
BRANCH   5   8
ATOM      8  C   UNL A   1      32.348  25.580  22.267  1.00  0.00     0.137 C 
BRANCH   8   9
ATOM      9  C   UNL A   1      31.043  26.182  22.745  1.00  0.00    -0.015 A 
ATOM     10  C   UNL A   1      29.441  29.658  22.629  1.00  0.00     0.044 C 
ATOM     11  C   UNL A   1      29.657  28.199  22.897  1.00  0.00    -0.051 A 
ATOM     12  C   UNL A   1      28.716  27.474  23.619  1.00  0.00     0.005 A 
ATOM     13  C   UNL A   1      30.800  27.540  22.439  1.00  0.00     0.009 A 
ATOM     14  C   UNL A   1      28.925  26.119  23.890  1.00  0.00     0.026 A 
ATOM     15  C   UNL A   1      30.088  25.448  23.480  1.00  0.00     0.042 A 
BRANCH  15  16
ATOM     16  N   UNL A   1      30.274  24.077  23.763  1.00  0.00    -0.352 N 
ATOM     17  H   UNL A   1      29.791  23.457  23.173  1.00  0.00     0.167 HD
BRANCH  16  18
ATOM     18  C   UNL A   1      31.054  23.469  24.773  1.00  0.00     0.094 A 
ATOM     19  C   UNL A   1      30.926  23.817  26.127  1.00  0.00     0.148 A 
ATOM     20  C   UNL A   1      32.064  22.547  24.438  1.00  0.00     0.067 A 
ATOM     21  F   UNL A   1      29.971  24.677  26.517  1.00  0.00    -0.205 F 
ATOM     22  C   UNL A   1      31.760  23.282  27.107  1.00  0.00     0.041 A 
ATOM     23  C   UNL A   1      32.910  22.012  25.415  1.00  0.00     0.023 A 
ATOM     24  Cl  UNL A   1      32.331  22.080  22.792  1.00  0.00    -0.082 Cl
ATOM     25  C   UNL A   1      32.760  22.381  26.751  1.00  0.00     0.005 A 
ENDBRANCH  16  18
ENDBRANCH  15  16
ENDBRANCH   8   9
ENDBRANCH   5   8
ENDBRANCH   3   4
ENDBRANCH   2   3
ENDBRANCH   1   2
BRANCH   1  26
ATOM     26  C   UNL A   1      34.467  28.772  26.736  1.00  0.00     0.002 C 
BRANCH  26  27
ATOM     27  C   UNL A   1      33.956  29.911  27.619  1.00  0.00     0.021 C 
BRANCH  27  28
ATOM     28  C   UNL A   1      34.697  31.229  27.440  1.00  0.00     0.116 C 
BRANCH  28  29
ATOM     29  N   UNL A   1      35.206  31.788  28.685  1.00  0.00    -0.352 N 
ATOM     30  C   UNL A   1      36.125  31.279  29.588  1.00  0.00     0.251 C 
ATOM     31  H   UNL A   1      34.837  32.668  28.923  1.00  0.00     0.163 HD
ATOM     32  O   UNL A   1      36.349  31.876  30.624  1.00  0.00    -0.269 OA
BRANCH  30  33
ATOM     33  C   UNL A   1      36.950  30.097  29.222  1.00  0.00     0.039 A 
ATOM     34  C   UNL A   1      37.037  29.059  30.160  1.00  0.00     0.014 A 
ATOM     35  C   UNL A   1      37.784  30.095  28.108  1.00  0.00     0.014 A 
ATOM     36  C   UNL A   1      38.131  28.198  30.131  1.00  0.00     0.010 A 
ATOM     37  C   UNL A   1      38.919  29.312  28.131  1.00  0.00     0.010 A 
ATOM     38  C   UNL A   1      39.134  28.430  29.195  1.00  0.00    -0.014 A 
BRANCH  38  39
ATOM     39  C   UNL A   1      40.502  27.952  29.340  1.00  0.00     0.031 A 
ATOM     40  C   UNL A   1      40.895  26.614  28.857  1.00  0.00     0.074 A 
ATOM     41  C   UNL A   1      41.443  28.834  29.748  1.00  0.00     0.049 A 
ATOM     42  N   UNL A   1      42.054  26.091  29.064  1.00  0.00    -0.248 NA
ATOM     43  C   UNL A   1      39.981  25.717  28.153  1.00  0.00     0.031 C 
ATOM     44  C   UNL A   1      42.892  28.736  29.593  1.00  0.00     0.029 A 
ATOM     45  N   UNL A   1      41.264  29.937  30.606  1.00  0.00    -0.354 N 
ATOM     46  C   UNL A   1      42.148  24.961  28.292  1.00  0.00     0.074 A 
ATOM     47  C   UNL A   1      40.799  24.698  27.859  1.00  0.00     0.031 C 
ATOM     48  C   UNL A   1      43.480  29.495  30.531  1.00  0.00     0.029 A 
ATOM     49  C   UNL A   1      42.429  29.964  31.415  1.00  0.00     0.049 A 
ATOM     50  H   UNL A   1      40.498  30.553  30.638  1.00  0.00     0.167 HD
ATOM     51  C   UNL A   1      43.387  24.466  28.018  1.00  0.00     0.037 A 
ATOM     52  C   UNL A   1      42.352  29.688  32.750  1.00  0.00     0.037 A 
ATOM     53  C   UNL A   1      44.384  25.019  28.938  1.00  0.00     0.049 A 
ATOM     54  C   UNL A   1      43.134  28.467  33.198  1.00  0.00     0.074 A 
ATOM     55  C   UNL A   1      45.420  25.929  28.850  1.00  0.00     0.029 A 
ATOM     56  N   UNL A   1      44.207  24.773  30.291  1.00  0.00    -0.354 N 
ATOM     57  N   UNL A   1      43.774  27.664  32.393  1.00  0.00    -0.248 NA
ATOM     58  C   UNL A   1      43.162  28.001  34.585  1.00  0.00     0.031 C 
ATOM     59  C   UNL A   1      45.803  26.287  30.182  1.00  0.00     0.029 A 
ATOM     60  C   UNL A   1      45.023  25.566  31.069  1.00  0.00     0.049 A 
ATOM     61  H   UNL A   1      43.574  24.111  30.652  1.00  0.00     0.167 HD
ATOM     62  C   UNL A   1      44.228  26.583  33.099  1.00  0.00     0.074 A 
ATOM     63  C   UNL A   1      43.827  26.840  34.469  1.00  0.00     0.031 C 
ATOM     64  C   UNL A   1      44.857  25.527  32.512  1.00  0.00     0.037 A 
BRANCH  51  65
ATOM     65  C   UNL A   1      43.739  23.570  26.849  1.00  0.00     0.064 A 
ATOM     66  C   UNL A   1      43.278  22.235  26.821  1.00  0.00     0.173 A 
ATOM     67  C   UNL A   1      44.624  23.905  25.801  1.00  0.00     0.173 A 
ATOM     68  F   UNL A   1      42.443  21.767  27.759  1.00  0.00    -0.203 F 
ATOM     69  C   UNL A   1      43.680  21.319  25.840  1.00  0.00     0.198 A 
ATOM     70  C   UNL A   1      44.981  23.006  24.792  1.00  0.00     0.198 A 
ATOM     71  F   UNL A   1      45.238  25.089  25.731  1.00  0.00    -0.203 F 
ATOM     72  F   UNL A   1      43.258  20.049  25.902  1.00  0.00    -0.200 F 
ATOM     73  C   UNL A   1      44.523  21.709  24.819  1.00  0.00     0.200 A 
ATOM     74  F   UNL A   1      45.805  23.407  23.812  1.00  0.00    -0.200 F 
ATOM     75  F   UNL A   1      44.911  20.835  23.880  1.00  0.00    -0.200 F 
ENDBRANCH  51  65
BRANCH  52  76
ATOM     76  C   UNL A   1      41.072  30.143  33.355  1.00  0.00     0.064 A 
ATOM     77  C   UNL A   1      40.914  31.514  33.641  1.00  0.00     0.173 A 
ATOM     78  C   UNL A   1      39.916  29.357  33.299  1.00  0.00     0.173 A 
ATOM     79  F   UNL A   1      41.991  32.313  33.706  1.00  0.00    -0.203 F 
ATOM     80  C   UNL A   1      39.651  32.092  33.742  1.00  0.00     0.198 A 
ATOM     81  C   UNL A   1      38.652  29.937  33.421  1.00  0.00     0.198 A 
ATOM     82  F   UNL A   1      39.996  28.050  33.008  1.00  0.00    -0.203 F 
ATOM     83  F   UNL A   1      39.532  33.419  33.896  1.00  0.00    -0.200 F 
ATOM     84  C   UNL A   1      38.521  31.306  33.604  1.00  0.00     0.200 A 
ATOM     85  F   UNL A   1      37.558  29.181  33.259  1.00  0.00    -0.200 F 
ATOM     86  F   UNL A   1      37.304  31.870  33.605  1.00  0.00    -0.200 F 
ENDBRANCH  52  76
BRANCH  64  87
ATOM     87  C   UNL A   1      45.347  24.348  33.294  1.00  0.00     0.064 A 
ATOM     88  C   UNL A   1      44.519  23.252  33.577  1.00  0.00     0.173 A 
ATOM     89  C   UNL A   1      46.629  24.337  33.880  1.00  0.00     0.173 A 
ATOM     90  F   UNL A   1      43.273  23.194  33.083  1.00  0.00    -0.203 F 
ATOM     91  C   UNL A   1      44.954  22.198  34.380  1.00  0.00     0.198 A 
ATOM     92  C   UNL A   1      47.043  23.307  34.722  1.00  0.00     0.198 A 
ATOM     93  F   UNL A   1      47.516  25.310  33.626  1.00  0.00    -0.203 F 
ATOM     94  F   UNL A   1      44.150  21.147  34.592  1.00  0.00    -0.200 F 
ATOM     95  C   UNL A   1      46.208  22.233  34.966  1.00  0.00     0.200 A 
ATOM     96  F   UNL A   1      48.256  23.359  35.291  1.00  0.00    -0.200 F 
ATOM     97  F   UNL A   1      46.614  21.233  35.758  1.00  0.00    -0.200 F 
ENDBRANCH  64  87
ENDBRANCH  38  39
ENDBRANCH  30  33
ENDBRANCH  28  29
ENDBRANCH  27  28
ENDBRANCH  26  27
ENDBRANCH   1  26
TORSDOF 16
ENDMDL
MODEL 3
REMARK VINA RESULT:     -13.2      2.751      4.302
REMARK SMILES Cc1ccc(Nc2c(F)cccc2Cl)c(CC(=O)NCCCCCCNC(=O)c2ccc(-c3c4nc(c(-c5c(F)c(F)c(F)c(F)c5F)c5ccc([nH]5)c(-c5c(F)c(F)c(F)c(F)c5F)c5nc(c(-c6c(F)c(F)c(F)c(F)c6F)c6ccc3[nH]6)C=C5)C=C4)cc2)c1
REMARK SMILES IDX 22 1 21 2 20 3 19 4 17 5 18 6 16 8 15 9 1 10 2 11 3 12 92 13
REMARK SMILES IDX 4 14 5 15 6 16 7 18 8 19 13 20 9 21 10 22 12 23 14 24 11 25
REMARK SMILES IDX 23 26 24 27 25 28 26 29 27 30 28 32 29 33 30 34 91 35 31 36
REMARK SMILES IDX 90 37 32 38 33 39 34 40 84 41 35 42 89 43 83 44 85 45 36 46
REMARK SMILES IDX 88 47 82 48 81 49 37 51 69 52 49 53 68 54 50 55 53 56 67 57
REMARK SMILES IDX 86 58 51 59 52 60 66 62 87 63 54 64 38 65 39 66 47 67 40 68
REMARK SMILES IDX 41 69 45 70 48 71 42 72 43 73 46 74 44 75 70 76 71 77 79 78
REMARK SMILES IDX 72 79 73 80 77 81 80 82 74 83 75 84 78 85 76 86 55 87 56 88
REMARK SMILES IDX 64 89 57 90 58 91 62 92 65 93 59 94 60 95 63 96 61 97
REMARK H PARENT 19 7 6 17 26 31 85 50 53 61
REMARK Flexibility Score: inf
ROOT
ATOM      1  C   UNL A   1      31.933  29.222  25.338  1.00  0.00     0.002 C 
ENDROOT
BRANCH   1   2
ATOM      2  C   UNL A   1      33.251  28.852  24.637  1.00  0.00     0.021 C 
BRANCH   2   3
ATOM      3  C   UNL A   1      33.214  28.921  23.108  1.00  0.00     0.116 C 
BRANCH   3   4
ATOM      4  N   UNL A   1      33.845  27.770  22.499  1.00  0.00    -0.356 N 
ATOM      5  C   UNL A   1      33.266  26.634  22.021  1.00  0.00     0.224 C 
ATOM      6  O   UNL A   1      33.996  25.701  21.680  1.00  0.00    -0.275 OA
ATOM      7  H   UNL A   1      34.825  27.814  22.421  1.00  0.00     0.163 HD
BRANCH   5   8
ATOM      8  C   UNL A   1      31.756  26.509  21.927  1.00  0.00     0.137 C 
BRANCH   8   9
ATOM      9  C   UNL A   1      31.069  26.288  23.258  1.00  0.00    -0.015 A 
ATOM     10  C   UNL A   1      31.878  24.330  26.449  1.00  0.00     0.044 C 
ATOM     11  C   UNL A   1      31.173  25.204  25.456  1.00  0.00    -0.051 A 
ATOM     12  C   UNL A   1      29.913  25.716  25.746  1.00  0.00     0.005 A 
ATOM     13  C   UNL A   1      31.755  25.519  24.226  1.00  0.00     0.009 A 
ATOM     14  C   UNL A   1      29.244  26.514  24.814  1.00  0.00     0.026 A 
ATOM     15  C   UNL A   1      29.790  26.805  23.553  1.00  0.00     0.042 A 
BRANCH  15  16
ATOM     16  N   UNL A   1      29.096  27.616  22.630  1.00  0.00    -0.352 N 
ATOM     17  H   UNL A   1      28.839  27.172  21.790  1.00  0.00     0.167 HD
BRANCH  16  18
ATOM     18  C   UNL A   1      28.716  28.974  22.737  1.00  0.00     0.094 A 
ATOM     19  C   UNL A   1      29.577  30.020  22.369  1.00  0.00     0.148 A 
ATOM     20  C   UNL A   1      27.481  29.327  23.311  1.00  0.00     0.067 A 
ATOM     21  F   UNL A   1      30.763  29.752  21.799  1.00  0.00    -0.205 F 
ATOM     22  C   UNL A   1      29.234  31.357  22.563  1.00  0.00     0.041 A 
ATOM     23  C   UNL A   1      27.134  30.667  23.516  1.00  0.00     0.023 A 
ATOM     24  Cl  UNL A   1      26.363  28.112  23.834  1.00  0.00    -0.082 Cl
ATOM     25  C   UNL A   1      28.012  31.684  23.145  1.00  0.00     0.005 A 
ENDBRANCH  16  18
ENDBRANCH  15  16
ENDBRANCH   8   9
ENDBRANCH   5   8
ENDBRANCH   3   4
ENDBRANCH   2   3
ENDBRANCH   1   2
BRANCH   1  26
ATOM     26  C   UNL A   1      32.013  29.483  26.851  1.00  0.00     0.002 C 
BRANCH  26  27
ATOM     27  C   UNL A   1      32.804  30.722  27.274  1.00  0.00     0.021 C 
BRANCH  27  28
ATOM     28  C   UNL A   1      34.312  30.521  27.322  1.00  0.00     0.116 C 
BRANCH  28  29
ATOM     29  N   UNL A   1      34.991  31.402  28.263  1.00  0.00    -0.352 N 
ATOM     30  C   UNL A   1      36.085  31.172  29.080  1.00  0.00     0.251 C 
ATOM     31  H   UNL A   1      34.610  32.307  28.328  1.00  0.00     0.163 HD
ATOM     32  O   UNL A   1      36.445  32.028  29.865  1.00  0.00    -0.269 OA
BRANCH  30  33
ATOM     33  C   UNL A   1      36.912  29.950  28.886  1.00  0.00     0.039 A 
ATOM     34  C   UNL A   1      37.053  29.090  29.984  1.00  0.00     0.014 A 
ATOM     35  C   UNL A   1      37.699  29.764  27.755  1.00  0.00     0.014 A 
ATOM     36  C   UNL A   1      38.159  28.245  30.055  1.00  0.00     0.010 A 
ATOM     37  C   UNL A   1      38.846  29.005  27.862  1.00  0.00     0.010 A 
ATOM     38  C   UNL A   1      39.118  28.321  29.051  1.00  0.00    -0.014 A 
BRANCH  38  39
ATOM     39  C   UNL A   1      40.499  27.885  29.216  1.00  0.00     0.031 A 
ATOM     40  C   UNL A   1      40.938  26.558  28.744  1.00  0.00     0.074 A 
ATOM     41  C   UNL A   1      41.406  28.798  29.633  1.00  0.00     0.049 A 
ATOM     42  N   UNL A   1      42.110  26.072  28.970  1.00  0.00    -0.248 NA
ATOM     43  C   UNL A   1      40.062  25.631  28.032  1.00  0.00     0.031 C 
ATOM     44  C   UNL A   1      42.860  28.744  29.498  1.00  0.00     0.029 A 
ATOM     45  N   UNL A   1      41.182  29.898  30.484  1.00  0.00    -0.354 N 
ATOM     46  C   UNL A   1      42.249  24.942  28.204  1.00  0.00     0.074 A 
ATOM     47  C   UNL A   1      40.914  24.636  27.754  1.00  0.00     0.031 C 
ATOM     48  C   UNL A   1      43.411  29.525  30.441  1.00  0.00     0.029 A 
ATOM     49  C   UNL A   1      42.334  29.965  31.308  1.00  0.00     0.049 A 
ATOM     50  H   UNL A   1      40.396  30.490  30.503  1.00  0.00     0.167 HD
ATOM     51  C   UNL A   1      43.506  24.485  27.949  1.00  0.00     0.037 A 
ATOM     52  C   UNL A   1      42.248  29.692  32.644  1.00  0.00     0.037 A 
ATOM     53  C   UNL A   1      44.473  25.071  28.880  1.00  0.00     0.049 A 
ATOM     54  C   UNL A   1      43.060  28.497  33.107  1.00  0.00     0.074 A 
ATOM     55  C   UNL A   1      45.482  26.013  28.802  1.00  0.00     0.029 A 
ATOM     56  N   UNL A   1      44.286  24.826  30.231  1.00  0.00    -0.354 N 
ATOM     57  N   UNL A   1      43.736  27.711  32.315  1.00  0.00    -0.248 NA
ATOM     58  C   UNL A   1      43.084  28.038  34.497  1.00  0.00     0.031 C 
ATOM     59  C   UNL A   1      45.836  26.388  30.137  1.00  0.00     0.029 A 
ATOM     60  C   UNL A   1      45.066  25.647  31.017  1.00  0.00     0.049 A 
ATOM     61  H   UNL A   1      43.668  24.146  30.587  1.00  0.00     0.167 HD
ATOM     62  C   UNL A   1      44.212  26.647  33.032  1.00  0.00     0.074 A 
ATOM     63  C   UNL A   1      43.785  26.897  34.395  1.00  0.00     0.031 C 
ATOM     64  C   UNL A   1      44.882  25.608  32.458  1.00  0.00     0.037 A 
BRANCH  51  65
ATOM     65  C   UNL A   1      43.902  23.596  26.789  1.00  0.00     0.064 A 
ATOM     66  C   UNL A   1      43.441  22.260  26.736  1.00  0.00     0.173 A 
ATOM     67  C   UNL A   1      44.825  23.936  25.777  1.00  0.00     0.173 A 
ATOM     68  F   UNL A   1      42.570  21.788  27.639  1.00  0.00    -0.203 F 
ATOM     69  C   UNL A   1      43.879  21.351  25.765  1.00  0.00     0.198 A 
ATOM     70  C   UNL A   1      45.219  23.042  24.777  1.00  0.00     0.198 A 
ATOM     71  F   UNL A   1      45.443  25.120  25.737  1.00  0.00    -0.203 F 
ATOM     72  F   UNL A   1      43.454  20.080  25.804  1.00  0.00    -0.200 F 
ATOM     73  C   UNL A   1      44.760  21.745  24.779  1.00  0.00     0.200 A 
ATOM     74  F   UNL A   1      46.081  23.448  23.831  1.00  0.00    -0.200 F 
ATOM     75  F   UNL A   1      45.182  20.876  23.850  1.00  0.00    -0.200 F 
ENDBRANCH  51  65
BRANCH  52  76
ATOM     76  C   UNL A   1      40.946  30.110  33.229  1.00  0.00     0.064 A 
ATOM     77  C   UNL A   1      40.712  31.484  33.434  1.00  0.00     0.173 A 
ATOM     78  C   UNL A   1      39.836  29.258  33.228  1.00  0.00     0.173 A 
ATOM     79  F   UNL A   1      41.742  32.345  33.443  1.00  0.00    -0.203 F 
ATOM     80  C   UNL A   1      39.419  31.995  33.508  1.00  0.00     0.198 A 
ATOM     81  C   UNL A   1      38.542  29.772  33.325  1.00  0.00     0.198 A 
ATOM     82  F   UNL A   1      39.989  27.942  33.016  1.00  0.00    -0.203 F 
ATOM     83  F   UNL A   1      39.225  33.320  33.584  1.00  0.00    -0.200 F 
ATOM     84  C   UNL A   1      38.334  31.139  33.426  1.00  0.00     0.200 A 
ATOM     85  F   UNL A   1      37.491  28.947  33.216  1.00  0.00    -0.200 F 
ATOM     86  F   UNL A   1      37.088  31.633  33.402  1.00  0.00    -0.200 F 
ENDBRANCH  52  76
BRANCH  64  87
ATOM     87  C   UNL A   1      45.397  24.448  33.251  1.00  0.00     0.064 A 
ATOM     88  C   UNL A   1      44.595  23.334  33.539  1.00  0.00     0.173 A 
ATOM     89  C   UNL A   1      46.676  24.474  33.843  1.00  0.00     0.173 A 
ATOM     90  F   UNL A   1      43.353  23.240  33.039  1.00  0.00    -0.203 F 
ATOM     91  C   UNL A   1      45.052  22.297  34.353  1.00  0.00     0.198 A 
ATOM     92  C   UNL A   1      47.111  23.461  34.696  1.00  0.00     0.198 A 
ATOM     93  F   UNL A   1      47.540  25.466  33.587  1.00  0.00    -0.203 F 
ATOM     94  F   UNL A   1      44.274  21.228  34.569  1.00  0.00    -0.200 F 
ATOM     95  C   UNL A   1      46.302  22.368  34.944  1.00  0.00     0.200 A 
ATOM     96  F   UNL A   1      48.319  23.548  35.270  1.00  0.00    -0.200 F 
ATOM     97  F   UNL A   1      46.729  21.385  35.747  1.00  0.00    -0.200 F 
ENDBRANCH  64  87
ENDBRANCH  38  39
ENDBRANCH  30  33
ENDBRANCH  28  29
ENDBRANCH  27  28
ENDBRANCH  26  27
ENDBRANCH   1  26
TORSDOF 16
ENDMDL
