MODEL 1
REMARK VINA RESULT:     -12.6      0.000      0.000
REMARK SMILES C[C@H]1CCC[C@@]1(C(=O)NCCCCCCNC(=O)c1ccc(-c2c3nc(c(-c4c(F)c(F)c(F)c(F)c4F)c4ccc([nH]4)c(-c4c(F)c(F)c(F)c(F)c4F)c4nc(c(-c5c(F)c(F)c(F)c(F)c5F)c5ccc2[nH]5)C=C4)C=C3)cc1)S(=O)(=O)c1cc(F)ccc1F
REMARK SMILES IDX 12 1 11 2 10 3 9 4 7 5 8 6 6 8 1 9 2 10 3 11 4 12 5 13 82 14
REMARK SMILES IDX 83 15 84 16 85 17 86 18 91 19 87 20 90 21 92 22 88 23 89 24
REMARK SMILES IDX 13 25 14 26 15 27 16 28 17 29 18 31 19 32 20 33 81 34 21 35
REMARK SMILES IDX 80 36 22 37 23 38 24 39 74 40 25 41 79 42 73 43 75 44 26 45
REMARK SMILES IDX 78 46 72 47 71 48 27 50 59 51 39 52 58 53 40 54 43 55 57 56
REMARK SMILES IDX 76 57 41 58 42 59 56 61 77 62 44 63 28 64 29 65 37 66 30 67
REMARK SMILES IDX 31 68 35 69 38 70 32 71 33 72 36 73 34 74 60 75 61 76 69 77
REMARK SMILES IDX 62 78 63 79 67 80 70 81 64 82 65 83 68 84 66 85 45 86 46 87
REMARK SMILES IDX 54 88 47 89 48 90 52 91 55 92 49 93 50 94 53 95 51 96
REMARK H PARENT 9 7 16 30 75 49 43 60
REMARK Flexibility Score: inf
ROOT
ATOM      1  C   UNL A   1      32.321  29.884  27.085  1.00  0.00     0.002 C 
ENDROOT
BRANCH   1   2
ATOM      2  C   UNL A   1      31.664  28.582  27.552  1.00  0.00     0.021 C 
BRANCH   2   3
ATOM      3  C   UNL A   1      31.393  27.584  26.440  1.00  0.00     0.116 C 
BRANCH   3   4
ATOM      4  N   UNL A   1      31.022  26.274  26.907  1.00  0.00    -0.355 N 
ATOM      5  C   UNL A   1      31.390  25.042  26.462  1.00  0.00     0.242 C 
ATOM      6  O   UNL A   1      31.227  24.137  27.288  1.00  0.00    -0.273 OA
ATOM      7  H   UNL A   1      30.401  26.269  27.670  1.00  0.00     0.163 HD
BRANCH   5   8
ATOM      8  C   UNL A   1      31.881  24.754  25.042  1.00  0.00     0.157 C 
ATOM      9  C   UNL A   1      30.492  26.446  23.431  1.00  0.00     0.010 C 
ATOM     10  C   UNL A   1      30.800  25.046  23.944  1.00  0.00     0.017 C 
ATOM     11  C   UNL A   1      31.169  24.131  22.771  1.00  0.00     0.005 C 
ATOM     12  C   UNL A   1      31.712  22.865  23.404  1.00  0.00     0.003 C 
ATOM     13  C   UNL A   1      31.909  23.185  24.884  1.00  0.00     0.034 C 
BRANCH   8  14
ATOM     14  S   UNL A   1      33.571  25.359  24.719  1.00  0.00     0.196 S 
ATOM     15  O   UNL A   1      33.664  25.941  23.394  1.00  0.00    -0.222 OA
ATOM     16  O   UNL A   1      33.963  26.194  25.847  1.00  0.00    -0.222 OA
BRANCH  14  17
ATOM     17  C   UNL A   1      34.770  24.051  24.707  1.00  0.00     0.107 A 
ATOM     18  C   UNL A   1      35.411  23.704  23.508  1.00  0.00     0.062 A 
ATOM     19  C   UNL A   1      35.042  23.332  25.866  1.00  0.00     0.142 A 
ATOM     20  C   UNL A   1      36.378  22.703  23.515  1.00  0.00     0.124 A 
ATOM     21  C   UNL A   1      36.025  22.340  25.867  1.00  0.00     0.043 A 
ATOM     22  F   UNL A   1      34.405  23.600  27.008  1.00  0.00    -0.206 F 
ATOM     23  F   UNL A   1      37.034  22.414  22.385  1.00  0.00    -0.207 F 
ATOM     24  C   UNL A   1      36.707  22.032  24.688  1.00  0.00     0.042 A 
ENDBRANCH  14  17
ENDBRANCH   8  14
ENDBRANCH   5   8
ENDBRANCH   3   4
ENDBRANCH   2   3
ENDBRANCH   1   2
BRANCH   1  25
ATOM     25  C   UNL A   1      31.493  30.760  26.135  1.00  0.00     0.002 C 
BRANCH  25  26
ATOM     26  C   UNL A   1      31.382  32.240  26.507  1.00  0.00     0.021 C 
BRANCH  26  27
ATOM     27  C   UNL A   1      32.586  32.821  27.233  1.00  0.00     0.116 C 
BRANCH  27  28
ATOM     28  N   UNL A   1      32.385  34.205  27.618  1.00  0.00    -0.352 N 
ATOM     29  C   UNL A   1      32.993  34.926  28.611  1.00  0.00     0.251 C 
ATOM     30  H   UNL A   1      31.715  34.697  27.090  1.00  0.00     0.163 HD
ATOM     31  O   UNL A   1      32.570  36.037  28.918  1.00  0.00    -0.269 OA
BRANCH  29  32
ATOM     32  C   UNL A   1      34.151  34.355  29.324  1.00  0.00     0.039 A 
ATOM     33  C   UNL A   1      33.924  33.530  30.427  1.00  0.00     0.014 A 
ATOM     34  C   UNL A   1      35.456  34.636  28.908  1.00  0.00     0.014 A 
ATOM     35  C   UNL A   1      35.006  32.949  31.087  1.00  0.00     0.010 A 
ATOM     36  C   UNL A   1      36.527  33.992  29.515  1.00  0.00     0.010 A 
ATOM     37  C   UNL A   1      36.314  33.156  30.620  1.00  0.00    -0.014 A 
BRANCH  37  38
ATOM     38  C   UNL A   1      37.478  32.527  31.291  1.00  0.00     0.031 A 
ATOM     39  C   UNL A   1      38.211  31.402  30.617  1.00  0.00     0.074 A 
ATOM     40  C   UNL A   1      37.834  32.930  32.525  1.00  0.00     0.049 A 
ATOM     41  N   UNL A   1      39.205  30.676  31.061  1.00  0.00    -0.248 NA
ATOM     42  C   UNL A   1      37.745  31.023  29.273  1.00  0.00     0.031 C 
ATOM     43  C   UNL A   1      37.171  33.984  33.295  1.00  0.00     0.029 A 
ATOM     44  N   UNL A   1      38.837  32.495  33.353  1.00  0.00    -0.354 N 
ATOM     45  C   UNL A   1      39.471  29.750  30.062  1.00  0.00     0.074 A 
ATOM     46  C   UNL A   1      38.495  29.963  29.016  1.00  0.00     0.031 C 
ATOM     47  C   UNL A   1      37.802  34.132  34.470  1.00  0.00     0.029 A 
ATOM     48  C   UNL A   1      38.885  33.158  34.554  1.00  0.00     0.049 A 
ATOM     49  H   UNL A   1      39.463  31.775  33.109  1.00  0.00     0.167 HD
ATOM     50  C   UNL A   1      40.457  28.823  30.009  1.00  0.00     0.037 A 
ATOM     51  C   UNL A   1      39.712  32.992  35.605  1.00  0.00     0.037 A 
ATOM     52  C   UNL A   1      41.437  28.631  31.046  1.00  0.00     0.049 A 
ATOM     53  C   UNL A   1      40.787  31.943  35.530  1.00  0.00     0.074 A 
ATOM     54  C   UNL A   1      42.507  27.755  31.073  1.00  0.00     0.029 A 
ATOM     55  N   UNL A   1      41.459  29.328  32.247  1.00  0.00    -0.354 N 
ATOM     56  N   UNL A   1      41.070  31.114  34.554  1.00  0.00    -0.248 NA
ATOM     57  C   UNL A   1      41.661  31.810  36.703  1.00  0.00     0.031 C 
ATOM     58  C   UNL A   1      43.148  27.887  32.309  1.00  0.00     0.029 A 
ATOM     59  C   UNL A   1      42.513  28.886  33.030  1.00  0.00     0.049 A 
ATOM     60  H   UNL A   1      40.822  30.033  32.503  1.00  0.00     0.167 HD
ATOM     61  C   UNL A   1      42.172  30.385  34.980  1.00  0.00     0.074 A 
ATOM     62  C   UNL A   1      42.513  30.880  36.298  1.00  0.00     0.031 C 
ATOM     63  C   UNL A   1      42.843  29.397  34.337  1.00  0.00     0.037 A 
BRANCH  50  64
ATOM     64  C   UNL A   1      40.520  27.949  28.788  1.00  0.00     0.064 A 
ATOM     65  C   UNL A   1      41.279  28.310  27.662  1.00  0.00     0.173 A 
ATOM     66  C   UNL A   1      39.827  26.731  28.746  1.00  0.00     0.173 A 
ATOM     67  F   UNL A   1      41.952  29.471  27.644  1.00  0.00    -0.203 F 
ATOM     68  C   UNL A   1      41.307  27.504  26.527  1.00  0.00     0.198 A 
ATOM     69  C   UNL A   1      39.886  25.911  27.622  1.00  0.00     0.198 A 
ATOM     70  F   UNL A   1      39.091  26.334  29.794  1.00  0.00    -0.203 F 
ATOM     71  F   UNL A   1      41.986  27.901  25.442  1.00  0.00    -0.200 F 
ATOM     72  C   UNL A   1      40.616  26.302  26.510  1.00  0.00     0.200 A 
ATOM     73  F   UNL A   1      39.228  24.743  27.612  1.00  0.00    -0.200 F 
ATOM     74  F   UNL A   1      40.645  25.525  25.419  1.00  0.00    -0.200 F 
ENDBRANCH  50  64
BRANCH  51  75
ATOM     75  C   UNL A   1      39.573  33.864  36.799  1.00  0.00     0.064 A 
ATOM     76  C   UNL A   1      40.200  35.118  36.849  1.00  0.00     0.173 A 
ATOM     77  C   UNL A   1      38.814  33.472  37.911  1.00  0.00     0.173 A 
ATOM     78  F   UNL A   1      40.952  35.531  35.818  1.00  0.00    -0.203 F 
ATOM     79  C   UNL A   1      40.088  35.936  37.971  1.00  0.00     0.198 A 
ATOM     80  C   UNL A   1      38.679  34.303  39.021  1.00  0.00     0.198 A 
ATOM     81  F   UNL A   1      38.189  32.284  37.913  1.00  0.00    -0.203 F 
ATOM     82  F   UNL A   1      40.733  37.111  38.007  1.00  0.00    -0.200 F 
ATOM     83  C   UNL A   1      39.322  35.532  39.053  1.00  0.00     0.200 A 
ATOM     84  F   UNL A   1      37.926  33.915  40.059  1.00  0.00    -0.200 F 
ATOM     85  F   UNL A   1      39.210  36.321  40.130  1.00  0.00    -0.200 F 
ENDBRANCH  51  75
BRANCH  63  86
ATOM     86  C   UNL A   1      44.039  28.814  35.031  1.00  0.00     0.064 A 
ATOM     87  C   UNL A   1      43.923  27.738  35.924  1.00  0.00     0.173 A 
ATOM     88  C   UNL A   1      45.324  29.311  34.765  1.00  0.00     0.173 A 
ATOM     89  F   UNL A   1      42.716  27.236  36.224  1.00  0.00    -0.203 F 
ATOM     90  C   UNL A   1      45.048  27.202  36.546  1.00  0.00     0.198 A 
ATOM     91  C   UNL A   1      46.448  28.751  35.363  1.00  0.00     0.198 A 
ATOM     92  F   UNL A   1      45.490  30.334  33.912  1.00  0.00    -0.203 F 
ATOM     93  F   UNL A   1      44.909  26.208  37.435  1.00  0.00    -0.200 F 
ATOM     94  C   UNL A   1      46.309  27.702  36.259  1.00  0.00     0.200 A 
ATOM     95  F   UNL A   1      47.667  29.226  35.072  1.00  0.00    -0.200 F 
ATOM     96  F   UNL A   1      47.390  27.178  36.852  1.00  0.00    -0.200 F 
ENDBRANCH  63  86
ENDBRANCH  37  38
ENDBRANCH  29  32
ENDBRANCH  27  28
ENDBRANCH  26  27
ENDBRANCH  25  26
ENDBRANCH   1  25
TORSDOF 15
ENDMDL
MODEL 2
REMARK VINA RESULT:     -12.4      0.521      7.297
REMARK SMILES C[C@H]1CCC[C@@]1(C(=O)NCCCCCCNC(=O)c1ccc(-c2c3nc(c(-c4c(F)c(F)c(F)c(F)c4F)c4ccc([nH]4)c(-c4c(F)c(F)c(F)c(F)c4F)c4nc(c(-c5c(F)c(F)c(F)c(F)c5F)c5ccc2[nH]5)C=C4)C=C3)cc1)S(=O)(=O)c1cc(F)ccc1F
REMARK SMILES IDX 12 1 11 2 10 3 9 4 7 5 8 6 6 8 1 9 2 10 3 11 4 12 5 13 82 14
REMARK SMILES IDX 83 15 84 16 85 17 86 18 91 19 87 20 90 21 92 22 88 23 89 24
REMARK SMILES IDX 13 25 14 26 15 27 16 28 17 29 18 31 19 32 20 33 81 34 21 35
REMARK SMILES IDX 80 36 22 37 23 38 24 39 74 40 25 41 79 42 73 43 75 44 26 45
REMARK SMILES IDX 78 46 72 47 71 48 27 50 59 51 39 52 58 53 40 54 43 55 57 56
REMARK SMILES IDX 76 57 41 58 42 59 56 61 77 62 44 63 28 64 29 65 37 66 30 67
REMARK SMILES IDX 31 68 35 69 38 70 32 71 33 72 36 73 34 74 60 75 61 76 69 77
REMARK SMILES IDX 62 78 63 79 67 80 70 81 64 82 65 83 68 84 66 85 45 86 46 87
REMARK SMILES IDX 54 88 47 89 48 90 52 91 55 92 49 93 50 94 53 95 51 96
REMARK H PARENT 9 7 16 30 75 49 43 60
REMARK Flexibility Score: inf
ROOT
ATOM      1  C   UNL A   1      32.425  29.894  26.923  1.00  0.00     0.002 C 
ENDROOT
BRANCH   1   2
ATOM      2  C   UNL A   1      31.877  28.576  27.476  1.00  0.00     0.021 C 
BRANCH   2   3
ATOM      3  C   UNL A   1      31.352  27.624  26.415  1.00  0.00     0.116 C 
BRANCH   3   4
ATOM      4  N   UNL A   1      31.021  26.315  26.916  1.00  0.00    -0.355 N 
ATOM      5  C   UNL A   1      31.407  25.083  26.487  1.00  0.00     0.242 C 
ATOM      6  O   UNL A   1      31.282  24.191  27.334  1.00  0.00    -0.273 OA
ATOM      7  H   UNL A   1      30.416  26.312  27.692  1.00  0.00     0.163 HD
BRANCH   5   8
ATOM      8  C   UNL A   1      31.875  24.777  25.063  1.00  0.00     0.157 C 
ATOM      9  C   UNL A   1      30.456  26.447  23.454  1.00  0.00     0.010 C 
ATOM     10  C   UNL A   1      30.775  25.053  23.979  1.00  0.00     0.017 C 
ATOM     11  C   UNL A   1      31.125  24.124  22.813  1.00  0.00     0.005 C 
ATOM     12  C   UNL A   1      31.681  22.868  23.453  1.00  0.00     0.003 C 
ATOM     13  C   UNL A   1      31.902  23.207  24.925  1.00  0.00     0.034 C 
BRANCH   8  14
ATOM     14  S   UNL A   1      33.558  25.381  24.704  1.00  0.00     0.196 S 
ATOM     15  O   UNL A   1      33.629  25.942  23.369  1.00  0.00    -0.222 OA
ATOM     16  O   UNL A   1      33.966  26.233  25.813  1.00  0.00    -0.222 OA
BRANCH  14  17
ATOM     17  C   UNL A   1      34.759  24.074  24.693  1.00  0.00     0.107 A 
ATOM     18  C   UNL A   1      35.400  23.727  23.494  1.00  0.00     0.062 A 
ATOM     19  C   UNL A   1      35.033  23.358  25.853  1.00  0.00     0.142 A 
ATOM     20  C   UNL A   1      36.368  22.727  23.503  1.00  0.00     0.124 A 
ATOM     21  C   UNL A   1      36.018  22.368  25.856  1.00  0.00     0.043 A 
ATOM     22  F   UNL A   1      34.397  23.627  26.996  1.00  0.00    -0.206 F 
ATOM     23  F   UNL A   1      37.024  22.437  22.372  1.00  0.00    -0.207 F 
ATOM     24  C   UNL A   1      36.700  22.059  24.676  1.00  0.00     0.042 A 
ENDBRANCH  14  17
ENDBRANCH   8  14
ENDBRANCH   5   8
ENDBRANCH   3   4
ENDBRANCH   2   3
ENDBRANCH   1   2
BRANCH   1  25
ATOM     25  C   UNL A   1      31.429  30.777  26.157  1.00  0.00     0.002 C 
BRANCH  25  26
ATOM     26  C   UNL A   1      31.364  32.245  26.582  1.00  0.00     0.021 C 
BRANCH  26  27
ATOM     27  C   UNL A   1      32.652  32.815  27.157  1.00  0.00     0.116 C 
BRANCH  27  28
ATOM     28  N   UNL A   1      32.484  34.165  27.659  1.00  0.00    -0.352 N 
ATOM     29  C   UNL A   1      33.120  34.790  28.698  1.00  0.00     0.251 C 
ATOM     30  H   UNL A   1      31.816  34.711  27.184  1.00  0.00     0.163 HD
ATOM     31  O   UNL A   1      32.724  35.879  29.103  1.00  0.00    -0.269 OA
BRANCH  29  32
ATOM     32  C   UNL A   1      34.277  34.140  29.342  1.00  0.00     0.039 A 
ATOM     33  C   UNL A   1      34.054  33.288  30.426  1.00  0.00     0.014 A 
ATOM     34  C   UNL A   1      35.576  34.375  28.882  1.00  0.00     0.014 A 
ATOM     35  C   UNL A   1      35.133  32.634  31.020  1.00  0.00     0.010 A 
ATOM     36  C   UNL A   1      36.639  33.660  29.422  1.00  0.00     0.010 A 
ATOM     37  C   UNL A   1      36.429  32.796  30.506  1.00  0.00    -0.014 A 
BRANCH  37  38
ATOM     38  C   UNL A   1      37.587  32.090  31.106  1.00  0.00     0.031 A 
ATOM     39  C   UNL A   1      38.059  32.464  32.483  1.00  0.00     0.074 A 
ATOM     40  C   UNL A   1      38.245  31.159  30.391  1.00  0.00     0.049 A 
ATOM     41  N   UNL A   1      39.089  32.019  33.157  1.00  0.00    -0.248 NA
ATOM     42  C   UNL A   1      37.284  33.499  33.186  1.00  0.00     0.031 C 
ATOM     43  C   UNL A   1      37.905  30.743  29.029  1.00  0.00     0.029 A 
ATOM     44  N   UNL A   1      39.343  30.400  30.706  1.00  0.00    -0.354 N 
ATOM     45  C   UNL A   1      39.093  32.728  34.350  1.00  0.00     0.074 A 
ATOM     46  C   UNL A   1      38.003  33.676  34.284  1.00  0.00     0.031 C 
ATOM     47  C   UNL A   1      38.759  29.784  28.637  1.00  0.00     0.029 A 
ATOM     48  C   UNL A   1      39.729  29.548  29.700  1.00  0.00     0.049 A 
ATOM     49  H   UNL A   1      39.810  30.460  31.571  1.00  0.00     0.167 HD
ATOM     50  C   UNL A   1      39.915  32.582  35.416  1.00  0.00     0.037 A 
ATOM     51  C   UNL A   1      40.757  28.678  29.646  1.00  0.00     0.037 A 
ATOM     52  C   UNL A   1      40.986  31.622  35.482  1.00  0.00     0.049 A 
ATOM     53  C   UNL A   1      41.668  28.549  30.836  1.00  0.00     0.074 A 
ATOM     54  C   UNL A   1      41.847  31.358  36.531  1.00  0.00     0.029 A 
ATOM     55  N   UNL A   1      41.343  30.769  34.446  1.00  0.00    -0.354 N 
ATOM     56  N   UNL A   1      41.626  29.179  31.985  1.00  0.00    -0.248 NA
ATOM     57  C   UNL A   1      42.768  27.582  30.722  1.00  0.00     0.031 C 
ATOM     58  C   UNL A   1      42.756  30.380  36.114  1.00  0.00     0.029 A 
ATOM     59  C   UNL A   1      42.426  29.993  34.825  1.00  0.00     0.049 A 
ATOM     60  H   UNL A   1      40.893  30.723  33.572  1.00  0.00     0.167 HD
ATOM     61  C   UNL A   1      42.669  28.664  32.741  1.00  0.00     0.074 A 
ATOM     62  C   UNL A   1      43.319  27.660  31.924  1.00  0.00     0.031 C 
ATOM     63  C   UNL A   1      43.054  28.991  34.001  1.00  0.00     0.037 A 
BRANCH  50  64
ATOM     64  C   UNL A   1      39.684  33.484  36.596  1.00  0.00     0.064 A 
ATOM     65  C   UNL A   1      38.832  33.117  37.650  1.00  0.00     0.173 A 
ATOM     66  C   UNL A   1      40.332  34.725  36.683  1.00  0.00     0.173 A 
ATOM     67  F   UNL A   1      38.178  31.945  37.612  1.00  0.00    -0.203 F 
ATOM     68  C   UNL A   1      38.607  33.973  38.724  1.00  0.00     0.198 A 
ATOM     69  C   UNL A   1      40.131  35.565  37.775  1.00  0.00     0.198 A 
ATOM     70  F   UNL A   1      41.161  35.126  35.707  1.00  0.00    -0.203 F 
ATOM     71  F   UNL A   1      37.740  33.627  39.685  1.00  0.00    -0.200 F 
ATOM     72  C   UNL A   1      39.261  35.195  38.789  1.00  0.00     0.200 A 
ATOM     73  F   UNL A   1      40.775  36.739  37.843  1.00  0.00    -0.200 F 
ATOM     74  F   UNL A   1      39.045  36.018  39.823  1.00  0.00    -0.200 F 
ENDBRANCH  50  64
BRANCH  51  75
ATOM     75  C   UNL A   1      40.953  27.841  28.435  1.00  0.00     0.064 A 
ATOM     76  C   UNL A   1      41.792  28.268  27.395  1.00  0.00     0.173 A 
ATOM     77  C   UNL A   1      40.316  26.600  28.289  1.00  0.00     0.173 A 
ATOM     78  F   UNL A   1      42.410  29.456  27.480  1.00  0.00    -0.203 F 
ATOM     79  C   UNL A   1      41.972  27.496  26.249  1.00  0.00     0.198 A 
ATOM     80  C   UNL A   1      40.518  25.816  27.155  1.00  0.00     0.198 A 
ATOM     81  F   UNL A   1      39.508  26.142  29.256  1.00  0.00    -0.203 F 
ATOM     82  F   UNL A   1      42.746  27.950  25.254  1.00  0.00    -0.200 F 
ATOM     83  C   UNL A   1      41.340  26.267  26.133  1.00  0.00     0.200 A 
ATOM     84  F   UNL A   1      39.919  24.622  27.052  1.00  0.00    -0.200 F 
ATOM     85  F   UNL A   1      41.517  25.523  25.033  1.00  0.00    -0.200 F 
ENDBRANCH  51  75
BRANCH  63  86
ATOM     86  C   UNL A   1      44.204  28.227  34.588  1.00  0.00     0.064 A 
ATOM     87  C   UNL A   1      45.524  28.696  34.502  1.00  0.00     0.173 A 
ATOM     88  C   UNL A   1      43.977  27.030  35.284  1.00  0.00     0.173 A 
ATOM     89  F   UNL A   1      45.797  29.827  33.834  1.00  0.00    -0.203 F 
ATOM     90  C   UNL A   1      46.575  27.979  35.067  1.00  0.00     0.198 A 
ATOM     91  C   UNL A   1      45.026  26.334  35.876  1.00  0.00     0.198 A 
ATOM     92  F   UNL A   1      42.732  26.542  35.401  1.00  0.00    -0.203 F 
ATOM     93  F   UNL A   1      47.834  28.419  34.929  1.00  0.00    -0.200 F 
ATOM     94  C   UNL A   1      46.325  26.804  35.760  1.00  0.00     0.200 A 
ATOM     95  F   UNL A   1      44.780  25.208  36.559  1.00  0.00    -0.200 F 
ATOM     96  F   UNL A   1      47.337  26.121  36.311  1.00  0.00    -0.200 F 
ENDBRANCH  63  86
ENDBRANCH  37  38
ENDBRANCH  29  32
ENDBRANCH  27  28
ENDBRANCH  26  27
ENDBRANCH  25  26
ENDBRANCH   1  25
TORSDOF 15
ENDMDL
MODEL 3
REMARK VINA RESULT:     -12.4      1.302      2.912
REMARK SMILES C[C@H]1CCC[C@@]1(C(=O)NCCCCCCNC(=O)c1ccc(-c2c3nc(c(-c4c(F)c(F)c(F)c(F)c4F)c4ccc([nH]4)c(-c4c(F)c(F)c(F)c(F)c4F)c4nc(c(-c5c(F)c(F)c(F)c(F)c5F)c5ccc2[nH]5)C=C4)C=C3)cc1)S(=O)(=O)c1cc(F)ccc1F
REMARK SMILES IDX 12 1 11 2 10 3 9 4 7 5 8 6 6 8 1 9 2 10 3 11 4 12 5 13 82 14
REMARK SMILES IDX 83 15 84 16 85 17 86 18 91 19 87 20 90 21 92 22 88 23 89 24
REMARK SMILES IDX 13 25 14 26 15 27 16 28 17 29 18 31 19 32 20 33 81 34 21 35
REMARK SMILES IDX 80 36 22 37 23 38 24 39 74 40 25 41 79 42 73 43 75 44 26 45
REMARK SMILES IDX 78 46 72 47 71 48 27 50 59 51 39 52 58 53 40 54 43 55 57 56
REMARK SMILES IDX 76 57 41 58 42 59 56 61 77 62 44 63 28 64 29 65 37 66 30 67
REMARK SMILES IDX 31 68 35 69 38 70 32 71 33 72 36 73 34 74 60 75 61 76 69 77
REMARK SMILES IDX 62 78 63 79 67 80 70 81 64 82 65 83 68 84 66 85 45 86 46 87
REMARK SMILES IDX 54 88 47 89 48 90 52 91 55 92 49 93 50 94 53 95 51 96
REMARK H PARENT 9 7 16 30 75 49 43 60
REMARK Flexibility Score: inf
ROOT
ATOM      1  C   UNL A   1      32.358  29.819  26.856  1.00  0.00     0.002 C 
ENDROOT
BRANCH   1   2
ATOM      2  C   UNL A   1      31.653  28.527  27.278  1.00  0.00     0.021 C 
BRANCH   2   3
ATOM      3  C   UNL A   1      32.233  27.268  26.658  1.00  0.00     0.116 C 
BRANCH   3   4
ATOM      4  N   UNL A   1      31.437  26.088  26.876  1.00  0.00    -0.355 N 
ATOM      5  C   UNL A   1      31.684  24.787  26.561  1.00  0.00     0.242 C 
ATOM      6  O   UNL A   1      31.015  23.975  27.209  1.00  0.00    -0.273 OA
ATOM      7  H   UNL A   1      30.576  26.248  27.325  1.00  0.00     0.163 HD
BRANCH   5   8
ATOM      8  C   UNL A   1      32.631  24.339  25.447  1.00  0.00     0.157 C 
ATOM      9  C   UNL A   1      32.644  21.623  25.547  1.00  0.00     0.010 C 
ATOM     10  C   UNL A   1      33.331  22.967  25.745  1.00  0.00     0.017 C 
ATOM     11  C   UNL A   1      34.639  23.007  24.948  1.00  0.00     0.005 C 
ATOM     12  C   UNL A   1      35.093  24.452  24.993  1.00  0.00     0.003 C 
ATOM     13  C   UNL A   1      33.916  25.247  25.555  1.00  0.00     0.034 C 
BRANCH   8  14
ATOM     14  S   UNL A   1      31.946  24.570  23.773  1.00  0.00     0.196 S 
ATOM     15  O   UNL A   1      32.922  24.208  22.763  1.00  0.00    -0.222 OA
ATOM     16  O   UNL A   1      30.655  23.896  23.729  1.00  0.00    -0.222 OA
BRANCH  14  17
ATOM     17  C   UNL A   1      31.564  26.268  23.424  1.00  0.00     0.107 A 
ATOM     18  C   UNL A   1      30.245  26.726  23.555  1.00  0.00     0.062 A 
ATOM     19  C   UNL A   1      32.553  27.134  22.972  1.00  0.00     0.142 A 
ATOM     20  C   UNL A   1      29.962  28.068  23.316  1.00  0.00     0.124 A 
ATOM     21  C   UNL A   1      32.263  28.483  22.751  1.00  0.00     0.043 A 
ATOM     22  F   UNL A   1      33.806  26.712  22.782  1.00  0.00    -0.206 F 
ATOM     23  F   UNL A   1      28.716  28.521  23.501  1.00  0.00    -0.207 F 
ATOM     24  C   UNL A   1      30.963  28.957  22.937  1.00  0.00     0.042 A 
ENDBRANCH  14  17
ENDBRANCH   8  14
ENDBRANCH   5   8
ENDBRANCH   3   4
ENDBRANCH   2   3
ENDBRANCH   1   2
BRANCH   1  25
ATOM     25  C   UNL A   1      31.526  30.808  26.028  1.00  0.00     0.002 C 
BRANCH  25  26
ATOM     26  C   UNL A   1      31.342  32.203  26.629  1.00  0.00     0.021 C 
BRANCH  26  27
ATOM     27  C   UNL A   1      32.591  32.819  27.241  1.00  0.00     0.116 C 
BRANCH  27  28
ATOM     28  N   UNL A   1      32.393  34.203  27.626  1.00  0.00    -0.352 N 
ATOM     29  C   UNL A   1      33.001  34.922  28.620  1.00  0.00     0.251 C 
ATOM     30  H   UNL A   1      31.727  34.697  27.096  1.00  0.00     0.163 HD
ATOM     31  O   UNL A   1      32.581  36.034  28.927  1.00  0.00    -0.269 OA
BRANCH  29  32
ATOM     32  C   UNL A   1      34.155  34.346  29.337  1.00  0.00     0.039 A 
ATOM     33  C   UNL A   1      33.926  33.595  30.491  1.00  0.00     0.014 A 
ATOM     34  C   UNL A   1      35.458  34.552  28.874  1.00  0.00     0.014 A 
ATOM     35  C   UNL A   1      35.002  33.009  31.156  1.00  0.00     0.010 A 
ATOM     36  C   UNL A   1      36.520  33.902  29.491  1.00  0.00     0.010 A 
ATOM     37  C   UNL A   1      36.304  33.138  30.647  1.00  0.00    -0.014 A 
BRANCH  37  38
ATOM     38  C   UNL A   1      37.460  32.502  31.324  1.00  0.00     0.031 A 
ATOM     39  C   UNL A   1      38.201  31.384  30.647  1.00  0.00     0.074 A 
ATOM     40  C   UNL A   1      37.803  32.893  32.566  1.00  0.00     0.049 A 
ATOM     41  N   UNL A   1      39.190  30.653  31.095  1.00  0.00    -0.248 NA
ATOM     42  C   UNL A   1      37.750  31.018  29.295  1.00  0.00     0.031 C 
ATOM     43  C   UNL A   1      37.131  33.939  33.339  1.00  0.00     0.029 A 
ATOM     44  N   UNL A   1      38.797  32.449  33.400  1.00  0.00    -0.354 N 
ATOM     45  C   UNL A   1      39.467  29.737  30.090  1.00  0.00     0.074 A 
ATOM     46  C   UNL A   1      38.502  29.960  29.035  1.00  0.00     0.031 C 
ATOM     47  C   UNL A   1      37.750  34.075  34.523  1.00  0.00     0.029 A 
ATOM     48  C   UNL A   1      38.832  33.101  34.609  1.00  0.00     0.049 A 
ATOM     49  H   UNL A   1      39.425  31.731  33.156  1.00  0.00     0.167 HD
ATOM     50  C   UNL A   1      40.454  28.811  30.039  1.00  0.00     0.037 A 
ATOM     51  C   UNL A   1      39.646  32.924  35.667  1.00  0.00     0.037 A 
ATOM     52  C   UNL A   1      41.421  28.608  31.084  1.00  0.00     0.049 A 
ATOM     53  C   UNL A   1      40.722  31.875  35.593  1.00  0.00     0.074 A 
ATOM     54  C   UNL A   1      42.491  27.732  31.114  1.00  0.00     0.029 A 
ATOM     55  N   UNL A   1      41.431  29.293  32.292  1.00  0.00    -0.354 N 
ATOM     56  N   UNL A   1      41.016  31.057  34.613  1.00  0.00    -0.248 NA
ATOM     57  C   UNL A   1      41.584  31.731  36.774  1.00  0.00     0.031 C 
ATOM     58  C   UNL A   1      43.119  27.852  32.359  1.00  0.00     0.029 A 
ATOM     59  C   UNL A   1      42.476  28.844  33.083  1.00  0.00     0.049 A 
ATOM     60  H   UNL A   1      40.790  29.995  32.548  1.00  0.00     0.167 HD
ATOM     61  C   UNL A   1      42.114  30.323  35.044  1.00  0.00     0.074 A 
ATOM     62  C   UNL A   1      42.440  30.804  36.370  1.00  0.00     0.031 C 
ATOM     63  C   UNL A   1      42.791  29.341  34.398  1.00  0.00     0.037 A 
BRANCH  50  64
ATOM     64  C   UNL A   1      40.530  27.949  28.809  1.00  0.00     0.064 A 
ATOM     65  C   UNL A   1      39.834  26.733  28.718  1.00  0.00     0.173 A 
ATOM     66  C   UNL A   1      41.296  28.349  27.705  1.00  0.00     0.173 A 
ATOM     67  F   UNL A   1      39.096  26.297  29.750  1.00  0.00    -0.203 F 
ATOM     68  C   UNL A   1      39.935  25.932  27.584  1.00  0.00     0.198 A 
ATOM     69  C   UNL A   1      41.367  27.561  26.559  1.00  0.00     0.198 A 
ATOM     70  F   UNL A   1      41.978  29.503  27.735  1.00  0.00    -0.203 F 
ATOM     71  F   UNL A   1      39.313  24.746  27.545  1.00  0.00    -0.200 F 
ATOM     72  C   UNL A   1      40.696  26.349  26.502  1.00  0.00     0.200 A 
ATOM     73  F   UNL A   1      42.093  27.973  25.509  1.00  0.00    -0.200 F 
ATOM     74  F   UNL A   1      40.792  25.579  25.410  1.00  0.00    -0.200 F 
ENDBRANCH  50  64
BRANCH  51  75
ATOM     75  C   UNL A   1      39.495  33.784  36.868  1.00  0.00     0.064 A 
ATOM     76  C   UNL A   1      40.125  35.035  36.939  1.00  0.00     0.173 A 
ATOM     77  C   UNL A   1      38.719  33.383  37.966  1.00  0.00     0.173 A 
ATOM     78  F   UNL A   1      40.892  35.457  35.922  1.00  0.00    -0.203 F 
ATOM     79  C   UNL A   1      40.000  35.843  38.068  1.00  0.00     0.198 A 
ATOM     80  C   UNL A   1      38.572  34.203  39.082  1.00  0.00     0.198 A 
ATOM     81  F   UNL A   1      38.092  32.198  37.947  1.00  0.00    -0.203 F 
ATOM     82  F   UNL A   1      40.648  37.015  38.125  1.00  0.00    -0.200 F 
ATOM     83  C   UNL A   1      39.219  35.429  39.136  1.00  0.00     0.200 A 
ATOM     84  F   UNL A   1      37.805  33.807  40.107  1.00  0.00    -0.200 F 
ATOM     85  F   UNL A   1      39.095  36.208  40.219  1.00  0.00    -0.200 F 
ENDBRANCH  51  75
BRANCH  63  86
ATOM     86  C   UNL A   1      43.980  28.751  35.100  1.00  0.00     0.064 A 
ATOM     87  C   UNL A   1      45.262  29.308  34.978  1.00  0.00     0.173 A 
ATOM     88  C   UNL A   1      43.824  27.638  35.940  1.00  0.00     0.173 A 
ATOM     89  F   UNL A   1      45.466  30.363  34.175  1.00  0.00    -0.203 F 
ATOM     90  C   UNL A   1      46.347  28.754  35.650  1.00  0.00     0.198 A 
ATOM     91  C   UNL A   1      44.906  27.108  36.635  1.00  0.00     0.198 A 
ATOM     92  F   UNL A   1      42.617  27.073  36.096  1.00  0.00    -0.203 F 
ATOM     93  F   UNL A   1      47.573  29.271  35.479  1.00  0.00    -0.200 F 
ATOM     94  C   UNL A   1      46.168  27.661  36.484  1.00  0.00     0.200 A 
ATOM     95  F   UNL A   1      44.727  26.062  37.453  1.00  0.00    -0.200 F 
ATOM     96  F   UNL A   1      47.213  27.136  37.137  1.00  0.00    -0.200 F 
ENDBRANCH  63  86
ENDBRANCH  37  38
ENDBRANCH  29  32
ENDBRANCH  27  28
ENDBRANCH  26  27
ENDBRANCH  25  26
ENDBRANCH   1  25
TORSDOF 15
ENDMDL
