MODEL 1
REMARK VINA RESULT:     -11.5      0.000      0.000
REMARK SMILES Nn1c(Cc2ccc(F)c(F)c2)nnc1SCC(=O)NCCCCCCNC(=O)c1ccc(-c2c3nc(c(-c4c(F)c(F)c(F)c(F)c4F)c4ccc([nH]4)c(-c4c(F)c(F)c(F)c(F)c4F)c4nc(c(-c5c(F)c(F)c(F)c(F)c5F)c5ccc2[nH]5)C=C4)C=C3)cc1
REMARK SMILES IDX 22 1 21 2 20 3 18 4 19 5 17 7 16 8 15 9 2 10 3 11 13 12
REMARK SMILES IDX 14 13 1 14 4 17 5 18 6 19 12 20 7 21 10 22 8 23 11 24 9 25
REMARK SMILES IDX 23 26 24 27 25 28 26 29 27 30 28 31 29 33 30 34 31 35 92 36
REMARK SMILES IDX 32 37 91 38 33 39 34 40 35 41 85 42 36 43 90 44 84 45 86 46
REMARK SMILES IDX 37 47 89 48 83 49 82 50 38 52 70 53 50 54 69 55 51 56 54 57
REMARK SMILES IDX 68 58 87 59 52 60 53 61 67 63 88 64 55 65 39 66 40 67 48 68
REMARK SMILES IDX 41 69 42 70 46 71 49 72 43 73 44 74 47 75 45 76 71 77 72 78
REMARK SMILES IDX 80 79 73 80 74 81 78 82 81 83 75 84 76 85 79 86 77 87 56 88
REMARK SMILES IDX 57 89 65 90 58 91 59 92 63 93 66 94 60 95 61 96 64 97 62 98
REMARK H PARENT 20 6 1 15 1 16 27 32 86 51 54 62
REMARK Flexibility Score: inf
ROOT
ATOM      1  C   UNL A   1      37.087  23.269  25.105  1.00  0.00     0.021 C 
ENDROOT
BRANCH   1   2
ATOM      2  C   UNL A   1      35.680  23.662  25.559  1.00  0.00     0.116 C 
BRANCH   2   3
ATOM      3  N   UNL A   1      34.783  23.738  24.422  1.00  0.00    -0.355 N 
ATOM      4  C   UNL A   1      34.068  22.751  23.822  1.00  0.00     0.230 C 
ATOM      5  O   UNL A   1      33.551  22.993  22.726  1.00  0.00    -0.274 OA
ATOM      6  H   UNL A   1      34.678  24.633  24.028  1.00  0.00     0.163 HD
BRANCH   4   7
ATOM      7  C   UNL A   1      33.855  21.414  24.498  1.00  0.00     0.178 C 
BRANCH   7   8
ATOM      8  S   UNL A   1      32.197  21.112  25.117  1.00  0.00    -0.074 SA
BRANCH   8   9
ATOM      9  C   UNL A   1      31.611  22.583  25.803  1.00  0.00     0.210 A 
ATOM     10  N   UNL A   1      30.992  23.635  25.159  1.00  0.00    -0.221 N 
ATOM     11  C   UNL A   1      30.877  24.627  26.113  1.00  0.00     0.157 A 
ATOM     12  N   UNL A   1      31.387  24.186  27.250  1.00  0.00    -0.132 NA
ATOM     13  N   UNL A   1      31.838  22.909  27.056  1.00  0.00    -0.121 NA
BRANCH  10  14
ATOM     14  N   UNL A   1      30.573  23.699  23.788  1.00  0.00    -0.336 N 
ATOM     15  H   UNL A   1      29.878  23.084  23.457  1.00  0.00     0.178 HD
ATOM     16  H   UNL A   1      30.979  24.356  23.179  1.00  0.00     0.178 HD
ENDBRANCH  10  14
BRANCH  11  17
ATOM     17  C   UNL A   1      30.343  26.001  25.873  1.00  0.00     0.115 C 
BRANCH  17  18
ATOM     18  C   UNL A   1      31.375  27.101  26.039  1.00  0.00    -0.037 A 
ATOM     19  C   UNL A   1      31.402  27.891  27.203  1.00  0.00     0.007 A 
ATOM     20  C   UNL A   1      32.328  27.343  25.038  1.00  0.00     0.046 A 
ATOM     21  C   UNL A   1      32.346  28.910  27.356  1.00  0.00     0.043 A 
ATOM     22  C   UNL A   1      33.271  28.355  25.202  1.00  0.00     0.159 A 
ATOM     23  C   UNL A   1      33.278  29.135  26.351  1.00  0.00     0.158 A 
ATOM     24  F   UNL A   1      34.177  28.567  24.237  1.00  0.00    -0.204 F 
ATOM     25  F   UNL A   1      34.186  30.110  26.501  1.00  0.00    -0.204 F 
ENDBRANCH  17  18
ENDBRANCH  11  17
ENDBRANCH   8   9
ENDBRANCH   7   8
ENDBRANCH   4   7
ENDBRANCH   2   3
ENDBRANCH   1   2
BRANCH   1  26
ATOM     26  C   UNL A   1      37.602  21.952  25.705  1.00  0.00     0.002 C 
BRANCH  26  27
ATOM     27  C   UNL A   1      37.359  20.703  24.850  1.00  0.00     0.002 C 
BRANCH  27  28
ATOM     28  C   UNL A   1      38.410  19.602  25.001  1.00  0.00     0.021 C 
BRANCH  28  29
ATOM     29  C   UNL A   1      39.413  19.833  26.126  1.00  0.00     0.116 C 
BRANCH  29  30
ATOM     30  N   UNL A   1      40.531  18.906  26.065  1.00  0.00    -0.352 N 
ATOM     31  C   UNL A   1      41.877  19.170  26.056  1.00  0.00     0.251 C 
ATOM     32  H   UNL A   1      40.288  17.952  26.024  1.00  0.00     0.163 HD
ATOM     33  O   UNL A   1      42.683  18.273  25.812  1.00  0.00    -0.269 OA
BRANCH  31  34
ATOM     34  C   UNL A   1      42.364  20.540  26.318  1.00  0.00     0.039 A 
ATOM     35  C   UNL A   1      42.662  21.370  25.234  1.00  0.00     0.014 A 
ATOM     36  C   UNL A   1      42.529  21.007  27.625  1.00  0.00     0.014 A 
ATOM     37  C   UNL A   1      43.069  22.686  25.462  1.00  0.00     0.010 A 
ATOM     38  C   UNL A   1      42.860  22.340  27.849  1.00  0.00     0.010 A 
ATOM     39  C   UNL A   1      43.137  23.193  26.770  1.00  0.00    -0.014 A 
BRANCH  39  40
ATOM     40  C   UNL A   1      43.496  24.610  27.028  1.00  0.00     0.031 A 
ATOM     41  C   UNL A   1      44.896  25.095  26.769  1.00  0.00     0.074 A 
ATOM     42  C   UNL A   1      42.577  25.447  27.546  1.00  0.00     0.049 A 
ATOM     43  N   UNL A   1      45.415  26.276  26.993  1.00  0.00    -0.248 NA
ATOM     44  C   UNL A   1      45.842  24.119  26.207  1.00  0.00     0.031 C 
ATOM     45  C   UNL A   1      41.198  25.084  27.876  1.00  0.00     0.029 A 
ATOM     46  N   UNL A   1      42.663  26.773  27.893  1.00  0.00    -0.354 N 
ATOM     47  C   UNL A   1      46.746  26.180  26.609  1.00  0.00     0.074 A 
ATOM     48  C   UNL A   1      46.971  24.813  26.192  1.00  0.00     0.031 C 
ATOM     49  C   UNL A   1      40.560  26.166  28.349  1.00  0.00     0.029 A 
ATOM     50  C   UNL A   1      41.493  27.288  28.397  1.00  0.00     0.049 A 
ATOM     51  H   UNL A   1      43.485  27.304  27.791  1.00  0.00     0.167 HD
ATOM     52  C   UNL A   1      47.688  27.153  26.583  1.00  0.00     0.037 A 
ATOM     53  C   UNL A   1      41.206  28.523  28.852  1.00  0.00     0.037 A 
ATOM     54  C   UNL A   1      47.451  28.518  26.973  1.00  0.00     0.049 A 
ATOM     55  C   UNL A   1      42.275  29.581  28.831  1.00  0.00     0.074 A 
ATOM     56  C   UNL A   1      48.326  29.589  26.927  1.00  0.00     0.029 A 
ATOM     57  N   UNL A   1      46.253  29.000  27.480  1.00  0.00    -0.354 N 
ATOM     58  N   UNL A   1      43.515  29.494  28.412  1.00  0.00    -0.248 NA
ATOM     59  C   UNL A   1      41.908  30.909  29.343  1.00  0.00     0.031 C 
ATOM     60  C   UNL A   1      47.676  30.707  27.456  1.00  0.00     0.029 A 
ATOM     61  C   UNL A   1      46.377  30.348  27.778  1.00  0.00     0.049 A 
ATOM     62  H   UNL A   1      45.437  28.464  27.611  1.00  0.00     0.167 HD
ATOM     63  C   UNL A   1      44.067  30.754  28.588  1.00  0.00     0.074 A 
ATOM     64  C   UNL A   1      43.024  31.596  29.136  1.00  0.00     0.031 C 
ATOM     65  C   UNL A   1      45.328  31.175  28.319  1.00  0.00     0.037 A 
BRANCH  52  66
ATOM     66  C   UNL A   1      49.062  26.789  26.100  1.00  0.00     0.064 A 
ATOM     67  C   UNL A   1      50.027  26.305  26.997  1.00  0.00     0.173 A 
ATOM     68  C   UNL A   1      49.449  26.991  24.767  1.00  0.00     0.173 A 
ATOM     69  F   UNL A   1      49.713  26.099  28.285  1.00  0.00    -0.203 F 
ATOM     70  C   UNL A   1      51.331  26.052  26.579  1.00  0.00     0.198 A 
ATOM     71  C   UNL A   1      50.746  26.708  24.345  1.00  0.00     0.198 A 
ATOM     72  F   UNL A   1      48.562  27.443  23.867  1.00  0.00    -0.203 F 
ATOM     73  F   UNL A   1      52.246  25.626  27.461  1.00  0.00    -0.200 F 
ATOM     74  C   UNL A   1      51.688  26.250  25.254  1.00  0.00     0.200 A 
ATOM     75  F   UNL A   1      51.082  26.876  23.059  1.00  0.00    -0.200 F 
ATOM     76  F   UNL A   1      52.942  25.999  24.851  1.00  0.00    -0.200 F 
ENDBRANCH  52  66
BRANCH  53  77
ATOM     77  C   UNL A   1      39.833  28.826  29.335  1.00  0.00     0.064 A 
ATOM     78  C   UNL A   1      39.459  28.607  30.669  1.00  0.00     0.173 A 
ATOM     79  C   UNL A   1      38.854  29.309  28.455  1.00  0.00     0.173 A 
ATOM     80  F   UNL A   1      40.357  28.141  31.551  1.00  0.00    -0.203 F 
ATOM     81  C   UNL A   1      38.155  28.837  31.099  1.00  0.00     0.198 A 
ATOM     82  C   UNL A   1      37.556  29.566  28.893  1.00  0.00     0.198 A 
ATOM     83  F   UNL A   1      39.167  29.554  27.174  1.00  0.00    -0.203 F 
ATOM     84  F   UNL A   1      37.814  28.581  32.370  1.00  0.00    -0.200 F 
ATOM     85  C   UNL A   1      37.204  29.320  30.212  1.00  0.00     0.200 A 
ATOM     86  F   UNL A   1      36.648  30.056  28.038  1.00  0.00    -0.200 F 
ATOM     87  F   UNL A   1      35.951  29.550  30.627  1.00  0.00    -0.200 F 
ENDBRANCH  53  77
BRANCH  65  88
ATOM     88  C   UNL A   1      45.661  32.612  28.597  1.00  0.00     0.064 A 
ATOM     89  C   UNL A   1      45.482  33.588  27.603  1.00  0.00     0.173 A 
ATOM     90  C   UNL A   1      46.242  33.009  29.809  1.00  0.00     0.173 A 
ATOM     91  F   UNL A   1      44.938  33.258  26.421  1.00  0.00    -0.203 F 
ATOM     92  C   UNL A   1      45.893  34.902  27.806  1.00  0.00     0.198 A 
ATOM     93  C   UNL A   1      46.624  34.331  30.020  1.00  0.00     0.198 A 
ATOM     94  F   UNL A   1      46.423  32.118  30.795  1.00  0.00    -0.203 F 
ATOM     95  F   UNL A   1      45.752  35.806  26.827  1.00  0.00    -0.200 F 
ATOM     96  C   UNL A   1      46.461  35.273  29.015  1.00  0.00     0.200 A 
ATOM     97  F   UNL A   1      47.151  34.694  31.198  1.00  0.00    -0.200 F 
ATOM     98  F   UNL A   1      46.851  36.540  29.213  1.00  0.00    -0.200 F 
ENDBRANCH  65  88
ENDBRANCH  39  40
ENDBRANCH  31  34
ENDBRANCH  29  30
ENDBRANCH  28  29
ENDBRANCH  27  28
ENDBRANCH  26  27
ENDBRANCH   1  26
TORSDOF 18
ENDMDL
MODEL 2
REMARK VINA RESULT:     -11.3      1.337      7.431
REMARK SMILES Nn1c(Cc2ccc(F)c(F)c2)nnc1SCC(=O)NCCCCCCNC(=O)c1ccc(-c2c3nc(c(-c4c(F)c(F)c(F)c(F)c4F)c4ccc([nH]4)c(-c4c(F)c(F)c(F)c(F)c4F)c4nc(c(-c5c(F)c(F)c(F)c(F)c5F)c5ccc2[nH]5)C=C4)C=C3)cc1
REMARK SMILES IDX 22 1 21 2 20 3 18 4 19 5 17 7 16 8 15 9 2 10 3 11 13 12
REMARK SMILES IDX 14 13 1 14 4 17 5 18 6 19 12 20 7 21 10 22 8 23 11 24 9 25
REMARK SMILES IDX 23 26 24 27 25 28 26 29 27 30 28 31 29 33 30 34 31 35 92 36
REMARK SMILES IDX 32 37 91 38 33 39 34 40 35 41 85 42 36 43 90 44 84 45 86 46
REMARK SMILES IDX 37 47 89 48 83 49 82 50 38 52 70 53 50 54 69 55 51 56 54 57
REMARK SMILES IDX 68 58 87 59 52 60 53 61 67 63 88 64 55 65 39 66 40 67 48 68
REMARK SMILES IDX 41 69 42 70 46 71 49 72 43 73 44 74 47 75 45 76 71 77 72 78
REMARK SMILES IDX 80 79 73 80 74 81 78 82 81 83 75 84 76 85 79 86 77 87 56 88
REMARK SMILES IDX 57 89 65 90 58 91 59 92 63 93 66 94 60 95 61 96 64 97 62 98
REMARK H PARENT 20 6 1 15 1 16 27 32 86 51 54 62
REMARK Flexibility Score: inf
ROOT
ATOM      1  C   UNL A   1      37.773  23.670  26.102  1.00  0.00     0.021 C 
ENDROOT
BRANCH   1   2
ATOM      2  C   UNL A   1      36.282  23.532  25.787  1.00  0.00     0.116 C 
BRANCH   2   3
ATOM      3  N   UNL A   1      35.632  22.692  26.774  1.00  0.00    -0.355 N 
ATOM      4  C   UNL A   1      34.511  21.933  26.654  1.00  0.00     0.230 C 
ATOM      5  O   UNL A   1      34.004  21.482  27.687  1.00  0.00    -0.274 OA
ATOM      6  H   UNL A   1      36.064  22.669  27.658  1.00  0.00     0.163 HD
BRANCH   4   7
ATOM      7  C   UNL A   1      33.934  21.594  25.298  1.00  0.00     0.178 C 
BRANCH   7   8
ATOM      8  S   UNL A   1      32.169  21.271  25.263  1.00  0.00    -0.074 SA
BRANCH   8   9
ATOM      9  C   UNL A   1      31.355  22.718  25.736  1.00  0.00     0.210 A 
ATOM     10  N   UNL A   1      30.955  23.769  24.938  1.00  0.00    -0.221 N 
ATOM     11  C   UNL A   1      30.511  24.742  25.814  1.00  0.00     0.157 A 
ATOM     12  N   UNL A   1      30.634  24.290  27.050  1.00  0.00    -0.132 NA
ATOM     13  N   UNL A   1      31.155  23.026  26.999  1.00  0.00    -0.121 NA
BRANCH  10  14
ATOM     14  N   UNL A   1      31.003  23.851  23.507  1.00  0.00    -0.336 N 
ATOM     15  H   UNL A   1      30.597  24.619  23.044  1.00  0.00     0.178 HD
ATOM     16  H   UNL A   1      31.441  23.139  22.987  1.00  0.00     0.178 HD
ENDBRANCH  10  14
BRANCH  11  17
ATOM     17  C   UNL A   1      30.051  26.110  25.428  1.00  0.00     0.115 C 
BRANCH  17  18
ATOM     18  C   UNL A   1      31.069  27.201  25.703  1.00  0.00    -0.037 A 
ATOM     19  C   UNL A   1      31.356  27.600  27.022  1.00  0.00     0.007 A 
ATOM     20  C   UNL A   1      31.748  27.827  24.647  1.00  0.00     0.046 A 
ATOM     21  C   UNL A   1      32.286  28.611  27.279  1.00  0.00     0.043 A 
ATOM     22  C   UNL A   1      32.681  28.828  24.912  1.00  0.00     0.159 A 
ATOM     23  C   UNL A   1      32.945  29.219  26.218  1.00  0.00     0.158 A 
ATOM     24  F   UNL A   1      33.323  29.410  23.890  1.00  0.00    -0.204 F 
ATOM     25  F   UNL A   1      33.840  30.186  26.466  1.00  0.00    -0.204 F 
ENDBRANCH  17  18
ENDBRANCH  11  17
ENDBRANCH   8   9
ENDBRANCH   7   8
ENDBRANCH   4   7
ENDBRANCH   2   3
ENDBRANCH   1   2
BRANCH   1  26
ATOM     26  C   UNL A   1      38.582  22.377  25.918  1.00  0.00     0.002 C 
BRANCH  26  27
ATOM     27  C   UNL A   1      37.967  21.349  24.962  1.00  0.00     0.002 C 
BRANCH  27  28
ATOM     28  C   UNL A   1      38.635  19.974  24.975  1.00  0.00     0.021 C 
BRANCH  28  29
ATOM     29  C   UNL A   1      39.439  19.671  26.235  1.00  0.00     0.116 C 
BRANCH  29  30
ATOM     30  N   UNL A   1      40.686  18.984  25.940  1.00  0.00    -0.352 N 
ATOM     31  C   UNL A   1      41.961  19.486  25.886  1.00  0.00     0.251 C 
ATOM     32  H   UNL A   1      40.603  18.020  25.753  1.00  0.00     0.163 HD
ATOM     33  O   UNL A   1      42.879  18.800  25.438  1.00  0.00    -0.269 OA
BRANCH  31  34
ATOM     34  C   UNL A   1      42.234  20.863  26.345  1.00  0.00     0.039 A 
ATOM     35  C   UNL A   1      42.351  21.108  27.716  1.00  0.00     0.014 A 
ATOM     36  C   UNL A   1      42.371  21.912  25.431  1.00  0.00     0.014 A 
ATOM     37  C   UNL A   1      42.664  22.393  28.165  1.00  0.00     0.010 A 
ATOM     38  C   UNL A   1      42.758  23.173  25.875  1.00  0.00     0.010 A 
ATOM     39  C   UNL A   1      42.905  23.428  27.247  1.00  0.00    -0.014 A 
BRANCH  39  40
ATOM     40  C   UNL A   1      43.311  24.781  27.703  1.00  0.00     0.031 A 
ATOM     41  C   UNL A   1      42.268  25.811  28.039  1.00  0.00     0.074 A 
ATOM     42  C   UNL A   1      44.619  25.100  27.761  1.00  0.00     0.049 A 
ATOM     43  N   UNL A   1      42.426  27.062  28.390  1.00  0.00    -0.248 NA
ATOM     44  C   UNL A   1      40.863  25.386  27.945  1.00  0.00     0.031 C 
ATOM     45  C   UNL A   1      45.721  24.200  27.423  1.00  0.00     0.029 A 
ATOM     46  N   UNL A   1      45.242  26.270  28.120  1.00  0.00    -0.354 N 
ATOM     47  C   UNL A   1      41.145  27.573  28.550  1.00  0.00     0.074 A 
ATOM     48  C   UNL A   1      40.220  26.516  28.202  1.00  0.00     0.031 C 
ATOM     49  C   UNL A   1      46.886  24.839  27.619  1.00  0.00     0.029 A 
ATOM     50  C   UNL A   1      46.613  26.206  28.053  1.00  0.00     0.049 A 
ATOM     51  H   UNL A   1      44.754  27.078  28.398  1.00  0.00     0.167 HD
ATOM     52  C   UNL A   1      40.776  28.805  28.973  1.00  0.00     0.037 A 
ATOM     53  C   UNL A   1      47.546  27.144  28.308  1.00  0.00     0.037 A 
ATOM     54  C   UNL A   1      41.700  29.843  29.344  1.00  0.00     0.049 A 
ATOM     55  C   UNL A   1      47.109  28.511  28.758  1.00  0.00     0.074 A 
ATOM     56  C   UNL A   1      41.422  31.105  29.839  1.00  0.00     0.029 A 
ATOM     57  N   UNL A   1      43.081  29.741  29.260  1.00  0.00    -0.354 N 
ATOM     58  N   UNL A   1      45.896  28.965  28.960  1.00  0.00    -0.248 NA
ATOM     59  C   UNL A   1      48.168  29.497  29.018  1.00  0.00     0.031 C 
ATOM     60  C   UNL A   1      42.632  31.785  30.005  1.00  0.00     0.029 A 
ATOM     61  C   UNL A   1      43.667  30.928  29.669  1.00  0.00     0.049 A 
ATOM     62  H   UNL A   1      43.572  28.943  28.955  1.00  0.00     0.167 HD
ATOM     63  C   UNL A   1      46.044  30.276  29.390  1.00  0.00     0.074 A 
ATOM     64  C   UNL A   1      47.467  30.542  29.437  1.00  0.00     0.031 C 
ATOM     65  C   UNL A   1      45.086  31.178  29.715  1.00  0.00     0.037 A 
BRANCH  52  66
ATOM     66  C   UNL A   1      39.307  29.101  29.078  1.00  0.00     0.064 A 
ATOM     67  C   UNL A   1      38.578  29.497  27.947  1.00  0.00     0.173 A 
ATOM     68  C   UNL A   1      38.639  29.070  30.311  1.00  0.00     0.173 A 
ATOM     69  F   UNL A   1      39.169  29.551  26.744  1.00  0.00    -0.203 F 
ATOM     70  C   UNL A   1      37.238  29.864  28.050  1.00  0.00     0.198 A 
ATOM     71  C   UNL A   1      37.291  29.407  30.406  1.00  0.00     0.198 A 
ATOM     72  F   UNL A   1      39.288  28.689  31.422  1.00  0.00    -0.203 F 
ATOM     73  F   UNL A   1      36.571  30.275  26.962  1.00  0.00    -0.200 F 
ATOM     74  C   UNL A   1      36.596  29.815  29.277  1.00  0.00     0.200 A 
ATOM     75  F   UNL A   1      36.666  29.335  31.589  1.00  0.00    -0.200 F 
ATOM     76  F   UNL A   1      35.304  30.161  29.374  1.00  0.00    -0.200 F 
ENDBRANCH  52  66
BRANCH  53  77
ATOM     77  C   UNL A   1      48.986  26.803  28.172  1.00  0.00     0.064 A 
ATOM     78  C   UNL A   1      49.637  26.847  26.930  1.00  0.00     0.173 A 
ATOM     79  C   UNL A   1      49.733  26.388  29.283  1.00  0.00     0.173 A 
ATOM     80  F   UNL A   1      48.966  27.233  25.833  1.00  0.00    -0.203 F 
ATOM     81  C   UNL A   1      50.971  26.468  26.801  1.00  0.00     0.198 A 
ATOM     82  C   UNL A   1      51.076  26.035  29.159  1.00  0.00     0.198 A 
ATOM     83  F   UNL A   1      49.162  26.347  30.496  1.00  0.00    -0.203 F 
ATOM     84  F   UNL A   1      51.557  26.482  25.595  1.00  0.00    -0.200 F 
ATOM     85  C   UNL A   1      51.691  26.066  27.916  1.00  0.00     0.200 A 
ATOM     86  F   UNL A   1      51.774  25.672  30.243  1.00  0.00    -0.200 F 
ATOM     87  F   UNL A   1      52.977  25.710  27.794  1.00  0.00    -0.200 F 
ENDBRANCH  53  77
BRANCH  65  88
ATOM     88  C   UNL A   1      45.530  32.539  30.166  1.00  0.00     0.064 A 
ATOM     89  C   UNL A   1      45.726  32.807  31.531  1.00  0.00     0.173 A 
ATOM     90  C   UNL A   1      45.670  33.602  29.262  1.00  0.00     0.173 A 
ATOM     91  F   UNL A   1      45.595  31.827  32.438  1.00  0.00    -0.203 F 
ATOM     92  C   UNL A   1      46.024  34.092  31.973  1.00  0.00     0.198 A 
ATOM     93  C   UNL A   1      45.999  34.879  29.706  1.00  0.00     0.198 A 
ATOM     94  F   UNL A   1      45.505  33.395  27.947  1.00  0.00    -0.203 F 
ATOM     95  F   UNL A   1      46.164  34.332  33.285  1.00  0.00    -0.200 F 
ATOM     96  C   UNL A   1      46.163  35.126  31.061  1.00  0.00     0.200 A 
ATOM     97  F   UNL A   1      46.157  35.874  28.821  1.00  0.00    -0.200 F 
ATOM     98  F   UNL A   1      46.457  36.363  31.487  1.00  0.00    -0.200 F 
ENDBRANCH  65  88
ENDBRANCH  39  40
ENDBRANCH  31  34
ENDBRANCH  29  30
ENDBRANCH  28  29
ENDBRANCH  27  28
ENDBRANCH  26  27
ENDBRANCH   1  26
TORSDOF 18
ENDMDL
MODEL 3
REMARK VINA RESULT:     -11.3      1.114      2.333
REMARK SMILES Nn1c(Cc2ccc(F)c(F)c2)nnc1SCC(=O)NCCCCCCNC(=O)c1ccc(-c2c3nc(c(-c4c(F)c(F)c(F)c(F)c4F)c4ccc([nH]4)c(-c4c(F)c(F)c(F)c(F)c4F)c4nc(c(-c5c(F)c(F)c(F)c(F)c5F)c5ccc2[nH]5)C=C4)C=C3)cc1
REMARK SMILES IDX 22 1 21 2 20 3 18 4 19 5 17 7 16 8 15 9 2 10 3 11 13 12
REMARK SMILES IDX 14 13 1 14 4 17 5 18 6 19 12 20 7 21 10 22 8 23 11 24 9 25
REMARK SMILES IDX 23 26 24 27 25 28 26 29 27 30 28 31 29 33 30 34 31 35 92 36
REMARK SMILES IDX 32 37 91 38 33 39 34 40 35 41 85 42 36 43 90 44 84 45 86 46
REMARK SMILES IDX 37 47 89 48 83 49 82 50 38 52 70 53 50 54 69 55 51 56 54 57
REMARK SMILES IDX 68 58 87 59 52 60 53 61 67 63 88 64 55 65 39 66 40 67 48 68
REMARK SMILES IDX 41 69 42 70 46 71 49 72 43 73 44 74 47 75 45 76 71 77 72 78
REMARK SMILES IDX 80 79 73 80 74 81 78 82 81 83 75 84 76 85 79 86 77 87 56 88
REMARK SMILES IDX 57 89 65 90 58 91 59 92 63 93 66 94 60 95 61 96 64 97 62 98
REMARK H PARENT 20 6 1 15 1 16 27 32 86 51 54 62
REMARK Flexibility Score: inf
ROOT
ATOM      1  C   UNL A   1      36.707  23.105  24.635  1.00  0.00     0.021 C 
ENDROOT
BRANCH   1   2
ATOM      2  C   UNL A   1      35.438  23.787  25.149  1.00  0.00     0.116 C 
BRANCH   2   3
ATOM      3  N   UNL A   1      34.459  23.903  24.085  1.00  0.00    -0.355 N 
ATOM      4  C   UNL A   1      33.710  22.935  23.496  1.00  0.00     0.230 C 
ATOM      5  O   UNL A   1      33.112  23.220  22.453  1.00  0.00    -0.274 OA
ATOM      6  H   UNL A   1      34.318  24.814  23.740  1.00  0.00     0.163 HD
BRANCH   4   7
ATOM      7  C   UNL A   1      33.557  21.568  24.125  1.00  0.00     0.178 C 
BRANCH   7   8
ATOM      8  S   UNL A   1      32.011  21.278  24.989  1.00  0.00    -0.074 SA
BRANCH   8   9
ATOM      9  C   UNL A   1      31.521  22.766  25.713  1.00  0.00     0.210 A 
ATOM     10  N   UNL A   1      30.902  23.842  25.112  1.00  0.00    -0.221 N 
ATOM     11  C   UNL A   1      30.882  24.833  26.074  1.00  0.00     0.157 A 
ATOM     12  N   UNL A   1      31.444  24.369  27.176  1.00  0.00    -0.132 NA
ATOM     13  N   UNL A   1      31.837  23.078  26.951  1.00  0.00    -0.121 NA
BRANCH  10  14
ATOM     14  N   UNL A   1      30.402  23.928  23.770  1.00  0.00    -0.336 N 
ATOM     15  H   UNL A   1      29.431  23.928  23.606  1.00  0.00     0.178 HD
ATOM     16  H   UNL A   1      31.029  23.986  23.013  1.00  0.00     0.178 HD
ENDBRANCH  10  14
BRANCH  11  17
ATOM     17  C   UNL A   1      30.383  26.227  25.871  1.00  0.00     0.115 C 
BRANCH  17  18
ATOM     18  C   UNL A   1      31.312  27.098  25.045  1.00  0.00    -0.037 A 
ATOM     19  C   UNL A   1      32.691  27.144  25.324  1.00  0.00     0.007 A 
ATOM     20  C   UNL A   1      30.813  27.867  23.982  1.00  0.00     0.046 A 
ATOM     21  C   UNL A   1      33.548  27.951  24.571  1.00  0.00     0.043 A 
ATOM     22  C   UNL A   1      31.675  28.662  23.231  1.00  0.00     0.159 A 
ATOM     23  C   UNL A   1      33.032  28.707  23.525  1.00  0.00     0.158 A 
ATOM     24  F   UNL A   1      31.180  29.385  22.217  1.00  0.00    -0.204 F 
ATOM     25  F   UNL A   1      33.856  29.478  22.802  1.00  0.00    -0.204 F 
ENDBRANCH  17  18
ENDBRANCH  11  17
ENDBRANCH   8   9
ENDBRANCH   7   8
ENDBRANCH   4   7
ENDBRANCH   2   3
ENDBRANCH   1   2
BRANCH   1  26
ATOM     26  C   UNL A   1      37.175  21.912  25.483  1.00  0.00     0.002 C 
BRANCH  26  27
ATOM     27  C   UNL A   1      36.951  20.533  24.854  1.00  0.00     0.002 C 
BRANCH  27  28
ATOM     28  C   UNL A   1      38.131  19.567  24.976  1.00  0.00     0.021 C 
BRANCH  28  29
ATOM     29  C   UNL A   1      39.281  20.079  25.837  1.00  0.00     0.116 C 
BRANCH  29  30
ATOM     30  N   UNL A   1      40.375  19.124  25.917  1.00  0.00    -0.352 N 
ATOM     31  C   UNL A   1      41.713  19.353  26.114  1.00  0.00     0.251 C 
ATOM     32  H   UNL A   1      40.119  18.178  25.816  1.00  0.00     0.163 HD
ATOM     33  O   UNL A   1      42.526  18.440  25.967  1.00  0.00    -0.269 OA
BRANCH  31  34
ATOM     34  C   UNL A   1      42.186  20.703  26.481  1.00  0.00     0.039 A 
ATOM     35  C   UNL A   1      42.471  21.619  25.464  1.00  0.00     0.014 A 
ATOM     36  C   UNL A   1      42.352  21.068  27.820  1.00  0.00     0.014 A 
ATOM     37  C   UNL A   1      42.865  22.917  25.793  1.00  0.00     0.010 A 
ATOM     38  C   UNL A   1      42.670  22.383  28.147  1.00  0.00     0.010 A 
ATOM     39  C   UNL A   1      42.934  23.320  27.137  1.00  0.00    -0.014 A 
BRANCH  39  40
ATOM     40  C   UNL A   1      43.279  24.717  27.504  1.00  0.00     0.031 A 
ATOM     41  C   UNL A   1      44.717  25.152  27.557  1.00  0.00     0.074 A 
ATOM     42  C   UNL A   1      42.300  25.578  27.843  1.00  0.00     0.049 A 
ATOM     43  N   UNL A   1      45.219  26.306  27.918  1.00  0.00    -0.248 NA
ATOM     44  C   UNL A   1      45.727  24.151  27.178  1.00  0.00     0.031 C 
ATOM     45  C   UNL A   1      40.872  25.263  27.867  1.00  0.00     0.029 A 
ATOM     46  N   UNL A   1      42.358  26.892  28.238  1.00  0.00    -0.354 N 
ATOM     47  C   UNL A   1      46.596  26.166  27.818  1.00  0.00     0.074 A 
ATOM     48  C   UNL A   1      46.857  24.800  27.418  1.00  0.00     0.031 C 
ATOM     49  C   UNL A   1      40.186  26.360  28.227  1.00  0.00     0.029 A 
ATOM     50  C   UNL A   1      41.126  27.443  28.501  1.00  0.00     0.049 A 
ATOM     51  H   UNL A   1      43.200  27.393  28.325  1.00  0.00     0.167 HD
ATOM     52  C   UNL A   1      47.555  27.101  28.016  1.00  0.00     0.037 A 
ATOM     53  C   UNL A   1      40.792  28.678  28.920  1.00  0.00     0.037 A 
ATOM     54  C   UNL A   1      47.289  28.466  28.387  1.00  0.00     0.049 A 
ATOM     55  C   UNL A   1      41.878  29.694  29.153  1.00  0.00     0.074 A 
ATOM     56  C   UNL A   1      48.190  29.502  28.555  1.00  0.00     0.029 A 
ATOM     57  N   UNL A   1      46.028  28.984  28.647  1.00  0.00    -0.354 N 
ATOM     58  N   UNL A   1      43.174  29.567  28.999  1.00  0.00    -0.248 NA
ATOM     59  C   UNL A   1      41.457  31.025  29.614  1.00  0.00     0.031 C 
ATOM     60  C   UNL A   1      47.482  30.634  28.969  1.00  0.00     0.029 A 
ATOM     61  C   UNL A   1      46.133  30.320  29.001  1.00  0.00     0.049 A 
ATOM     62  H   UNL A   1      45.185  28.479  28.588  1.00  0.00     0.167 HD
ATOM     63  C   UNL A   1      43.720  30.800  29.322  1.00  0.00     0.074 A 
ATOM     64  C   UNL A   1      42.614  31.671  29.665  1.00  0.00     0.031 C 
ATOM     65  C   UNL A   1      45.023  31.176  29.335  1.00  0.00     0.037 A 
BRANCH  52  66
ATOM     66  C   UNL A   1      48.987  26.693  27.821  1.00  0.00     0.064 A 
ATOM     67  C   UNL A   1      49.531  26.596  26.531  1.00  0.00     0.173 A 
ATOM     68  C   UNL A   1      49.798  26.322  28.904  1.00  0.00     0.173 A 
ATOM     69  F   UNL A   1      48.797  26.932  25.459  1.00  0.00    -0.203 F 
ATOM     70  C   UNL A   1      50.827  26.129  26.333  1.00  0.00     0.198 A 
ATOM     71  C   UNL A   1      51.105  25.885  28.705  1.00  0.00     0.198 A 
ATOM     72  F   UNL A   1      49.330  26.405  30.159  1.00  0.00    -0.203 F 
ATOM     73  F   UNL A   1      51.313  26.010  25.089  1.00  0.00    -0.200 F 
ATOM     74  C   UNL A   1      51.614  25.778  27.419  1.00  0.00     0.200 A 
ATOM     75  F   UNL A   1      51.872  25.570  29.758  1.00  0.00    -0.200 F 
ATOM     76  F   UNL A   1      52.865  25.336  27.227  1.00  0.00    -0.200 F 
ENDBRANCH  52  66
BRANCH  53  77
ATOM     77  C   UNL A   1      39.360  29.025  29.114  1.00  0.00     0.064 A 
ATOM     78  C   UNL A   1      38.565  29.483  28.052  1.00  0.00     0.173 A 
ATOM     79  C   UNL A   1      38.766  28.940  30.382  1.00  0.00     0.173 A 
ATOM     80  F   UNL A   1      39.086  29.587  26.820  1.00  0.00    -0.203 F 
ATOM     81  C   UNL A   1      37.241  29.863  28.255  1.00  0.00     0.198 A 
ATOM     82  C   UNL A   1      37.433  29.294  30.578  1.00  0.00     0.198 A 
ATOM     83  F   UNL A   1      39.479  28.490  31.426  1.00  0.00    -0.203 F 
ATOM     84  F   UNL A   1      36.517  30.334  27.231  1.00  0.00    -0.200 F 
ATOM     85  C   UNL A   1      36.674  29.765  29.517  1.00  0.00     0.200 A 
ATOM     86  F   UNL A   1      36.883  29.174  31.794  1.00  0.00    -0.200 F 
ATOM     87  F   UNL A   1      35.397  30.122  29.710  1.00  0.00    -0.200 F 
ENDBRANCH  53  77
BRANCH  65  88
ATOM     88  C   UNL A   1      45.339  32.594  29.717  1.00  0.00     0.064 A 
ATOM     89  C   UNL A   1      45.558  32.936  31.061  1.00  0.00     0.173 A 
ATOM     90  C   UNL A   1      45.331  33.627  28.769  1.00  0.00     0.173 A 
ATOM     91  F   UNL A   1      45.566  31.986  32.008  1.00  0.00    -0.203 F 
ATOM     92  C   UNL A   1      45.737  34.262  31.442  1.00  0.00     0.198 A 
ATOM     93  C   UNL A   1      45.541  34.949  29.150  1.00  0.00     0.198 A 
ATOM     94  F   UNL A   1      45.138  33.350  27.471  1.00  0.00    -0.203 F 
ATOM     95  F   UNL A   1      45.901  34.569  32.737  1.00  0.00    -0.200 F 
ATOM     96  C   UNL A   1      45.731  35.267  30.487  1.00  0.00     0.200 A 
ATOM     97  F   UNL A   1      45.560  35.917  28.223  1.00  0.00    -0.200 F 
ATOM     98  F   UNL A   1      45.910  36.544  30.854  1.00  0.00    -0.200 F 
ENDBRANCH  65  88
ENDBRANCH  39  40
ENDBRANCH  31  34
ENDBRANCH  29  30
ENDBRANCH  28  29
ENDBRANCH  27  28
ENDBRANCH  26  27
ENDBRANCH   1  26
TORSDOF 18
ENDMDL
