MODEL 1
REMARK VINA RESULT:     -12.9      0.000      0.000
REMARK SMILES Cc1ccc([C@@H](CC(=O)NCCCCCCNC(=O)c2ccc(-c3c4nc(c(-c5c(F)c(F)c(F)c(F)c5F)c5ccc([nH]5)c(-c5c(F)c(F)c(F)c(F)c5F)c5nc(c(-c6c(F)c(F)c(F)c(F)c6F)c6ccc3[nH]6)C=C5)C=C4)cc2)NC(=O)c2ccc(OC(F)F)cc2)cc1
REMARK SMILES IDX 12 1 11 2 10 3 8 4 9 5 7 7 6 8 5 9 1 10 2 11 3 12 97 13 4 14
REMARK SMILES IDX 96 15 83 16 84 17 85 19 86 20 87 21 95 22 88 23 94 24 89 25
REMARK SMILES IDX 90 26 91 27 92 28 93 29 13 30 14 31 15 32 16 33 17 34 18 35
REMARK SMILES IDX 19 37 20 38 21 39 82 40 22 41 81 42 23 43 24 44 25 45 75 46
REMARK SMILES IDX 26 47 80 48 74 49 76 50 27 51 79 52 73 53 72 54 28 56 60 57
REMARK SMILES IDX 40 58 59 59 41 60 44 61 58 62 77 63 42 64 43 65 57 67 78 68
REMARK SMILES IDX 45 69 29 70 30 71 38 72 31 73 32 74 36 75 39 76 33 77 34 78
REMARK SMILES IDX 37 79 35 80 61 81 62 82 70 83 63 84 64 85 68 86 71 87 65 88
REMARK SMILES IDX 66 89 69 90 67 91 46 92 47 93 55 94 48 95 49 96 53 97 56 98
REMARK SMILES IDX 50 99 51 100 54 101 52 102
REMARK H PARENT 10 6 83 18 17 36 76 55 44 66
REMARK Flexibility Score: inf
ROOT
ATOM      1  C   UNL A   1      35.006  21.599  25.377  1.00  0.00     0.021 C 
ENDROOT
BRANCH   1   2
ATOM      2  C   UNL A   1      33.473  21.543  25.428  1.00  0.00     0.116 C 
BRANCH   2   3
ATOM      3  N   UNL A   1      32.913  21.154  24.148  1.00  0.00    -0.356 N 
ATOM      4  C   UNL A   1      32.314  21.899  23.179  1.00  0.00     0.222 C 
ATOM      5  O   UNL A   1      31.969  21.330  22.142  1.00  0.00    -0.275 OA
ATOM      6  H   UNL A   1      32.978  20.194  23.945  1.00  0.00     0.163 HD
BRANCH   4   7
ATOM      7  C   UNL A   1      32.106  23.388  23.339  1.00  0.00     0.129 C 
BRANCH   7   8
ATOM      8  C   UNL A   1      30.719  23.821  23.861  1.00  0.00     0.122 C 
BRANCH   8   9
ATOM      9  C   UNL A   1      30.420  25.252  23.423  1.00  0.00    -0.025 A 
ATOM     10  C   UNL A   1      30.034  29.482  22.628  1.00  0.00     0.044 C 
ATOM     11  C   UNL A   1      30.125  28.000  22.829  1.00  0.00    -0.051 A 
ATOM     12  C   UNL A   1      29.116  27.305  23.501  1.00  0.00     0.004 A 
ATOM     13  C   UNL A   1      31.263  27.308  22.413  1.00  0.00     0.004 A 
ATOM     14  C   UNL A   1      29.259  25.944  23.789  1.00  0.00     0.006 A 
ATOM     15  C   UNL A   1      31.405  25.950  22.701  1.00  0.00     0.006 A 
ENDBRANCH   8   9
BRANCH   8  16
ATOM     16  N   UNL A   1      30.495  23.613  25.288  1.00  0.00    -0.345 N 
ATOM     17  C   UNL A   1      31.103  24.191  26.372  1.00  0.00     0.251 C 
ATOM     18  H   UNL A   1      29.799  22.952  25.507  1.00  0.00     0.164 HD
ATOM     19  O   UNL A   1      30.976  23.681  27.483  1.00  0.00    -0.269 OA
BRANCH  17  20
ATOM     20  C   UNL A   1      31.922  25.414  26.227  1.00  0.00     0.040 A 
ATOM     21  C   UNL A   1      31.324  26.660  26.429  1.00  0.00     0.017 A 
ATOM     22  C   UNL A   1      33.247  25.346  25.790  1.00  0.00     0.017 A 
ATOM     23  C   UNL A   1      32.072  27.827  26.249  1.00  0.00     0.047 A 
ATOM     24  C   UNL A   1      33.998  26.515  25.631  1.00  0.00     0.047 A 
ATOM     25  C   UNL A   1      33.417  27.763  25.866  1.00  0.00     0.126 A 
BRANCH  25  26
ATOM     26  O   UNL A   1      34.030  28.975  25.731  1.00  0.00    -0.435 OA
BRANCH  26  27
ATOM     27  C   UNL A   1      34.402  29.676  26.911  1.00  0.00     0.542 C 
ATOM     28  F   UNL A   1      33.467  30.612  27.208  1.00  0.00    -0.167 F 
ATOM     29  F   UNL A   1      34.493  28.819  27.956  1.00  0.00    -0.167 F 
ENDBRANCH  26  27
ENDBRANCH  25  26
ENDBRANCH  17  20
ENDBRANCH   8  16
ENDBRANCH   7   8
ENDBRANCH   4   7
ENDBRANCH   2   3
ENDBRANCH   1   2
BRANCH   1  30
ATOM     30  C   UNL A   1      35.620  22.827  24.695  1.00  0.00     0.002 C 
BRANCH  30  31
ATOM     31  C   UNL A   1      36.625  23.654  25.509  1.00  0.00     0.002 C 
BRANCH  31  32
ATOM     32  C   UNL A   1      38.101  23.315  25.306  1.00  0.00     0.021 C 
BRANCH  32  33
ATOM     33  C   UNL A   1      38.767  22.641  26.501  1.00  0.00     0.116 C 
BRANCH  33  34
ATOM     34  N   UNL A   1      40.213  22.853  26.528  1.00  0.00    -0.352 N 
ATOM     35  C   UNL A   1      40.938  24.003  26.770  1.00  0.00     0.251 C 
ATOM     36  H   UNL A   1      40.755  22.052  26.344  1.00  0.00     0.163 HD
ATOM     37  O   UNL A   1      42.166  23.974  26.798  1.00  0.00    -0.269 OA
BRANCH  35  38
ATOM     38  C   UNL A   1      40.224  25.243  27.130  1.00  0.00     0.039 A 
ATOM     39  C   UNL A   1      40.451  26.384  26.352  1.00  0.00     0.014 A 
ATOM     40  C   UNL A   1      39.531  25.334  28.332  1.00  0.00     0.014 A 
ATOM     41  C   UNL A   1      40.235  27.640  26.909  1.00  0.00     0.010 A 
ATOM     42  C   UNL A   1      39.396  26.576  28.919  1.00  0.00     0.010 A 
ATOM     43  C   UNL A   1      39.836  27.719  28.242  1.00  0.00    -0.014 A 
BRANCH  43  44
ATOM     44  C   UNL A   1      40.052  28.906  29.064  1.00  0.00     0.031 A 
ATOM     45  C   UNL A   1      39.018  29.948  29.207  1.00  0.00     0.074 A 
ATOM     46  C   UNL A   1      41.183  28.968  29.805  1.00  0.00     0.049 A 
ATOM     47  N   UNL A   1      39.254  31.161  29.581  1.00  0.00    -0.248 NA
ATOM     48  C   UNL A   1      37.617  29.706  28.899  1.00  0.00     0.031 C 
ATOM     49  C   UNL A   1      41.469  29.869  30.917  1.00  0.00     0.029 A 
ATOM     50  N   UNL A   1      42.406  28.319  29.558  1.00  0.00    -0.354 N 
ATOM     51  C   UNL A   1      38.044  31.768  29.838  1.00  0.00     0.074 A 
ATOM     52  C   UNL A   1      37.060  30.847  29.317  1.00  0.00     0.031 C 
ATOM     53  C   UNL A   1      42.799  29.953  31.074  1.00  0.00     0.029 A 
ATOM     54  C   UNL A   1      43.406  29.229  29.970  1.00  0.00     0.049 A 
ATOM     55  H   UNL A   1      42.539  27.420  29.178  1.00  0.00     0.167 HD
ATOM     56  C   UNL A   1      38.021  32.908  30.593  1.00  0.00     0.037 A 
ATOM     57  C   UNL A   1      44.294  29.763  29.084  1.00  0.00     0.037 A 
ATOM     58  C   UNL A   1      39.379  33.360  30.904  1.00  0.00     0.049 A 
ATOM     59  C   UNL A   1      44.262  31.270  29.011  1.00  0.00     0.074 A 
ATOM     60  C   UNL A   1      40.171  33.228  32.034  1.00  0.00     0.029 A 
ATOM     61  N   UNL A   1      40.218  33.794  29.884  1.00  0.00    -0.354 N 
ATOM     62  N   UNL A   1      43.260  31.993  29.423  1.00  0.00    -0.248 NA
ATOM     63  C   UNL A   1      45.333  32.076  28.428  1.00  0.00     0.031 C 
ATOM     64  C   UNL A   1      41.504  33.539  31.676  1.00  0.00     0.029 A 
ATOM     65  C   UNL A   1      41.522  33.875  30.334  1.00  0.00     0.049 A 
ATOM     66  H   UNL A   1      39.924  34.013  28.970  1.00  0.00     0.167 HD
ATOM     67  C   UNL A   1      43.511  33.313  29.157  1.00  0.00     0.074 A 
ATOM     68  C   UNL A   1      44.829  33.317  28.551  1.00  0.00     0.031 C 
ATOM     69  C   UNL A   1      42.600  34.287  29.449  1.00  0.00     0.037 A 
BRANCH  56  70
ATOM     70  C   UNL A   1      36.792  33.433  31.320  1.00  0.00     0.064 A 
ATOM     71  C   UNL A   1      35.753  34.082  30.612  1.00  0.00     0.173 A 
ATOM     72  C   UNL A   1      36.605  33.406  32.714  1.00  0.00     0.173 A 
ATOM     73  F   UNL A   1      35.698  34.064  29.274  1.00  0.00    -0.203 F 
ATOM     74  C   UNL A   1      34.716  34.773  31.249  1.00  0.00     0.198 A 
ATOM     75  C   UNL A   1      35.599  34.137  33.357  1.00  0.00     0.198 A 
ATOM     76  F   UNL A   1      37.340  32.616  33.502  1.00  0.00    -0.203 F 
ATOM     77  F   UNL A   1      33.777  35.386  30.517  1.00  0.00    -0.200 F 
ATOM     78  C   UNL A   1      34.665  34.838  32.624  1.00  0.00     0.200 A 
ATOM     79  F   UNL A   1      35.541  34.151  34.697  1.00  0.00    -0.200 F 
ATOM     80  F   UNL A   1      33.703  35.539  33.237  1.00  0.00    -0.200 F 
ENDBRANCH  56  70
BRANCH  57  81
ATOM     81  C   UNL A   1      44.598  28.869  27.937  1.00  0.00     0.064 A 
ATOM     82  C   UNL A   1      45.391  27.729  28.166  1.00  0.00     0.173 A 
ATOM     83  C   UNL A   1      43.846  28.908  26.756  1.00  0.00     0.173 A 
ATOM     84  F   UNL A   1      46.124  27.638  29.287  1.00  0.00    -0.203 F 
ATOM     85  C   UNL A   1      45.351  26.633  27.308  1.00  0.00     0.198 A 
ATOM     86  C   UNL A   1      43.818  27.812  25.892  1.00  0.00     0.198 A 
ATOM     87  F   UNL A   1      43.050  29.954  26.493  1.00  0.00    -0.203 F 
ATOM     88  F   UNL A   1      46.035  25.521  27.611  1.00  0.00    -0.200 F 
ATOM     89  C   UNL A   1      44.544  26.665  26.184  1.00  0.00     0.200 A 
ATOM     90  F   UNL A   1      43.008  27.827  24.823  1.00  0.00    -0.200 F 
ATOM     91  F   UNL A   1      44.428  25.580  25.407  1.00  0.00    -0.200 F 
ENDBRANCH  57  81
BRANCH  69  92
ATOM     92  C   UNL A   1      42.677  35.728  29.014  1.00  0.00     0.064 A 
ATOM     93  C   UNL A   1      41.948  36.259  27.938  1.00  0.00     0.173 A 
ATOM     94  C   UNL A   1      43.397  36.669  29.789  1.00  0.00     0.173 A 
ATOM     95  F   UNL A   1      41.141  35.487  27.197  1.00  0.00    -0.203 F 
ATOM     96  C   UNL A   1      41.978  37.621  27.627  1.00  0.00     0.198 A 
ATOM     97  C   UNL A   1      43.381  38.034  29.508  1.00  0.00     0.198 A 
ATOM     98  F   UNL A   1      44.116  36.291  30.857  1.00  0.00    -0.203 F 
ATOM     99  F   UNL A   1      41.292  38.074  26.568  1.00  0.00    -0.200 F 
ATOM    100  C   UNL A   1      42.683  38.509  28.418  1.00  0.00     0.200 A 
ATOM    101  F   UNL A   1      44.031  38.888  30.313  1.00  0.00    -0.200 F 
ATOM    102  F   UNL A   1      42.671  39.820  28.143  1.00  0.00    -0.200 F 
ENDBRANCH  69  92
ENDBRANCH  43  44
ENDBRANCH  35  38
ENDBRANCH  33  34
ENDBRANCH  32  33
ENDBRANCH  31  32
ENDBRANCH  30  31
ENDBRANCH   1  30
TORSDOF 19
ENDMDL
MODEL 2
REMARK VINA RESULT:     -12.7      3.759      9.944
REMARK SMILES Cc1ccc([C@@H](CC(=O)NCCCCCCNC(=O)c2ccc(-c3c4nc(c(-c5c(F)c(F)c(F)c(F)c5F)c5ccc([nH]5)c(-c5c(F)c(F)c(F)c(F)c5F)c5nc(c(-c6c(F)c(F)c(F)c(F)c6F)c6ccc3[nH]6)C=C5)C=C4)cc2)NC(=O)c2ccc(OC(F)F)cc2)cc1
REMARK SMILES IDX 12 1 11 2 10 3 8 4 9 5 7 7 6 8 5 9 1 10 2 11 3 12 97 13 4 14
REMARK SMILES IDX 96 15 83 16 84 17 85 19 86 20 87 21 95 22 88 23 94 24 89 25
REMARK SMILES IDX 90 26 91 27 92 28 93 29 13 30 14 31 15 32 16 33 17 34 18 35
REMARK SMILES IDX 19 37 20 38 21 39 82 40 22 41 81 42 23 43 24 44 25 45 75 46
REMARK SMILES IDX 26 47 80 48 74 49 76 50 27 51 79 52 73 53 72 54 28 56 60 57
REMARK SMILES IDX 40 58 59 59 41 60 44 61 58 62 77 63 42 64 43 65 57 67 78 68
REMARK SMILES IDX 45 69 29 70 30 71 38 72 31 73 32 74 36 75 39 76 33 77 34 78
REMARK SMILES IDX 37 79 35 80 61 81 62 82 70 83 63 84 64 85 68 86 71 87 65 88
REMARK SMILES IDX 66 89 69 90 67 91 46 92 47 93 55 94 48 95 49 96 53 97 56 98
REMARK SMILES IDX 50 99 51 100 54 101 52 102
REMARK H PARENT 10 6 83 18 17 36 76 55 44 66
REMARK Flexibility Score: inf
ROOT
ATOM      1  C   UNL A   1      31.750  27.725  26.308  1.00  0.00     0.021 C 
ENDROOT
BRANCH   1   2
ATOM      2  C   UNL A   1      31.650  27.847  24.782  1.00  0.00     0.116 C 
BRANCH   2   3
ATOM      3  N   UNL A   1      30.332  27.474  24.305  1.00  0.00    -0.356 N 
ATOM      4  C   UNL A   1      29.771  26.249  24.114  1.00  0.00     0.222 C 
ATOM      5  O   UNL A   1      28.595  26.202  23.747  1.00  0.00    -0.275 OA
ATOM      6  H   UNL A   1      29.745  28.232  24.083  1.00  0.00     0.163 HD
BRANCH   4   7
ATOM      7  C   UNL A   1      30.542  24.975  24.376  1.00  0.00     0.129 C 
BRANCH   7   8
ATOM      8  C   UNL A   1      30.973  24.180  23.126  1.00  0.00     0.122 C 
BRANCH   8   9
ATOM      9  C   UNL A   1      31.558  22.833  23.540  1.00  0.00    -0.025 A 
ATOM     10  C   UNL A   1      32.618  18.772  24.566  1.00  0.00     0.044 C 
ATOM     11  C   UNL A   1      32.336  20.199  24.209  1.00  0.00    -0.051 A 
ATOM     12  C   UNL A   1      32.173  21.167  25.204  1.00  0.00     0.004 A 
ATOM     13  C   UNL A   1      32.154  20.562  22.874  1.00  0.00     0.004 A 
ATOM     14  C   UNL A   1      31.795  22.472  24.872  1.00  0.00     0.006 A 
ATOM     15  C   UNL A   1      31.778  21.864  22.544  1.00  0.00     0.006 A 
ENDBRANCH   8   9
BRANCH   8  16
ATOM     16  N   UNL A   1      31.832  24.902  22.192  1.00  0.00    -0.345 N 
ATOM     17  C   UNL A   1      33.153  25.253  22.296  1.00  0.00     0.251 C 
ATOM     18  H   UNL A   1      31.394  25.181  21.356  1.00  0.00     0.164 HD
ATOM     19  O   UNL A   1      33.619  26.099  21.536  1.00  0.00    -0.269 OA
BRANCH  17  20
ATOM     20  C   UNL A   1      34.028  24.639  23.318  1.00  0.00     0.040 A 
ATOM     21  C   UNL A   1      34.714  23.463  23.008  1.00  0.00     0.017 A 
ATOM     22  C   UNL A   1      34.095  25.157  24.614  1.00  0.00     0.017 A 
ATOM     23  C   UNL A   1      35.507  22.845  23.980  1.00  0.00     0.047 A 
ATOM     24  C   UNL A   1      34.907  24.548  25.576  1.00  0.00     0.047 A 
ATOM     25  C   UNL A   1      35.623  23.391  25.263  1.00  0.00     0.126 A 
BRANCH  25  26
ATOM     26  O   UNL A   1      36.433  22.691  26.110  1.00  0.00    -0.435 OA
BRANCH  26  27
ATOM     27  C   UNL A   1      37.809  23.043  26.169  1.00  0.00     0.542 C 
ATOM     28  F   UNL A   1      38.573  21.992  25.778  1.00  0.00    -0.167 F 
ATOM     29  F   UNL A   1      38.063  24.084  25.342  1.00  0.00    -0.167 F 
ENDBRANCH  26  27
ENDBRANCH  25  26
ENDBRANCH  17  20
ENDBRANCH   8  16
ENDBRANCH   7   8
ENDBRANCH   4   7
ENDBRANCH   2   3
ENDBRANCH   1   2
BRANCH   1  30
ATOM     30  C   UNL A   1      33.141  27.940  26.918  1.00  0.00     0.002 C 
BRANCH  30  31
ATOM     31  C   UNL A   1      34.090  28.897  26.182  1.00  0.00     0.002 C 
BRANCH  31  32
ATOM     32  C   UNL A   1      34.248  30.291  26.786  1.00  0.00     0.021 C 
BRANCH  32  33
ATOM     33  C   UNL A   1      34.026  30.358  28.293  1.00  0.00     0.116 C 
BRANCH  33  34
ATOM     34  N   UNL A   1      34.882  31.351  28.940  1.00  0.00    -0.352 N 
ATOM     35  C   UNL A   1      36.207  31.270  29.319  1.00  0.00     0.251 C 
ATOM     36  H   UNL A   1      34.446  32.212  29.137  1.00  0.00     0.163 HD
ATOM     37  O   UNL A   1      36.777  32.241  29.813  1.00  0.00    -0.269 OA
BRANCH  35  38
ATOM     38  C   UNL A   1      36.975  30.050  29.001  1.00  0.00     0.039 A 
ATOM     39  C   UNL A   1      37.161  29.106  30.018  1.00  0.00     0.014 A 
ATOM     40  C   UNL A   1      37.680  29.951  27.807  1.00  0.00     0.014 A 
ATOM     41  C   UNL A   1      38.246  28.239  29.947  1.00  0.00     0.010 A 
ATOM     42  C   UNL A   1      38.806  29.154  27.774  1.00  0.00     0.010 A 
ATOM     43  C   UNL A   1      39.137  28.369  28.883  1.00  0.00    -0.014 A 
BRANCH  43  44
ATOM     44  C   UNL A   1      40.517  27.899  28.945  1.00  0.00     0.031 A 
ATOM     45  C   UNL A   1      40.908  26.573  28.430  1.00  0.00     0.074 A 
ATOM     46  C   UNL A   1      41.466  28.766  29.369  1.00  0.00     0.049 A 
ATOM     47  N   UNL A   1      41.981  25.944  28.778  1.00  0.00    -0.248 NA
ATOM     48  C   UNL A   1      40.084  25.825  27.494  1.00  0.00     0.031 C 
ATOM     49  C   UNL A   1      42.912  28.645  29.219  1.00  0.00     0.029 A 
ATOM     50  N   UNL A   1      41.294  29.880  30.212  1.00  0.00    -0.354 N 
ATOM     51  C   UNL A   1      42.140  24.873  27.926  1.00  0.00     0.074 A 
ATOM     52  C   UNL A   1      40.890  24.798  27.204  1.00  0.00     0.031 C 
ATOM     53  C   UNL A   1      43.508  29.417  30.141  1.00  0.00     0.029 A 
ATOM     54  C   UNL A   1      42.462  29.935  31.005  1.00  0.00     0.049 A 
ATOM     55  H   UNL A   1      40.522  30.491  30.243  1.00  0.00     0.167 HD
ATOM     56  C   UNL A   1      43.365  24.275  27.833  1.00  0.00     0.037 A 
ATOM     57  C   UNL A   1      42.414  29.765  32.357  1.00  0.00     0.037 A 
ATOM     58  C   UNL A   1      44.303  24.844  28.804  1.00  0.00     0.049 A 
ATOM     59  C   UNL A   1      43.247  28.613  32.864  1.00  0.00     0.074 A 
ATOM     60  C   UNL A   1      45.312  25.787  28.686  1.00  0.00     0.029 A 
ATOM     61  N   UNL A   1      44.081  24.674  30.166  1.00  0.00    -0.354 N 
ATOM     62  N   UNL A   1      43.656  27.631  32.111  1.00  0.00    -0.248 NA
ATOM     63  C   UNL A   1      43.643  28.452  34.261  1.00  0.00     0.031 C 
ATOM     64  C   UNL A   1      45.665  26.220  29.986  1.00  0.00     0.029 A 
ATOM     65  C   UNL A   1      44.883  25.531  30.896  1.00  0.00     0.049 A 
ATOM     66  H   UNL A   1      43.444  24.033  30.556  1.00  0.00     0.167 HD
ATOM     67  C   UNL A   1      44.326  26.717  32.881  1.00  0.00     0.074 A 
ATOM     68  C   UNL A   1      44.309  27.284  34.216  1.00  0.00     0.031 C 
ATOM     69  C   UNL A   1      44.825  25.564  32.349  1.00  0.00     0.037 A 
BRANCH  56  70
ATOM     70  C   UNL A   1      43.816  23.412  26.664  1.00  0.00     0.064 A 
ATOM     71  C   UNL A   1      43.369  22.074  26.537  1.00  0.00     0.173 A 
ATOM     72  C   UNL A   1      44.742  23.803  25.680  1.00  0.00     0.173 A 
ATOM     73  F   UNL A   1      42.379  21.590  27.296  1.00  0.00    -0.203 F 
ATOM     74  C   UNL A   1      43.919  21.176  25.616  1.00  0.00     0.198 A 
ATOM     75  C   UNL A   1      45.329  22.895  24.790  1.00  0.00     0.198 A 
ATOM     76  F   UNL A   1      45.059  25.087  25.492  1.00  0.00    -0.203 F 
ATOM     77  F   UNL A   1      43.466  19.916  25.564  1.00  0.00    -0.200 F 
ATOM     78  C   UNL A   1      44.932  21.575  24.772  1.00  0.00     0.200 A 
ATOM     79  F   UNL A   1      46.283  23.316  23.947  1.00  0.00    -0.200 F 
ATOM     80  F   UNL A   1      45.494  20.706  23.922  1.00  0.00    -0.200 F 
ENDBRANCH  56  70
BRANCH  57  81
ATOM     81  C   UNL A   1      41.137  30.216  32.968  1.00  0.00     0.064 A 
ATOM     82  C   UNL A   1      40.901  31.599  33.087  1.00  0.00     0.173 A 
ATOM     83  C   UNL A   1      40.036  29.358  33.083  1.00  0.00     0.173 A 
ATOM     84  F   UNL A   1      41.921  32.464  32.976  1.00  0.00    -0.203 F 
ATOM     85  C   UNL A   1      39.609  32.106  33.208  1.00  0.00     0.198 A 
ATOM     86  C   UNL A   1      38.743  29.871  33.217  1.00  0.00     0.198 A 
ATOM     87  F   UNL A   1      40.191  28.034  32.951  1.00  0.00    -0.203 F 
ATOM     88  F   UNL A   1      39.410  33.432  33.212  1.00  0.00    -0.200 F 
ATOM     89  C   UNL A   1      38.529  31.242  33.247  1.00  0.00     0.200 A 
ATOM     90  F   UNL A   1      37.694  29.037  33.216  1.00  0.00    -0.200 F 
ATOM     91  F   UNL A   1      37.280  31.727  33.268  1.00  0.00    -0.200 F 
ENDBRANCH  57  81
BRANCH  69  92
ATOM     92  C   UNL A   1      45.387  24.401  33.127  1.00  0.00     0.064 A 
ATOM     93  C   UNL A   1      46.668  24.393  33.701  1.00  0.00     0.173 A 
ATOM     94  C   UNL A   1      44.564  23.295  33.448  1.00  0.00     0.173 A 
ATOM     95  F   UNL A   1      47.499  25.434  33.562  1.00  0.00    -0.203 F 
ATOM     96  C   UNL A   1      47.114  23.332  34.494  1.00  0.00     0.198 A 
ATOM     97  C   UNL A   1      44.993  22.265  34.283  1.00  0.00     0.198 A 
ATOM     98  F   UNL A   1      43.311  23.196  32.980  1.00  0.00    -0.203 F 
ATOM     99  F   UNL A   1      48.359  23.353  34.991  1.00  0.00    -0.200 F 
ATOM    100  C   UNL A   1      46.274  22.275  34.795  1.00  0.00     0.200 A 
ATOM    101  F   UNL A   1      44.150  21.272  34.605  1.00  0.00    -0.200 F 
ATOM    102  F   UNL A   1      46.690  21.283  35.593  1.00  0.00    -0.200 F 
ENDBRANCH  69  92
ENDBRANCH  43  44
ENDBRANCH  35  38
ENDBRANCH  33  34
ENDBRANCH  32  33
ENDBRANCH  31  32
ENDBRANCH  30  31
ENDBRANCH   1  30
TORSDOF 19
ENDMDL
MODEL 3
REMARK VINA RESULT:     -12.5      1.601      2.745
REMARK SMILES Cc1ccc([C@@H](CC(=O)NCCCCCCNC(=O)c2ccc(-c3c4nc(c(-c5c(F)c(F)c(F)c(F)c5F)c5ccc([nH]5)c(-c5c(F)c(F)c(F)c(F)c5F)c5nc(c(-c6c(F)c(F)c(F)c(F)c6F)c6ccc3[nH]6)C=C5)C=C4)cc2)NC(=O)c2ccc(OC(F)F)cc2)cc1
REMARK SMILES IDX 12 1 11 2 10 3 8 4 9 5 7 7 6 8 5 9 1 10 2 11 3 12 97 13 4 14
REMARK SMILES IDX 96 15 83 16 84 17 85 19 86 20 87 21 95 22 88 23 94 24 89 25
REMARK SMILES IDX 90 26 91 27 92 28 93 29 13 30 14 31 15 32 16 33 17 34 18 35
REMARK SMILES IDX 19 37 20 38 21 39 82 40 22 41 81 42 23 43 24 44 25 45 75 46
REMARK SMILES IDX 26 47 80 48 74 49 76 50 27 51 79 52 73 53 72 54 28 56 60 57
REMARK SMILES IDX 40 58 59 59 41 60 44 61 58 62 77 63 42 64 43 65 57 67 78 68
REMARK SMILES IDX 45 69 29 70 30 71 38 72 31 73 32 74 36 75 39 76 33 77 34 78
REMARK SMILES IDX 37 79 35 80 61 81 62 82 70 83 63 84 64 85 68 86 71 87 65 88
REMARK SMILES IDX 66 89 69 90 67 91 46 92 47 93 55 94 48 95 49 96 53 97 56 98
REMARK SMILES IDX 50 99 51 100 54 101 52 102
REMARK H PARENT 10 6 83 18 17 36 76 55 44 66
REMARK Flexibility Score: inf
ROOT
ATOM      1  C   UNL A   1      35.101  20.996  25.136  1.00  0.00     0.021 C 
ENDROOT
BRANCH   1   2
ATOM      2  C   UNL A   1      33.699  21.324  25.668  1.00  0.00     0.116 C 
BRANCH   2   3
ATOM      3  N   UNL A   1      32.791  21.671  24.591  1.00  0.00    -0.356 N 
ATOM      4  C   UNL A   1      32.112  22.824  24.341  1.00  0.00     0.222 C 
ATOM      5  O   UNL A   1      31.436  22.885  23.311  1.00  0.00    -0.275 OA
ATOM      6  H   UNL A   1      32.640  20.956  23.933  1.00  0.00     0.163 HD
BRANCH   4   7
ATOM      7  C   UNL A   1      32.205  24.015  25.266  1.00  0.00     0.129 C 
BRANCH   7   8
ATOM      8  C   UNL A   1      33.451  24.909  25.091  1.00  0.00     0.122 C 
BRANCH   8   9
ATOM      9  C   UNL A   1      33.242  26.242  25.803  1.00  0.00    -0.025 A 
ATOM     10  C   UNL A   1      32.291  30.186  27.289  1.00  0.00     0.044 C 
ATOM     11  C   UNL A   1      32.645  28.797  26.855  1.00  0.00    -0.051 A 
ATOM     12  C   UNL A   1      33.938  28.490  26.423  1.00  0.00     0.004 A 
ATOM     13  C   UNL A   1      31.661  27.809  26.804  1.00  0.00     0.004 A 
ATOM     14  C   UNL A   1      34.236  27.224  25.909  1.00  0.00     0.006 A 
ATOM     15  C   UNL A   1      31.958  26.546  26.291  1.00  0.00     0.006 A 
ENDBRANCH   8   9
BRANCH   8  16
ATOM     16  N   UNL A   1      33.914  25.073  23.717  1.00  0.00    -0.345 N 
ATOM     17  C   UNL A   1      33.354  25.763  22.672  1.00  0.00     0.251 C 
ATOM     18  H   UNL A   1      34.760  24.616  23.506  1.00  0.00     0.164 HD
ATOM     19  O   UNL A   1      33.744  25.550  21.526  1.00  0.00    -0.269 OA
BRANCH  17  20
ATOM     20  C   UNL A   1      32.280  26.754  22.899  1.00  0.00     0.040 A 
ATOM     21  C   UNL A   1      30.952  26.322  22.926  1.00  0.00     0.017 A 
ATOM     22  C   UNL A   1      32.565  28.118  22.981  1.00  0.00     0.017 A 
ATOM     23  C   UNL A   1      29.923  27.253  23.093  1.00  0.00     0.047 A 
ATOM     24  C   UNL A   1      31.533  29.044  23.169  1.00  0.00     0.047 A 
ATOM     25  C   UNL A   1      30.206  28.616  23.232  1.00  0.00     0.126 A 
BRANCH  25  26
ATOM     26  O   UNL A   1      29.109  29.413  23.393  1.00  0.00    -0.435 OA
BRANCH  26  27
ATOM     27  C   UNL A   1      27.914  29.059  22.709  1.00  0.00     0.542 C 
ATOM     28  F   UNL A   1      26.858  29.128  23.557  1.00  0.00    -0.167 F 
ATOM     29  F   UNL A   1      27.691  29.914  21.683  1.00  0.00    -0.167 F 
ENDBRANCH  26  27
ENDBRANCH  25  26
ENDBRANCH  17  20
ENDBRANCH   8  16
ENDBRANCH   7   8
ENDBRANCH   4   7
ENDBRANCH   2   3
ENDBRANCH   1   2
BRANCH   1  30
ATOM     30  C   UNL A   1      35.750  22.053  24.234  1.00  0.00     0.002 C 
BRANCH  30  31
ATOM     31  C   UNL A   1      36.685  23.070  24.905  1.00  0.00     0.002 C 
BRANCH  31  32
ATOM     32  C   UNL A   1      38.171  22.717  24.919  1.00  0.00     0.021 C 
BRANCH  32  33
ATOM     33  C   UNL A   1      38.734  22.400  26.301  1.00  0.00     0.116 C 
BRANCH  33  34
ATOM     34  N   UNL A   1      40.182  22.592  26.371  1.00  0.00    -0.352 N 
ATOM     35  C   UNL A   1      40.915  23.737  26.608  1.00  0.00     0.251 C 
ATOM     36  H   UNL A   1      40.717  21.778  26.227  1.00  0.00     0.163 HD
ATOM     37  O   UNL A   1      42.141  23.691  26.679  1.00  0.00    -0.269 OA
BRANCH  35  38
ATOM     38  C   UNL A   1      40.209  24.997  26.912  1.00  0.00     0.039 A 
ATOM     39  C   UNL A   1      40.598  26.152  26.224  1.00  0.00     0.014 A 
ATOM     40  C   UNL A   1      39.349  25.078  28.001  1.00  0.00     0.014 A 
ATOM     41  C   UNL A   1      40.354  27.396  26.796  1.00  0.00     0.010 A 
ATOM     42  C   UNL A   1      39.182  26.303  28.614  1.00  0.00     0.010 A 
ATOM     43  C   UNL A   1      39.765  27.447  28.058  1.00  0.00    -0.014 A 
BRANCH  43  44
ATOM     44  C   UNL A   1      39.907  28.592  28.952  1.00  0.00     0.031 A 
ATOM     45  C   UNL A   1      38.871  29.638  29.042  1.00  0.00     0.074 A 
ATOM     46  C   UNL A   1      40.959  28.607  29.803  1.00  0.00     0.049 A 
ATOM     47  N   UNL A   1      39.077  30.830  29.494  1.00  0.00    -0.248 NA
ATOM     48  C   UNL A   1      37.506  29.427  28.585  1.00  0.00     0.031 C 
ATOM     49  C   UNL A   1      41.139  29.452  30.979  1.00  0.00     0.029 A 
ATOM     50  N   UNL A   1      42.196  27.956  29.649  1.00  0.00    -0.354 N 
ATOM     51  C   UNL A   1      37.852  31.438  29.658  1.00  0.00     0.074 A 
ATOM     52  C   UNL A   1      36.918  30.554  29.000  1.00  0.00     0.031 C 
ATOM     53  C   UNL A   1      42.447  29.514  31.271  1.00  0.00     0.029 A 
ATOM     54  C   UNL A   1      43.156  28.834  30.200  1.00  0.00     0.049 A 
ATOM     55  H   UNL A   1      42.360  27.074  29.241  1.00  0.00     0.167 HD
ATOM     56  C   UNL A   1      37.761  32.542  30.460  1.00  0.00     0.037 A 
ATOM     57  C   UNL A   1      44.131  29.399  29.432  1.00  0.00     0.037 A 
ATOM     58  C   UNL A   1      39.084  32.964  30.925  1.00  0.00     0.049 A 
ATOM     59  C   UNL A   1      44.118  30.908  29.427  1.00  0.00     0.074 A 
ATOM     60  C   UNL A   1      39.760  32.771  32.120  1.00  0.00     0.029 A 
ATOM     61  N   UNL A   1      40.024  33.435  30.014  1.00  0.00    -0.354 N 
ATOM     62  N   UNL A   1      43.084  31.622  29.773  1.00  0.00    -0.248 NA
ATOM     63  C   UNL A   1      45.246  31.728  28.992  1.00  0.00     0.031 C 
ATOM     64  C   UNL A   1      41.124  33.082  31.911  1.00  0.00     0.029 A 
ATOM     65  C   UNL A   1      41.277  33.480  30.595  1.00  0.00     0.049 A 
ATOM     66  H   UNL A   1      39.824  33.699  29.087  1.00  0.00     0.167 HD
ATOM     67  C   UNL A   1      43.369  32.950  29.595  1.00  0.00     0.074 A 
ATOM     68  C   UNL A   1      44.741  32.967  29.123  1.00  0.00     0.031 C 
ATOM     69  C   UNL A   1      42.441  33.920  29.841  1.00  0.00     0.037 A 
BRANCH  56  70
ATOM     70  C   UNL A   1      36.470  33.047  31.086  1.00  0.00     0.064 A 
ATOM     71  C   UNL A   1      35.578  33.863  30.350  1.00  0.00     0.173 A 
ATOM     72  C   UNL A   1      36.084  32.838  32.423  1.00  0.00     0.173 A 
ATOM     73  F   UNL A   1      35.715  34.038  29.029  1.00  0.00    -0.203 F 
ATOM     74  C   UNL A   1      34.498  34.530  30.938  1.00  0.00     0.198 A 
ATOM     75  C   UNL A   1      35.035  33.542  33.027  1.00  0.00     0.198 A 
ATOM     76  F   UNL A   1      36.656  31.893  33.175  1.00  0.00    -0.203 F 
ATOM     77  F   UNL A   1      33.706  35.307  30.187  1.00  0.00    -0.200 F 
ATOM     78  C   UNL A   1      34.254  34.405  32.289  1.00  0.00     0.200 A 
ATOM     79  F   UNL A   1      34.787  33.370  34.334  1.00  0.00    -0.200 F 
ATOM     80  F   UNL A   1      33.251  35.080  32.865  1.00  0.00    -0.200 F 
ENDBRANCH  56  70
BRANCH  57  81
ATOM     81  C   UNL A   1      44.542  28.555  28.280  1.00  0.00     0.064 A 
ATOM     82  C   UNL A   1      45.306  27.400  28.532  1.00  0.00     0.173 A 
ATOM     83  C   UNL A   1      43.907  28.653  27.036  1.00  0.00     0.173 A 
ATOM     84  F   UNL A   1      45.928  27.254  29.713  1.00  0.00    -0.203 F 
ATOM     85  C   UNL A   1      45.346  26.344  27.624  1.00  0.00     0.198 A 
ATOM     86  C   UNL A   1      43.959  27.597  26.123  1.00  0.00     0.198 A 
ATOM     87  F   UNL A   1      43.142  29.715  26.746  1.00  0.00    -0.203 F 
ATOM     88  F   UNL A   1      45.995  25.215  27.941  1.00  0.00    -0.200 F 
ATOM     89  C   UNL A   1      44.650  26.433  26.431  1.00  0.00     0.200 A 
ATOM     90  F   UNL A   1      43.255  27.666  24.984  1.00  0.00    -0.200 F 
ATOM     91  F   UNL A   1      44.607  25.385  25.598  1.00  0.00    -0.200 F 
ENDBRANCH  57  81
BRANCH  69  92
ATOM     92  C   UNL A   1      42.570  35.379  29.484  1.00  0.00     0.064 A 
ATOM     93  C   UNL A   1      43.414  36.275  30.159  1.00  0.00     0.173 A 
ATOM     94  C   UNL A   1      41.939  35.887  28.323  1.00  0.00     0.173 A 
ATOM     95  F   UNL A   1      44.150  35.882  31.207  1.00  0.00    -0.203 F 
ATOM     96  C   UNL A   1      43.574  37.598  29.736  1.00  0.00     0.198 A 
ATOM     97  C   UNL A   1      42.143  37.190  27.874  1.00  0.00     0.198 A 
ATOM     98  F   UNL A   1      41.126  35.123  27.578  1.00  0.00    -0.203 F 
ATOM     99  F   UNL A   1      44.363  38.426  30.435  1.00  0.00    -0.200 F 
ATOM    100  C   UNL A   1      42.949  38.052  28.589  1.00  0.00     0.200 A 
ATOM    101  F   UNL A   1      41.570  37.600  26.733  1.00  0.00    -0.200 F 
ATOM    102  F   UNL A   1      43.143  39.306  28.162  1.00  0.00    -0.200 F 
ENDBRANCH  69  92
ENDBRANCH  43  44
ENDBRANCH  35  38
ENDBRANCH  33  34
ENDBRANCH  32  33
ENDBRANCH  31  32
ENDBRANCH  30  31
ENDBRANCH   1  30
TORSDOF 19
ENDMDL
