MODEL 1
REMARK VINA RESULT:     -15.2      0.000      0.000
REMARK SMILES Cc1ccc(S(=O)(=O)n2cc(C(=O)C(=O)N[C@@H](Cc3c[nH]c4ccccc34)C(=O)NCCCCCCNC(=O)c3ccc(-c4c5nc(c(-c6c(F)c(F)c(F)c(F)c6F)c6ccc([nH]6)c(-c6c(F)c(F)c(F)c(F)c6F)c6nc(c(-c7c(F)c(F)c(F)c(F)c7F)c7ccc4[nH]7)C=C6)C=C5)cc3)c3ccccc32)cc1
REMARK SMILES IDX 32 1 31 2 30 3 28 4 29 5 17 7 16 8 14 9 15 10 12 12 13 13
REMARK SMILES IDX 11 14 9 15 10 16 108 17 103 18 107 19 104 20 106 21 105 22
REMARK SMILES IDX 6 23 7 24 8 25 5 26 1 27 2 28 3 29 110 30 4 31 109 32 18 33
REMARK SMILES IDX 19 34 20 35 27 36 21 37 22 38 26 39 23 41 25 42 24 43 33 44
REMARK SMILES IDX 34 45 35 46 36 47 37 48 38 49 39 51 40 52 41 53 102 54 42 55
REMARK SMILES IDX 101 56 43 57 44 58 45 59 95 60 46 61 100 62 94 63 96 64
REMARK SMILES IDX 47 65 99 66 93 67 92 68 48 70 80 71 60 72 79 73 61 74 64 75
REMARK SMILES IDX 78 76 97 77 62 78 63 79 77 81 98 82 65 83 49 84 50 85 58 86
REMARK SMILES IDX 51 87 52 88 56 89 59 90 53 91 54 92 57 93 55 94 81 95 82 96
REMARK SMILES IDX 90 97 83 98 84 99 88 100 91 101 85 102 86 103 89 104 87 105
REMARK SMILES IDX 66 106 67 107 75 108 68 109 69 110 73 111 76 112 70 113
REMARK SMILES IDX 71 114 74 115 72 116
REMARK H PARENT 30 6 16 11 21 40 37 50 96 69 64 80
REMARK Flexibility Score: inf
ROOT
ATOM      1  C   UNL A   1      31.062  27.097  26.801  1.00  0.00     0.021 C 
ENDROOT
BRANCH   1   2
ATOM      2  C   UNL A   1      31.428  25.769  26.150  1.00  0.00     0.116 C 
BRANCH   2   3
ATOM      3  N   UNL A   1      30.473  25.216  25.221  1.00  0.00    -0.354 N 
ATOM      4  C   UNL A   1      30.342  25.516  23.888  1.00  0.00     0.242 C 
ATOM      5  O   UNL A   1      29.998  24.584  23.150  1.00  0.00    -0.273 OA
ATOM      6  H   UNL A   1      29.846  24.547  25.582  1.00  0.00     0.163 HD
BRANCH   4   7
ATOM      7  C   UNL A   1      30.736  26.891  23.264  1.00  0.00     0.176 C 
BRANCH   7   8
ATOM      8  N   UNL A   1      31.745  26.864  22.181  1.00  0.00    -0.337 N 
ATOM      9  C   UNL A   1      33.069  26.435  22.187  1.00  0.00     0.293 C 
ATOM     10  O   UNL A   1      33.788  26.639  21.213  1.00  0.00    -0.265 OA
ATOM     11  H   UNL A   1      31.426  27.204  21.314  1.00  0.00     0.164 HD
BRANCH   9  12
ATOM     12  C   UNL A   1      33.636  25.668  23.387  1.00  0.00     0.252 C 
ATOM     13  O   UNL A   1      34.170  26.364  24.251  1.00  0.00    -0.283 OA
BRANCH  12  14
ATOM     14  C   UNL A   1      33.660  24.191  23.470  1.00  0.00     0.054 A 
ATOM     15  N   UNL A   1      33.510  21.945  23.149  1.00  0.00    -0.240 N 
ATOM     16  C   UNL A   1      33.242  23.193  22.574  1.00  0.00     0.117 A 
ATOM     17  C   UNL A   1      34.283  22.173  24.300  1.00  0.00     0.065 A 
ATOM     18  C   UNL A   1      34.051  23.498  24.659  1.00  0.00     0.012 A 
ATOM     19  C   UNL A   1      34.908  21.271  25.186  1.00  0.00     0.028 A 
ATOM     20  C   UNL A   1      34.262  23.877  26.002  1.00  0.00     0.011 A 
ATOM     21  C   UNL A   1      35.042  21.651  26.520  1.00  0.00     0.002 A 
ATOM     22  C   UNL A   1      34.681  22.924  26.934  1.00  0.00     0.001 A 
BRANCH  15  23
ATOM     23  S   UNL A   1      32.355  20.648  23.407  1.00  0.00     0.268 S 
ATOM     24  O   UNL A   1      31.582  20.647  22.176  1.00  0.00    -0.201 OA
ATOM     25  O   UNL A   1      31.748  21.024  24.677  1.00  0.00    -0.201 OA
BRANCH  23  26
ATOM     26  C   UNL A   1      32.731  18.958  23.715  1.00  0.00     0.088 A 
ATOM     27  C   UNL A   1      33.703  15.130  25.479  1.00  0.00     0.044 C 
ATOM     28  C   UNL A   1      33.332  16.431  24.825  1.00  0.00    -0.051 A 
ATOM     29  C   UNL A   1      32.786  17.419  25.632  1.00  0.00     0.005 A 
ATOM     30  C   UNL A   1      33.561  16.715  23.460  1.00  0.00     0.005 A 
ATOM     31  C   UNL A   1      32.482  18.650  25.078  1.00  0.00     0.022 A 
ATOM     32  C   UNL A   1      33.267  17.984  22.892  1.00  0.00     0.022 A 
ENDBRANCH  23  26
ENDBRANCH  15  23
ENDBRANCH  12  14
ENDBRANCH   9  12
ENDBRANCH   7   8
BRANCH   7  33
ATOM     33  C   UNL A   1      29.499  27.791  22.947  1.00  0.00     0.072 C 
BRANCH  33  34
ATOM     34  C   UNL A   1      29.598  29.279  23.191  1.00  0.00    -0.020 A 
ATOM     35  C   UNL A   1      30.203  29.879  24.284  1.00  0.00     0.087 A 
ATOM     36  C   UNL A   1      29.104  30.354  22.373  1.00  0.00     0.003 A 
ATOM     37  N   UNL A   1      30.008  31.232  24.209  1.00  0.00    -0.361 N 
ATOM     38  C   UNL A   1      29.249  31.536  23.104  1.00  0.00     0.046 A 
ATOM     39  C   UNL A   1      28.462  30.426  21.120  1.00  0.00     0.010 A 
ATOM     40  H   UNL A   1      30.359  31.891  24.851  1.00  0.00     0.166 HD
ATOM     41  C   UNL A   1      28.686  32.754  22.700  1.00  0.00     0.026 A 
ATOM     42  C   UNL A   1      27.868  31.626  20.715  1.00  0.00     0.001 A 
ATOM     43  C   UNL A   1      27.960  32.767  21.507  1.00  0.00     0.002 A 
ENDBRANCH  33  34
ENDBRANCH   7  33
ENDBRANCH   4   7
ENDBRANCH   2   3
ENDBRANCH   1   2
BRANCH   1  44
ATOM     44  C   UNL A   1      32.161  28.157  26.945  1.00  0.00     0.002 C 
BRANCH  44  45
ATOM     45  C   UNL A   1      31.755  29.612  27.239  1.00  0.00     0.002 C 
BRANCH  45  46
ATOM     46  C   UNL A   1      32.842  30.685  27.178  1.00  0.00     0.021 C 
BRANCH  46  47
ATOM     47  C   UNL A   1      34.210  30.279  27.706  1.00  0.00     0.116 C 
BRANCH  47  48
ATOM     48  N   UNL A   1      34.878  31.293  28.512  1.00  0.00    -0.352 N 
ATOM     49  C   UNL A   1      36.106  31.227  29.161  1.00  0.00     0.251 C 
ATOM     50  H   UNL A   1      34.393  32.145  28.610  1.00  0.00     0.163 HD
ATOM     51  O   UNL A   1      36.515  32.159  29.823  1.00  0.00    -0.269 OA
BRANCH  49  52
ATOM     52  C   UNL A   1      36.972  30.046  28.919  1.00  0.00     0.039 A 
ATOM     53  C   UNL A   1      37.142  29.135  29.968  1.00  0.00     0.014 A 
ATOM     54  C   UNL A   1      37.776  29.974  27.786  1.00  0.00     0.014 A 
ATOM     55  C   UNL A   1      38.283  28.338  29.996  1.00  0.00     0.010 A 
ATOM     56  C   UNL A   1      38.959  29.270  27.862  1.00  0.00     0.010 A 
ATOM     57  C   UNL A   1      39.244  28.511  29.001  1.00  0.00    -0.014 A 
BRANCH  57  58
ATOM     58  C   UNL A   1      40.617  28.040  29.127  1.00  0.00     0.031 A 
ATOM     59  C   UNL A   1      41.005  26.708  28.631  1.00  0.00     0.074 A 
ATOM     60  C   UNL A   1      41.567  28.871  29.610  1.00  0.00     0.049 A 
ATOM     61  N   UNL A   1      42.033  26.059  29.061  1.00  0.00    -0.248 NA
ATOM     62  C   UNL A   1      40.246  25.982  27.623  1.00  0.00     0.031 C 
ATOM     63  C   UNL A   1      43.016  28.697  29.533  1.00  0.00     0.029 A 
ATOM     64  N   UNL A   1      41.394  29.972  30.465  1.00  0.00    -0.354 N 
ATOM     65  C   UNL A   1      42.245  25.001  28.212  1.00  0.00     0.074 A 
ATOM     66  C   UNL A   1      41.065  24.953  27.378  1.00  0.00     0.031 C 
ATOM     67  C   UNL A   1      43.591  29.414  30.509  1.00  0.00     0.029 A 
ATOM     68  C   UNL A   1      42.520  29.956  31.322  1.00  0.00     0.049 A 
ATOM     69  H   UNL A   1      40.650  30.616  30.469  1.00  0.00     0.167 HD
ATOM     70  C   UNL A   1      43.459  24.375  28.224  1.00  0.00     0.037 A 
ATOM     71  C   UNL A   1      42.396  29.779  32.667  1.00  0.00     0.037 A 
ATOM     72  C   UNL A   1      44.346  24.946  29.239  1.00  0.00     0.049 A 
ATOM     73  C   UNL A   1      43.178  28.615  33.225  1.00  0.00     0.074 A 
ATOM     74  C   UNL A   1      45.416  25.826  29.182  1.00  0.00     0.029 A 
ATOM     75  N   UNL A   1      44.003  24.847  30.583  1.00  0.00    -0.354 N 
ATOM     76  N   UNL A   1      43.660  27.634  32.516  1.00  0.00    -0.248 NA
ATOM     77  C   UNL A   1      43.429  28.449  34.648  1.00  0.00     0.031 C 
ATOM     78  C   UNL A   1      45.756  26.205  30.506  1.00  0.00     0.029 A 
ATOM     79  C   UNL A   1      44.885  25.566  31.369  1.00  0.00     0.049 A 
ATOM     80  H   UNL A   1      43.237  24.335  30.928  1.00  0.00     0.167 HD
ATOM     81  C   UNL A   1      44.245  26.698  33.343  1.00  0.00     0.074 A 
ATOM     82  C   UNL A   1      44.082  27.274  34.665  1.00  0.00     0.031 C 
ATOM     83  C   UNL A   1      44.774  25.540  32.827  1.00  0.00     0.037 A 
BRANCH  70  84
ATOM     84  C   UNL A   1      43.937  23.442  27.131  1.00  0.00     0.064 A 
ATOM     85  C   UNL A   1      44.918  23.849  26.199  1.00  0.00     0.173 A 
ATOM     86  C   UNL A   1      43.433  22.145  26.917  1.00  0.00     0.173 A 
ATOM     87  F   UNL A   1      45.589  24.998  26.339  1.00  0.00    -0.203 F 
ATOM     88  C   UNL A   1      45.254  23.087  25.076  1.00  0.00     0.198 A 
ATOM     89  C   UNL A   1      43.725  21.406  25.764  1.00  0.00     0.198 A 
ATOM     90  F   UNL A   1      42.689  21.528  27.843  1.00  0.00    -0.203 F 
ATOM     91  F   UNL A   1      46.182  23.538  24.220  1.00  0.00    -0.200 F 
ATOM     92  C   UNL A   1      44.625  21.885  24.835  1.00  0.00     0.200 A 
ATOM     93  F   UNL A   1      43.126  20.223  25.564  1.00  0.00    -0.200 F 
ATOM     94  F   UNL A   1      44.905  21.180  23.731  1.00  0.00    -0.200 F 
ENDBRANCH  70  84
BRANCH  71  95
ATOM     95  C   UNL A   1      41.100  30.266  33.204  1.00  0.00     0.064 A 
ATOM     96  C   UNL A   1      40.888  31.656  33.284  1.00  0.00     0.173 A 
ATOM     97  C   UNL A   1      39.976  29.434  33.253  1.00  0.00     0.173 A 
ATOM     98  F   UNL A   1      41.935  32.496  33.238  1.00  0.00    -0.203 F 
ATOM     99  C   UNL A   1      39.603  32.193  33.279  1.00  0.00     0.198 A 
ATOM    100  C   UNL A   1      38.689  29.975  33.266  1.00  0.00     0.198 A 
ATOM    101  F   UNL A   1      40.113  28.103  33.166  1.00  0.00    -0.203 F 
ATOM    102  F   UNL A   1      39.433  33.521  33.228  1.00  0.00    -0.200 F 
ATOM    103  C   UNL A   1      38.505  31.351  33.239  1.00  0.00     0.200 A 
ATOM    104  F   UNL A   1      37.625  29.163  33.199  1.00  0.00    -0.200 F 
ATOM    105  F   UNL A   1      37.270  31.862  33.132  1.00  0.00    -0.200 F 
ENDBRANCH  71  95
BRANCH  83 106
ATOM    106  C   UNL A   1      45.288  24.286  33.548  1.00  0.00     0.064 A 
ATOM    107  C   UNL A   1      44.566  23.104  33.779  1.00  0.00     0.173 A 
ATOM    108  C   UNL A   1      46.634  24.230  34.015  1.00  0.00     0.173 A 
ATOM    109  F   UNL A   1      43.290  22.966  33.424  1.00  0.00    -0.203 F 
ATOM    110  C   UNL A   1      45.129  21.976  34.396  1.00  0.00     0.198 A 
ATOM    111  C   UNL A   1      47.200  23.099  34.609  1.00  0.00     0.198 A 
ATOM    112  F   UNL A   1      47.476  25.266  33.905  1.00  0.00    -0.203 F 
ATOM    113  F   UNL A   1      44.374  20.885  34.585  1.00  0.00    -0.200 F 
ATOM    114  C   UNL A   1      46.447  21.968  34.801  1.00  0.00     0.200 A 
ATOM    115  F   UNL A   1      48.489  23.119  34.980  1.00  0.00    -0.200 F 
ATOM    116  F   UNL A   1      46.984  20.879  35.365  1.00  0.00    -0.200 F 
ENDBRANCH  83 106
ENDBRANCH  57  58
ENDBRANCH  49  52
ENDBRANCH  47  48
ENDBRANCH  46  47
ENDBRANCH  45  46
ENDBRANCH  44  45
ENDBRANCH   1  44
TORSDOF 20
ENDMDL
MODEL 2
REMARK VINA RESULT:     -14.1      1.627      2.846
REMARK SMILES Cc1ccc(S(=O)(=O)n2cc(C(=O)C(=O)N[C@@H](Cc3c[nH]c4ccccc34)C(=O)NCCCCCCNC(=O)c3ccc(-c4c5nc(c(-c6c(F)c(F)c(F)c(F)c6F)c6ccc([nH]6)c(-c6c(F)c(F)c(F)c(F)c6F)c6nc(c(-c7c(F)c(F)c(F)c(F)c7F)c7ccc4[nH]7)C=C6)C=C5)cc3)c3ccccc32)cc1
REMARK SMILES IDX 32 1 31 2 30 3 28 4 29 5 17 7 16 8 14 9 15 10 12 12 13 13
REMARK SMILES IDX 11 14 9 15 10 16 108 17 103 18 107 19 104 20 106 21 105 22
REMARK SMILES IDX 6 23 7 24 8 25 5 26 1 27 2 28 3 29 110 30 4 31 109 32 18 33
REMARK SMILES IDX 19 34 20 35 27 36 21 37 22 38 26 39 23 41 25 42 24 43 33 44
REMARK SMILES IDX 34 45 35 46 36 47 37 48 38 49 39 51 40 52 41 53 102 54 42 55
REMARK SMILES IDX 101 56 43 57 44 58 45 59 95 60 46 61 100 62 94 63 96 64
REMARK SMILES IDX 47 65 99 66 93 67 92 68 48 70 80 71 60 72 79 73 61 74 64 75
REMARK SMILES IDX 78 76 97 77 62 78 63 79 77 81 98 82 65 83 49 84 50 85 58 86
REMARK SMILES IDX 51 87 52 88 56 89 59 90 53 91 54 92 57 93 55 94 81 95 82 96
REMARK SMILES IDX 90 97 83 98 84 99 88 100 91 101 85 102 86 103 89 104 87 105
REMARK SMILES IDX 66 106 67 107 75 108 68 109 69 110 73 111 76 112 70 113
REMARK SMILES IDX 71 114 74 115 72 116
REMARK H PARENT 30 6 16 11 21 40 37 50 96 69 64 80
REMARK Flexibility Score: inf
ROOT
ATOM      1  C   UNL A   1      31.541  28.132  26.917  1.00  0.00     0.021 C 
ENDROOT
BRANCH   1   2
ATOM      2  C   UNL A   1      32.276  26.832  26.611  1.00  0.00     0.116 C 
BRANCH   2   3
ATOM      3  N   UNL A   1      31.487  25.625  26.604  1.00  0.00    -0.354 N 
ATOM      4  C   UNL A   1      30.841  25.061  25.533  1.00  0.00     0.242 C 
ATOM      5  O   UNL A   1      30.795  23.824  25.513  1.00  0.00    -0.273 OA
ATOM      6  H   UNL A   1      31.403  25.152  27.464  1.00  0.00     0.163 HD
BRANCH   4   7
ATOM      7  C   UNL A   1      30.313  25.873  24.310  1.00  0.00     0.176 C 
BRANCH   7   8
ATOM      8  N   UNL A   1      30.845  25.495  22.981  1.00  0.00    -0.337 N 
ATOM      9  C   UNL A   1      32.156  25.385  22.529  1.00  0.00     0.293 C 
ATOM     10  O   UNL A   1      32.384  25.202  21.336  1.00  0.00    -0.265 OA
ATOM     11  H   UNL A   1      30.158  25.285  22.308  1.00  0.00     0.164 HD
BRANCH   9  12
ATOM     12  C   UNL A   1      33.330  25.448  23.512  1.00  0.00     0.252 C 
ATOM     13  O   UNL A   1      33.748  26.580  23.761  1.00  0.00    -0.283 OA
BRANCH  12  14
ATOM     14  C   UNL A   1      34.009  24.247  24.046  1.00  0.00     0.054 A 
ATOM     15  N   UNL A   1      35.393  22.719  25.005  1.00  0.00    -0.240 N 
ATOM     16  C   UNL A   1      35.242  24.076  24.697  1.00  0.00     0.117 A 
ATOM     17  C   UNL A   1      34.166  22.091  24.737  1.00  0.00     0.065 A 
ATOM     18  C   UNL A   1      33.497  22.926  23.845  1.00  0.00     0.012 A 
ATOM     19  C   UNL A   1      33.736  20.768  24.965  1.00  0.00     0.028 A 
ATOM     20  C   UNL A   1      32.504  22.365  23.014  1.00  0.00     0.011 A 
ATOM     21  C   UNL A   1      32.802  20.221  24.086  1.00  0.00     0.002 A 
ATOM     22  C   UNL A   1      32.225  20.998  23.092  1.00  0.00     0.001 A 
BRANCH  15  23
ATOM     23  S   UNL A   1      36.743  21.692  24.554  1.00  0.00     0.268 S 
ATOM     24  O   UNL A   1      37.118  22.200  23.245  1.00  0.00    -0.201 OA
ATOM     25  O   UNL A   1      36.180  20.357  24.709  1.00  0.00    -0.201 OA
BRANCH  23  26
ATOM     26  C   UNL A   1      38.258  21.509  25.428  1.00  0.00     0.088 A 
ATOM     27  C   UNL A   1      41.737  20.030  27.529  1.00  0.00     0.044 C 
ATOM     28  C   UNL A   1      40.562  20.588  26.776  1.00  0.00    -0.051 A 
ATOM     29  C   UNL A   1      39.855  19.717  25.961  1.00  0.00     0.005 A 
ATOM     30  C   UNL A   1      40.115  21.923  26.898  1.00  0.00     0.005 A 
ATOM     31  C   UNL A   1      38.734  20.178  25.294  1.00  0.00     0.022 A 
ATOM     32  C   UNL A   1      38.955  22.396  26.228  1.00  0.00     0.022 A 
ENDBRANCH  23  26
ENDBRANCH  15  23
ENDBRANCH  12  14
ENDBRANCH   9  12
ENDBRANCH   7   8
BRANCH   7  33
ATOM     33  C   UNL A   1      28.763  26.069  24.334  1.00  0.00     0.072 C 
BRANCH  33  34
ATOM     34  C   UNL A   1      28.176  27.320  23.725  1.00  0.00    -0.020 A 
ATOM     35  C   UNL A   1      26.828  27.635  23.670  1.00  0.00     0.087 A 
ATOM     36  C   UNL A   1      28.863  28.415  23.096  1.00  0.00     0.003 A 
ATOM     37  N   UNL A   1      26.673  28.796  22.960  1.00  0.00    -0.361 N 
ATOM     38  C   UNL A   1      27.895  29.235  22.510  1.00  0.00     0.046 A 
ATOM     39  C   UNL A   1      30.219  28.741  22.886  1.00  0.00     0.010 A 
ATOM     40  H   UNL A   1      25.815  29.249  22.797  1.00  0.00     0.166 HD
ATOM     41  C   UNL A   1      28.213  30.285  21.637  1.00  0.00     0.026 A 
ATOM     42  C   UNL A   1      30.556  29.765  21.995  1.00  0.00     0.001 A 
ATOM     43  C   UNL A   1      29.565  30.510  21.362  1.00  0.00     0.002 A 
ENDBRANCH  33  34
ENDBRANCH   7  33
ENDBRANCH   4   7
ENDBRANCH   2   3
ENDBRANCH   1   2
BRANCH   1  44
ATOM     44  C   UNL A   1      31.848  29.356  26.047  1.00  0.00     0.002 C 
BRANCH  44  45
ATOM     45  C   UNL A   1      31.809  30.753  26.690  1.00  0.00     0.002 C 
BRANCH  45  46
ATOM     46  C   UNL A   1      33.139  31.461  26.950  1.00  0.00     0.021 C 
BRANCH  46  47
ATOM     47  C   UNL A   1      34.117  30.728  27.857  1.00  0.00     0.116 C 
BRANCH  47  48
ATOM     48  N   UNL A   1      34.576  31.499  29.007  1.00  0.00    -0.352 N 
ATOM     49  C   UNL A   1      35.718  31.323  29.779  1.00  0.00     0.251 C 
ATOM     50  H   UNL A   1      33.996  32.249  29.274  1.00  0.00     0.163 HD
ATOM     51  O   UNL A   1      35.947  32.040  30.731  1.00  0.00    -0.269 OA
BRANCH  49  52
ATOM     52  C   UNL A   1      36.726  30.325  29.337  1.00  0.00     0.039 A 
ATOM     53  C   UNL A   1      36.897  29.178  30.120  1.00  0.00     0.014 A 
ATOM     54  C   UNL A   1      37.633  30.631  28.327  1.00  0.00     0.014 A 
ATOM     55  C   UNL A   1      38.109  28.497  30.070  1.00  0.00     0.010 A 
ATOM     56  C   UNL A   1      38.873  30.029  28.353  1.00  0.00     0.010 A 
ATOM     57  C   UNL A   1      39.133  29.012  29.276  1.00  0.00    -0.014 A 
BRANCH  57  58
ATOM     58  C   UNL A   1      40.531  28.634  29.433  1.00  0.00     0.031 A 
ATOM     59  C   UNL A   1      41.057  27.412  28.801  1.00  0.00     0.074 A 
ATOM     60  C   UNL A   1      41.380  29.467  30.076  1.00  0.00     0.049 A 
ATOM     61  N   UNL A   1      42.111  26.793  29.214  1.00  0.00    -0.248 NA
ATOM     62  C   UNL A   1      40.419  26.765  27.664  1.00  0.00     0.031 C 
ATOM     63  C   UNL A   1      42.840  29.415  30.073  1.00  0.00     0.029 A 
ATOM     64  N   UNL A   1      41.068  30.432  31.048  1.00  0.00    -0.354 N 
ATOM     65  C   UNL A   1      42.457  25.872  28.257  1.00  0.00     0.074 A 
ATOM     66  C   UNL A   1      41.333  25.842  27.348  1.00  0.00     0.031 C 
ATOM     67  C   UNL A   1      43.298  30.043  31.167  1.00  0.00     0.029 A 
ATOM     68  C   UNL A   1      42.142  30.392  31.969  1.00  0.00     0.049 A 
ATOM     69  H   UNL A   1      40.273  31.012  31.082  1.00  0.00     0.167 HD
ATOM     70  C   UNL A   1      43.717  25.345  28.271  1.00  0.00     0.037 A 
ATOM     71  C   UNL A   1      41.959  30.034  33.270  1.00  0.00     0.037 A 
ATOM     72  C   UNL A   1      44.495  25.846  29.405  1.00  0.00     0.049 A 
ATOM     73  C   UNL A   1      42.803  28.871  33.730  1.00  0.00     0.074 A 
ATOM     74  C   UNL A   1      45.488  26.805  29.528  1.00  0.00     0.029 A 
ATOM     75  N   UNL A   1      44.088  25.549  30.701  1.00  0.00    -0.354 N 
ATOM     76  N   UNL A   1      43.404  28.029  32.938  1.00  0.00    -0.248 NA
ATOM     77  C   UNL A   1      42.987  28.542  35.135  1.00  0.00     0.031 C 
ATOM     78  C   UNL A   1      45.721  27.035  30.908  1.00  0.00     0.029 A 
ATOM     79  C   UNL A   1      44.861  26.225  31.627  1.00  0.00     0.049 A 
ATOM     80  H   UNL A   1      43.349  24.939  30.929  1.00  0.00     0.167 HD
ATOM     81  C   UNL A   1      44.019  27.042  33.679  1.00  0.00     0.074 A 
ATOM     82  C   UNL A   1      43.735  27.429  35.049  1.00  0.00     0.031 C 
ATOM     83  C   UNL A   1      44.672  26.003  33.060  1.00  0.00     0.037 A 
BRANCH  70  84
ATOM     84  C   UNL A   1      44.332  24.598  27.105  1.00  0.00     0.064 A 
ATOM     85  C   UNL A   1      44.083  23.222  26.905  1.00  0.00     0.173 A 
ATOM     86  C   UNL A   1      45.217  25.171  26.173  1.00  0.00     0.173 A 
ATOM     87  F   UNL A   1      43.168  22.560  27.622  1.00  0.00    -0.203 F 
ATOM     88  C   UNL A   1      44.768  22.462  25.953  1.00  0.00     0.198 A 
ATOM     89  C   UNL A   1      45.946  24.403  25.257  1.00  0.00     0.198 A 
ATOM     90  F   UNL A   1      45.362  26.498  26.078  1.00  0.00    -0.203 F 
ATOM     91  F   UNL A   1      44.497  21.156  25.824  1.00  0.00    -0.200 F 
ATOM     92  C   UNL A   1      45.732  23.044  25.158  1.00  0.00     0.200 A 
ATOM     93  F   UNL A   1      46.858  24.994  24.471  1.00  0.00    -0.200 F 
ATOM     94  F   UNL A   1      46.430  22.306  24.283  1.00  0.00    -0.200 F 
ENDBRANCH  70  84
BRANCH  71  95
ATOM     95  C   UNL A   1      40.598  30.347  33.777  1.00  0.00     0.064 A 
ATOM     96  C   UNL A   1      40.307  31.677  34.137  1.00  0.00     0.173 A 
ATOM     97  C   UNL A   1      39.519  29.489  33.538  1.00  0.00     0.173 A 
ATOM     98  F   UNL A   1      41.309  32.540  34.374  1.00  0.00    -0.203 F 
ATOM     99  C   UNL A   1      39.002  32.160  34.129  1.00  0.00     0.198 A 
ATOM    100  C   UNL A   1      38.209  29.972  33.549  1.00  0.00     0.198 A 
ATOM    101  F   UNL A   1      39.732  28.215  33.177  1.00  0.00    -0.203 F 
ATOM    102  F   UNL A   1      38.767  33.460  34.354  1.00  0.00    -0.200 F 
ATOM    103  C   UNL A   1      37.956  31.312  33.805  1.00  0.00     0.200 A 
ATOM    104  F   UNL A   1      37.198  29.160  33.207  1.00  0.00    -0.200 F 
ATOM    105  F   UNL A   1      36.710  31.794  33.697  1.00  0.00    -0.200 F 
ENDBRANCH  71  95
BRANCH  83 106
ATOM    106  C   UNL A   1      45.248  24.710  33.652  1.00  0.00     0.064 A 
ATOM    107  C   UNL A   1      44.535  23.534  33.937  1.00  0.00     0.173 A 
ATOM    108  C   UNL A   1      46.644  24.606  33.922  1.00  0.00     0.173 A 
ATOM    109  F   UNL A   1      43.218  23.438  33.759  1.00  0.00    -0.203 F 
ATOM    110  C   UNL A   1      45.149  22.371  34.424  1.00  0.00     0.198 A 
ATOM    111  C   UNL A   1      47.258  23.440  34.387  1.00  0.00     0.198 A 
ATOM    112  F   UNL A   1      47.490  25.629  33.735  1.00  0.00    -0.203 F 
ATOM    113  F   UNL A   1      44.399  21.288  34.675  1.00  0.00    -0.200 F 
ATOM    114  C   UNL A   1      46.510  22.318  34.638  1.00  0.00     0.200 A 
ATOM    115  F   UNL A   1      48.586  23.418  34.572  1.00  0.00    -0.200 F 
ATOM    116  F   UNL A   1      47.092  21.195  35.079  1.00  0.00    -0.200 F 
ENDBRANCH  83 106
ENDBRANCH  57  58
ENDBRANCH  49  52
ENDBRANCH  47  48
ENDBRANCH  46  47
ENDBRANCH  45  46
ENDBRANCH  44  45
ENDBRANCH   1  44
TORSDOF 20
ENDMDL
MODEL 3
REMARK VINA RESULT:     -12.9      2.786      4.436
REMARK SMILES Cc1ccc(S(=O)(=O)n2cc(C(=O)C(=O)N[C@@H](Cc3c[nH]c4ccccc34)C(=O)NCCCCCCNC(=O)c3ccc(-c4c5nc(c(-c6c(F)c(F)c(F)c(F)c6F)c6ccc([nH]6)c(-c6c(F)c(F)c(F)c(F)c6F)c6nc(c(-c7c(F)c(F)c(F)c(F)c7F)c7ccc4[nH]7)C=C6)C=C5)cc3)c3ccccc32)cc1
REMARK SMILES IDX 32 1 31 2 30 3 28 4 29 5 17 7 16 8 14 9 15 10 12 12 13 13
REMARK SMILES IDX 11 14 9 15 10 16 108 17 103 18 107 19 104 20 106 21 105 22
REMARK SMILES IDX 6 23 7 24 8 25 5 26 1 27 2 28 3 29 110 30 4 31 109 32 18 33
REMARK SMILES IDX 19 34 20 35 27 36 21 37 22 38 26 39 23 41 25 42 24 43 33 44
REMARK SMILES IDX 34 45 35 46 36 47 37 48 38 49 39 51 40 52 41 53 102 54 42 55
REMARK SMILES IDX 101 56 43 57 44 58 45 59 95 60 46 61 100 62 94 63 96 64
REMARK SMILES IDX 47 65 99 66 93 67 92 68 48 70 80 71 60 72 79 73 61 74 64 75
REMARK SMILES IDX 78 76 97 77 62 78 63 79 77 81 98 82 65 83 49 84 50 85 58 86
REMARK SMILES IDX 51 87 52 88 56 89 59 90 53 91 54 92 57 93 55 94 81 95 82 96
REMARK SMILES IDX 90 97 83 98 84 99 88 100 91 101 85 102 86 103 89 104 87 105
REMARK SMILES IDX 66 106 67 107 75 108 68 109 69 110 73 111 76 112 70 113
REMARK SMILES IDX 71 114 74 115 72 116
REMARK H PARENT 30 6 16 11 21 40 37 50 96 69 64 80
REMARK Flexibility Score: inf
ROOT
ATOM      1  C   UNL A   1      34.795  30.728  27.327  1.00  0.00     0.021 C 
ENDROOT
BRANCH   1   2
ATOM      2  C   UNL A   1      34.297  29.289  27.284  1.00  0.00     0.116 C 
BRANCH   2   3
ATOM      3  N   UNL A   1      32.989  29.037  27.837  1.00  0.00    -0.354 N 
ATOM      4  C   UNL A   1      31.941  28.391  27.229  1.00  0.00     0.242 C 
ATOM      5  O   UNL A   1      31.214  27.715  27.967  1.00  0.00    -0.273 OA
ATOM      6  H   UNL A   1      32.828  29.364  28.752  1.00  0.00     0.163 HD
BRANCH   4   7
ATOM      7  C   UNL A   1      31.722  28.353  25.684  1.00  0.00     0.176 C 
BRANCH   7   8
ATOM      8  N   UNL A   1      31.041  27.156  25.139  1.00  0.00    -0.337 N 
ATOM      9  C   UNL A   1      31.523  26.126  24.337  1.00  0.00     0.293 C 
ATOM     10  O   UNL A   1      30.749  25.298  23.866  1.00  0.00    -0.265 OA
ATOM     11  H   UNL A   1      30.092  27.076  25.387  1.00  0.00     0.164 HD
BRANCH   9  12
ATOM     12  C   UNL A   1      33.025  25.985  24.064  1.00  0.00     0.252 C 
ATOM     13  O   UNL A   1      33.474  26.733  23.196  1.00  0.00    -0.283 OA
BRANCH  12  14
ATOM     14  C   UNL A   1      33.872  24.952  24.699  1.00  0.00     0.054 A 
ATOM     15  N   UNL A   1      35.507  23.513  25.352  1.00  0.00    -0.240 N 
ATOM     16  C   UNL A   1      35.182  24.518  24.434  1.00  0.00     0.117 A 
ATOM     17  C   UNL A   1      34.482  23.477  26.312  1.00  0.00     0.065 A 
ATOM     18  C   UNL A   1      33.376  24.071  25.711  1.00  0.00     0.012 A 
ATOM     19  C   UNL A   1      34.359  22.734  27.504  1.00  0.00     0.028 A 
ATOM     20  C   UNL A   1      32.091  23.745  26.197  1.00  0.00     0.011 A 
ATOM     21  C   UNL A   1      33.079  22.372  27.921  1.00  0.00     0.002 A 
ATOM     22  C   UNL A   1      31.958  22.835  27.249  1.00  0.00     0.001 A 
BRANCH  15  23
ATOM     23  S   UNL A   1      36.075  21.896  24.970  1.00  0.00     0.268 S 
ATOM     24  O   UNL A   1      37.006  21.612  26.049  1.00  0.00    -0.201 OA
ATOM     25  O   UNL A   1      36.539  22.049  23.597  1.00  0.00    -0.201 OA
BRANCH  23  26
ATOM     26  C   UNL A   1      35.089  20.449  24.820  1.00  0.00     0.088 A 
ATOM     27  C   UNL A   1      33.571  16.461  24.114  1.00  0.00     0.044 C 
ATOM     28  C   UNL A   1      34.060  17.851  24.406  1.00  0.00    -0.051 A 
ATOM     29  C   UNL A   1      35.426  18.026  24.571  1.00  0.00     0.005 A 
ATOM     30  C   UNL A   1      33.216  18.983  24.463  1.00  0.00     0.005 A 
ATOM     31  C   UNL A   1      35.921  19.299  24.787  1.00  0.00     0.022 A 
ATOM     32  C   UNL A   1      33.723  20.295  24.667  1.00  0.00     0.022 A 
ENDBRANCH  23  26
ENDBRANCH  15  23
ENDBRANCH  12  14
ENDBRANCH   9  12
ENDBRANCH   7   8
BRANCH   7  33
ATOM     33  C   UNL A   1      31.176  29.701  25.114  1.00  0.00     0.072 C 
BRANCH  33  34
ATOM     34  C   UNL A   1      30.257  29.667  23.916  1.00  0.00    -0.020 A 
ATOM     35  C   UNL A   1      30.019  28.565  23.111  1.00  0.00     0.087 A 
ATOM     36  C   UNL A   1      29.457  30.732  23.373  1.00  0.00     0.003 A 
ATOM     37  N   UNL A   1      29.210  28.941  22.072  1.00  0.00    -0.361 N 
ATOM     38  C   UNL A   1      28.939  30.286  22.154  1.00  0.00     0.046 A 
ATOM     39  C   UNL A   1      29.198  32.065  23.752  1.00  0.00     0.010 A 
ATOM     40  H   UNL A   1      28.873  28.339  21.371  1.00  0.00     0.166 HD
ATOM     41  C   UNL A   1      28.281  31.133  21.251  1.00  0.00     0.026 A 
ATOM     42  C   UNL A   1      28.570  32.933  22.852  1.00  0.00     0.001 A 
ATOM     43  C   UNL A   1      28.140  32.476  21.610  1.00  0.00     0.002 A 
ENDBRANCH  33  34
ENDBRANCH   7  33
ENDBRANCH   4   7
ENDBRANCH   2   3
ENDBRANCH   1   2
BRANCH   1  44
ATOM     44  C   UNL A   1      35.803  31.111  28.416  1.00  0.00     0.002 C 
BRANCH  44  45
ATOM     45  C   UNL A   1      35.319  31.938  29.620  1.00  0.00     0.002 C 
BRANCH  45  46
ATOM     46  C   UNL A   1      35.881  31.596  30.999  1.00  0.00     0.021 C 
BRANCH  46  47
ATOM     47  C   UNL A   1      35.018  31.992  32.187  1.00  0.00     0.116 C 
BRANCH  47  48
ATOM     48  N   UNL A   1      34.544  33.371  32.165  1.00  0.00    -0.352 N 
ATOM     49  C   UNL A   1      35.265  34.547  32.330  1.00  0.00     0.251 C 
ATOM     50  H   UNL A   1      33.578  33.485  32.010  1.00  0.00     0.163 HD
ATOM     51  O   UNL A   1      34.712  35.628  32.311  1.00  0.00    -0.269 OA
BRANCH  49  52
ATOM     52  C   UNL A   1      36.746  34.467  32.394  1.00  0.00     0.039 A 
ATOM     53  C   UNL A   1      37.467  34.739  31.226  1.00  0.00     0.014 A 
ATOM     54  C   UNL A   1      37.380  33.909  33.500  1.00  0.00     0.014 A 
ATOM     55  C   UNL A   1      38.743  34.204  31.076  1.00  0.00     0.010 A 
ATOM     56  C   UNL A   1      38.596  33.284  33.315  1.00  0.00     0.010 A 
ATOM     57  C   UNL A   1      39.241  33.371  32.078  1.00  0.00    -0.014 A 
BRANCH  57  58
ATOM     58  C   UNL A   1      40.359  32.460  31.875  1.00  0.00     0.031 A 
ATOM     59  C   UNL A   1      40.220  31.279  31.005  1.00  0.00     0.074 A 
ATOM     60  C   UNL A   1      41.566  32.754  32.407  1.00  0.00     0.049 A 
ATOM     61  N   UNL A   1      40.968  30.233  31.099  1.00  0.00    -0.248 NA
ATOM     62  C   UNL A   1      39.203  31.168  29.970  1.00  0.00     0.031 C 
ATOM     63  C   UNL A   1      42.851  32.143  32.075  1.00  0.00     0.029 A 
ATOM     64  N   UNL A   1      41.841  33.553  33.530  1.00  0.00    -0.354 N 
ATOM     65  C   UNL A   1      40.746  29.457  29.988  1.00  0.00     0.074 A 
ATOM     66  C   UNL A   1      39.586  30.044  29.354  1.00  0.00     0.031 C 
ATOM     67  C   UNL A   1      43.692  32.316  33.105  1.00  0.00     0.029 A 
ATOM     68  C   UNL A   1      42.927  32.920  34.178  1.00  0.00     0.049 A 
ATOM     69  H   UNL A   1      41.377  34.376  33.806  1.00  0.00     0.167 HD
ATOM     70  C   UNL A   1      41.655  28.492  29.661  1.00  0.00     0.037 A 
ATOM     71  C   UNL A   1      42.815  32.411  35.437  1.00  0.00     0.037 A 
ATOM     72  C   UNL A   1      42.736  28.419  30.645  1.00  0.00     0.049 A 
ATOM     73  C   UNL A   1      43.155  30.946  35.559  1.00  0.00     0.074 A 
ATOM     74  C   UNL A   1      44.045  28.875  30.655  1.00  0.00     0.029 A 
ATOM     75  N   UNL A   1      42.448  28.054  31.955  1.00  0.00    -0.354 N 
ATOM     76  N   UNL A   1      43.219  30.112  34.561  1.00  0.00    -0.248 NA
ATOM     77  C   UNL A   1      43.400  30.302  36.840  1.00  0.00     0.031 C 
ATOM     78  C   UNL A   1      44.564  28.720  31.967  1.00  0.00     0.029 A 
ATOM     79  C   UNL A   1      43.565  28.182  32.759  1.00  0.00     0.049 A 
ATOM     80  H   UNL A   1      41.567  27.746  32.268  1.00  0.00     0.167 HD
ATOM     81  C   UNL A   1      43.471  28.839  35.028  1.00  0.00     0.074 A 
ATOM     82  C   UNL A   1      43.591  29.027  36.462  1.00  0.00     0.031 C 
ATOM     83  C   UNL A   1      43.525  27.773  34.162  1.00  0.00     0.037 A 
BRANCH  70  84
ATOM     84  C   UNL A   1      41.713  27.812  28.308  1.00  0.00     0.064 A 
ATOM     85  C   UNL A   1      40.865  26.725  28.000  1.00  0.00     0.173 A 
ATOM     86  C   UNL A   1      42.618  28.152  27.286  1.00  0.00     0.173 A 
ATOM     87  F   UNL A   1      39.864  26.361  28.810  1.00  0.00    -0.203 F 
ATOM     88  C   UNL A   1      41.009  25.961  26.839  1.00  0.00     0.198 A 
ATOM     89  C   UNL A   1      42.803  27.356  26.150  1.00  0.00     0.198 A 
ATOM     90  F   UNL A   1      43.310  29.297  27.325  1.00  0.00    -0.203 F 
ATOM     91  F   UNL A   1      40.182  24.931  26.613  1.00  0.00    -0.200 F 
ATOM     92  C   UNL A   1      42.007  26.250  25.934  1.00  0.00     0.200 A 
ATOM     93  F   UNL A   1      43.760  27.672  25.265  1.00  0.00    -0.200 F 
ATOM     94  F   UNL A   1      42.184  25.485  24.847  1.00  0.00    -0.200 F 
ENDBRANCH  70  84
BRANCH  71  95
ATOM     95  C   UNL A   1      41.806  33.120  36.266  1.00  0.00     0.064 A 
ATOM     96  C   UNL A   1      40.540  32.526  36.434  1.00  0.00     0.173 A 
ATOM     97  C   UNL A   1      42.183  34.112  37.177  1.00  0.00     0.173 A 
ATOM     98  F   UNL A   1      40.134  31.566  35.586  1.00  0.00    -0.203 F 
ATOM     99  C   UNL A   1      39.746  32.817  37.539  1.00  0.00     0.198 A 
ATOM    100  C   UNL A   1      41.375  34.415  38.275  1.00  0.00     0.198 A 
ATOM    101  F   UNL A   1      43.382  34.704  37.079  1.00  0.00    -0.203 F 
ATOM    102  F   UNL A   1      38.603  32.144  37.738  1.00  0.00    -0.200 F 
ATOM    103  C   UNL A   1      40.179  33.740  38.475  1.00  0.00     0.200 A 
ATOM    104  F   UNL A   1      41.806  35.288  39.198  1.00  0.00    -0.200 F 
ATOM    105  F   UNL A   1      39.466  33.950  39.591  1.00  0.00    -0.200 F 
ENDBRANCH  71  95
BRANCH  83 106
ATOM    106  C   UNL A   1      43.591  26.268  34.457  1.00  0.00     0.064 A 
ATOM    107  C   UNL A   1      42.526  25.453  34.874  1.00  0.00     0.173 A 
ATOM    108  C   UNL A   1      44.811  25.554  34.266  1.00  0.00     0.173 A 
ATOM    109  F   UNL A   1      41.309  25.937  35.113  1.00  0.00    -0.203 F 
ATOM    110  C   UNL A   1      42.656  24.069  35.066  1.00  0.00     0.198 A 
ATOM    111  C   UNL A   1      44.934  24.173  34.437  1.00  0.00     0.198 A 
ATOM    112  F   UNL A   1      45.946  26.160  33.890  1.00  0.00    -0.203 F 
ATOM    113  F   UNL A   1      41.593  23.359  35.468  1.00  0.00    -0.200 F 
ATOM    114  C   UNL A   1      43.855  23.427  34.837  1.00  0.00     0.200 A 
ATOM    115  F   UNL A   1      46.111  23.576  34.193  1.00  0.00    -0.200 F 
ATOM    116  F   UNL A   1      43.964  22.102  34.997  1.00  0.00    -0.200 F 
ENDBRANCH  83 106
ENDBRANCH  57  58
ENDBRANCH  49  52
ENDBRANCH  47  48
ENDBRANCH  46  47
ENDBRANCH  45  46
ENDBRANCH  44  45
ENDBRANCH   1  44
TORSDOF 20
ENDMDL
