MODEL 1
REMARK VINA RESULT:     -11.2      0.000      0.000
REMARK SMILES C[C@H](CN(C)C(=O)c1ccc(F)c(F)c1F)C(=O)NCCCCCCNC(=O)c1ccc(-c2c3nc(c(-c4c(F)c(F)c(F)c(F)c4F)c4ccc([nH]4)c(-c4c(F)c(F)c(F)c(F)c4F)c4nc(c(-c5c(F)c(F)c(F)c(F)c5F)c5ccc2[nH]5)C=C4)C=C3)cc1
REMARK SMILES IDX 21 1 20 2 19 3 17 4 18 5 2 7 1 8 3 9 4 10 5 11 6 12 7 13
REMARK SMILES IDX 8 14 9 15 15 16 10 17 13 18 16 19 11 20 14 21 12 22 22 23
REMARK SMILES IDX 23 24 24 25 25 26 26 27 27 28 28 30 29 31 30 32 91 33 31 34
REMARK SMILES IDX 90 35 32 36 33 37 34 38 84 39 35 40 89 41 83 42 85 43 36 44
REMARK SMILES IDX 88 45 82 46 81 47 37 49 69 50 49 51 68 52 50 53 53 54 67 55
REMARK SMILES IDX 86 56 51 57 52 58 66 60 87 61 54 62 38 63 39 64 47 65 40 66
REMARK SMILES IDX 41 67 45 68 48 69 42 70 43 71 46 72 44 73 70 74 71 75 79 76
REMARK SMILES IDX 72 77 73 78 77 79 80 80 74 81 75 82 78 83 76 84 55 85 56 86
REMARK SMILES IDX 64 87 57 88 58 89 62 90 65 91 59 92 60 93 63 94 61 95
REMARK H PARENT 19 6 26 29 85 48 53 59
REMARK Flexibility Score: inf
ROOT
ATOM      1  C   UNL A   1      35.148  31.445  28.170  1.00  0.00     0.021 C 
ENDROOT
BRANCH   1   2
ATOM      2  C   UNL A   1      34.655  30.284  27.300  1.00  0.00     0.116 C 
BRANCH   2   3
ATOM      3  N   UNL A   1      33.364  30.575  26.715  1.00  0.00    -0.356 N 
ATOM      4  C   UNL A   1      32.572  29.842  25.890  1.00  0.00     0.224 C 
ATOM      5  O   UNL A   1      31.539  30.386  25.483  1.00  0.00    -0.275 OA
ATOM      6  H   UNL A   1      32.995  31.455  26.956  1.00  0.00     0.163 HD
BRANCH   4   7
ATOM      7  C   UNL A   1      32.882  28.400  25.468  1.00  0.00     0.095 C 
ATOM      8  C   UNL A   1      33.907  28.312  24.338  1.00  0.00     0.020 C 
BRANCH   7   9
ATOM      9  C   UNL A   1      31.631  27.490  25.413  1.00  0.00     0.132 C 
BRANCH   9  10
ATOM     10  N   UNL A   1      31.587  26.489  24.334  1.00  0.00    -0.341 N 
ATOM     11  C   UNL A   1      31.536  25.083  24.711  1.00  0.00     0.147 C 
BRANCH  10  12
ATOM     12  C   UNL A   1      31.102  26.865  23.088  1.00  0.00     0.256 C 
ATOM     13  O   UNL A   1      31.387  26.278  22.047  1.00  0.00    -0.269 OA
BRANCH  12  14
ATOM     14  C   UNL A   1      30.137  27.987  22.980  1.00  0.00     0.079 A 
ATOM     15  C   UNL A   1      30.544  29.151  22.313  1.00  0.00     0.020 A 
ATOM     16  C   UNL A   1      28.785  27.815  23.298  1.00  0.00     0.174 A 
ATOM     17  C   UNL A   1      29.605  30.129  21.973  1.00  0.00     0.043 A 
ATOM     18  C   UNL A   1      27.852  28.780  22.937  1.00  0.00     0.195 A 
ATOM     19  F   UNL A   1      28.342  26.691  23.874  1.00  0.00    -0.203 F 
ATOM     20  C   UNL A   1      28.260  29.927  22.272  1.00  0.00     0.161 A 
ATOM     21  F   UNL A   1      26.549  28.568  23.172  1.00  0.00    -0.200 F 
ATOM     22  F   UNL A   1      27.356  30.830  21.871  1.00  0.00    -0.204 F 
ENDBRANCH  12  14
ENDBRANCH  10  12
ENDBRANCH   9  10
ENDBRANCH   7   9
ENDBRANCH   4   7
ENDBRANCH   2   3
ENDBRANCH   1   2
BRANCH   1  23
ATOM     23  C   UNL A   1      34.056  32.322  28.792  1.00  0.00     0.002 C 
BRANCH  23  24
ATOM     24  C   UNL A   1      34.333  33.833  28.790  1.00  0.00     0.002 C 
BRANCH  24  25
ATOM     25  C   UNL A   1      33.108  34.756  28.820  1.00  0.00     0.021 C 
BRANCH  25  26
ATOM     26  C   UNL A   1      33.315  36.122  29.474  1.00  0.00     0.116 C 
BRANCH  26  27
ATOM     27  N   UNL A   1      32.517  36.279  30.677  1.00  0.00    -0.352 N 
ATOM     28  C   UNL A   1      32.633  35.698  31.916  1.00  0.00     0.251 C 
ATOM     29  H   UNL A   1      31.765  36.908  30.589  1.00  0.00     0.163 HD
ATOM     30  O   UNL A   1      31.706  35.804  32.713  1.00  0.00    -0.269 OA
BRANCH  28  31
ATOM     31  C   UNL A   1      33.846  34.943  32.323  1.00  0.00     0.039 A 
ATOM     32  C   UNL A   1      35.081  35.601  32.269  1.00  0.00     0.014 A 
ATOM     33  C   UNL A   1      33.808  33.584  32.647  1.00  0.00     0.014 A 
ATOM     34  C   UNL A   1      36.261  34.912  32.568  1.00  0.00     0.010 A 
ATOM     35  C   UNL A   1      34.982  32.912  33.006  1.00  0.00     0.010 A 
ATOM     36  C   UNL A   1      36.224  33.565  32.960  1.00  0.00    -0.014 A 
BRANCH  36  37
ATOM     37  C   UNL A   1      37.477  32.836  33.302  1.00  0.00     0.031 A 
ATOM     38  C   UNL A   1      38.203  33.112  34.591  1.00  0.00     0.074 A 
ATOM     39  C   UNL A   1      37.976  31.923  32.445  1.00  0.00     0.049 A 
ATOM     40  N   UNL A   1      39.318  32.591  35.042  1.00  0.00    -0.248 NA
ATOM     41  C   UNL A   1      37.608  34.118  35.484  1.00  0.00     0.031 C 
ATOM     42  C   UNL A   1      37.386  31.574  31.154  1.00  0.00     0.029 A 
ATOM     43  N   UNL A   1      39.087  31.119  32.534  1.00  0.00    -0.354 N 
ATOM     44  C   UNL A   1      39.556  33.204  36.266  1.00  0.00     0.074 A 
ATOM     45  C   UNL A   1      38.503  34.178  36.460  1.00  0.00     0.031 C 
ATOM     46  C   UNL A   1      38.115  30.600  30.588  1.00  0.00     0.029 A 
ATOM     47  C   UNL A   1      39.250  30.286  31.454  1.00  0.00     0.049 A 
ATOM     48  H   UNL A   1      39.707  31.139  33.298  1.00  0.00     0.167 HD
ATOM     49  C   UNL A   1      40.544  32.957  37.161  1.00  0.00     0.037 A 
ATOM     50  C   UNL A   1      40.203  29.372  31.186  1.00  0.00     0.037 A 
ATOM     51  C   UNL A   1      41.586  31.979  36.978  1.00  0.00     0.049 A 
ATOM     52  C   UNL A   1      41.312  29.140  32.175  1.00  0.00     0.074 A 
ATOM     53  C   UNL A   1      42.617  31.647  37.841  1.00  0.00     0.029 A 
ATOM     54  N   UNL A   1      41.729  31.173  35.858  1.00  0.00    -0.354 N 
ATOM     55  N   UNL A   1      41.512  29.710  33.338  1.00  0.00    -0.248 NA
ATOM     56  C   UNL A   1      42.326  28.138  31.816  1.00  0.00     0.031 C 
ATOM     57  C   UNL A   1      43.410  30.675  37.224  1.00  0.00     0.029 A 
ATOM     58  C   UNL A   1      42.844  30.360  35.999  1.00  0.00     0.049 A 
ATOM     59  H   UNL A   1      41.129  31.178  35.078  1.00  0.00     0.167 HD
ATOM     60  C   UNL A   1      42.661  29.128  33.857  1.00  0.00     0.074 A 
ATOM     61  C   UNL A   1      43.107  28.149  32.888  1.00  0.00     0.031 C 
ATOM     62  C   UNL A   1      43.286  29.388  35.030  1.00  0.00     0.037 A 
BRANCH  49  63
ATOM     63  C   UNL A   1      40.544  33.755  38.435  1.00  0.00     0.064 A 
ATOM     64  C   UNL A   1      39.715  33.393  39.508  1.00  0.00     0.173 A 
ATOM     65  C   UNL A   1      41.325  34.913  38.573  1.00  0.00     0.173 A 
ATOM     66  F   UNL A   1      38.940  32.301  39.426  1.00  0.00    -0.203 F 
ATOM     67  C   UNL A   1      39.664  34.164  40.666  1.00  0.00     0.198 A 
ATOM     68  C   UNL A   1      41.296  35.663  39.746  1.00  0.00     0.198 A 
ATOM     69  F   UNL A   1      42.142  35.299  37.580  1.00  0.00    -0.203 F 
ATOM     70  F   UNL A   1      38.844  33.814  41.667  1.00  0.00    -0.200 F 
ATOM     71  C   UNL A   1      40.460  35.293  40.787  1.00  0.00     0.200 A 
ATOM     72  F   UNL A   1      42.086  36.739  39.871  1.00  0.00    -0.200 F 
ATOM     73  F   UNL A   1      40.424  36.023  41.911  1.00  0.00    -0.200 F 
ENDBRANCH  49  63
BRANCH  50  74
ATOM     74  C   UNL A   1      40.113  28.582  29.932  1.00  0.00     0.064 A 
ATOM     75  C   UNL A   1      39.479  27.332  29.899  1.00  0.00     0.173 A 
ATOM     76  C   UNL A   1      40.716  29.040  28.752  1.00  0.00     0.173 A 
ATOM     77  F   UNL A   1      38.887  26.850  31.002  1.00  0.00    -0.203 F 
ATOM     78  C   UNL A   1      39.481  26.554  28.743  1.00  0.00     0.198 A 
ATOM     79  C   UNL A   1      40.697  28.273  27.589  1.00  0.00     0.198 A 
ATOM     80  F   UNL A   1      41.314  30.240  28.728  1.00  0.00    -0.203 F 
ATOM     81  F   UNL A   1      38.908  25.343  28.751  1.00  0.00    -0.200 F 
ATOM     82  C   UNL A   1      40.090  27.025  27.589  1.00  0.00     0.200 A 
ATOM     83  F   UNL A   1      41.266  28.741  26.471  1.00  0.00    -0.200 F 
ATOM     84  F   UNL A   1      40.093  26.277  26.477  1.00  0.00    -0.200 F 
ENDBRANCH  50  74
BRANCH  62  85
ATOM     85  C   UNL A   1      44.522  28.600  35.355  1.00  0.00     0.064 A 
ATOM     86  C   UNL A   1      45.783  29.038  34.918  1.00  0.00     0.173 A 
ATOM     87  C   UNL A   1      44.452  27.369  36.024  1.00  0.00     0.173 A 
ATOM     88  F   UNL A   1      45.904  30.205  34.267  1.00  0.00    -0.203 F 
ATOM     89  C   UNL A   1      46.923  28.264  35.121  1.00  0.00     0.198 A 
ATOM     90  C   UNL A   1      45.598  26.610  36.249  1.00  0.00     0.198 A 
ATOM     91  F   UNL A   1      43.274  26.910  36.471  1.00  0.00    -0.203 F 
ATOM     92  F   UNL A   1      48.108  28.687  34.662  1.00  0.00    -0.200 F 
ATOM     93  C   UNL A   1      46.830  27.053  35.789  1.00  0.00     0.200 A 
ATOM     94  F   UNL A   1      45.511  25.450  36.916  1.00  0.00    -0.200 F 
ATOM     95  F   UNL A   1      47.928  26.312  35.990  1.00  0.00    -0.200 F 
ENDBRANCH  62  85
ENDBRANCH  36  37
ENDBRANCH  28  31
ENDBRANCH  26  27
ENDBRANCH  25  26
ENDBRANCH  24  25
ENDBRANCH  23  24
ENDBRANCH   1  23
TORSDOF 17
ENDMDL
MODEL 2
REMARK VINA RESULT:     -11.1      0.430      7.163
REMARK SMILES C[C@H](CN(C)C(=O)c1ccc(F)c(F)c1F)C(=O)NCCCCCCNC(=O)c1ccc(-c2c3nc(c(-c4c(F)c(F)c(F)c(F)c4F)c4ccc([nH]4)c(-c4c(F)c(F)c(F)c(F)c4F)c4nc(c(-c5c(F)c(F)c(F)c(F)c5F)c5ccc2[nH]5)C=C4)C=C3)cc1
REMARK SMILES IDX 21 1 20 2 19 3 17 4 18 5 2 7 1 8 3 9 4 10 5 11 6 12 7 13
REMARK SMILES IDX 8 14 9 15 15 16 10 17 13 18 16 19 11 20 14 21 12 22 22 23
REMARK SMILES IDX 23 24 24 25 25 26 26 27 27 28 28 30 29 31 30 32 91 33 31 34
REMARK SMILES IDX 90 35 32 36 33 37 34 38 84 39 35 40 89 41 83 42 85 43 36 44
REMARK SMILES IDX 88 45 82 46 81 47 37 49 69 50 49 51 68 52 50 53 53 54 67 55
REMARK SMILES IDX 86 56 51 57 52 58 66 60 87 61 54 62 38 63 39 64 47 65 40 66
REMARK SMILES IDX 41 67 45 68 48 69 42 70 43 71 46 72 44 73 70 74 71 75 79 76
REMARK SMILES IDX 72 77 73 78 77 79 80 80 74 81 75 82 78 83 76 84 55 85 56 86
REMARK SMILES IDX 64 87 57 88 58 89 62 90 65 91 59 92 60 93 63 94 61 95
REMARK H PARENT 19 6 26 29 85 48 53 59
REMARK Flexibility Score: inf
ROOT
ATOM      1  C   UNL A   1      34.457  31.922  28.900  1.00  0.00     0.021 C 
ENDROOT
BRANCH   1   2
ATOM      2  C   UNL A   1      34.307  30.960  27.717  1.00  0.00     0.116 C 
BRANCH   2   3
ATOM      3  N   UNL A   1      33.037  31.142  27.047  1.00  0.00    -0.356 N 
ATOM      4  C   UNL A   1      32.338  30.323  26.220  1.00  0.00     0.224 C 
ATOM      5  O   UNL A   1      31.301  30.782  25.729  1.00  0.00    -0.275 OA
ATOM      6  H   UNL A   1      32.604  32.009  27.222  1.00  0.00     0.163 HD
BRANCH   4   7
ATOM      7  C   UNL A   1      32.755  28.883  25.892  1.00  0.00     0.095 C 
ATOM      8  C   UNL A   1      33.868  28.804  24.848  1.00  0.00     0.020 C 
BRANCH   7   9
ATOM      9  C   UNL A   1      31.562  27.903  25.787  1.00  0.00     0.132 C 
BRANCH   9  10
ATOM     10  N   UNL A   1      31.734  26.744  24.895  1.00  0.00    -0.341 N 
ATOM     11  C   UNL A   1      32.191  25.493  25.483  1.00  0.00     0.147 C 
BRANCH  10  12
ATOM     12  C   UNL A   1      31.019  26.701  23.704  1.00  0.00     0.256 C 
ATOM     13  O   UNL A   1      31.031  25.736  22.944  1.00  0.00    -0.269 OA
BRANCH  12  14
ATOM     14  C   UNL A   1      30.135  27.833  23.333  1.00  0.00     0.079 A 
ATOM     15  C   UNL A   1      30.681  28.883  22.582  1.00  0.00     0.020 A 
ATOM     16  C   UNL A   1      28.748  27.755  23.495  1.00  0.00     0.174 A 
ATOM     17  C   UNL A   1      29.843  29.841  22.003  1.00  0.00     0.043 A 
ATOM     18  C   UNL A   1      27.918  28.697  22.900  1.00  0.00     0.195 A 
ATOM     19  F   UNL A   1      28.179  26.734  24.148  1.00  0.00    -0.203 F 
ATOM     20  C   UNL A   1      28.463  29.730  22.153  1.00  0.00     0.161 A 
ATOM     21  F   UNL A   1      26.586  28.566  22.993  1.00  0.00    -0.200 F 
ATOM     22  F   UNL A   1      27.663  30.604  21.529  1.00  0.00    -0.204 F 
ENDBRANCH  12  14
ENDBRANCH  10  12
ENDBRANCH   9  10
ENDBRANCH   7   9
ENDBRANCH   4   7
ENDBRANCH   2   3
ENDBRANCH   1   2
BRANCH   1  23
ATOM     23  C   UNL A   1      35.331  33.156  28.650  1.00  0.00     0.002 C 
BRANCH  23  24
ATOM     24  C   UNL A   1      34.607  34.379  28.068  1.00  0.00     0.002 C 
BRANCH  24  25
ATOM     25  C   UNL A   1      33.280  34.771  28.731  1.00  0.00     0.021 C 
BRANCH  25  26
ATOM     26  C   UNL A   1      33.237  36.158  29.371  1.00  0.00     0.116 C 
BRANCH  26  27
ATOM     27  N   UNL A   1      32.438  36.176  30.583  1.00  0.00    -0.352 N 
ATOM     28  C   UNL A   1      32.609  35.534  31.784  1.00  0.00     0.251 C 
ATOM     29  H   UNL A   1      31.637  36.747  30.535  1.00  0.00     0.163 HD
ATOM     30  O   UNL A   1      31.682  35.516  32.589  1.00  0.00    -0.269 OA
BRANCH  28  31
ATOM     31  C   UNL A   1      33.883  34.857  32.142  1.00  0.00     0.039 A 
ATOM     32  C   UNL A   1      33.824  33.525  32.568  1.00  0.00     0.014 A 
ATOM     33  C   UNL A   1      35.106  35.533  32.173  1.00  0.00     0.014 A 
ATOM     34  C   UNL A   1      34.984  32.867  32.989  1.00  0.00     0.010 A 
ATOM     35  C   UNL A   1      36.276  34.856  32.536  1.00  0.00     0.010 A 
ATOM     36  C   UNL A   1      36.228  33.518  32.959  1.00  0.00    -0.014 A 
BRANCH  36  37
ATOM     37  C   UNL A   1      37.468  32.811  33.384  1.00  0.00     0.031 A 
ATOM     38  C   UNL A   1      38.099  31.765  32.507  1.00  0.00     0.074 A 
ATOM     39  C   UNL A   1      38.030  33.104  34.574  1.00  0.00     0.049 A 
ATOM     40  N   UNL A   1      39.165  31.033  32.726  1.00  0.00    -0.248 NA
ATOM     41  C   UNL A   1      37.440  31.492  31.222  1.00  0.00     0.031 C 
ATOM     42  C   UNL A   1      37.511  34.080  35.530  1.00  0.00     0.029 A 
ATOM     43  N   UNL A   1      39.163  32.614  35.178  1.00  0.00    -0.354 N 
ATOM     44  C   UNL A   1      39.301  30.216  31.610  1.00  0.00     0.074 A 
ATOM     45  C   UNL A   1      38.177  30.500  30.743  1.00  0.00     0.031 C 
ATOM     46  C   UNL A   1      38.342  34.148  36.582  1.00  0.00     0.029 A 
ATOM     47  C   UNL A   1      39.429  33.189  36.396  1.00  0.00     0.049 A 
ATOM     48  H   UNL A   1      39.730  31.917  34.776  1.00  0.00     0.167 HD
ATOM     49  C   UNL A   1      40.287  29.333  31.320  1.00  0.00     0.037 A 
ATOM     50  C   UNL A   1      40.432  32.972  37.270  1.00  0.00     0.037 A 
ATOM     51  C   UNL A   1      41.414  29.058  32.173  1.00  0.00     0.049 A 
ATOM     52  C   UNL A   1      41.496  31.960  36.946  1.00  0.00     0.074 A 
ATOM     53  C   UNL A   1      42.472  28.193  31.951  1.00  0.00     0.029 A 
ATOM     54  N   UNL A   1      41.632  29.644  33.412  1.00  0.00    -0.354 N 
ATOM     55  N   UNL A   1      41.624  31.211  35.878  1.00  0.00    -0.248 NA
ATOM     56  C   UNL A   1      42.554  31.762  37.947  1.00  0.00     0.031 C 
ATOM     57  C   UNL A   1      43.306  28.221  33.073  1.00  0.00     0.029 A 
ATOM     58  C   UNL A   1      42.797  29.143  33.974  1.00  0.00     0.049 A 
ATOM     59  H   UNL A   1      41.047  30.315  33.831  1.00  0.00     0.167 HD
ATOM     60  C   UNL A   1      42.782  30.468  36.068  1.00  0.00     0.074 A 
ATOM     61  C   UNL A   1      43.327  30.865  37.349  1.00  0.00     0.031 C 
ATOM     62  C   UNL A   1      43.336  29.540  35.252  1.00  0.00     0.037 A 
BRANCH  49  63
ATOM     63  C   UNL A   1      40.200  28.598  30.011  1.00  0.00     0.064 A 
ATOM     64  C   UNL A   1      39.541  27.363  29.924  1.00  0.00     0.173 A 
ATOM     65  C   UNL A   1      40.820  29.092  28.853  1.00  0.00     0.173 A 
ATOM     66  F   UNL A   1      38.940  26.838  31.003  1.00  0.00    -0.203 F 
ATOM     67  C   UNL A   1      39.511  26.648  28.729  1.00  0.00     0.198 A 
ATOM     68  C   UNL A   1      40.761  28.391  27.651  1.00  0.00     0.198 A 
ATOM     69  F   UNL A   1      41.457  30.274  28.879  1.00  0.00    -0.203 F 
ATOM     70  F   UNL A   1      38.900  25.456  28.678  1.00  0.00    -0.200 F 
ATOM     71  C   UNL A   1      40.114  27.166  27.593  1.00  0.00     0.200 A 
ATOM     72  F   UNL A   1      41.321  28.905  26.548  1.00  0.00    -0.200 F 
ATOM     73  F   UNL A   1      40.068  26.486  26.439  1.00  0.00    -0.200 F 
ENDBRANCH  49  63
BRANCH  50  74
ATOM     74  C   UNL A   1      40.484  33.770  38.521  1.00  0.00     0.064 A 
ATOM     75  C   UNL A   1      39.729  33.414  39.648  1.00  0.00     0.173 A 
ATOM     76  C   UNL A   1      41.248  34.944  38.590  1.00  0.00     0.173 A 
ATOM     77  F   UNL A   1      38.982  32.300  39.631  1.00  0.00    -0.203 F 
ATOM     78  C   UNL A   1      39.709  34.219  40.784  1.00  0.00     0.198 A 
ATOM     79  C   UNL A   1      41.247  35.736  39.736  1.00  0.00     0.198 A 
ATOM     80  F   UNL A   1      42.004  35.312  37.547  1.00  0.00    -0.203 F 
ATOM     81  F   UNL A   1      38.944  33.880  41.830  1.00  0.00    -0.200 F 
ATOM     82  C   UNL A   1      40.468  35.380  40.828  1.00  0.00     0.200 A 
ATOM     83  F   UNL A   1      41.998  36.844  39.783  1.00  0.00    -0.200 F 
ATOM     84  F   UNL A   1      40.448  36.155  41.921  1.00  0.00    -0.200 F 
ENDBRANCH  50  74
BRANCH  62  85
ATOM     85  C   UNL A   1      44.609  28.883  35.700  1.00  0.00     0.064 A 
ATOM     86  C   UNL A   1      45.854  29.395  35.301  1.00  0.00     0.173 A 
ATOM     87  C   UNL A   1      44.598  27.698  36.450  1.00  0.00     0.173 A 
ATOM     88  F   UNL A   1      45.921  30.521  34.575  1.00  0.00    -0.203 F 
ATOM     89  C   UNL A   1      47.038  28.736  35.622  1.00  0.00     0.198 A 
ATOM     90  C   UNL A   1      45.786  27.055  36.792  1.00  0.00     0.198 A 
ATOM     91  F   UNL A   1      43.436  27.172  36.865  1.00  0.00    -0.203 F 
ATOM     92  F   UNL A   1      48.212  29.225  35.198  1.00  0.00    -0.200 F 
ATOM     93  C   UNL A   1      47.003  27.568  36.369  1.00  0.00     0.200 A 
ATOM     94  F   UNL A   1      45.752  25.940  37.535  1.00  0.00    -0.200 F 
ATOM     95  F   UNL A   1      48.144  26.938  36.683  1.00  0.00    -0.200 F 
ENDBRANCH  62  85
ENDBRANCH  36  37
ENDBRANCH  28  31
ENDBRANCH  26  27
ENDBRANCH  25  26
ENDBRANCH  24  25
ENDBRANCH  23  24
ENDBRANCH   1  23
TORSDOF 17
ENDMDL
MODEL 3
REMARK VINA RESULT:     -11.0      1.787      2.487
REMARK SMILES C[C@H](CN(C)C(=O)c1ccc(F)c(F)c1F)C(=O)NCCCCCCNC(=O)c1ccc(-c2c3nc(c(-c4c(F)c(F)c(F)c(F)c4F)c4ccc([nH]4)c(-c4c(F)c(F)c(F)c(F)c4F)c4nc(c(-c5c(F)c(F)c(F)c(F)c5F)c5ccc2[nH]5)C=C4)C=C3)cc1
REMARK SMILES IDX 21 1 20 2 19 3 17 4 18 5 2 7 1 8 3 9 4 10 5 11 6 12 7 13
REMARK SMILES IDX 8 14 9 15 15 16 10 17 13 18 16 19 11 20 14 21 12 22 22 23
REMARK SMILES IDX 23 24 24 25 25 26 26 27 27 28 28 30 29 31 30 32 91 33 31 34
REMARK SMILES IDX 90 35 32 36 33 37 34 38 84 39 35 40 89 41 83 42 85 43 36 44
REMARK SMILES IDX 88 45 82 46 81 47 37 49 69 50 49 51 68 52 50 53 53 54 67 55
REMARK SMILES IDX 86 56 51 57 52 58 66 60 87 61 54 62 38 63 39 64 47 65 40 66
REMARK SMILES IDX 41 67 45 68 48 69 42 70 43 71 46 72 44 73 70 74 71 75 79 76
REMARK SMILES IDX 72 77 73 78 77 79 80 80 74 81 75 82 78 83 76 84 55 85 56 86
REMARK SMILES IDX 64 87 57 88 58 89 62 90 65 91 59 92 60 93 63 94 61 95
REMARK H PARENT 19 6 26 29 85 48 53 59
REMARK Flexibility Score: inf
ROOT
ATOM      1  C   UNL A   1      32.183  29.047  26.978  1.00  0.00     0.021 C 
ENDROOT
BRANCH   1   2
ATOM      2  C   UNL A   1      33.195  27.897  26.965  1.00  0.00     0.116 C 
BRANCH   2   3
ATOM      3  N   UNL A   1      33.511  27.489  25.612  1.00  0.00    -0.356 N 
ATOM      4  C   UNL A   1      33.592  26.256  25.047  1.00  0.00     0.224 C 
ATOM      5  O   UNL A   1      33.963  26.208  23.869  1.00  0.00    -0.275 OA
ATOM      6  H   UNL A   1      33.700  28.232  24.995  1.00  0.00     0.163 HD
BRANCH   4   7
ATOM      7  C   UNL A   1      33.232  24.957  25.779  1.00  0.00     0.095 C 
ATOM      8  C   UNL A   1      34.457  24.136  26.182  1.00  0.00     0.020 C 
BRANCH   7   9
ATOM      9  C   UNL A   1      32.011  24.225  25.173  1.00  0.00     0.132 C 
BRANCH   9  10
ATOM     10  N   UNL A   1      30.759  24.994  25.074  1.00  0.00    -0.341 N 
ATOM     11  C   UNL A   1      30.355  25.788  26.226  1.00  0.00     0.147 C 
BRANCH  10  12
ATOM     12  C   UNL A   1      30.288  25.352  23.817  1.00  0.00     0.256 C 
ATOM     13  O   UNL A   1      30.099  24.542  22.912  1.00  0.00    -0.269 OA
BRANCH  12  14
ATOM     14  C   UNL A   1      29.922  26.762  23.540  1.00  0.00     0.079 A 
ATOM     15  C   UNL A   1      30.879  27.591  22.938  1.00  0.00     0.020 A 
ATOM     16  C   UNL A   1      28.596  27.200  23.633  1.00  0.00     0.174 A 
ATOM     17  C   UNL A   1      30.508  28.842  22.438  1.00  0.00     0.043 A 
ATOM     18  C   UNL A   1      28.228  28.436  23.114  1.00  0.00     0.195 A 
ATOM     19  F   UNL A   1      27.637  26.416  24.139  1.00  0.00    -0.203 F 
ATOM     20  C   UNL A   1      29.179  29.248  22.514  1.00  0.00     0.161 A 
ATOM     21  F   UNL A   1      26.941  28.811  23.133  1.00  0.00    -0.200 F 
ATOM     22  F   UNL A   1      28.816  30.413  21.960  1.00  0.00    -0.204 F 
ENDBRANCH  12  14
ENDBRANCH  10  12
ENDBRANCH   9  10
ENDBRANCH   7   9
ENDBRANCH   4   7
ENDBRANCH   2   3
ENDBRANCH   1   2
BRANCH   1  23
ATOM     23  C   UNL A   1      32.273  30.029  25.805  1.00  0.00     0.002 C 
BRANCH  23  24
ATOM     24  C   UNL A   1      31.047  30.930  25.595  1.00  0.00     0.002 C 
BRANCH  24  25
ATOM     25  C   UNL A   1      31.067  32.292  26.300  1.00  0.00     0.021 C 
BRANCH  25  26
ATOM     26  C   UNL A   1      32.380  32.672  26.984  1.00  0.00     0.116 C 
BRANCH  26  27
ATOM     27  N   UNL A   1      32.368  34.041  27.469  1.00  0.00    -0.352 N 
ATOM     28  C   UNL A   1      33.062  34.639  28.491  1.00  0.00     0.251 C 
ATOM     29  H   UNL A   1      31.761  34.642  26.980  1.00  0.00     0.163 HD
ATOM     30  O   UNL A   1      32.720  35.756  28.870  1.00  0.00    -0.269 OA
BRANCH  28  31
ATOM     31  C   UNL A   1      34.213  33.977  29.158  1.00  0.00     0.039 A 
ATOM     32  C   UNL A   1      35.505  34.373  28.790  1.00  0.00     0.014 A 
ATOM     33  C   UNL A   1      34.051  32.909  30.045  1.00  0.00     0.014 A 
ATOM     34  C   UNL A   1      36.622  33.729  29.331  1.00  0.00     0.010 A 
ATOM     35  C   UNL A   1      35.169  32.306  30.633  1.00  0.00     0.010 A 
ATOM     36  C   UNL A   1      36.468  32.700  30.274  1.00  0.00    -0.014 A 
BRANCH  36  37
ATOM     37  C   UNL A   1      37.657  32.028  30.869  1.00  0.00     0.031 A 
ATOM     38  C   UNL A   1      38.127  32.378  32.255  1.00  0.00     0.074 A 
ATOM     39  C   UNL A   1      38.328  31.101  30.157  1.00  0.00     0.049 A 
ATOM     40  N   UNL A   1      39.154  31.913  32.923  1.00  0.00    -0.248 NA
ATOM     41  C   UNL A   1      37.352  33.395  32.981  1.00  0.00     0.031 C 
ATOM     42  C   UNL A   1      37.993  30.684  28.797  1.00  0.00     0.029 A 
ATOM     43  N   UNL A   1      39.425  30.340  30.480  1.00  0.00    -0.354 N 
ATOM     44  C   UNL A   1      39.149  32.578  34.142  1.00  0.00     0.074 A 
ATOM     45  C   UNL A   1      38.052  33.522  34.100  1.00  0.00     0.031 C 
ATOM     46  C   UNL A   1      38.840  29.715  28.415  1.00  0.00     0.029 A 
ATOM     47  C   UNL A   1      39.805  29.473  29.485  1.00  0.00     0.049 A 
ATOM     48  H   UNL A   1      39.894  30.410  31.342  1.00  0.00     0.167 HD
ATOM     49  C   UNL A   1      39.963  32.400  35.211  1.00  0.00     0.037 A 
ATOM     50  C   UNL A   1      40.815  28.582  29.434  1.00  0.00     0.037 A 
ATOM     51  C   UNL A   1      41.046  31.452  35.263  1.00  0.00     0.049 A 
ATOM     52  C   UNL A   1      41.731  28.426  30.617  1.00  0.00     0.074 A 
ATOM     53  C   UNL A   1      41.910  31.188  36.312  1.00  0.00     0.029 A 
ATOM     54  N   UNL A   1      41.413  30.610  34.223  1.00  0.00    -0.354 N 
ATOM     55  N   UNL A   1      41.700  29.046  31.771  1.00  0.00    -0.248 NA
ATOM     56  C   UNL A   1      42.820  27.447  30.492  1.00  0.00     0.031 C 
ATOM     57  C   UNL A   1      42.829  30.221  35.892  1.00  0.00     0.029 A 
ATOM     58  C   UNL A   1      42.505  29.841  34.600  1.00  0.00     0.049 A 
ATOM     59  H   UNL A   1      40.966  30.565  33.348  1.00  0.00     0.167 HD
ATOM     60  C   UNL A   1      42.750  28.524  32.515  1.00  0.00     0.074 A 
ATOM     61  C   UNL A   1      43.392  27.525  31.687  1.00  0.00     0.031 C 
ATOM     62  C   UNL A   1      43.143  28.849  33.770  1.00  0.00     0.037 A 
BRANCH  49  63
ATOM     63  C   UNL A   1      39.708  33.244  36.428  1.00  0.00     0.064 A 
ATOM     64  C   UNL A   1      38.811  32.820  37.421  1.00  0.00     0.173 A 
ATOM     65  C   UNL A   1      40.312  34.501  36.586  1.00  0.00     0.173 A 
ATOM     66  F   UNL A   1      38.198  31.631  37.317  1.00  0.00    -0.203 F 
ATOM     67  C   UNL A   1      38.524  33.626  38.519  1.00  0.00     0.198 A 
ATOM     68  C   UNL A   1      40.047  35.291  37.702  1.00  0.00     0.198 A 
ATOM     69  F   UNL A   1      41.184  34.950  35.670  1.00  0.00    -0.203 F 
ATOM     70  F   UNL A   1      37.641  33.213  39.440  1.00  0.00    -0.200 F 
ATOM     71  C   UNL A   1      39.147  34.856  38.663  1.00  0.00     0.200 A 
ATOM     72  F   UNL A   1      40.671  36.467  37.852  1.00  0.00    -0.200 F 
ATOM     73  F   UNL A   1      38.884  35.623  39.731  1.00  0.00    -0.200 F 
ENDBRANCH  49  63
BRANCH  50  74
ATOM     74  C   UNL A   1      40.977  27.744  28.219  1.00  0.00     0.064 A 
ATOM     75  C   UNL A   1      40.406  26.466  28.132  1.00  0.00     0.173 A 
ATOM     76  C   UNL A   1      41.761  28.185  27.144  1.00  0.00     0.173 A 
ATOM     77  F   UNL A   1      39.648  25.999  29.136  1.00  0.00    -0.203 F 
ATOM     78  C   UNL A   1      40.641  25.647  27.030  1.00  0.00     0.198 A 
ATOM     79  C   UNL A   1      41.976  27.375  26.031  1.00  0.00     0.198 A 
ATOM     80  F   UNL A   1      42.308  29.409  27.172  1.00  0.00    -0.203 F 
ATOM     81  F   UNL A   1      40.122  24.413  26.992  1.00  0.00    -0.200 F 
ATOM     82  C   UNL A   1      41.426  26.102  25.980  1.00  0.00     0.200 A 
ATOM     83  F   UNL A   1      42.715  27.826  25.009  1.00  0.00    -0.200 F 
ATOM     84  F   UNL A   1      41.653  25.314  24.920  1.00  0.00    -0.200 F 
ENDBRANCH  50  74
BRANCH  62  85
ATOM     85  C   UNL A   1      44.319  28.117  34.348  1.00  0.00     0.064 A 
ATOM     86  C   UNL A   1      45.621  28.620  34.188  1.00  0.00     0.173 A 
ATOM     87  C   UNL A   1      44.170  26.875  34.983  1.00  0.00     0.173 A 
ATOM     88  F   UNL A   1      45.819  29.799  33.581  1.00  0.00    -0.203 F 
ATOM     89  C   UNL A   1      46.728  27.899  34.627  1.00  0.00     0.198 A 
ATOM     90  C   UNL A   1      45.278  26.169  35.444  1.00  0.00     0.198 A 
ATOM     91  F   UNL A   1      42.948  26.355  35.169  1.00  0.00    -0.203 F 
ATOM     92  F   UNL A   1      47.962  28.383  34.430  1.00  0.00    -0.200 F 
ATOM     93  C   UNL A   1      46.556  26.676  35.257  1.00  0.00     0.200 A 
ATOM     94  F   UNL A   1      45.109  24.997  36.074  1.00  0.00    -0.200 F 
ATOM     95  F   UNL A   1      47.622  25.985  35.684  1.00  0.00    -0.200 F 
ENDBRANCH  62  85
ENDBRANCH  36  37
ENDBRANCH  28  31
ENDBRANCH  26  27
ENDBRANCH  25  26
ENDBRANCH  24  25
ENDBRANCH  23  24
ENDBRANCH   1  23
TORSDOF 17
ENDMDL
