MODEL 1
REMARK VINA RESULT:      -8.8      0.000      0.000
REMARK SMILES CCN1C(=O)[C@@H](CC(=O)Nc2cccc(C(=O)NCCCCCCNC(=O)c3ccc(-c4c5nc(c(-c6c(F)c(F)c(F)c(F)c6F)c6ccc([nH]6)c(-c6c(F)c(F)c(F)c(F)c6F)c6nc(c(-c7c(F)c(F)c(F)c(F)c7F)c7ccc4[nH]7)C=C6)C=C5)cc3)c2)S/C1=[NH+]\c1cc(Cl)c(O)c(Cl)c1
REMARK SMILES IDX 20 1 19 2 18 3 16 4 17 5 15 7 11 8 12 9 91 10 13 11 14 12
REMARK SMILES IDX 10 13 8 14 9 15 7 17 6 18 3 19 4 20 93 21 5 22 92 23 94 24
REMARK SMILES IDX 2 26 1 27 95 28 96 29 103 30 97 31 101 32 98 33 99 34 102 35
REMARK SMILES IDX 100 36 21 38 22 39 23 40 24 41 25 42 26 43 27 45 28 46 29 47
REMARK SMILES IDX 90 48 30 49 89 50 31 51 32 52 33 53 83 54 34 55 88 56 82 57
REMARK SMILES IDX 84 58 35 59 87 60 81 61 80 62 36 64 68 65 48 66 67 67 49 68
REMARK SMILES IDX 52 69 66 70 85 71 50 72 51 73 65 75 86 76 53 77 37 78 38 79
REMARK SMILES IDX 46 80 39 81 40 82 44 83 47 84 41 85 42 86 45 87 43 88 69 89
REMARK SMILES IDX 70 90 78 91 71 92 72 93 76 94 79 95 73 96 74 97 77 98 75 99
REMARK SMILES IDX 54 100 55 101 63 102 56 103 57 104 61 105 64 106 58 107
REMARK SMILES IDX 59 108 62 109 60 110
REMARK H PARENT 18 6 10 16 94 25 100 37 25 44 84 63 52 74
REMARK Flexibility Score: inf
ROOT
ATOM      1  C   UNL A   1      47.852  38.654  26.738  1.00  0.00     0.021 C 
ENDROOT
BRANCH   1   2
ATOM      2  C   UNL A   1      46.963  37.418  26.582  1.00  0.00     0.116 C 
BRANCH   2   3
ATOM      3  N   UNL A   1      47.634  36.334  25.892  1.00  0.00    -0.352 N 
ATOM      4  C   UNL A   1      47.458  34.987  25.708  1.00  0.00     0.251 C 
ATOM      5  O   UNL A   1      48.333  34.451  25.017  1.00  0.00    -0.269 OA
ATOM      6  H   UNL A   1      48.440  36.655  25.425  1.00  0.00     0.163 HD
BRANCH   4   7
ATOM      7  C   UNL A   1      46.342  34.112  26.211  1.00  0.00     0.041 A 
ATOM      8  C   UNL A   1      45.318  32.259  27.456  1.00  0.00     0.041 A 
ATOM      9  C   UNL A   1      44.059  32.620  26.979  1.00  0.00     0.026 A 
ATOM     10  C   UNL A   1      46.447  32.966  27.008  1.00  0.00     0.040 A 
ATOM     11  C   UNL A   1      43.918  33.742  26.171  1.00  0.00     0.003 A 
ATOM     12  C   UNL A   1      45.043  34.489  25.816  1.00  0.00     0.014 A 
BRANCH   8  13
ATOM     13  N   UNL A   1      45.375  31.123  28.282  1.00  0.00    -0.326 N 
ATOM     14  C   UNL A   1      45.421  29.785  28.017  1.00  0.00     0.226 C 
ATOM     15  O   UNL A   1      45.325  28.994  28.961  1.00  0.00    -0.275 OA
ATOM     16  H   UNL A   1      45.383  31.335  29.243  1.00  0.00     0.169 HD
BRANCH  14  17
ATOM     17  C   UNL A   1      45.723  29.244  26.629  1.00  0.00     0.128 C 
BRANCH  17  18
ATOM     18  C   UNL A   1      44.591  28.500  25.949  1.00  0.00     0.183 C 
ATOM     19  N   UNL A   1      42.305  28.022  26.563  1.00  0.00    -0.190 N 
ATOM     20  C   UNL A   1      43.210  29.022  26.264  1.00  0.00     0.324 C 
ATOM     21  C   UNL A   1      42.755  26.734  26.416  1.00  0.00     0.319 C 
ATOM     22  O   UNL A   1      42.902  30.204  26.151  1.00  0.00    -0.245 OA
ATOM     23  S   UNL A   1      44.503  26.720  26.247  1.00  0.00    -0.022 SA
ATOM     24  N   UNL A   1      41.982  25.698  26.376  1.00  0.00    -0.235 N 
ATOM     25  H   UNL A   1      41.020  25.828  26.535  1.00  0.00     0.313 HD
BRANCH  19  26
ATOM     26  C   UNL A   1      41.028  28.510  27.085  1.00  0.00     0.243 C 
ATOM     27  C   UNL A   1      40.690  28.422  28.548  1.00  0.00     0.054 C 
ENDBRANCH  19  26
BRANCH  24  28
ATOM     28  C   UNL A   1      42.449  24.392  26.116  1.00  0.00     0.128 A 
ATOM     29  C   UNL A   1      42.129  23.356  27.007  1.00  0.00     0.076 A 
ATOM     30  C   UNL A   1      43.312  24.100  25.057  1.00  0.00     0.076 A 
ATOM     31  C   UNL A   1      42.634  22.063  26.844  1.00  0.00     0.088 A 
ATOM     32  C   UNL A   1      43.804  22.802  24.879  1.00  0.00     0.088 A 
ATOM     33  Cl  UNL A   1      42.201  20.857  28.002  1.00  0.00    -0.080 Cl
ATOM     34  C   UNL A   1      43.474  21.780  25.773  1.00  0.00     0.153 A 
ATOM     35  Cl  UNL A   1      44.840  22.477  23.538  1.00  0.00    -0.080 Cl
BRANCH  34  36
ATOM     36  O   UNL A   1      43.971  20.513  25.617  1.00  0.00    -0.505 OA
ATOM     37  H   UNL A   1      43.460  19.773  25.883  1.00  0.00     0.293 HD
ENDBRANCH  34  36
ENDBRANCH  24  28
ENDBRANCH  17  18
ENDBRANCH  14  17
ENDBRANCH   8  13
ENDBRANCH   4   7
ENDBRANCH   2   3
ENDBRANCH   1   2
BRANCH   1  38
ATOM     38  C   UNL A   1      47.285  39.945  26.117  1.00  0.00     0.002 C 
BRANCH  38  39
ATOM     39  C   UNL A   1      45.784  39.921  25.765  1.00  0.00     0.002 C 
BRANCH  39  40
ATOM     40  C   UNL A   1      45.236  41.273  25.287  1.00  0.00     0.021 C 
BRANCH  40  41
ATOM     41  C   UNL A   1      44.335  42.011  26.275  1.00  0.00     0.116 C 
BRANCH  41  42
ATOM     42  N   UNL A   1      42.923  41.706  26.087  1.00  0.00    -0.352 N 
ATOM     43  C   UNL A   1      42.070  40.683  26.418  1.00  0.00     0.251 C 
ATOM     44  H   UNL A   1      42.460  42.422  25.593  1.00  0.00     0.163 HD
ATOM     45  O   UNL A   1      40.912  40.804  26.000  1.00  0.00    -0.269 OA
BRANCH  43  46
ATOM     46  C   UNL A   1      42.389  39.454  27.214  1.00  0.00     0.039 A 
ATOM     47  C   UNL A   1      42.367  38.225  26.525  1.00  0.00     0.014 A 
ATOM     48  C   UNL A   1      42.614  39.399  28.586  1.00  0.00     0.014 A 
ATOM     49  C   UNL A   1      42.557  36.997  27.182  1.00  0.00     0.010 A 
ATOM     50  C   UNL A   1      42.885  38.175  29.235  1.00  0.00     0.010 A 
ATOM     51  C   UNL A   1      42.834  36.950  28.553  1.00  0.00    -0.014 A 
BRANCH  51  52
ATOM     52  C   UNL A   1      42.999  35.644  29.275  1.00  0.00     0.031 A 
ATOM     53  C   UNL A   1      41.795  34.788  29.607  1.00  0.00     0.074 A 
ATOM     54  C   UNL A   1      44.221  35.206  29.649  1.00  0.00     0.049 A 
ATOM     55  N   UNL A   1      41.736  33.643  30.246  1.00  0.00    -0.248 NA
ATOM     56  C   UNL A   1      40.482  35.298  29.185  1.00  0.00     0.031 C 
ATOM     57  C   UNL A   1      45.480  35.921  29.439  1.00  0.00     0.029 A 
ATOM     58  N   UNL A   1      44.604  34.046  30.287  1.00  0.00    -0.354 N 
ATOM     59  C   UNL A   1      40.387  33.312  30.318  1.00  0.00     0.074 A 
ATOM     60  C   UNL A   1      39.658  34.403  29.709  1.00  0.00     0.031 C 
ATOM     61  C   UNL A   1      46.495  35.174  29.906  1.00  0.00     0.029 A 
ATOM     62  C   UNL A   1      45.962  33.941  30.483  1.00  0.00     0.049 A 
ATOM     63  H   UNL A   1      43.965  33.355  30.576  1.00  0.00     0.167 HD
ATOM     64  C   UNL A   1      39.801  32.193  30.814  1.00  0.00     0.037 A 
ATOM     65  C   UNL A   1      46.699  32.970  31.060  1.00  0.00     0.037 A 
ATOM     66  C   UNL A   1      40.510  31.074  31.379  1.00  0.00     0.049 A 
ATOM     67  C   UNL A   1      46.025  31.735  31.603  1.00  0.00     0.074 A 
ATOM     68  C   UNL A   1      39.997  29.877  31.851  1.00  0.00     0.029 A 
ATOM     69  N   UNL A   1      41.884  31.010  31.545  1.00  0.00    -0.354 N 
ATOM     70  N   UNL A   1      44.754  31.416  31.607  1.00  0.00    -0.248 NA
ATOM     71  C   UNL A   1      46.895  30.719  32.217  1.00  0.00     0.031 C 
ATOM     72  C   UNL A   1      41.055  29.105  32.340  1.00  0.00     0.029 A 
ATOM     73  C   UNL A   1      42.232  29.801  32.128  1.00  0.00     0.049 A 
ATOM     74  H   UNL A   1      42.518  31.717  31.289  1.00  0.00     0.167 HD
ATOM     75  C   UNL A   1      44.678  30.157  32.188  1.00  0.00     0.074 A 
ATOM     76  C   UNL A   1      46.030  29.759  32.511  1.00  0.00     0.031 C 
ATOM     77  C   UNL A   1      43.581  29.399  32.434  1.00  0.00     0.037 A 
BRANCH  64  78
ATOM     78  C   UNL A   1      38.301  32.107  30.754  1.00  0.00     0.064 A 
ATOM     79  C   UNL A   1      37.495  32.594  31.794  1.00  0.00     0.173 A 
ATOM     80  C   UNL A   1      37.662  31.580  29.622  1.00  0.00     0.173 A 
ATOM     81  F   UNL A   1      38.057  33.101  32.902  1.00  0.00    -0.203 F 
ATOM     82  C   UNL A   1      36.106  32.532  31.714  1.00  0.00     0.198 A 
ATOM     83  C   UNL A   1      36.272  31.548  29.532  1.00  0.00     0.198 A 
ATOM     84  F   UNL A   1      38.384  31.111  28.593  1.00  0.00    -0.203 F 
ATOM     85  F   UNL A   1      35.358  32.962  32.740  1.00  0.00    -0.200 F 
ATOM     86  C   UNL A   1      35.495  32.017  30.581  1.00  0.00     0.200 A 
ATOM     87  F   UNL A   1      35.684  31.064  28.429  1.00  0.00    -0.200 F 
ATOM     88  F   UNL A   1      34.159  31.967  30.502  1.00  0.00    -0.200 F 
ENDBRANCH  64  78
BRANCH  65  89
ATOM     89  C   UNL A   1      48.179  33.103  31.143  1.00  0.00     0.064 A 
ATOM     90  C   UNL A   1      48.780  33.847  32.170  1.00  0.00     0.173 A 
ATOM     91  C   UNL A   1      49.019  32.526  30.180  1.00  0.00     0.173 A 
ATOM     92  F   UNL A   1      48.018  34.443  33.098  1.00  0.00    -0.203 F 
ATOM     93  C   UNL A   1      50.161  34.030  32.215  1.00  0.00     0.198 A 
ATOM     94  C   UNL A   1      50.403  32.684  30.244  1.00  0.00     0.198 A 
ATOM     95  F   UNL A   1      48.496  31.807  29.177  1.00  0.00    -0.203 F 
ATOM     96  F   UNL A   1      50.703  34.794  33.174  1.00  0.00    -0.200 F 
ATOM     97  C   UNL A   1      50.971  33.445  31.255  1.00  0.00     0.200 A 
ATOM     98  F   UNL A   1      51.184  32.108  29.320  1.00  0.00    -0.200 F 
ATOM     99  F   UNL A   1      52.299  33.622  31.296  1.00  0.00    -0.200 F 
ENDBRANCH  65  89
BRANCH  77 100
ATOM    100  C   UNL A   1      43.793  28.042  33.043  1.00  0.00     0.064 A 
ATOM    101  C   UNL A   1      44.065  26.913  32.256  1.00  0.00     0.173 A 
ATOM    102  C   UNL A   1      43.759  27.876  34.436  1.00  0.00     0.173 A 
ATOM    103  F   UNL A   1      44.095  27.014  30.919  1.00  0.00    -0.203 F 
ATOM    104  C   UNL A   1      44.267  25.664  32.840  1.00  0.00     0.198 A 
ATOM    105  C   UNL A   1      43.990  26.633  35.018  1.00  0.00     0.198 A 
ATOM    106  F   UNL A   1      43.511  28.925  35.236  1.00  0.00    -0.203 F 
ATOM    107  F   UNL A   1      44.475  24.591  32.065  1.00  0.00    -0.200 F 
ATOM    108  C   UNL A   1      44.235  25.525  34.219  1.00  0.00     0.200 A 
ATOM    109  F   UNL A   1      43.973  26.504  36.352  1.00  0.00    -0.200 F 
ATOM    110  F   UNL A   1      44.435  24.324  34.779  1.00  0.00    -0.200 F 
ENDBRANCH  77 100
ENDBRANCH  51  52
ENDBRANCH  43  46
ENDBRANCH  41  42
ENDBRANCH  40  41
ENDBRANCH  39  40
ENDBRANCH  38  39
ENDBRANCH   1  38
TORSDOF 19
ENDMDL
MODEL 2
REMARK VINA RESULT:      -8.7      6.271     10.311
REMARK SMILES CCN1C(=O)[C@@H](CC(=O)Nc2cccc(C(=O)NCCCCCCNC(=O)c3ccc(-c4c5nc(c(-c6c(F)c(F)c(F)c(F)c6F)c6ccc([nH]6)c(-c6c(F)c(F)c(F)c(F)c6F)c6nc(c(-c7c(F)c(F)c(F)c(F)c7F)c7ccc4[nH]7)C=C6)C=C5)cc3)c2)S/C1=[NH+]\c1cc(Cl)c(O)c(Cl)c1
REMARK SMILES IDX 20 1 19 2 18 3 16 4 17 5 15 7 11 8 12 9 91 10 13 11 14 12
REMARK SMILES IDX 10 13 8 14 9 15 7 17 6 18 3 19 4 20 93 21 5 22 92 23 94 24
REMARK SMILES IDX 2 26 1 27 95 28 96 29 103 30 97 31 101 32 98 33 99 34 102 35
REMARK SMILES IDX 100 36 21 38 22 39 23 40 24 41 25 42 26 43 27 45 28 46 29 47
REMARK SMILES IDX 90 48 30 49 89 50 31 51 32 52 33 53 83 54 34 55 88 56 82 57
REMARK SMILES IDX 84 58 35 59 87 60 81 61 80 62 36 64 68 65 48 66 67 67 49 68
REMARK SMILES IDX 52 69 66 70 85 71 50 72 51 73 65 75 86 76 53 77 37 78 38 79
REMARK SMILES IDX 46 80 39 81 40 82 44 83 47 84 41 85 42 86 45 87 43 88 69 89
REMARK SMILES IDX 70 90 78 91 71 92 72 93 76 94 79 95 73 96 74 97 77 98 75 99
REMARK SMILES IDX 54 100 55 101 63 102 56 103 57 104 61 105 64 106 58 107
REMARK SMILES IDX 59 108 62 109 60 110
REMARK H PARENT 18 6 10 16 94 25 100 37 25 44 84 63 52 74
REMARK Flexibility Score: inf
ROOT
ATOM      1  C   UNL A   1      37.748  30.835  28.682  1.00  0.00     0.021 C 
ENDROOT
BRANCH   1   2
ATOM      2  C   UNL A   1      38.499  29.617  28.138  1.00  0.00     0.116 C 
BRANCH   2   3
ATOM      3  N   UNL A   1      38.647  28.568  29.127  1.00  0.00    -0.352 N 
ATOM      4  C   UNL A   1      39.019  27.248  29.157  1.00  0.00     0.251 C 
ATOM      5  O   UNL A   1      38.983  26.737  30.283  1.00  0.00    -0.269 OA
ATOM      6  H   UNL A   1      38.418  28.893  30.028  1.00  0.00     0.163 HD
BRANCH   4   7
ATOM      7  C   UNL A   1      39.479  26.380  28.017  1.00  0.00     0.041 A 
ATOM      8  C   UNL A   1      39.583  24.362  26.621  1.00  0.00     0.041 A 
ATOM      9  C   UNL A   1      40.543  24.961  25.807  1.00  0.00     0.026 A 
ATOM     10  C   UNL A   1      39.120  25.053  27.754  1.00  0.00     0.040 A 
ATOM     11  C   UNL A   1      40.937  26.272  26.048  1.00  0.00     0.003 A 
ATOM     12  C   UNL A   1      40.392  26.976  27.123  1.00  0.00     0.014 A 
BRANCH   8  13
ATOM     13  N   UNL A   1      39.225  23.041  26.302  1.00  0.00    -0.326 N 
ATOM     14  C   UNL A   1      38.121  22.496  25.712  1.00  0.00     0.226 C 
ATOM     15  O   UNL A   1      38.017  21.265  25.683  1.00  0.00    -0.275 OA
ATOM     16  H   UNL A   1      39.906  22.377  26.554  1.00  0.00     0.169 HD
BRANCH  14  17
ATOM     17  C   UNL A   1      37.096  23.341  24.974  1.00  0.00     0.128 C 
BRANCH  17  18
ATOM     18  C   UNL A   1      35.873  23.744  25.775  1.00  0.00     0.183 C 
ATOM     19  N   UNL A   1      33.594  22.948  25.851  1.00  0.00    -0.190 N 
ATOM     20  C   UNL A   1      34.915  22.617  26.079  1.00  0.00     0.324 C 
ATOM     21  C   UNL A   1      33.349  24.253  25.504  1.00  0.00     0.319 C 
ATOM     22  O   UNL A   1      35.270  21.559  26.588  1.00  0.00    -0.245 OA
ATOM     23  S   UNL A   1      34.849  25.058  25.076  1.00  0.00    -0.022 SA
ATOM     24  N   UNL A   1      32.176  24.800  25.529  1.00  0.00    -0.235 N 
ATOM     25  H   UNL A   1      31.401  24.231  25.736  1.00  0.00     0.313 HD
BRANCH  19  26
ATOM     26  C   UNL A   1      32.673  21.814  25.924  1.00  0.00     0.243 C 
ATOM     27  C   UNL A   1      32.436  20.913  24.742  1.00  0.00     0.054 C 
ENDBRANCH  19  26
BRANCH  24  28
ATOM     28  C   UNL A   1      31.955  26.171  25.276  1.00  0.00     0.128 A 
ATOM     29  C   UNL A   1      32.273  27.113  26.266  1.00  0.00     0.076 A 
ATOM     30  C   UNL A   1      31.329  26.628  24.114  1.00  0.00     0.076 A 
ATOM     31  C   UNL A   1      31.996  28.474  26.101  1.00  0.00     0.088 A 
ATOM     32  C   UNL A   1      31.068  27.992  23.938  1.00  0.00     0.088 A 
ATOM     33  Cl  UNL A   1      32.405  29.558  27.382  1.00  0.00    -0.080 Cl
ATOM     34  C   UNL A   1      31.394  28.919  24.931  1.00  0.00     0.153 A 
ATOM     35  Cl  UNL A   1      30.326  28.518  22.472  1.00  0.00    -0.080 Cl
BRANCH  34  36
ATOM     36  O   UNL A   1      31.120  30.253  24.774  1.00  0.00    -0.505 OA
ATOM     37  H   UNL A   1      31.410  30.703  24.005  1.00  0.00     0.293 HD
ENDBRANCH  34  36
ENDBRANCH  24  28
ENDBRANCH  17  18
ENDBRANCH  14  17
ENDBRANCH   8  13
ENDBRANCH   4   7
ENDBRANCH   2   3
ENDBRANCH   1   2
BRANCH   1  38
ATOM     38  C   UNL A   1      36.217  30.780  28.518  1.00  0.00     0.002 C 
BRANCH  38  39
ATOM     39  C   UNL A   1      35.548  32.068  27.998  1.00  0.00     0.002 C 
BRANCH  39  40
ATOM     40  C   UNL A   1      35.154  33.055  29.107  1.00  0.00     0.021 C 
BRANCH  40  41
ATOM     41  C   UNL A   1      34.190  34.166  28.695  1.00  0.00     0.116 C 
BRANCH  41  42
ATOM     42  N   UNL A   1      33.395  34.664  29.808  1.00  0.00    -0.352 N 
ATOM     43  C   UNL A   1      33.491  34.677  31.178  1.00  0.00     0.251 C 
ATOM     44  H   UNL A   1      32.572  35.107  29.496  1.00  0.00     0.163 HD
ATOM     45  O   UNL A   1      32.528  35.177  31.771  1.00  0.00    -0.269 OA
BRANCH  43  46
ATOM     46  C   UNL A   1      34.619  34.154  32.015  1.00  0.00     0.039 A 
ATOM     47  C   UNL A   1      35.695  35.032  32.253  1.00  0.00     0.014 A 
ATOM     48  C   UNL A   1      34.749  32.857  32.502  1.00  0.00     0.014 A 
ATOM     49  C   UNL A   1      36.851  34.627  32.944  1.00  0.00     0.010 A 
ATOM     50  C   UNL A   1      35.873  32.470  33.264  1.00  0.00     0.010 A 
ATOM     51  C   UNL A   1      36.956  33.337  33.476  1.00  0.00    -0.014 A 
BRANCH  51  52
ATOM     52  C   UNL A   1      38.199  32.878  34.179  1.00  0.00     0.031 A 
ATOM     53  C   UNL A   1      39.274  32.118  33.431  1.00  0.00     0.074 A 
ATOM     54  C   UNL A   1      38.387  33.127  35.493  1.00  0.00     0.049 A 
ATOM     55  N   UNL A   1      40.405  31.619  33.872  1.00  0.00    -0.248 NA
ATOM     56  C   UNL A   1      39.035  31.865  32.002  1.00  0.00     0.031 C 
ATOM     57  C   UNL A   1      37.439  33.814  36.370  1.00  0.00     0.029 A 
ATOM     58  N   UNL A   1      39.445  32.828  36.324  1.00  0.00    -0.354 N 
ATOM     59  C   UNL A   1      40.995  30.982  32.786  1.00  0.00     0.074 A 
ATOM     60  C   UNL A   1      40.072  31.107  31.679  1.00  0.00     0.031 C 
ATOM     61  C   UNL A   1      37.969  33.914  37.601  1.00  0.00     0.029 A 
ATOM     62  C   UNL A   1      39.279  33.267  37.617  1.00  0.00     0.049 A 
ATOM     63  H   UNL A   1      40.247  32.344  36.020  1.00  0.00     0.167 HD
ATOM     64  C   UNL A   1      42.205  30.373  32.698  1.00  0.00     0.037 A 
ATOM     65  C   UNL A   1      40.084  33.164  38.695  1.00  0.00     0.037 A 
ATOM     66  C   UNL A   1      43.159  30.281  33.773  1.00  0.00     0.049 A 
ATOM     67  C   UNL A   1      41.425  32.485  38.573  1.00  0.00     0.074 A 
ATOM     68  C   UNL A   1      44.432  29.733  33.751  1.00  0.00     0.029 A 
ATOM     69  N   UNL A   1      42.951  30.751  35.059  1.00  0.00    -0.354 N 
ATOM     70  N   UNL A   1      41.988  31.942  37.521  1.00  0.00    -0.248 NA
ATOM     71  C   UNL A   1      42.247  32.412  39.792  1.00  0.00     0.031 C 
ATOM     72  C   UNL A   1      44.978  29.835  35.034  1.00  0.00     0.029 A 
ATOM     73  C   UNL A   1      44.065  30.490  35.843  1.00  0.00     0.049 A 
ATOM     74  H   UNL A   1      42.134  31.202  35.371  1.00  0.00     0.167 HD
ATOM     75  C   UNL A   1      43.234  31.497  37.942  1.00  0.00     0.074 A 
ATOM     76  C   UNL A   1      43.356  31.845  39.341  1.00  0.00     0.031 C 
ATOM     77  C   UNL A   1      44.192  30.853  37.230  1.00  0.00     0.037 A 
BRANCH  64  78
ATOM     78  C   UNL A   1      42.585  29.765  31.377  1.00  0.00     0.064 A 
ATOM     79  C   UNL A   1      42.316  28.420  31.083  1.00  0.00     0.173 A 
ATOM     80  C   UNL A   1      43.175  30.550  30.375  1.00  0.00     0.173 A 
ATOM     81  F   UNL A   1      41.760  27.625  32.009  1.00  0.00    -0.203 F 
ATOM     82  C   UNL A   1      42.649  27.876  29.845  1.00  0.00     0.198 A 
ATOM     83  C   UNL A   1      43.479  30.010  29.127  1.00  0.00     0.198 A 
ATOM     84  F   UNL A   1      43.443  31.845  30.598  1.00  0.00    -0.203 F 
ATOM     85  F   UNL A   1      42.425  26.577  29.604  1.00  0.00    -0.200 F 
ATOM     86  C   UNL A   1      43.223  28.673  28.865  1.00  0.00     0.200 A 
ATOM     87  F   UNL A   1      44.019  30.786  28.176  1.00  0.00    -0.200 F 
ATOM     88  F   UNL A   1      43.535  28.150  27.672  1.00  0.00    -0.200 F 
ENDBRANCH  64  78
BRANCH  65  89
ATOM     89  C   UNL A   1      39.661  33.739  40.002  1.00  0.00     0.064 A 
ATOM     90  C   UNL A   1      40.082  35.017  40.397  1.00  0.00     0.173 A 
ATOM     91  C   UNL A   1      38.865  33.009  40.896  1.00  0.00     0.173 A 
ATOM     92  F   UNL A   1      40.869  35.742  39.590  1.00  0.00    -0.203 F 
ATOM     93  C   UNL A   1      39.743  35.533  41.647  1.00  0.00     0.198 A 
ATOM     94  C   UNL A   1      38.501  33.538  42.133  1.00  0.00     0.198 A 
ATOM     95  F   UNL A   1      38.438  31.781  40.568  1.00  0.00    -0.203 F 
ATOM     96  F   UNL A   1      40.207  36.733  42.023  1.00  0.00    -0.200 F 
ATOM     97  C   UNL A   1      38.949  34.796  42.512  1.00  0.00     0.200 A 
ATOM     98  F   UNL A   1      37.725  32.827  42.962  1.00  0.00    -0.200 F 
ATOM     99  F   UNL A   1      38.626  35.290  43.715  1.00  0.00    -0.200 F 
ENDBRANCH  65  89
BRANCH  77 100
ATOM    100  C   UNL A   1      45.478  30.520  37.934  1.00  0.00     0.064 A 
ATOM    101  C   UNL A   1      45.719  29.244  38.465  1.00  0.00     0.173 A 
ATOM    102  C   UNL A   1      46.495  31.480  38.047  1.00  0.00     0.173 A 
ATOM    103  F   UNL A   1      44.775  28.294  38.395  1.00  0.00    -0.203 F 
ATOM    104  C   UNL A   1      46.920  28.951  39.107  1.00  0.00     0.198 A 
ATOM    105  C   UNL A   1      47.705  31.175  38.663  1.00  0.00     0.198 A 
ATOM    106  F   UNL A   1      46.319  32.714  37.549  1.00  0.00    -0.203 F 
ATOM    107  F   UNL A   1      47.110  27.741  39.650  1.00  0.00    -0.200 F 
ATOM    108  C   UNL A   1      47.914  29.913  39.200  1.00  0.00     0.200 A 
ATOM    109  F   UNL A   1      48.670  32.103  38.740  1.00  0.00    -0.200 F 
ATOM    110  F   UNL A   1      49.071  29.628  39.814  1.00  0.00    -0.200 F 
ENDBRANCH  77 100
ENDBRANCH  51  52
ENDBRANCH  43  46
ENDBRANCH  41  42
ENDBRANCH  40  41
ENDBRANCH  39  40
ENDBRANCH  38  39
ENDBRANCH   1  38
TORSDOF 19
ENDMDL
MODEL 3
REMARK VINA RESULT:      -8.6      4.112      8.682
REMARK SMILES CCN1C(=O)[C@@H](CC(=O)Nc2cccc(C(=O)NCCCCCCNC(=O)c3ccc(-c4c5nc(c(-c6c(F)c(F)c(F)c(F)c6F)c6ccc([nH]6)c(-c6c(F)c(F)c(F)c(F)c6F)c6nc(c(-c7c(F)c(F)c(F)c(F)c7F)c7ccc4[nH]7)C=C6)C=C5)cc3)c2)S/C1=[NH+]\c1cc(Cl)c(O)c(Cl)c1
REMARK SMILES IDX 20 1 19 2 18 3 16 4 17 5 15 7 11 8 12 9 91 10 13 11 14 12
REMARK SMILES IDX 10 13 8 14 9 15 7 17 6 18 3 19 4 20 93 21 5 22 92 23 94 24
REMARK SMILES IDX 2 26 1 27 95 28 96 29 103 30 97 31 101 32 98 33 99 34 102 35
REMARK SMILES IDX 100 36 21 38 22 39 23 40 24 41 25 42 26 43 27 45 28 46 29 47
REMARK SMILES IDX 90 48 30 49 89 50 31 51 32 52 33 53 83 54 34 55 88 56 82 57
REMARK SMILES IDX 84 58 35 59 87 60 81 61 80 62 36 64 68 65 48 66 67 67 49 68
REMARK SMILES IDX 52 69 66 70 85 71 50 72 51 73 65 75 86 76 53 77 37 78 38 79
REMARK SMILES IDX 46 80 39 81 40 82 44 83 47 84 41 85 42 86 45 87 43 88 69 89
REMARK SMILES IDX 70 90 78 91 71 92 72 93 76 94 79 95 73 96 74 97 77 98 75 99
REMARK SMILES IDX 54 100 55 101 63 102 56 103 57 104 61 105 64 106 58 107
REMARK SMILES IDX 59 108 62 109 60 110
REMARK H PARENT 18 6 10 16 94 25 100 37 25 44 84 63 52 74
REMARK Flexibility Score: inf
ROOT
ATOM      1  C   UNL A   1      36.213  33.302  29.369  1.00  0.00     0.021 C 
ENDROOT
BRANCH   1   2
ATOM      2  C   UNL A   1      36.621  31.945  28.789  1.00  0.00     0.116 C 
BRANCH   2   3
ATOM      3  N   UNL A   1      36.481  30.866  29.747  1.00  0.00    -0.352 N 
ATOM      4  C   UNL A   1      37.202  29.773  30.156  1.00  0.00     0.251 C 
ATOM      5  O   UNL A   1      36.651  29.104  31.038  1.00  0.00    -0.269 OA
ATOM      6  H   UNL A   1      35.633  30.938  30.242  1.00  0.00     0.163 HD
BRANCH   4   7
ATOM      7  C   UNL A   1      38.559  29.321  29.690  1.00  0.00     0.041 A 
ATOM      8  C   UNL A   1      40.448  29.094  28.137  1.00  0.00     0.041 A 
ATOM      9  C   UNL A   1      41.132  28.311  29.065  1.00  0.00     0.026 A 
ATOM     10  C   UNL A   1      39.144  29.526  28.435  1.00  0.00     0.040 A 
ATOM     11  C   UNL A   1      40.574  28.072  30.316  1.00  0.00     0.003 A 
ATOM     12  C   UNL A   1      39.318  28.592  30.628  1.00  0.00     0.014 A 
BRANCH   8  13
ATOM     13  N   UNL A   1      41.086  29.304  26.902  1.00  0.00    -0.326 N 
ATOM     14  C   UNL A   1      41.540  28.454  25.935  1.00  0.00     0.226 C 
ATOM     15  O   UNL A   1      42.196  28.924  25.000  1.00  0.00    -0.275 OA
ATOM     16  H   UNL A   1      41.235  30.255  26.693  1.00  0.00     0.169 HD
BRANCH  14  17
ATOM     17  C   UNL A   1      41.150  26.986  25.899  1.00  0.00     0.128 C 
BRANCH  17  18
ATOM     18  C   UNL A   1      42.111  26.030  26.580  1.00  0.00     0.183 C 
ATOM     19  N   UNL A   1      44.486  25.639  26.389  1.00  0.00    -0.190 N 
ATOM     20  C   UNL A   1      43.516  26.556  26.744  1.00  0.00     0.324 C 
ATOM     21  C   UNL A   1      44.039  24.383  26.062  1.00  0.00     0.319 C 
ATOM     22  O   UNL A   1      43.767  27.644  27.252  1.00  0.00    -0.245 OA
ATOM     23  S   UNL A   1      42.300  24.402  25.821  1.00  0.00    -0.022 SA
ATOM     24  N   UNL A   1      44.803  23.341  25.982  1.00  0.00    -0.235 N 
ATOM     25  H   UNL A   1      45.774  23.466  26.087  1.00  0.00     0.313 HD
BRANCH  19  26
ATOM     26  C   UNL A   1      45.839  26.193  26.328  1.00  0.00     0.243 C 
ATOM     27  C   UNL A   1      46.495  26.526  25.015  1.00  0.00     0.054 C 
ENDBRANCH  19  26
BRANCH  24  28
ATOM     28  C   UNL A   1      44.315  22.037  25.753  1.00  0.00     0.128 A 
ATOM     29  C   UNL A   1      43.270  21.544  26.549  1.00  0.00     0.076 A 
ATOM     30  C   UNL A   1      44.901  21.168  24.830  1.00  0.00     0.076 A 
ATOM     31  C   UNL A   1      42.805  20.232  26.421  1.00  0.00     0.088 A 
ATOM     32  C   UNL A   1      44.425  19.860  24.686  1.00  0.00     0.088 A 
ATOM     33  Cl  UNL A   1      41.528  19.707  27.458  1.00  0.00    -0.080 Cl
ATOM     34  C   UNL A   1      43.381  19.384  25.483  1.00  0.00     0.153 A 
ATOM     35  Cl  UNL A   1      45.153  18.829  23.509  1.00  0.00    -0.080 Cl
BRANCH  34  36
ATOM     36  O   UNL A   1      42.926  18.096  25.363  1.00  0.00    -0.505 OA
ATOM     37  H   UNL A   1      43.189  17.447  25.985  1.00  0.00     0.293 HD
ENDBRANCH  34  36
ENDBRANCH  24  28
ENDBRANCH  17  18
ENDBRANCH  14  17
ENDBRANCH   8  13
ENDBRANCH   4   7
ENDBRANCH   2   3
ENDBRANCH   1   2
BRANCH   1  38
ATOM     38  C   UNL A   1      34.832  33.326  30.053  1.00  0.00     0.002 C 
BRANCH  38  39
ATOM     39  C   UNL A   1      34.764  34.061  31.406  1.00  0.00     0.002 C 
BRANCH  39  40
ATOM     40  C   UNL A   1      35.459  33.315  32.554  1.00  0.00     0.021 C 
BRANCH  40  41
ATOM     41  C   UNL A   1      36.333  34.172  33.469  1.00  0.00     0.116 C 
BRANCH  41  42
ATOM     42  N   UNL A   1      36.495  33.594  34.796  1.00  0.00    -0.352 N 
ATOM     43  C   UNL A   1      37.311  32.660  35.386  1.00  0.00     0.251 C 
ATOM     44  H   UNL A   1      35.851  33.973  35.438  1.00  0.00     0.163 HD
ATOM     45  O   UNL A   1      37.066  32.419  36.573  1.00  0.00    -0.269 OA
BRANCH  43  46
ATOM     46  C   UNL A   1      38.444  31.912  34.751  1.00  0.00     0.039 A 
ATOM     47  C   UNL A   1      39.736  32.169  35.251  1.00  0.00     0.014 A 
ATOM     48  C   UNL A   1      38.355  31.058  33.655  1.00  0.00     0.014 A 
ATOM     49  C   UNL A   1      40.886  31.600  34.676  1.00  0.00     0.010 A 
ATOM     50  C   UNL A   1      39.499  30.423  33.127  1.00  0.00     0.010 A 
ATOM     51  C   UNL A   1      40.787  30.702  33.607  1.00  0.00    -0.014 A 
BRANCH  51  52
ATOM     52  C   UNL A   1      42.008  30.120  32.958  1.00  0.00     0.031 A 
ATOM     53  C   UNL A   1      42.647  30.800  31.765  1.00  0.00     0.074 A 
ATOM     54  C   UNL A   1      42.562  28.977  33.417  1.00  0.00     0.049 A 
ATOM     55  N   UNL A   1      43.690  30.435  31.056  1.00  0.00    -0.248 NA
ATOM     56  C   UNL A   1      42.017  32.041  31.293  1.00  0.00     0.031 C 
ATOM     57  C   UNL A   1      42.055  28.177  34.532  1.00  0.00     0.029 A 
ATOM     58  N   UNL A   1      43.679  28.287  33.000  1.00  0.00    -0.354 N 
ATOM     59  C   UNL A   1      43.823  31.386  30.050  1.00  0.00     0.074 A 
ATOM     60  C   UNL A   1      42.723  32.313  30.205  1.00  0.00     0.031 C 
ATOM     61  C   UNL A   1      42.872  27.129  34.731  1.00  0.00     0.029 A 
ATOM     62  C   UNL A   1      43.944  27.156  33.738  1.00  0.00     0.049 A 
ATOM     63  H   UNL A   1      44.238  28.576  32.242  1.00  0.00     0.167 HD
ATOM     64  C   UNL A   1      44.785  31.505  29.101  1.00  0.00     0.037 A 
ATOM     65  C   UNL A   1      44.932  26.244  33.633  1.00  0.00     0.037 A 
ATOM     66  C   UNL A   1      45.916  30.624  28.960  1.00  0.00     0.049 A 
ATOM     67  C   UNL A   1      45.991  26.398  32.570  1.00  0.00     0.074 A 
ATOM     68  C   UNL A   1      46.968  30.708  28.062  1.00  0.00     0.029 A 
ATOM     69  N   UNL A   1      46.147  29.501  29.738  1.00  0.00    -0.354 N 
ATOM     70  N   UNL A   1      46.131  27.338  31.668  1.00  0.00    -0.248 NA
ATOM     71  C   UNL A   1      47.036  25.363  32.518  1.00  0.00     0.031 C 
ATOM     72  C   UNL A   1      47.813  29.614  28.269  1.00  0.00     0.029 A 
ATOM     73  C   UNL A   1      47.315  28.875  29.328  1.00  0.00     0.049 A 
ATOM     74  H   UNL A   1      45.568  29.193  30.471  1.00  0.00     0.167 HD
ATOM     75  C   UNL A   1      47.290  27.027  30.969  1.00  0.00     0.074 A 
ATOM     76  C   UNL A   1      47.827  25.821  31.559  1.00  0.00     0.031 C 
ATOM     77  C   UNL A   1      47.858  27.685  29.928  1.00  0.00     0.037 A 
BRANCH  64  78
ATOM     78  C   UNL A   1      44.674  32.652  28.134  1.00  0.00     0.064 A 
ATOM     79  C   UNL A   1      44.092  32.492  26.868  1.00  0.00     0.173 A 
ATOM     80  C   UNL A   1      45.103  33.937  28.500  1.00  0.00     0.173 A 
ATOM     81  F   UNL A   1      43.672  31.282  26.467  1.00  0.00    -0.203 F 
ATOM     82  C   UNL A   1      43.970  33.568  25.993  1.00  0.00     0.198 A 
ATOM     83  C   UNL A   1      44.951  35.018  27.634  1.00  0.00     0.198 A 
ATOM     84  F   UNL A   1      45.656  34.149  29.704  1.00  0.00    -0.203 F 
ATOM     85  F   UNL A   1      43.453  33.379  24.771  1.00  0.00    -0.200 F 
ATOM     86  C   UNL A   1      44.392  34.831  26.379  1.00  0.00     0.200 A 
ATOM     87  F   UNL A   1      45.345  36.241  28.016  1.00  0.00    -0.200 F 
ATOM     88  F   UNL A   1      44.265  35.867  25.539  1.00  0.00    -0.200 F 
ENDBRANCH  64  78
BRANCH  65  89
ATOM     89  C   UNL A   1      44.992  25.095  34.577  1.00  0.00     0.064 A 
ATOM     90  C   UNL A   1      45.546  25.242  35.858  1.00  0.00     0.173 A 
ATOM     91  C   UNL A   1      44.537  23.821  34.207  1.00  0.00     0.173 A 
ATOM     92  F   UNL A   1      46.023  26.433  36.248  1.00  0.00    -0.203 F 
ATOM     93  C   UNL A   1      45.665  24.155  36.722  1.00  0.00     0.198 A 
ATOM     94  C   UNL A   1      44.628  22.741  35.083  1.00  0.00     0.198 A 
ATOM     95  F   UNL A   1      44.002  23.626  32.994  1.00  0.00    -0.203 F 
ATOM     96  F   UNL A   1      46.251  24.311  37.917  1.00  0.00    -0.200 F 
ATOM     97  C   UNL A   1      45.202  22.906  36.336  1.00  0.00     0.200 A 
ATOM     98  F   UNL A   1      44.170  21.538  34.711  1.00  0.00    -0.200 F 
ATOM     99  F   UNL A   1      45.318  21.860  37.164  1.00  0.00    -0.200 F 
ENDBRANCH  65  89
BRANCH  77 100
ATOM    100  C   UNL A   1      49.149  27.144  29.382  1.00  0.00     0.064 A 
ATOM    101  C   UNL A   1      50.390  27.678  29.758  1.00  0.00     0.173 A 
ATOM    102  C   UNL A   1      49.145  26.054  28.498  1.00  0.00     0.173 A 
ATOM    103  F   UNL A   1      50.450  28.728  30.590  1.00  0.00    -0.203 F 
ATOM    104  C   UNL A   1      51.578  27.158  29.248  1.00  0.00     0.198 A 
ATOM    105  C   UNL A   1      50.335  25.519  28.013  1.00  0.00     0.198 A 
ATOM    106  F   UNL A   1      47.985  25.501  28.111  1.00  0.00    -0.203 F 
ATOM    107  F   UNL A   1      52.750  27.716  29.583  1.00  0.00    -0.200 F 
ATOM    108  C   UNL A   1      51.551  26.076  28.381  1.00  0.00     0.200 A 
ATOM    109  F   UNL A   1      50.306  24.464  27.186  1.00  0.00    -0.200 F 
ATOM    110  F   UNL A   1      52.694  25.574  27.895  1.00  0.00    -0.200 F 
ENDBRANCH  77 100
ENDBRANCH  51  52
ENDBRANCH  43  46
ENDBRANCH  41  42
ENDBRANCH  40  41
ENDBRANCH  39  40
ENDBRANCH  38  39
ENDBRANCH   1  38
TORSDOF 19
ENDMDL
