MODEL 1
REMARK VINA RESULT:     -12.5      0.000      0.000
REMARK SMILES COc1ccc2c(c1)c(Cc1nc(-c3ccc(C(=O)NCCCCCCNC(=O)c4ccc(-c5c6nc(c(-c7c(F)c(F)c(F)c(F)c7F)c7ccc([nH]7)c(-c7c(F)c(F)c(F)c(F)c7F)c7nc(c(-c8c(F)c(F)c(F)c(F)c8F)c8ccc5[nH]8)C=C7)C=C6)cc4)cc3)cs1)c(C)n2C(=O)c1ccc(Cl)cc1
REMARK SMILES IDX 22 1 21 2 20 3 18 4 19 5 17 7 14 8 15 9 94 10 16 11 93 12
REMARK SMILES IDX 13 13 11 14 12 15 96 16 95 17 10 18 9 19 3 20 4 21 8 22 5 23
REMARK SMILES IDX 7 24 6 25 99 26 97 27 98 28 2 29 1 30 100 31 101 32 102 33
REMARK SMILES IDX 103 34 108 35 104 36 107 37 105 38 106 39 23 40 24 41 25 42
REMARK SMILES IDX 26 43 27 44 28 45 29 47 30 48 31 49 92 50 32 51 91 52 33 53
REMARK SMILES IDX 34 54 35 55 85 56 36 57 90 58 84 59 86 60 37 61 89 62 83 63
REMARK SMILES IDX 82 64 38 66 70 67 50 68 69 69 51 70 54 71 68 72 87 73 52 74
REMARK SMILES IDX 53 75 67 77 88 78 55 79 39 80 40 81 48 82 41 83 42 84 46 85
REMARK SMILES IDX 49 86 43 87 44 88 47 89 45 90 71 91 72 92 80 93 73 94 74 95
REMARK SMILES IDX 78 96 81 97 75 98 76 99 79 100 77 101 56 102 57 103 65 104
REMARK SMILES IDX 58 105 59 106 63 107 66 108 60 109 61 110 64 111 62 112
REMARK H PARENT 20 6 27 46 86 65 54 76
REMARK Flexibility Score: inf
ROOT
ATOM      1  C   UNL A   1      38.800  30.151  28.819  1.00  0.00     0.021 C 
ENDROOT
BRANCH   1   2
ATOM      2  C   UNL A   1      39.923  29.374  28.137  1.00  0.00     0.116 C 
BRANCH   2   3
ATOM      3  N   UNL A   1      41.019  29.005  29.015  1.00  0.00    -0.352 N 
ATOM      4  C   UNL A   1      41.589  27.783  29.304  1.00  0.00     0.251 C 
ATOM      5  O   UNL A   1      42.527  27.755  30.101  1.00  0.00    -0.269 OA
ATOM      6  H   UNL A   1      41.430  29.763  29.489  1.00  0.00     0.163 HD
BRANCH   4   7
ATOM      7  C   UNL A   1      41.066  26.498  28.759  1.00  0.00     0.039 A 
ATOM      8  C   UNL A   1      39.893  24.280  27.470  1.00  0.00     0.001 A 
ATOM      9  C   UNL A   1      39.099  25.177  28.190  1.00  0.00     0.011 A 
ATOM     10  C   UNL A   1      41.286  24.430  27.520  1.00  0.00     0.011 A 
ATOM     11  C   UNL A   1      39.681  26.282  28.822  1.00  0.00     0.014 A 
ATOM     12  C   UNL A   1      41.868  25.509  28.192  1.00  0.00     0.014 A 
BRANCH   8  13
ATOM     13  C   UNL A   1      39.322  23.191  26.689  1.00  0.00     0.081 A 
ATOM     14  C   UNL A   1      37.928  22.328  25.195  1.00  0.00     0.098 A 
ATOM     15  N   UNL A   1      38.248  23.420  25.855  1.00  0.00    -0.241 NA
ATOM     16  S   UNL A   1      38.804  20.923  25.653  1.00  0.00    -0.126 S 
ATOM     17  C   UNL A   1      39.722  21.871  26.753  1.00  0.00     0.095 A 
BRANCH  14  18
ATOM     18  C   UNL A   1      36.857  22.273  24.143  1.00  0.00     0.105 C 
BRANCH  18  19
ATOM     19  C   UNL A   1      35.472  22.123  24.728  1.00  0.00    -0.012 A 
ATOM     20  C   UNL A   1      34.166  18.527  24.762  1.00  0.00     0.119 A 
ATOM     21  C   UNL A   1      32.896  18.832  25.214  1.00  0.00     0.048 A 
ATOM     22  C   UNL A   1      35.088  19.553  24.573  1.00  0.00     0.057 A 
ATOM     23  C   UNL A   1      32.532  20.159  25.474  1.00  0.00     0.031 A 
ATOM     24  C   UNL A   1      34.757  20.899  24.862  1.00  0.00     0.008 A 
ATOM     25  C   UNL A   1      33.484  21.196  25.354  1.00  0.00     0.057 A 
ATOM     26  N   UNL A   1      33.435  22.577  25.637  1.00  0.00    -0.280 N 
ATOM     27  C   UNL A   1      34.649  23.138  25.200  1.00  0.00     0.028 A 
ATOM     28  C   UNL A   1      35.012  24.591  25.246  1.00  0.00     0.065 C 
BRANCH  20  29
ATOM     29  O   UNL A   1      34.622  17.262  24.511  1.00  0.00    -0.497 OA
ATOM     30  C   UNL A   1      33.989  16.610  23.416  1.00  0.00     0.278 C 
ENDBRANCH  20  29
BRANCH  26  31
ATOM     31  C   UNL A   1      32.341  23.277  26.236  1.00  0.00     0.262 C 
ATOM     32  O   UNL A   1      32.058  23.069  27.406  1.00  0.00    -0.268 OA
BRANCH  31  33
ATOM     33  C   UNL A   1      31.518  24.304  25.564  1.00  0.00     0.040 A 
ATOM     34  C   UNL A   1      31.141  25.479  26.222  1.00  0.00     0.015 A 
ATOM     35  C   UNL A   1      31.091  24.047  24.256  1.00  0.00     0.015 A 
ATOM     36  C   UNL A   1      30.246  26.353  25.598  1.00  0.00     0.021 A 
ATOM     37  C   UNL A   1      30.207  24.928  23.634  1.00  0.00     0.021 A 
ATOM     38  C   UNL A   1      29.770  26.065  24.317  1.00  0.00     0.041 A 
ATOM     39  Cl  UNL A   1      28.612  27.103  23.583  1.00  0.00    -0.084 Cl
ENDBRANCH  31  33
ENDBRANCH  26  31
ENDBRANCH  18  19
ENDBRANCH  14  18
ENDBRANCH   8  13
ENDBRANCH   4   7
ENDBRANCH   2   3
ENDBRANCH   1   2
BRANCH   1  40
ATOM     40  C   UNL A   1      37.507  29.388  29.101  1.00  0.00     0.002 C 
BRANCH  40  41
ATOM     41  C   UNL A   1      36.489  29.312  27.958  1.00  0.00     0.002 C 
BRANCH  41  42
ATOM     42  C   UNL A   1      35.178  30.096  28.129  1.00  0.00     0.021 C 
BRANCH  42  43
ATOM     43  C   UNL A   1      35.192  31.543  27.636  1.00  0.00     0.116 C 
BRANCH  43  44
ATOM     44  N   UNL A   1      34.374  32.437  28.428  1.00  0.00    -0.352 N 
ATOM     45  C   UNL A   1      34.501  33.126  29.599  1.00  0.00     0.251 C 
ATOM     46  H   UNL A   1      33.493  32.587  28.013  1.00  0.00     0.163 HD
ATOM     47  O   UNL A   1      33.581  33.911  29.850  1.00  0.00    -0.269 OA
BRANCH  45  48
ATOM     48  C   UNL A   1      35.594  32.984  30.604  1.00  0.00     0.039 A 
ATOM     49  C   UNL A   1      36.788  33.698  30.635  1.00  0.00     0.014 A 
ATOM     50  C   UNL A   1      35.401  31.972  31.571  1.00  0.00     0.014 A 
ATOM     51  C   UNL A   1      37.785  33.350  31.553  1.00  0.00     0.010 A 
ATOM     52  C   UNL A   1      36.389  31.627  32.491  1.00  0.00     0.010 A 
ATOM     53  C   UNL A   1      37.609  32.284  32.455  1.00  0.00    -0.014 A 
BRANCH  53  54
ATOM     54  C   UNL A   1      38.691  31.977  33.399  1.00  0.00     0.031 A 
ATOM     55  C   UNL A   1      38.704  32.844  34.610  1.00  0.00     0.074 A 
ATOM     56  C   UNL A   1      39.602  30.983  33.277  1.00  0.00     0.049 A 
ATOM     57  N   UNL A   1      39.571  33.757  34.909  1.00  0.00    -0.248 NA
ATOM     58  C   UNL A   1      37.559  32.785  35.528  1.00  0.00     0.031 C 
ATOM     59  C   UNL A   1      39.624  29.870  32.324  1.00  0.00     0.029 A 
ATOM     60  N   UNL A   1      40.712  30.743  34.044  1.00  0.00    -0.354 N 
ATOM     61  C   UNL A   1      39.174  34.288  36.133  1.00  0.00     0.074 A 
ATOM     62  C   UNL A   1      37.871  33.740  36.407  1.00  0.00     0.031 C 
ATOM     63  C   UNL A   1      40.571  28.972  32.693  1.00  0.00     0.029 A 
ATOM     64  C   UNL A   1      41.330  29.518  33.805  1.00  0.00     0.049 A 
ATOM     65  H   UNL A   1      41.047  31.385  34.711  1.00  0.00     0.167 HD
ATOM     66  C   UNL A   1      40.051  34.986  36.907  1.00  0.00     0.037 A 
ATOM     67  C   UNL A   1      42.392  28.991  34.469  1.00  0.00     0.037 A 
ATOM     68  C   UNL A   1      41.179  35.433  36.130  1.00  0.00     0.049 A 
ATOM     69  C   UNL A   1      43.122  30.119  35.087  1.00  0.00     0.074 A 
ATOM     70  C   UNL A   1      41.374  36.308  35.082  1.00  0.00     0.029 A 
ATOM     71  N   UNL A   1      42.314  34.670  36.201  1.00  0.00    -0.354 N 
ATOM     72  N   UNL A   1      43.778  31.022  34.415  1.00  0.00    -0.248 NA
ATOM     73  C   UNL A   1      42.813  30.458  36.464  1.00  0.00     0.031 C 
ATOM     74  C   UNL A   1      42.423  35.733  34.304  1.00  0.00     0.029 A 
ATOM     75  C   UNL A   1      42.847  34.568  34.946  1.00  0.00     0.049 A 
ATOM     76  H   UNL A   1      42.685  34.264  37.018  1.00  0.00     0.167 HD
ATOM     77  C   UNL A   1      43.569  32.193  35.122  1.00  0.00     0.074 A 
ATOM     78  C   UNL A   1      43.082  31.765  36.430  1.00  0.00     0.031 C 
ATOM     79  C   UNL A   1      43.548  33.395  34.478  1.00  0.00     0.037 A 
BRANCH  66  80
ATOM     80  C   UNL A   1      40.113  34.914  38.418  1.00  0.00     0.064 A 
ATOM     81  C   UNL A   1      40.327  33.661  39.034  1.00  0.00     0.173 A 
ATOM     82  C   UNL A   1      39.644  35.933  39.274  1.00  0.00     0.173 A 
ATOM     83  F   UNL A   1      40.765  32.612  38.320  1.00  0.00    -0.203 F 
ATOM     84  C   UNL A   1      39.995  33.424  40.372  1.00  0.00     0.198 A 
ATOM     85  C   UNL A   1      39.358  35.705  40.620  1.00  0.00     0.198 A 
ATOM     86  F   UNL A   1      39.334  37.154  38.825  1.00  0.00    -0.203 F 
ATOM     87  F   UNL A   1      40.083  32.183  40.870  1.00  0.00    -0.200 F 
ATOM     88  C   UNL A   1      39.499  34.445  41.160  1.00  0.00     0.200 A 
ATOM     89  F   UNL A   1      38.862  36.703  41.365  1.00  0.00    -0.200 F 
ATOM     90  F   UNL A   1      39.112  34.206  42.420  1.00  0.00    -0.200 F 
ENDBRANCH  66  80
BRANCH  67  91
ATOM     91  C   UNL A   1      42.645  27.590  34.895  1.00  0.00     0.064 A 
ATOM     92  C   UNL A   1      41.850  26.978  35.883  1.00  0.00     0.173 A 
ATOM     93  C   UNL A   1      43.434  26.729  34.112  1.00  0.00     0.173 A 
ATOM     94  F   UNL A   1      41.034  27.718  36.649  1.00  0.00    -0.203 F 
ATOM     95  C   UNL A   1      41.808  25.587  36.041  1.00  0.00     0.198 A 
ATOM     96  C   UNL A   1      43.393  25.341  34.272  1.00  0.00     0.198 A 
ATOM     97  F   UNL A   1      44.176  27.209  33.104  1.00  0.00    -0.203 F 
ATOM     98  F   UNL A   1      40.975  25.038  36.937  1.00  0.00    -0.200 F 
ATOM     99  C   UNL A   1      42.567  24.769  35.222  1.00  0.00     0.200 A 
ATOM    100  F   UNL A   1      44.102  24.557  33.447  1.00  0.00    -0.200 F 
ATOM    101  F   UNL A   1      42.468  23.435  35.317  1.00  0.00    -0.200 F 
ENDBRANCH  67  91
BRANCH  79 102
ATOM    102  C   UNL A   1      44.105  33.451  33.084  1.00  0.00     0.064 A 
ATOM    103  C   UNL A   1      45.470  33.580  32.776  1.00  0.00     0.173 A 
ATOM    104  C   UNL A   1      43.222  33.220  32.019  1.00  0.00     0.173 A 
ATOM    105  F   UNL A   1      46.388  33.722  33.741  1.00  0.00    -0.203 F 
ATOM    106  C   UNL A   1      45.921  33.506  31.458  1.00  0.00     0.198 A 
ATOM    107  C   UNL A   1      43.680  33.108  30.711  1.00  0.00     0.198 A 
ATOM    108  F   UNL A   1      41.912  33.046  32.260  1.00  0.00    -0.203 F 
ATOM    109  F   UNL A   1      47.228  33.637  31.184  1.00  0.00    -0.200 F 
ATOM    110  C   UNL A   1      45.027  33.258  30.429  1.00  0.00     0.200 A 
ATOM    111  F   UNL A   1      42.816  32.820  29.727  1.00  0.00    -0.200 F 
ATOM    112  F   UNL A   1      45.466  33.133  29.168  1.00  0.00    -0.200 F 
ENDBRANCH  79 102
ENDBRANCH  53  54
ENDBRANCH  45  48
ENDBRANCH  43  44
ENDBRANCH  42  43
ENDBRANCH  41  42
ENDBRANCH  40  41
ENDBRANCH   1  40
TORSDOF 19
ENDMDL
MODEL 2
REMARK VINA RESULT:     -12.2      5.830     11.875
REMARK SMILES COc1ccc2c(c1)c(Cc1nc(-c3ccc(C(=O)NCCCCCCNC(=O)c4ccc(-c5c6nc(c(-c7c(F)c(F)c(F)c(F)c7F)c7ccc([nH]7)c(-c7c(F)c(F)c(F)c(F)c7F)c7nc(c(-c8c(F)c(F)c(F)c(F)c8F)c8ccc5[nH]8)C=C7)C=C6)cc4)cc3)cs1)c(C)n2C(=O)c1ccc(Cl)cc1
REMARK SMILES IDX 22 1 21 2 20 3 18 4 19 5 17 7 14 8 15 9 94 10 16 11 93 12
REMARK SMILES IDX 13 13 11 14 12 15 96 16 95 17 10 18 9 19 3 20 4 21 8 22 5 23
REMARK SMILES IDX 7 24 6 25 99 26 97 27 98 28 2 29 1 30 100 31 101 32 102 33
REMARK SMILES IDX 103 34 108 35 104 36 107 37 105 38 106 39 23 40 24 41 25 42
REMARK SMILES IDX 26 43 27 44 28 45 29 47 30 48 31 49 92 50 32 51 91 52 33 53
REMARK SMILES IDX 34 54 35 55 85 56 36 57 90 58 84 59 86 60 37 61 89 62 83 63
REMARK SMILES IDX 82 64 38 66 70 67 50 68 69 69 51 70 54 71 68 72 87 73 52 74
REMARK SMILES IDX 53 75 67 77 88 78 55 79 39 80 40 81 48 82 41 83 42 84 46 85
REMARK SMILES IDX 49 86 43 87 44 88 47 89 45 90 71 91 72 92 80 93 73 94 74 95
REMARK SMILES IDX 78 96 81 97 75 98 76 99 79 100 77 101 56 102 57 103 65 104
REMARK SMILES IDX 58 105 59 106 63 107 66 108 60 109 61 110 64 111 62 112
REMARK H PARENT 20 6 27 46 86 65 54 76
REMARK Flexibility Score: inf
ROOT
ATOM      1  C   UNL A   1      36.397  33.932  34.524  1.00  0.00     0.021 C 
ENDROOT
BRANCH   1   2
ATOM      2  C   UNL A   1      37.390  33.555  35.619  1.00  0.00     0.116 C 
BRANCH   2   3
ATOM      3  N   UNL A   1      37.790  32.159  35.615  1.00  0.00    -0.352 N 
ATOM      4  C   UNL A   1      38.869  31.517  35.044  1.00  0.00     0.251 C 
ATOM      5  O   UNL A   1      38.969  30.300  35.199  1.00  0.00    -0.269 OA
ATOM      6  H   UNL A   1      37.182  31.563  36.108  1.00  0.00     0.163 HD
BRANCH   4   7
ATOM      7  C   UNL A   1      39.865  32.219  34.186  1.00  0.00     0.039 A 
ATOM      8  C   UNL A   1      41.456  33.746  32.425  1.00  0.00     0.001 A 
ATOM      9  C   UNL A   1      40.549  32.809  31.922  1.00  0.00     0.011 A 
ATOM     10  C   UNL A   1      41.653  33.808  33.812  1.00  0.00     0.011 A 
ATOM     11  C   UNL A   1      39.754  32.058  32.797  1.00  0.00     0.014 A 
ATOM     12  C   UNL A   1      40.892  33.022  34.682  1.00  0.00     0.014 A 
BRANCH   8  13
ATOM     13  C   UNL A   1      42.209  34.640  31.558  1.00  0.00     0.081 A 
ATOM     14  C   UNL A   1      42.757  35.521  29.597  1.00  0.00     0.098 A 
ATOM     15  N   UNL A   1      42.038  34.593  30.190  1.00  0.00    -0.241 NA
ATOM     16  S   UNL A   1      43.798  36.406  30.639  1.00  0.00    -0.126 S 
ATOM     17  C   UNL A   1      43.177  35.531  31.981  1.00  0.00     0.095 A 
BRANCH  14  18
ATOM     18  C   UNL A   1      42.722  35.785  28.119  1.00  0.00     0.105 C 
BRANCH  18  19
ATOM     19  C   UNL A   1      43.520  37.007  27.726  1.00  0.00    -0.012 A 
ATOM     20  C   UNL A   1      47.129  36.259  26.701  1.00  0.00     0.119 A 
ATOM     21  C   UNL A   1      47.524  37.577  26.565  1.00  0.00     0.048 A 
ATOM     22  C   UNL A   1      45.821  35.973  27.080  1.00  0.00     0.057 A 
ATOM     23  C   UNL A   1      46.622  38.619  26.813  1.00  0.00     0.031 A 
ATOM     24  C   UNL A   1      44.879  37.008  27.303  1.00  0.00     0.008 A 
ATOM     25  C   UNL A   1      45.274  38.337  27.127  1.00  0.00     0.057 A 
ATOM     26  N   UNL A   1      44.145  39.158  27.325  1.00  0.00    -0.280 N 
ATOM     27  C   UNL A   1      43.089  38.328  27.740  1.00  0.00     0.028 A 
ATOM     28  C   UNL A   1      41.713  38.782  28.123  1.00  0.00     0.065 C 
BRANCH  20  29
ATOM     29  O   UNL A   1      47.927  35.176  26.451  1.00  0.00    -0.497 OA
ATOM     30  C   UNL A   1      48.457  35.121  25.131  1.00  0.00     0.278 C 
ENDBRANCH  20  29
BRANCH  26  31
ATOM     31  C   UNL A   1      44.095  40.578  27.156  1.00  0.00     0.262 C 
ATOM     32  O   UNL A   1      44.345  41.309  28.103  1.00  0.00    -0.268 OA
BRANCH  31  33
ATOM     33  C   UNL A   1      43.806  41.274  25.885  1.00  0.00     0.040 A 
ATOM     34  C   UNL A   1      44.777  42.052  25.245  1.00  0.00     0.015 A 
ATOM     35  C   UNL A   1      42.515  41.162  25.356  1.00  0.00     0.015 A 
ATOM     36  C   UNL A   1      44.416  42.805  24.123  1.00  0.00     0.021 A 
ATOM     37  C   UNL A   1      42.164  41.907  24.231  1.00  0.00     0.021 A 
ATOM     38  C   UNL A   1      43.110  42.743  23.634  1.00  0.00     0.041 A 
ATOM     39  Cl  UNL A   1      42.650  43.727  22.300  1.00  0.00    -0.084 Cl
ENDBRANCH  31  33
ENDBRANCH  26  31
ENDBRANCH  18  19
ENDBRANCH  14  18
ENDBRANCH   8  13
ENDBRANCH   4   7
ENDBRANCH   2   3
ENDBRANCH   1   2
BRANCH   1  40
ATOM     40  C   UNL A   1      36.968  34.610  33.279  1.00  0.00     0.002 C 
BRANCH  40  41
ATOM     41  C   UNL A   1      36.606  33.985  31.927  1.00  0.00     0.002 C 
BRANCH  41  42
ATOM     42  C   UNL A   1      35.944  32.597  31.949  1.00  0.00     0.021 C 
BRANCH  42  43
ATOM     43  C   UNL A   1      34.627  32.470  31.183  1.00  0.00     0.116 C 
BRANCH  43  44
ATOM     44  N   UNL A   1      34.729  32.823  29.783  1.00  0.00    -0.352 N 
ATOM     45  C   UNL A   1      35.450  32.406  28.703  1.00  0.00     0.251 C 
ATOM     46  H   UNL A   1      34.117  33.559  29.549  1.00  0.00     0.163 HD
ATOM     47  O   UNL A   1      35.113  32.901  27.623  1.00  0.00    -0.269 OA
BRANCH  45  48
ATOM     48  C   UNL A   1      36.611  31.470  28.712  1.00  0.00     0.039 A 
ATOM     49  C   UNL A   1      36.566  30.091  28.524  1.00  0.00     0.014 A 
ATOM     50  C   UNL A   1      37.862  32.058  29.007  1.00  0.00     0.014 A 
ATOM     51  C   UNL A   1      37.721  29.324  28.710  1.00  0.00     0.010 A 
ATOM     52  C   UNL A   1      39.015  31.297  29.185  1.00  0.00     0.010 A 
ATOM     53  C   UNL A   1      38.940  29.917  29.085  1.00  0.00    -0.014 A 
BRANCH  53  54
ATOM     54  C   UNL A   1      40.117  29.055  29.254  1.00  0.00     0.031 A 
ATOM     55  C   UNL A   1      40.486  28.804  30.675  1.00  0.00     0.074 A 
ATOM     56  C   UNL A   1      40.827  28.465  28.264  1.00  0.00     0.049 A 
ATOM     57  N   UNL A   1      41.522  29.253  31.306  1.00  0.00    -0.248 NA
ATOM     58  C   UNL A   1      39.534  28.082  31.530  1.00  0.00     0.031 C 
ATOM     59  C   UNL A   1      40.503  28.361  26.839  1.00  0.00     0.029 A 
ATOM     60  N   UNL A   1      42.009  27.777  28.353  1.00  0.00    -0.354 N 
ATOM     61  C   UNL A   1      41.443  28.746  32.600  1.00  0.00     0.074 A 
ATOM     62  C   UNL A   1      40.145  28.135  32.716  1.00  0.00     0.031 C 
ATOM     63  C   UNL A   1      41.352  27.490  26.240  1.00  0.00     0.029 A 
ATOM     64  C   UNL A   1      42.377  27.101  27.192  1.00  0.00     0.049 A 
ATOM     65  H   UNL A   1      42.555  27.762  29.171  1.00  0.00     0.167 HD
ATOM     66  C   UNL A   1      42.544  28.708  33.401  1.00  0.00     0.037 A 
ATOM     67  C   UNL A   1      43.449  26.283  27.024  1.00  0.00     0.037 A 
ATOM     68  C   UNL A   1      43.565  29.600  32.916  1.00  0.00     0.049 A 
ATOM     69  C   UNL A   1      44.445  26.654  28.053  1.00  0.00     0.074 A 
ATOM     70  C   UNL A   1      43.695  30.966  32.766  1.00  0.00     0.029 A 
ATOM     71  N   UNL A   1      44.563  29.041  32.163  1.00  0.00    -0.354 N 
ATOM     72  N   UNL A   1      45.097  27.782  28.069  1.00  0.00    -0.248 NA
ATOM     73  C   UNL A   1      44.450  25.906  29.297  1.00  0.00     0.031 C 
ATOM     74  C   UNL A   1      44.484  31.139  31.589  1.00  0.00     0.029 A 
ATOM     75  C   UNL A   1      44.834  29.874  31.114  1.00  0.00     0.049 A 
ATOM     76  H   UNL A   1      45.011  28.183  32.347  1.00  0.00     0.167 HD
ATOM     77  C   UNL A   1      45.204  28.097  29.412  1.00  0.00     0.074 A 
ATOM     78  C   UNL A   1      44.905  26.854  30.118  1.00  0.00     0.031 C 
ATOM     79  C   UNL A   1      45.249  29.399  29.815  1.00  0.00     0.037 A 
BRANCH  66  80
ATOM     80  C   UNL A   1      42.871  27.584  34.363  1.00  0.00     0.064 A 
ATOM     81  C   UNL A   1      43.222  26.318  33.840  1.00  0.00     0.173 A 
ATOM     82  C   UNL A   1      42.533  27.597  35.732  1.00  0.00     0.173 A 
ATOM     83  F   UNL A   1      43.556  26.179  32.548  1.00  0.00    -0.203 F 
ATOM     84  C   UNL A   1      43.135  25.150  34.603  1.00  0.00     0.198 A 
ATOM     85  C   UNL A   1      42.493  26.435  36.502  1.00  0.00     0.198 A 
ATOM     86  F   UNL A   1      42.118  28.706  36.353  1.00  0.00    -0.203 F 
ATOM     87  F   UNL A   1      43.341  23.959  34.023  1.00  0.00    -0.200 F 
ATOM     88  C   UNL A   1      42.759  25.208  35.931  1.00  0.00     0.200 A 
ATOM     89  F   UNL A   1      42.109  26.509  37.785  1.00  0.00    -0.200 F 
ATOM     90  F   UNL A   1      42.603  24.086  36.645  1.00  0.00    -0.200 F 
ENDBRANCH  66  80
BRANCH  67  91
ATOM     91  C   UNL A   1      43.558  25.001  26.280  1.00  0.00     0.064 A 
ATOM     92  C   UNL A   1      44.535  24.823  25.282  1.00  0.00     0.173 A 
ATOM     93  C   UNL A   1      42.943  23.832  26.763  1.00  0.00     0.173 A 
ATOM     94  F   UNL A   1      45.202  25.878  24.792  1.00  0.00    -0.203 F 
ATOM     95  C   UNL A   1      44.911  23.549  24.835  1.00  0.00     0.198 A 
ATOM     96  C   UNL A   1      43.317  22.563  26.315  1.00  0.00     0.198 A 
ATOM     97  F   UNL A   1      42.047  23.893  27.758  1.00  0.00    -0.203 F 
ATOM     98  F   UNL A   1      45.904  23.417  23.944  1.00  0.00    -0.200 F 
ATOM     99  C   UNL A   1      44.313  22.419  25.366  1.00  0.00     0.200 A 
ATOM    100  F   UNL A   1      42.760  21.474  26.865  1.00  0.00    -0.200 F 
ATOM    101  F   UNL A   1      44.726  21.198  24.999  1.00  0.00    -0.200 F 
ENDBRANCH  67  91
BRANCH  79 102
ATOM    102  C   UNL A   1      45.542  30.443  28.774  1.00  0.00     0.064 A 
ATOM    103  C   UNL A   1      46.832  30.797  28.342  1.00  0.00     0.173 A 
ATOM    104  C   UNL A   1      44.454  31.004  28.089  1.00  0.00     0.173 A 
ATOM    105  F   UNL A   1      47.922  30.244  28.889  1.00  0.00    -0.203 F 
ATOM    106  C   UNL A   1      47.017  31.692  27.288  1.00  0.00     0.198 A 
ATOM    107  C   UNL A   1      44.644  31.865  27.014  1.00  0.00     0.198 A 
ATOM    108  F   UNL A   1      43.200  30.668  28.432  1.00  0.00    -0.203 F 
ATOM    109  F   UNL A   1      48.257  32.020  26.893  1.00  0.00    -0.200 F 
ATOM    110  C   UNL A   1      45.923  32.215  26.618  1.00  0.00     0.200 A 
ATOM    111  F   UNL A   1      43.582  32.330  26.340  1.00  0.00    -0.200 F 
ATOM    112  F   UNL A   1      46.101  33.032  25.570  1.00  0.00    -0.200 F 
ENDBRANCH  79 102
ENDBRANCH  53  54
ENDBRANCH  45  48
ENDBRANCH  43  44
ENDBRANCH  42  43
ENDBRANCH  41  42
ENDBRANCH  40  41
ENDBRANCH   1  40
TORSDOF 19
ENDMDL
MODEL 3
REMARK VINA RESULT:     -12.1      3.306      8.844
REMARK SMILES COc1ccc2c(c1)c(Cc1nc(-c3ccc(C(=O)NCCCCCCNC(=O)c4ccc(-c5c6nc(c(-c7c(F)c(F)c(F)c(F)c7F)c7ccc([nH]7)c(-c7c(F)c(F)c(F)c(F)c7F)c7nc(c(-c8c(F)c(F)c(F)c(F)c8F)c8ccc5[nH]8)C=C7)C=C6)cc4)cc3)cs1)c(C)n2C(=O)c1ccc(Cl)cc1
REMARK SMILES IDX 22 1 21 2 20 3 18 4 19 5 17 7 14 8 15 9 94 10 16 11 93 12
REMARK SMILES IDX 13 13 11 14 12 15 96 16 95 17 10 18 9 19 3 20 4 21 8 22 5 23
REMARK SMILES IDX 7 24 6 25 99 26 97 27 98 28 2 29 1 30 100 31 101 32 102 33
REMARK SMILES IDX 103 34 108 35 104 36 107 37 105 38 106 39 23 40 24 41 25 42
REMARK SMILES IDX 26 43 27 44 28 45 29 47 30 48 31 49 92 50 32 51 91 52 33 53
REMARK SMILES IDX 34 54 35 55 85 56 36 57 90 58 84 59 86 60 37 61 89 62 83 63
REMARK SMILES IDX 82 64 38 66 70 67 50 68 69 69 51 70 54 71 68 72 87 73 52 74
REMARK SMILES IDX 53 75 67 77 88 78 55 79 39 80 40 81 48 82 41 83 42 84 46 85
REMARK SMILES IDX 49 86 43 87 44 88 47 89 45 90 71 91 72 92 80 93 73 94 74 95
REMARK SMILES IDX 78 96 81 97 75 98 76 99 79 100 77 101 56 102 57 103 65 104
REMARK SMILES IDX 58 105 59 106 63 107 66 108 60 109 61 110 64 111 62 112
REMARK H PARENT 20 6 27 46 86 65 54 76
REMARK Flexibility Score: inf
ROOT
ATOM      1  C   UNL A   1      30.856  26.592  25.177  1.00  0.00     0.021 C 
ENDROOT
BRANCH   1   2
ATOM      2  C   UNL A   1      31.141  25.267  24.477  1.00  0.00     0.116 C 
BRANCH   2   3
ATOM      3  N   UNL A   1      31.722  25.398  23.152  1.00  0.00    -0.352 N 
ATOM      4  C   UNL A   1      32.950  25.022  22.650  1.00  0.00     0.251 C 
ATOM      5  O   UNL A   1      33.189  25.258  21.466  1.00  0.00    -0.269 OA
ATOM      6  H   UNL A   1      31.135  25.834  22.495  1.00  0.00     0.163 HD
BRANCH   4   7
ATOM      7  C   UNL A   1      34.020  24.422  23.496  1.00  0.00     0.039 A 
ATOM      8  C   UNL A   1      36.285  23.382  24.819  1.00  0.00     0.001 A 
ATOM      9  C   UNL A   1      35.804  22.770  23.657  1.00  0.00     0.011 A 
ATOM     10  C   UNL A   1      35.540  24.429  25.380  1.00  0.00     0.011 A 
ATOM     11  C   UNL A   1      34.685  23.292  22.998  1.00  0.00     0.014 A 
ATOM     12  C   UNL A   1      34.396  24.918  24.744  1.00  0.00     0.014 A 
BRANCH   8  13
ATOM     13  C   UNL A   1      37.518  22.957  25.467  1.00  0.00     0.081 A 
ATOM     14  C   UNL A   1      39.276  23.244  26.789  1.00  0.00     0.098 A 
ATOM     15  N   UNL A   1      38.238  23.840  26.243  1.00  0.00    -0.241 NA
ATOM     16  S   UNL A   1      39.531  21.624  26.276  1.00  0.00    -0.126 S 
ATOM     17  C   UNL A   1      38.105  21.715  25.322  1.00  0.00     0.095 A 
BRANCH  14  18
ATOM     18  C   UNL A   1      40.208  23.913  27.758  1.00  0.00     0.105 C 
BRANCH  18  19
ATOM     19  C   UNL A   1      40.725  25.238  27.250  1.00  0.00    -0.012 A 
ATOM     20  C   UNL A   1      38.676  28.261  28.387  1.00  0.00     0.119 A 
ATOM     21  C   UNL A   1      39.357  29.198  27.634  1.00  0.00     0.048 A 
ATOM     22  C   UNL A   1      39.059  26.924  28.325  1.00  0.00     0.057 A 
ATOM     23  C   UNL A   1      40.421  28.812  26.809  1.00  0.00     0.031 A 
ATOM     24  C   UNL A   1      40.153  26.512  27.526  1.00  0.00     0.008 A 
ATOM     25  C   UNL A   1      40.862  27.469  26.797  1.00  0.00     0.057 A 
ATOM     26  N   UNL A   1      41.941  26.823  26.158  1.00  0.00    -0.280 N 
ATOM     27  C   UNL A   1      41.813  25.445  26.408  1.00  0.00     0.028 A 
ATOM     28  C   UNL A   1      42.706  24.368  25.873  1.00  0.00     0.065 C 
BRANCH  20  29
ATOM     29  O   UNL A   1      37.647  28.547  29.243  1.00  0.00    -0.497 OA
ATOM     30  C   UNL A   1      38.025  28.647  30.612  1.00  0.00     0.278 C 
ENDBRANCH  20  29
BRANCH  26  31
ATOM     31  C   UNL A   1      42.963  27.455  25.381  1.00  0.00     0.262 C 
ATOM     32  O   UNL A   1      42.690  27.916  24.283  1.00  0.00    -0.268 OA
BRANCH  31  33
ATOM     33  C   UNL A   1      44.361  27.653  25.815  1.00  0.00     0.040 A 
ATOM     34  C   UNL A   1      45.409  26.920  25.248  1.00  0.00     0.015 A 
ATOM     35  C   UNL A   1      44.604  28.574  26.841  1.00  0.00     0.015 A 
ATOM     36  C   UNL A   1      46.694  27.038  25.788  1.00  0.00     0.021 A 
ATOM     37  C   UNL A   1      45.889  28.695  27.368  1.00  0.00     0.021 A 
ATOM     38  C   UNL A   1      46.923  27.909  26.855  1.00  0.00     0.041 A 
ATOM     39  Cl  UNL A   1      48.487  27.997  27.566  1.00  0.00    -0.084 Cl
ENDBRANCH  31  33
ENDBRANCH  26  31
ENDBRANCH  18  19
ENDBRANCH  14  18
ENDBRANCH   8  13
ENDBRANCH   4   7
ENDBRANCH   2   3
ENDBRANCH   1   2
BRANCH   1  40
ATOM     40  C   UNL A   1      31.908  27.089  26.167  1.00  0.00     0.002 C 
BRANCH  40  41
ATOM     41  C   UNL A   1      32.815  28.229  25.693  1.00  0.00     0.002 C 
BRANCH  41  42
ATOM     42  C   UNL A   1      34.243  28.274  26.260  1.00  0.00     0.021 C 
BRANCH  42  43
ATOM     43  C   UNL A   1      34.415  29.014  27.587  1.00  0.00     0.116 C 
BRANCH  43  44
ATOM     44  N   UNL A   1      33.744  30.295  27.633  1.00  0.00    -0.352 N 
ATOM     45  C   UNL A   1      34.058  31.569  28.009  1.00  0.00     0.251 C 
ATOM     46  H   UNL A   1      32.816  30.231  27.307  1.00  0.00     0.163 HD
ATOM     47  O   UNL A   1      33.204  32.421  27.742  1.00  0.00    -0.269 OA
BRANCH  45  48
ATOM     48  C   UNL A   1      35.281  32.008  28.739  1.00  0.00     0.039 A 
ATOM     49  C   UNL A   1      36.595  31.658  28.440  1.00  0.00     0.014 A 
ATOM     50  C   UNL A   1      35.051  32.806  29.883  1.00  0.00     0.014 A 
ATOM     51  C   UNL A   1      37.630  32.027  29.307  1.00  0.00     0.010 A 
ATOM     52  C   UNL A   1      36.080  33.181  30.744  1.00  0.00     0.010 A 
ATOM     53  C   UNL A   1      37.372  32.751  30.486  1.00  0.00    -0.014 A 
BRANCH  53  54
ATOM     54  C   UNL A   1      38.504  33.115  31.348  1.00  0.00     0.031 A 
ATOM     55  C   UNL A   1      39.631  33.768  30.625  1.00  0.00     0.074 A 
ATOM     56  C   UNL A   1      38.575  32.951  32.690  1.00  0.00     0.049 A 
ATOM     57  N   UNL A   1      40.801  33.270  30.388  1.00  0.00    -0.248 NA
ATOM     58  C   UNL A   1      39.393  35.066  29.979  1.00  0.00     0.031 C 
ATOM     59  C   UNL A   1      37.511  32.579  33.626  1.00  0.00     0.029 A 
ATOM     60  N   UNL A   1      39.651  33.135  33.517  1.00  0.00    -0.354 N 
ATOM     61  C   UNL A   1      41.511  34.248  29.696  1.00  0.00     0.074 A 
ATOM     62  C   UNL A   1      40.561  35.279  29.368  1.00  0.00     0.031 C 
ATOM     63  C   UNL A   1      37.940  32.759  34.899  1.00  0.00     0.029 A 
ATOM     64  C   UNL A   1      39.352  33.099  34.877  1.00  0.00     0.049 A 
ATOM     65  H   UNL A   1      40.564  33.281  33.179  1.00  0.00     0.167 HD
ATOM     66  C   UNL A   1      42.870  34.206  29.627  1.00  0.00     0.037 A 
ATOM     67  C   UNL A   1      40.204  33.327  35.911  1.00  0.00     0.037 A 
ATOM     68  C   UNL A   1      43.360  32.889  29.946  1.00  0.00     0.049 A 
ATOM     69  C   UNL A   1      41.573  33.071  35.412  1.00  0.00     0.074 A 
ATOM     70  C   UNL A   1      43.270  31.635  29.377  1.00  0.00     0.029 A 
ATOM     71  N   UNL A   1      43.799  32.691  31.228  1.00  0.00    -0.354 N 
ATOM     72  N   UNL A   1      42.024  31.894  35.082  1.00  0.00    -0.248 NA
ATOM     73  C   UNL A   1      42.342  34.201  34.923  1.00  0.00     0.031 C 
ATOM     74  C   UNL A   1      43.237  30.727  30.477  1.00  0.00     0.029 A 
ATOM     75  C   UNL A   1      43.360  31.468  31.653  1.00  0.00     0.049 A 
ATOM     76  H   UNL A   1      44.341  33.323  31.755  1.00  0.00     0.167 HD
ATOM     77  C   UNL A   1      42.846  32.136  33.995  1.00  0.00     0.074 A 
ATOM     78  C   UNL A   1      43.102  33.572  34.024  1.00  0.00     0.031 C 
ATOM     79  C   UNL A   1      43.004  31.190  33.025  1.00  0.00     0.037 A 
BRANCH  66  80
ATOM     80  C   UNL A   1      43.774  35.419  29.686  1.00  0.00     0.064 A 
ATOM     81  C   UNL A   1      43.656  36.306  30.780  1.00  0.00     0.173 A 
ATOM     82  C   UNL A   1      44.492  35.919  28.580  1.00  0.00     0.173 A 
ATOM     83  F   UNL A   1      42.990  35.945  31.887  1.00  0.00    -0.203 F 
ATOM     84  C   UNL A   1      44.126  37.622  30.722  1.00  0.00     0.198 A 
ATOM     85  C   UNL A   1      45.000  37.218  28.544  1.00  0.00     0.198 A 
ATOM     86  F   UNL A   1      44.633  35.223  27.447  1.00  0.00    -0.203 F 
ATOM     87  F   UNL A   1      43.865  38.467  31.729  1.00  0.00    -0.200 F 
ATOM     88  C   UNL A   1      44.788  38.080  29.599  1.00  0.00     0.200 A 
ATOM     89  F   UNL A   1      45.624  37.650  27.439  1.00  0.00    -0.200 F 
ATOM     90  F   UNL A   1      45.175  39.359  29.510  1.00  0.00    -0.200 F 
ENDBRANCH  66  80
BRANCH  67  91
ATOM     91  C   UNL A   1      39.977  34.061  37.183  1.00  0.00     0.064 A 
ATOM     92  C   UNL A   1      40.324  33.490  38.422  1.00  0.00     0.173 A 
ATOM     93  C   UNL A   1      39.742  35.448  37.183  1.00  0.00     0.173 A 
ATOM     94  F   UNL A   1      40.606  32.181  38.508  1.00  0.00    -0.203 F 
ATOM     95  C   UNL A   1      40.477  34.267  39.578  1.00  0.00     0.198 A 
ATOM     96  C   UNL A   1      39.892  36.222  38.337  1.00  0.00     0.198 A 
ATOM     97  F   UNL A   1      39.468  36.095  36.041  1.00  0.00    -0.203 F 
ATOM     98  F   UNL A   1      40.889  33.698  40.720  1.00  0.00    -0.200 F 
ATOM     99  C   UNL A   1      40.278  35.636  39.529  1.00  0.00     0.200 A 
ATOM    100  F   UNL A   1      39.736  37.552  38.269  1.00  0.00    -0.200 F 
ATOM    101  F   UNL A   1      40.501  36.392  40.612  1.00  0.00    -0.200 F 
ENDBRANCH  67  91
BRANCH  79 102
ATOM    102  C   UNL A   1      42.570  29.786  33.340  1.00  0.00     0.064 A 
ATOM    103  C   UNL A   1      43.347  28.852  34.047  1.00  0.00     0.173 A 
ATOM    104  C   UNL A   1      41.250  29.426  33.030  1.00  0.00     0.173 A 
ATOM    105  F   UNL A   1      44.588  29.148  34.452  1.00  0.00    -0.203 F 
ATOM    106  C   UNL A   1      42.828  27.606  34.403  1.00  0.00     0.198 A 
ATOM    107  C   UNL A   1      40.725  28.199  33.420  1.00  0.00     0.198 A 
ATOM    108  F   UNL A   1      40.450  30.296  32.393  1.00  0.00    -0.203 F 
ATOM    109  F   UNL A   1      43.587  26.727  35.075  1.00  0.00    -0.200 F 
ATOM    110  C   UNL A   1      41.514  27.287  34.100  1.00  0.00     0.200 A 
ATOM    111  F   UNL A   1      39.439  27.916  33.165  1.00  0.00    -0.200 F 
ATOM    112  F   UNL A   1      40.999  26.112  34.488  1.00  0.00    -0.200 F 
ENDBRANCH  79 102
ENDBRANCH  53  54
ENDBRANCH  45  48
ENDBRANCH  43  44
ENDBRANCH  42  43
ENDBRANCH  41  42
ENDBRANCH  40  41
ENDBRANCH   1  40
TORSDOF 19
ENDMDL
