MODEL 1
REMARK VINA RESULT:     -11.8      0.000      0.000
REMARK SMILES CC(C)Cc1ccc([C@H](C)C(=O)NCCCCCCNC(=O)c2ccc(-c3c4nc(c(-c5c(F)c(F)c(F)c(F)c5F)c5ccc([nH]5)c(-c5c(F)c(F)c(F)c(F)c5F)c5nc(c(-c6c(F)c(F)c(F)c(F)c6F)c6ccc3[nH]6)C=C5)C=C4)cc2)cc1
REMARK SMILES IDX 16 1 15 2 14 3 13 4 11 5 12 6 9 8 10 9 8 10 5 11 6 12 87 13
REMARK SMILES IDX 7 14 86 15 4 16 2 17 1 18 3 19 17 20 18 21 19 22 20 23 21 24
REMARK SMILES IDX 22 26 23 27 24 28 85 29 25 30 84 31 26 32 27 33 28 34 78 35
REMARK SMILES IDX 29 36 83 37 77 38 79 39 30 40 82 41 76 42 75 43 31 45 63 46
REMARK SMILES IDX 43 47 62 48 44 49 47 50 61 51 80 52 45 53 46 54 60 56 81 57
REMARK SMILES IDX 48 58 32 59 33 60 41 61 34 62 35 63 39 64 42 65 36 66 37 67
REMARK SMILES IDX 40 68 38 69 64 70 65 71 73 72 66 73 67 74 71 75 74 76 68 77
REMARK SMILES IDX 69 78 72 79 70 80 49 81 50 82 58 83 51 84 52 85 56 86 59 87
REMARK SMILES IDX 53 88 54 89 57 90 55 91
REMARK H PARENT 13 7 20 25 79 44 47 55
REMARK Flexibility Score: inf
ROOT
ATOM      1  C   UNL A   1      32.221  29.999  25.981  1.00  0.00     0.002 C 
ENDROOT
BRANCH   1   2
ATOM      2  C   UNL A   1      32.021  28.968  27.091  1.00  0.00     0.021 C 
BRANCH   2   3
ATOM      3  C   UNL A   1      32.302  27.524  26.706  1.00  0.00     0.116 C 
BRANCH   3   4
ATOM      4  N   UNL A   1      31.187  26.623  26.861  1.00  0.00    -0.356 N 
ATOM      5  C   UNL A   1      30.650  25.744  25.966  1.00  0.00     0.227 C 
ATOM      6  O   UNL A   1      29.880  24.895  26.433  1.00  0.00    -0.274 OA
ATOM      7  H   UNL A   1      30.748  26.646  27.742  1.00  0.00     0.163 HD
BRANCH   5   8
ATOM      8  C   UNL A   1      30.916  25.790  24.448  1.00  0.00     0.105 C 
ATOM      9  C   UNL A   1      30.648  24.480  23.713  1.00  0.00     0.023 C 
BRANCH   8  10
ATOM     10  C   UNL A   1      30.385  27.018  23.717  1.00  0.00    -0.036 A 
ATOM     11  C   UNL A   1      29.461  29.386  22.465  1.00  0.00    -0.048 A 
ATOM     12  C   UNL A   1      28.562  28.455  22.977  1.00  0.00     0.004 A 
ATOM     13  C   UNL A   1      30.827  29.088  22.497  1.00  0.00     0.004 A 
ATOM     14  C   UNL A   1      29.020  27.287  23.580  1.00  0.00     0.005 A 
ATOM     15  C   UNL A   1      31.282  27.922  23.124  1.00  0.00     0.005 A 
BRANCH  11  16
ATOM     16  C   UNL A   1      28.948  30.721  21.987  1.00  0.00     0.038 C 
BRANCH  16  17
ATOM     17  C   UNL A   1      28.713  31.685  23.173  1.00  0.00    -0.013 C 
ATOM     18  C   UNL A   1      28.880  33.149  22.757  1.00  0.00     0.008 C 
ATOM     19  C   UNL A   1      27.330  31.462  23.780  1.00  0.00     0.008 C 
ENDBRANCH  16  17
ENDBRANCH  11  16
ENDBRANCH   8  10
ENDBRANCH   5   8
ENDBRANCH   3   4
ENDBRANCH   2   3
ENDBRANCH   1   2
BRANCH   1  20
ATOM     20  C   UNL A   1      31.059  30.968  25.734  1.00  0.00     0.002 C 
BRANCH  20  21
ATOM     21  C   UNL A   1      31.188  32.360  26.357  1.00  0.00     0.021 C 
BRANCH  21  22
ATOM     22  C   UNL A   1      32.469  32.616  27.144  1.00  0.00     0.116 C 
BRANCH  22  23
ATOM     23  N   UNL A   1      32.600  33.999  27.569  1.00  0.00    -0.352 N 
ATOM     24  C   UNL A   1      33.488  34.566  28.447  1.00  0.00     0.251 C 
ATOM     25  H   UNL A   1      31.953  34.622  27.165  1.00  0.00     0.163 HD
ATOM     26  O   UNL A   1      33.345  35.732  28.798  1.00  0.00    -0.269 OA
BRANCH  24  27
ATOM     27  C   UNL A   1      34.606  33.767  28.994  1.00  0.00     0.039 A 
ATOM     28  C   UNL A   1      35.912  34.229  28.808  1.00  0.00     0.014 A 
ATOM     29  C   UNL A   1      34.379  32.564  29.668  1.00  0.00     0.014 A 
ATOM     30  C   UNL A   1      36.983  33.517  29.350  1.00  0.00     0.010 A 
ATOM     31  C   UNL A   1      35.441  31.893  30.270  1.00  0.00     0.010 A 
ATOM     32  C   UNL A   1      36.755  32.362  30.115  1.00  0.00    -0.014 A 
BRANCH  32  33
ATOM     33  C   UNL A   1      37.880  31.639  30.765  1.00  0.00     0.031 A 
ATOM     34  C   UNL A   1      38.305  31.995  32.163  1.00  0.00     0.074 A 
ATOM     35  C   UNL A   1      38.557  30.703  30.070  1.00  0.00     0.049 A 
ATOM     36  N   UNL A   1      39.301  31.525  32.870  1.00  0.00    -0.248 NA
ATOM     37  C   UNL A   1      37.526  33.038  32.850  1.00  0.00     0.031 C 
ATOM     38  C   UNL A   1      38.273  30.304  28.690  1.00  0.00     0.029 A 
ATOM     39  N   UNL A   1      39.634  29.926  30.422  1.00  0.00    -0.354 N 
ATOM     40  C   UNL A   1      39.279  32.225  34.070  1.00  0.00     0.074 A 
ATOM     41  C   UNL A   1      38.198  33.181  33.983  1.00  0.00     0.031 C 
ATOM     42  C   UNL A   1      39.143  29.351  28.318  1.00  0.00     0.029 A 
ATOM     43  C   UNL A   1      40.073  29.101  29.414  1.00  0.00     0.049 A 
ATOM     44  H   UNL A   1      40.054  29.959  31.312  1.00  0.00     0.167 HD
ATOM     45  C   UNL A   1      40.081  32.069  35.150  1.00  0.00     0.037 A 
ATOM     46  C   UNL A   1      41.117  28.251  29.374  1.00  0.00     0.037 A 
ATOM     47  C   UNL A   1      41.130  31.088  35.246  1.00  0.00     0.049 A 
ATOM     48  C   UNL A   1      41.985  28.100  30.596  1.00  0.00     0.074 A 
ATOM     49  C   UNL A   1      41.933  30.792  36.333  1.00  0.00     0.029 A 
ATOM     50  N   UNL A   1      41.526  30.249  34.215  1.00  0.00    -0.354 N 
ATOM     51  N   UNL A   1      41.893  28.698  31.757  1.00  0.00    -0.248 NA
ATOM     52  C   UNL A   1      43.099  27.145  30.503  1.00  0.00     0.031 C 
ATOM     53  C   UNL A   1      42.859  29.821  35.941  1.00  0.00     0.029 A 
ATOM     54  C   UNL A   1      42.587  29.462  34.632  1.00  0.00     0.049 A 
ATOM     55  H   UNL A   1      41.114  30.218  33.322  1.00  0.00     0.167 HD
ATOM     56  C   UNL A   1      42.911  28.172  32.541  1.00  0.00     0.074 A 
ATOM     57  C   UNL A   1      43.597  27.189  31.731  1.00  0.00     0.031 C 
ATOM     58  C   UNL A   1      43.250  28.476  33.817  1.00  0.00     0.037 A 
BRANCH  45  59
ATOM     59  C   UNL A   1      39.870  32.975  36.328  1.00  0.00     0.064 A 
ATOM     60  C   UNL A   1      40.572  34.180  36.469  1.00  0.00     0.173 A 
ATOM     61  C   UNL A   1      38.882  32.676  37.279  1.00  0.00     0.173 A 
ATOM     62  F   UNL A   1      41.533  34.509  35.594  1.00  0.00    -0.203 F 
ATOM     63  C   UNL A   1      40.300  35.049  37.524  1.00  0.00     0.198 A 
ATOM     64  C   UNL A   1      38.592  33.560  38.315  1.00  0.00     0.198 A 
ATOM     65  F   UNL A   1      38.177  31.538  37.187  1.00  0.00    -0.203 F 
ATOM     66  F   UNL A   1      41.002  36.182  37.656  1.00  0.00    -0.200 F 
ATOM     67  C   UNL A   1      39.301  34.743  38.439  1.00  0.00     0.200 A 
ATOM     68  F   UNL A   1      37.615  33.269  39.187  1.00  0.00    -0.200 F 
ATOM     69  F   UNL A   1      39.024  35.591  39.439  1.00  0.00    -0.200 F 
ENDBRANCH  45  59
BRANCH  46  70
ATOM     70  C   UNL A   1      41.416  27.482  28.134  1.00  0.00     0.064 A 
ATOM     71  C   UNL A   1      40.896  26.194  27.935  1.00  0.00     0.173 A 
ATOM     72  C   UNL A   1      42.270  27.996  27.147  1.00  0.00     0.173 A 
ATOM     73  F   UNL A   1      40.089  25.648  28.858  1.00  0.00    -0.203 F 
ATOM     74  C   UNL A   1      41.251  25.435  26.822  1.00  0.00     0.198 A 
ATOM     75  C   UNL A   1      42.596  27.251  26.015  1.00  0.00     0.198 A 
ATOM     76  F   UNL A   1      42.791  29.224  27.281  1.00  0.00    -0.203 F 
ATOM     77  F   UNL A   1      40.798  24.181  26.697  1.00  0.00    -0.200 F 
ATOM     78  C   UNL A   1      42.099  25.965  25.861  1.00  0.00     0.200 A 
ATOM     79  F   UNL A   1      43.401  27.774  25.081  1.00  0.00    -0.200 F 
ATOM     80  F   UNL A   1      42.448  25.233  24.795  1.00  0.00    -0.200 F 
ENDBRANCH  46  70
BRANCH  58  81
ATOM     81  C   UNL A   1      44.383  27.708  34.435  1.00  0.00     0.064 A 
ATOM     82  C   UNL A   1      44.183  26.469  35.062  1.00  0.00     0.173 A 
ATOM     83  C   UNL A   1      45.695  28.202  34.363  1.00  0.00     0.173 A 
ATOM     84  F   UNL A   1      42.946  25.960  35.169  1.00  0.00    -0.203 F 
ATOM     85  C   UNL A   1      45.248  25.769  35.620  1.00  0.00     0.198 A 
ATOM     86  C   UNL A   1      46.763  27.481  34.890  1.00  0.00     0.198 A 
ATOM     87  F   UNL A   1      45.944  29.378  33.768  1.00  0.00    -0.203 F 
ATOM     88  F   UNL A   1      45.025  24.613  36.261  1.00  0.00    -0.200 F 
ATOM     89  C   UNL A   1      46.538  26.270  35.526  1.00  0.00     0.200 A 
ATOM     90  F   UNL A   1      48.010  27.959  34.783  1.00  0.00    -0.200 F 
ATOM     91  F   UNL A   1      47.563  25.589  36.055  1.00  0.00    -0.200 F 
ENDBRANCH  58  81
ENDBRANCH  32  33
ENDBRANCH  24  27
ENDBRANCH  22  23
ENDBRANCH  21  22
ENDBRANCH  20  21
ENDBRANCH   1  20
TORSDOF 16
ENDMDL
MODEL 2
REMARK VINA RESULT:     -11.7      0.253      1.627
REMARK SMILES CC(C)Cc1ccc([C@H](C)C(=O)NCCCCCCNC(=O)c2ccc(-c3c4nc(c(-c5c(F)c(F)c(F)c(F)c5F)c5ccc([nH]5)c(-c5c(F)c(F)c(F)c(F)c5F)c5nc(c(-c6c(F)c(F)c(F)c(F)c6F)c6ccc3[nH]6)C=C5)C=C4)cc2)cc1
REMARK SMILES IDX 16 1 15 2 14 3 13 4 11 5 12 6 9 8 10 9 8 10 5 11 6 12 87 13
REMARK SMILES IDX 7 14 86 15 4 16 2 17 1 18 3 19 17 20 18 21 19 22 20 23 21 24
REMARK SMILES IDX 22 26 23 27 24 28 85 29 25 30 84 31 26 32 27 33 28 34 78 35
REMARK SMILES IDX 29 36 83 37 77 38 79 39 30 40 82 41 76 42 75 43 31 45 63 46
REMARK SMILES IDX 43 47 62 48 44 49 47 50 61 51 80 52 45 53 46 54 60 56 81 57
REMARK SMILES IDX 48 58 32 59 33 60 41 61 34 62 35 63 39 64 42 65 36 66 37 67
REMARK SMILES IDX 40 68 38 69 64 70 65 71 73 72 66 73 67 74 71 75 74 76 68 77
REMARK SMILES IDX 69 78 72 79 70 80 49 81 50 82 58 83 51 84 52 85 56 86 59 87
REMARK SMILES IDX 53 88 54 89 57 90 55 91
REMARK H PARENT 13 7 20 25 79 44 47 55
REMARK Flexibility Score: inf
ROOT
ATOM      1  C   UNL A   1      32.285  29.983  26.081  1.00  0.00     0.002 C 
ENDROOT
BRANCH   1   2
ATOM      2  C   UNL A   1      32.016  28.907  27.133  1.00  0.00     0.021 C 
BRANCH   2   3
ATOM      3  C   UNL A   1      32.315  27.479  26.705  1.00  0.00     0.116 C 
BRANCH   3   4
ATOM      4  N   UNL A   1      31.219  26.555  26.856  1.00  0.00    -0.356 N 
ATOM      5  C   UNL A   1      30.700  25.668  25.957  1.00  0.00     0.227 C 
ATOM      6  O   UNL A   1      29.948  24.802  26.421  1.00  0.00    -0.274 OA
ATOM      7  H   UNL A   1      30.780  26.565  27.737  1.00  0.00     0.163 HD
BRANCH   5   8
ATOM      8  C   UNL A   1      30.964  25.727  24.440  1.00  0.00     0.105 C 
ATOM      9  C   UNL A   1      30.679  24.427  23.692  1.00  0.00     0.023 C 
BRANCH   8  10
ATOM     10  C   UNL A   1      30.446  26.968  23.722  1.00  0.00    -0.036 A 
ATOM     11  C   UNL A   1      29.551  29.359  22.493  1.00  0.00    -0.048 A 
ATOM     12  C   UNL A   1      28.641  28.451  23.027  1.00  0.00     0.004 A 
ATOM     13  C   UNL A   1      30.909  29.028  22.492  1.00  0.00     0.004 A 
ATOM     14  C   UNL A   1      29.085  27.271  23.617  1.00  0.00     0.005 A 
ATOM     15  C   UNL A   1      31.351  27.850  23.108  1.00  0.00     0.005 A 
BRANCH  11  16
ATOM     16  C   UNL A   1      29.060  30.708  22.029  1.00  0.00     0.038 C 
BRANCH  16  17
ATOM     17  C   UNL A   1      28.770  31.640  23.228  1.00  0.00    -0.013 C 
ATOM     18  C   UNL A   1      28.922  33.116  22.850  1.00  0.00     0.008 C 
ATOM     19  C   UNL A   1      27.374  31.377  23.787  1.00  0.00     0.008 C 
ENDBRANCH  16  17
ENDBRANCH  11  16
ENDBRANCH   8  10
ENDBRANCH   5   8
ENDBRANCH   3   4
ENDBRANCH   2   3
ENDBRANCH   1   2
BRANCH   1  20
ATOM     20  C   UNL A   1      31.134  30.951  25.787  1.00  0.00     0.002 C 
BRANCH  20  21
ATOM     21  C   UNL A   1      31.240  32.345  26.411  1.00  0.00     0.021 C 
BRANCH  21  22
ATOM     22  C   UNL A   1      32.496  32.607  27.236  1.00  0.00     0.116 C 
BRANCH  22  23
ATOM     23  N   UNL A   1      32.641  34.002  27.610  1.00  0.00    -0.352 N 
ATOM     24  C   UNL A   1      33.532  34.591  28.472  1.00  0.00     0.251 C 
ATOM     25  H   UNL A   1      32.004  34.618  27.180  1.00  0.00     0.163 HD
ATOM     26  O   UNL A   1      33.402  35.771  28.778  1.00  0.00    -0.269 OA
BRANCH  24  27
ATOM     27  C   UNL A   1      34.638  33.799  29.054  1.00  0.00     0.039 A 
ATOM     28  C   UNL A   1      35.952  34.159  28.743  1.00  0.00     0.014 A 
ATOM     29  C   UNL A   1      34.389  32.702  29.882  1.00  0.00     0.014 A 
ATOM     30  C   UNL A   1      37.016  33.455  29.312  1.00  0.00     0.010 A 
ATOM     31  C   UNL A   1      35.449  32.048  30.506  1.00  0.00     0.010 A 
ATOM     32  C   UNL A   1      36.774  32.416  30.225  1.00  0.00    -0.014 A 
BRANCH  32  33
ATOM     33  C   UNL A   1      37.896  31.713  30.899  1.00  0.00     0.031 A 
ATOM     34  C   UNL A   1      38.304  32.097  32.295  1.00  0.00     0.074 A 
ATOM     35  C   UNL A   1      38.588  30.770  30.228  1.00  0.00     0.049 A 
ATOM     36  N   UNL A   1      39.296  31.645  33.021  1.00  0.00    -0.248 NA
ATOM     37  C   UNL A   1      37.511  33.146  32.956  1.00  0.00     0.031 C 
ATOM     38  C   UNL A   1      38.321  30.345  28.852  1.00  0.00     0.029 A 
ATOM     39  N   UNL A   1      39.666  30.006  30.605  1.00  0.00    -0.354 N 
ATOM     40  C   UNL A   1      39.257  32.366  34.208  1.00  0.00     0.074 A 
ATOM     41  C   UNL A   1      38.170  33.313  34.093  1.00  0.00     0.031 C 
ATOM     42  C   UNL A   1      39.201  29.391  28.506  1.00  0.00     0.029 A 
ATOM     43  C   UNL A   1      40.121  29.167  29.616  1.00  0.00     0.049 A 
ATOM     44  H   UNL A   1      40.076  30.057  31.498  1.00  0.00     0.167 HD
ATOM     45  C   UNL A   1      40.048  32.235  35.299  1.00  0.00     0.037 A 
ATOM     46  C   UNL A   1      41.171  28.323  29.601  1.00  0.00     0.037 A 
ATOM     47  C   UNL A   1      41.103  31.262  35.423  1.00  0.00     0.049 A 
ATOM     48  C   UNL A   1      42.027  28.199  30.835  1.00  0.00     0.074 A 
ATOM     49  C   UNL A   1      41.896  30.991  36.524  1.00  0.00     0.029 A 
ATOM     50  N   UNL A   1      41.515  30.409  34.411  1.00  0.00    -0.354 N 
ATOM     51  N   UNL A   1      41.919  28.818  31.985  1.00  0.00    -0.248 NA
ATOM     52  C   UNL A   1      43.148  27.251  30.771  1.00  0.00     0.031 C 
ATOM     53  C   UNL A   1      42.833  30.019  36.158  1.00  0.00     0.029 A 
ATOM     54  C   UNL A   1      42.577  29.636  34.853  1.00  0.00     0.049 A 
ATOM     55  H   UNL A   1      41.113  30.358  33.514  1.00  0.00     0.167 HD
ATOM     56  C   UNL A   1      42.932  28.312  32.788  1.00  0.00     0.074 A 
ATOM     57  C   UNL A   1      43.632  27.320  32.003  1.00  0.00     0.031 C 
ATOM     58  C   UNL A   1      43.255  28.640  34.062  1.00  0.00     0.037 A 
BRANCH  45  59
ATOM     59  C   UNL A   1      39.818  33.159  36.459  1.00  0.00     0.064 A 
ATOM     60  C   UNL A   1      40.501  34.378  36.579  1.00  0.00     0.173 A 
ATOM     61  C   UNL A   1      38.832  32.862  37.412  1.00  0.00     0.173 A 
ATOM     62  F   UNL A   1      41.459  34.706  35.700  1.00  0.00    -0.203 F 
ATOM     63  C   UNL A   1      40.211  35.262  37.616  1.00  0.00     0.198 A 
ATOM     64  C   UNL A   1      38.524  33.761  38.430  1.00  0.00     0.198 A 
ATOM     65  F   UNL A   1      38.146  31.712  37.340  1.00  0.00    -0.203 F 
ATOM     66  F   UNL A   1      40.895  36.409  37.728  1.00  0.00    -0.200 F 
ATOM     67  C   UNL A   1      39.214  34.958  38.533  1.00  0.00     0.200 A 
ATOM     68  F   UNL A   1      37.550  33.472  39.304  1.00  0.00    -0.200 F 
ATOM     69  F   UNL A   1      38.920  35.820  39.516  1.00  0.00    -0.200 F 
ENDBRANCH  45  59
BRANCH  46  70
ATOM     70  C   UNL A   1      41.488  27.535  28.379  1.00  0.00     0.064 A 
ATOM     71  C   UNL A   1      42.419  27.997  27.437  1.00  0.00     0.173 A 
ATOM     72  C   UNL A   1      40.828  26.328  28.100  1.00  0.00     0.173 A 
ATOM     73  F   UNL A   1      43.063  29.156  27.646  1.00  0.00    -0.203 F 
ATOM     74  C   UNL A   1      42.645  27.310  26.247  1.00  0.00     0.198 A 
ATOM     75  C   UNL A   1      41.083  25.621  26.927  1.00  0.00     0.198 A 
ATOM     76  F   UNL A   1      39.934  25.834  28.968  1.00  0.00    -0.203 F 
ATOM     77  F   UNL A   1      43.485  27.815  25.334  1.00  0.00    -0.200 F 
ATOM     78  C   UNL A   1      41.979  26.120  25.994  1.00  0.00     0.200 A 
ATOM     79  F   UNL A   1      40.450  24.464  26.695  1.00  0.00    -0.200 F 
ATOM     80  F   UNL A   1      42.190  25.462  24.845  1.00  0.00    -0.200 F 
ENDBRANCH  46  70
BRANCH  58  81
ATOM     81  C   UNL A   1      44.387  27.891  34.705  1.00  0.00     0.064 A 
ATOM     82  C   UNL A   1      45.696  28.394  34.715  1.00  0.00     0.173 A 
ATOM     83  C   UNL A   1      44.148  26.669  35.354  1.00  0.00     0.173 A 
ATOM     84  F   UNL A   1      45.980  29.550  34.097  1.00  0.00    -0.203 F 
ATOM     85  C   UNL A   1      46.729  27.688  35.326  1.00  0.00     0.198 A 
ATOM     86  C   UNL A   1      45.177  25.984  35.995  1.00  0.00     0.198 A 
ATOM     87  F   UNL A   1      42.913  26.147  35.381  1.00  0.00    -0.203 F 
ATOM     88  F   UNL A   1      47.982  28.161  35.277  1.00  0.00    -0.200 F 
ATOM     89  C   UNL A   1      46.468  26.489  35.972  1.00  0.00     0.200 A 
ATOM     90  F   UNL A   1      44.918  24.835  36.634  1.00  0.00    -0.200 F 
ATOM     91  F   UNL A   1      47.462  25.816  36.568  1.00  0.00    -0.200 F 
ENDBRANCH  58  81
ENDBRANCH  32  33
ENDBRANCH  24  27
ENDBRANCH  22  23
ENDBRANCH  21  22
ENDBRANCH  20  21
ENDBRANCH   1  20
TORSDOF 16
ENDMDL
MODEL 3
REMARK VINA RESULT:     -11.5      5.891     10.056
REMARK SMILES CC(C)Cc1ccc([C@H](C)C(=O)NCCCCCCNC(=O)c2ccc(-c3c4nc(c(-c5c(F)c(F)c(F)c(F)c5F)c5ccc([nH]5)c(-c5c(F)c(F)c(F)c(F)c5F)c5nc(c(-c6c(F)c(F)c(F)c(F)c6F)c6ccc3[nH]6)C=C5)C=C4)cc2)cc1
REMARK SMILES IDX 16 1 15 2 14 3 13 4 11 5 12 6 9 8 10 9 8 10 5 11 6 12 87 13
REMARK SMILES IDX 7 14 86 15 4 16 2 17 1 18 3 19 17 20 18 21 19 22 20 23 21 24
REMARK SMILES IDX 22 26 23 27 24 28 85 29 25 30 84 31 26 32 27 33 28 34 78 35
REMARK SMILES IDX 29 36 83 37 77 38 79 39 30 40 82 41 76 42 75 43 31 45 63 46
REMARK SMILES IDX 43 47 62 48 44 49 47 50 61 51 80 52 45 53 46 54 60 56 81 57
REMARK SMILES IDX 48 58 32 59 33 60 41 61 34 62 35 63 39 64 42 65 36 66 37 67
REMARK SMILES IDX 40 68 38 69 64 70 65 71 73 72 66 73 67 74 71 75 74 76 68 77
REMARK SMILES IDX 69 78 72 79 70 80 49 81 50 82 58 83 51 84 52 85 56 86 59 87
REMARK SMILES IDX 53 88 54 89 57 90 55 91
REMARK H PARENT 13 7 20 25 79 44 47 55
REMARK Flexibility Score: inf
ROOT
ATOM      1  C   UNL A   1      36.710  22.110  24.953  1.00  0.00     0.002 C 
ENDROOT
BRANCH   1   2
ATOM      2  C   UNL A   1      35.927  22.921  25.985  1.00  0.00     0.021 C 
BRANCH   2   3
ATOM      3  C   UNL A   1      34.708  23.659  25.455  1.00  0.00     0.116 C 
BRANCH   3   4
ATOM      4  N   UNL A   1      33.617  23.786  26.389  1.00  0.00    -0.356 N 
ATOM      5  C   UNL A   1      32.386  23.199  26.372  1.00  0.00     0.227 C 
ATOM      6  O   UNL A   1      31.742  23.256  27.427  1.00  0.00    -0.274 OA
ATOM      7  H   UNL A   1      33.786  24.385  27.152  1.00  0.00     0.163 HD
BRANCH   5   8
ATOM      8  C   UNL A   1      31.766  22.536  25.125  1.00  0.00     0.105 C 
ATOM      9  C   UNL A   1      31.651  23.450  23.908  1.00  0.00     0.023 C 
BRANCH   8  10
ATOM     10  C   UNL A   1      32.275  21.139  24.792  1.00  0.00    -0.036 A 
ATOM     11  C   UNL A   1      33.079  18.501  24.142  1.00  0.00    -0.048 A 
ATOM     12  C   UNL A   1      33.247  18.998  25.431  1.00  0.00     0.004 A 
ATOM     13  C   UNL A   1      32.591  19.357  23.150  1.00  0.00     0.004 A 
ATOM     14  C   UNL A   1      32.863  20.299  25.742  1.00  0.00     0.005 A 
ATOM     15  C   UNL A   1      32.185  20.658  23.475  1.00  0.00     0.005 A 
BRANCH  11  16
ATOM     16  C   UNL A   1      33.329  17.037  23.878  1.00  0.00     0.038 C 
BRANCH  16  17
ATOM     17  C   UNL A   1      33.634  16.277  25.189  1.00  0.00    -0.013 C 
ATOM     18  C   UNL A   1      32.695  15.083  25.385  1.00  0.00     0.008 C 
ATOM     19  C   UNL A   1      35.089  15.816  25.216  1.00  0.00     0.008 C 
ENDBRANCH  16  17
ENDBRANCH  11  16
ENDBRANCH   8  10
ENDBRANCH   5   8
ENDBRANCH   3   4
ENDBRANCH   2   3
ENDBRANCH   1   2
BRANCH   1  20
ATOM     20  C   UNL A   1      36.553  20.588  25.022  1.00  0.00     0.002 C 
BRANCH  20  21
ATOM     21  C   UNL A   1      37.832  19.762  24.858  1.00  0.00     0.021 C 
BRANCH  21  22
ATOM     22  C   UNL A   1      39.024  20.215  25.695  1.00  0.00     0.116 C 
BRANCH  22  23
ATOM     23  N   UNL A   1      40.035  19.183  25.837  1.00  0.00    -0.352 N 
ATOM     24  C   UNL A   1      41.378  19.300  26.093  1.00  0.00     0.251 C 
ATOM     25  H   UNL A   1      39.707  18.260  25.734  1.00  0.00     0.163 HD
ATOM     26  O   UNL A   1      42.104  18.315  26.026  1.00  0.00    -0.269 OA
BRANCH  24  27
ATOM     27  C   UNL A   1      41.959  20.619  26.426  1.00  0.00     0.039 A 
ATOM     28  C   UNL A   1      42.309  21.478  25.381  1.00  0.00     0.014 A 
ATOM     29  C   UNL A   1      42.176  21.005  27.752  1.00  0.00     0.014 A 
ATOM     30  C   UNL A   1      42.820  22.745  25.666  1.00  0.00     0.010 A 
ATOM     31  C   UNL A   1      42.617  22.295  28.036  1.00  0.00     0.010 A 
ATOM     32  C   UNL A   1      42.946  23.178  26.996  1.00  0.00    -0.014 A 
BRANCH  32  33
ATOM     33  C   UNL A   1      43.412  24.554  27.313  1.00  0.00     0.031 A 
ATOM     34  C   UNL A   1      42.450  25.578  27.847  1.00  0.00     0.074 A 
ATOM     35  C   UNL A   1      44.692  24.895  27.060  1.00  0.00     0.049 A 
ATOM     36  N   UNL A   1      42.653  26.843  28.119  1.00  0.00    -0.248 NA
ATOM     37  C   UNL A   1      41.066  25.133  28.082  1.00  0.00     0.031 C 
ATOM     38  C   UNL A   1      45.709  24.006  26.495  1.00  0.00     0.029 A 
ATOM     39  N   UNL A   1      45.355  26.087  27.230  1.00  0.00    -0.354 N 
ATOM     40  C   UNL A   1      41.427  27.344  28.535  1.00  0.00     0.074 A 
ATOM     41  C   UNL A   1      40.473  26.261  28.443  1.00  0.00     0.031 C 
ATOM     42  C   UNL A   1      46.867  24.677  26.377  1.00  0.00     0.029 A 
ATOM     43  C   UNL A   1      46.666  26.054  26.816  1.00  0.00     0.049 A 
ATOM     44  H   UNL A   1      44.931  26.890  27.610  1.00  0.00     0.167 HD
ATOM     45  C   UNL A   1      41.131  28.592  28.970  1.00  0.00     0.037 A 
ATOM     46  C   UNL A   1      47.595  27.028  26.780  1.00  0.00     0.037 A 
ATOM     47  C   UNL A   1      42.094  29.655  29.098  1.00  0.00     0.049 A 
ATOM     48  C   UNL A   1      47.232  28.404  27.276  1.00  0.00     0.074 A 
ATOM     49  C   UNL A   1      41.908  30.924  29.617  1.00  0.00     0.029 A 
ATOM     50  N   UNL A   1      43.418  29.575  28.697  1.00  0.00    -0.354 N 
ATOM     51  N   UNL A   1      46.093  28.838  27.758  1.00  0.00    -0.248 NA
ATOM     52  C   UNL A   1      48.288  29.425  27.232  1.00  0.00     0.031 C 
ATOM     53  C   UNL A   1      43.103  31.635  29.469  1.00  0.00     0.029 A 
ATOM     54  C   UNL A   1      44.051  30.787  28.924  1.00  0.00     0.049 A 
ATOM     55  H   UNL A   1      43.845  28.777  28.310  1.00  0.00     0.167 HD
ATOM     56  C   UNL A   1      46.305  30.166  28.103  1.00  0.00     0.074 A 
ATOM     57  C   UNL A   1      47.687  30.462  27.795  1.00  0.00     0.031 C 
ATOM     58  C   UNL A   1      45.434  31.062  28.626  1.00  0.00     0.037 A 
BRANCH  45  59
ATOM     59  C   UNL A   1      39.709  28.895  29.344  1.00  0.00     0.064 A 
ATOM     60  C   UNL A   1      38.778  29.354  28.401  1.00  0.00     0.173 A 
ATOM     61  C   UNL A   1      39.251  28.633  30.645  1.00  0.00     0.173 A 
ATOM     62  F   UNL A   1      39.166  29.630  27.148  1.00  0.00    -0.203 F 
ATOM     63  C   UNL A   1      37.443  29.548  28.749  1.00  0.00     0.198 A 
ATOM     64  C   UNL A   1      37.910  28.799  30.980  1.00  0.00     0.198 A 
ATOM     65  F   UNL A   1      40.099  28.187  31.583  1.00  0.00    -0.203 F 
ATOM     66  F   UNL A   1      36.576  30.014  27.839  1.00  0.00    -0.200 F 
ATOM     67  C   UNL A   1      37.008  29.258  30.034  1.00  0.00     0.200 A 
ATOM     68  F   UNL A   1      37.490  28.502  32.218  1.00  0.00    -0.200 F 
ATOM     69  F   UNL A   1      35.719  29.422  30.360  1.00  0.00    -0.200 F 
ENDBRANCH  45  59
BRANCH  46  70
ATOM     70  C   UNL A   1      48.957  26.752  26.245  1.00  0.00     0.064 A 
ATOM     71  C   UNL A   1      49.279  27.018  24.907  1.00  0.00     0.173 A 
ATOM     72  C   UNL A   1      49.948  26.168  27.048  1.00  0.00     0.173 A 
ATOM     73  F   UNL A   1      48.360  27.559  24.091  1.00  0.00    -0.203 F 
ATOM     74  C   UNL A   1      50.521  26.671  24.380  1.00  0.00     0.198 A 
ATOM     75  C   UNL A   1      51.204  25.856  26.530  1.00  0.00     0.198 A 
ATOM     76  F   UNL A   1      49.699  25.899  28.337  1.00  0.00    -0.203 F 
ATOM     77  F   UNL A   1      50.774  26.870  23.080  1.00  0.00    -0.200 F 
ATOM     78  C   UNL A   1      51.484  26.093  25.193  1.00  0.00     0.200 A 
ATOM     79  F   UNL A   1      52.136  25.314  27.324  1.00  0.00    -0.200 F 
ATOM     80  F   UNL A   1      52.677  25.752  24.685  1.00  0.00    -0.200 F 
ENDBRANCH  46  70
BRANCH  58  81
ATOM     81  C   UNL A   1      45.956  32.433  28.943  1.00  0.00     0.064 A 
ATOM     82  C   UNL A   1      46.550  32.732  30.178  1.00  0.00     0.173 A 
ATOM     83  C   UNL A   1      45.895  33.454  27.980  1.00  0.00     0.173 A 
ATOM     84  F   UNL A   1      46.620  31.796  31.137  1.00  0.00    -0.203 F 
ATOM     85  C   UNL A   1      47.037  34.008  30.448  1.00  0.00     0.198 A 
ATOM     86  C   UNL A   1      46.416  34.718  28.242  1.00  0.00     0.198 A 
ATOM     87  F   UNL A   1      45.344  33.220  26.780  1.00  0.00    -0.203 F 
ATOM     88  F   UNL A   1      47.552  34.285  31.654  1.00  0.00    -0.200 F 
ATOM     89  C   UNL A   1      46.978  34.997  29.478  1.00  0.00     0.200 A 
ATOM     90  F   UNL A   1      46.374  35.666  27.296  1.00  0.00    -0.200 F 
ATOM     91  F   UNL A   1      47.456  36.221  29.737  1.00  0.00    -0.200 F 
ENDBRANCH  58  81
ENDBRANCH  32  33
ENDBRANCH  24  27
ENDBRANCH  22  23
ENDBRANCH  21  22
ENDBRANCH  20  21
ENDBRANCH   1  20
TORSDOF 16
ENDMDL
