MODEL 1
REMARK VINA RESULT:     -13.9      0.000      0.000
REMARK SMILES Cc1nc2sc3c(c2c2nc(CCC(=O)NCCCCCCNC(=O)c4ccc(-c5c6nc(c(-c7c(F)c(F)c(F)c(F)c7F)c7ccc([nH]7)c(-c7c(F)c(F)c(F)c(F)c7F)c7nc(c(-c8c(F)c(F)c(F)c(F)c8F)c8ccc5[nH]8)C=C7)C=C6)cc4)nn12)[C@@H](C)CCC3
REMARK SMILES IDX 19 1 18 2 17 3 16 4 14 5 15 6 13 8 12 9 11 10 1 11 2 12 3 13
REMARK SMILES IDX 90 14 4 15 9 16 89 17 5 18 8 19 10 20 6 21 7 22 95 23 91 24
REMARK SMILES IDX 94 25 92 26 93 27 20 28 21 29 22 30 23 31 24 32 25 34 26 35
REMARK SMILES IDX 27 36 88 37 28 38 87 39 29 40 30 41 31 42 81 43 32 44 86 45
REMARK SMILES IDX 80 46 82 47 33 48 85 49 79 50 78 51 34 53 66 54 46 55 65 56
REMARK SMILES IDX 47 57 50 58 64 59 83 60 48 61 49 62 63 64 84 65 51 66 35 67
REMARK SMILES IDX 36 68 44 69 37 70 38 71 42 72 45 73 39 74 40 75 43 76 41 77
REMARK SMILES IDX 67 78 68 79 76 80 69 81 70 82 74 83 77 84 71 85 72 86 75 87
REMARK SMILES IDX 73 88 52 89 53 90 61 91 54 92 55 93 59 94 62 95 56 96 57 97
REMARK SMILES IDX 60 98 58 99
REMARK H PARENT 16 7 23 33 82 52 50 63
REMARK Flexibility Score: inf
ROOT
ATOM      1  C   UNL A   1      39.744  21.337  26.442  1.00  0.00     0.002 C 
ENDROOT
BRANCH   1   2
ATOM      2  C   UNL A   1      39.680  22.786  25.998  1.00  0.00     0.021 C 
BRANCH   2   3
ATOM      3  C   UNL A   1      38.266  23.292  26.124  1.00  0.00     0.116 C 
BRANCH   3   4
ATOM      4  N   UNL A   1      37.750  23.573  24.786  1.00  0.00    -0.356 N 
ATOM      5  C   UNL A   1      36.714  22.922  24.155  1.00  0.00     0.220 C 
ATOM      6  O   UNL A   1      36.681  22.921  22.925  1.00  0.00    -0.275 OA
ATOM      7  H   UNL A   1      38.188  24.300  24.287  1.00  0.00     0.163 HD
BRANCH   5   8
ATOM      8  C   UNL A   1      35.585  22.332  24.998  1.00  0.00     0.108 C 
BRANCH   8   9
ATOM      9  C   UNL A   1      34.946  23.205  26.110  1.00  0.00     0.089 C 
BRANCH   9  10
ATOM     10  C   UNL A   1      33.547  23.760  25.891  1.00  0.00     0.152 A 
ATOM     11  C   UNL A   1      30.612  23.041  23.043  1.00  0.00     0.090 C 
ATOM     12  C   UNL A   1      30.815  24.340  23.790  1.00  0.00     0.131 A 
ATOM     13  N   UNL A   1      30.141  25.408  23.429  1.00  0.00    -0.222 NA
ATOM     14  N   UNL A   1      31.768  24.273  24.855  1.00  0.00    -0.199 N 
ATOM     15  C   UNL A   1      30.483  26.549  24.100  1.00  0.00     0.129 A 
ATOM     16  C   UNL A   1      32.099  25.309  25.734  1.00  0.00     0.168 A 
ATOM     17  N   UNL A   1      32.688  23.262  24.977  1.00  0.00    -0.150 NA
ATOM     18  S   UNL A   1      29.802  28.606  23.299  1.00  0.00    -0.120 S 
ATOM     19  C   UNL A   1      31.556  26.697  25.439  1.00  0.00     0.060 A 
ATOM     20  N   UNL A   1      33.120  24.940  26.481  1.00  0.00    -0.211 NA
ATOM     21  C   UNL A   1      31.111  29.669  24.934  1.00  0.00     0.011 A 
ATOM     22  C   UNL A   1      31.959  28.499  25.968  1.00  0.00    -0.018 A 
ATOM     23  C   UNL A   1      31.003  31.133  25.239  1.00  0.00     0.047 C 
ATOM     24  C   UNL A   1      32.843  29.121  27.110  1.00  0.00     0.018 C 
ATOM     25  C   UNL A   1      31.343  31.260  26.756  1.00  0.00     0.006 C 
ATOM     26  C   UNL A   1      34.375  28.922  27.124  1.00  0.00     0.013 C 
ATOM     27  C   UNL A   1      32.730  30.689  27.053  1.00  0.00     0.008 C 
ENDBRANCH   9  10
ENDBRANCH   8   9
ENDBRANCH   5   8
ENDBRANCH   3   4
ENDBRANCH   2   3
ENDBRANCH   1   2
BRANCH   1  28
ATOM     28  C   UNL A   1      40.866  21.101  27.418  1.00  0.00     0.002 C 
BRANCH  28  29
ATOM     29  C   UNL A   1      41.853  19.763  27.232  1.00  0.00     0.021 C 
BRANCH  29  30
ATOM     30  C   UNL A   1      43.402  19.073  25.805  1.00  0.00     0.116 C 
BRANCH  30  31
ATOM     31  N   UNL A   1      45.065  19.576  25.722  1.00  0.00    -0.352 N 
ATOM     32  C   UNL A   1      45.687  20.683  25.161  1.00  0.00     0.251 C 
ATOM     33  H   UNL A   1      45.689  18.952  26.158  1.00  0.00     0.163 HD
ATOM     34  O   UNL A   1      46.815  20.664  24.692  1.00  0.00    -0.269 OA
BRANCH  32  35
ATOM     35  C   UNL A   1      44.977  21.935  25.363  1.00  0.00     0.039 A 
ATOM     36  C   UNL A   1      43.934  22.481  24.628  1.00  0.00     0.014 A 
ATOM     37  C   UNL A   1      45.562  22.723  26.327  1.00  0.00     0.014 A 
ATOM     38  C   UNL A   1      43.574  23.782  24.986  1.00  0.00     0.010 A 
ATOM     39  C   UNL A   1      44.715  23.458  27.045  1.00  0.00     0.010 A 
ATOM     40  C   UNL A   1      44.107  24.305  26.186  1.00  0.00    -0.014 A 
BRANCH  40  41
ATOM     41  C   UNL A   1      43.744  25.517  26.869  1.00  0.00     0.031 A 
ATOM     42  C   UNL A   1      44.692  26.562  26.474  1.00  0.00     0.074 A 
ATOM     43  C   UNL A   1      42.609  25.667  27.593  1.00  0.00     0.049 A 
ATOM     44  N   UNL A   1      45.816  26.725  27.076  1.00  0.00    -0.248 NA
ATOM     45  C   UNL A   1      44.652  27.168  25.130  1.00  0.00     0.031 C 
ATOM     46  C   UNL A   1      41.466  24.766  27.805  1.00  0.00     0.029 A 
ATOM     47  N   UNL A   1      42.275  26.735  28.368  1.00  0.00    -0.354 N 
ATOM     48  C   UNL A   1      46.471  27.713  26.379  1.00  0.00     0.074 A 
ATOM     49  C   UNL A   1      45.866  27.733  25.076  1.00  0.00     0.031 C 
ATOM     50  C   UNL A   1      40.481  25.410  28.482  1.00  0.00     0.029 A 
ATOM     51  C   UNL A   1      40.979  26.704  28.902  1.00  0.00     0.049 A 
ATOM     52  H   UNL A   1      42.899  27.477  28.542  1.00  0.00     0.167 HD
ATOM     53  C   UNL A   1      47.168  28.621  27.110  1.00  0.00     0.037 A 
ATOM     54  C   UNL A   1      40.433  27.671  29.696  1.00  0.00     0.037 A 
ATOM     55  C   UNL A   1      47.338  28.123  28.467  1.00  0.00     0.049 A 
ATOM     56  C   UNL A   1      41.589  28.405  30.296  1.00  0.00     0.074 A 
ATOM     57  C   UNL A   1      47.962  27.021  29.022  1.00  0.00     0.029 A 
ATOM     58  N   UNL A   1      46.375  28.516  29.370  1.00  0.00    -0.354 N 
ATOM     59  N   UNL A   1      42.418  27.839  31.136  1.00  0.00    -0.248 NA
ATOM     60  C   UNL A   1      42.132  29.509  29.516  1.00  0.00     0.031 C 
ATOM     61  C   UNL A   1      47.076  26.557  30.040  1.00  0.00     0.029 A 
ATOM     62  C   UNL A   1      46.015  27.456  30.162  1.00  0.00     0.049 A 
ATOM     63  H   UNL A   1      45.999  29.423  29.438  1.00  0.00     0.167 HD
ATOM     64  C   UNL A   1      43.679  28.200  30.678  1.00  0.00     0.074 A 
ATOM     65  C   UNL A   1      43.433  29.251  29.683  1.00  0.00     0.031 C 
ATOM     66  C   UNL A   1      44.758  27.385  30.880  1.00  0.00     0.037 A 
BRANCH  53  67
ATOM     67  C   UNL A   1      47.216  30.089  26.792  1.00  0.00     0.064 A 
ATOM     68  C   UNL A   1      48.462  30.737  26.893  1.00  0.00     0.173 A 
ATOM     69  C   UNL A   1      46.091  30.938  26.705  1.00  0.00     0.173 A 
ATOM     70  F   UNL A   1      49.595  30.025  26.993  1.00  0.00    -0.203 F 
ATOM     71  C   UNL A   1      48.563  32.124  26.997  1.00  0.00     0.198 A 
ATOM     72  C   UNL A   1      46.201  32.324  26.764  1.00  0.00     0.198 A 
ATOM     73  F   UNL A   1      44.836  30.481  26.669  1.00  0.00    -0.203 F 
ATOM     74  F   UNL A   1      49.758  32.684  27.226  1.00  0.00    -0.200 F 
ATOM     75  C   UNL A   1      47.432  32.915  26.940  1.00  0.00     0.200 A 
ATOM     76  F   UNL A   1      45.088  33.072  26.732  1.00  0.00    -0.200 F 
ATOM     77  F   UNL A   1      47.520  34.242  27.099  1.00  0.00    -0.200 F 
ENDBRANCH  53  67
BRANCH  54  78
ATOM     78  C   UNL A   1      39.076  28.286  29.628  1.00  0.00     0.064 A 
ATOM     79  C   UNL A   1      38.289  28.467  30.784  1.00  0.00     0.173 A 
ATOM     80  C   UNL A   1      38.658  28.992  28.485  1.00  0.00     0.173 A 
ATOM     81  F   UNL A   1      38.639  27.875  31.937  1.00  0.00    -0.203 F 
ATOM     82  C   UNL A   1      37.175  29.320  30.800  1.00  0.00     0.198 A 
ATOM     83  C   UNL A   1      37.550  29.847  28.504  1.00  0.00     0.198 A 
ATOM     84  F   UNL A   1      39.376  28.942  27.354  1.00  0.00    -0.203 F 
ATOM     85  F   UNL A   1      36.487  29.509  31.937  1.00  0.00    -0.200 F 
ATOM     86  C   UNL A   1      36.816  30.021  29.662  1.00  0.00     0.200 A 
ATOM     87  F   UNL A   1      37.240  30.555  27.409  1.00  0.00    -0.200 F 
ATOM     88  F   UNL A   1      35.796  30.891  29.692  1.00  0.00    -0.200 F 
ENDBRANCH  54  78
BRANCH  66  89
ATOM     89  C   UNL A   1      44.613  26.222  31.831  1.00  0.00     0.064 A 
ATOM     90  C   UNL A   1      44.243  24.916  31.457  1.00  0.00     0.173 A 
ATOM     91  C   UNL A   1      45.090  26.404  33.134  1.00  0.00     0.173 A 
ATOM     92  F   UNL A   1      43.839  24.643  30.211  1.00  0.00    -0.203 F 
ATOM     93  C   UNL A   1      44.357  23.848  32.352  1.00  0.00     0.198 A 
ATOM     94  C   UNL A   1      45.233  25.335  34.012  1.00  0.00     0.198 A 
ATOM     95  F   UNL A   1      45.495  27.621  33.529  1.00  0.00    -0.203 F 
ATOM     96  F   UNL A   1      44.022  22.606  31.969  1.00  0.00    -0.200 F 
ATOM     97  C   UNL A   1      44.868  24.057  33.623  1.00  0.00     0.200 A 
ATOM     98  F   UNL A   1      45.775  25.539  35.220  1.00  0.00    -0.200 F 
ATOM     99  F   UNL A   1      45.037  23.026  34.462  1.00  0.00    -0.200 F 
ENDBRANCH  66  89
ENDBRANCH  40  41
ENDBRANCH  32  35
ENDBRANCH  30  31
ENDBRANCH  29  30
ENDBRANCH  28  29
ENDBRANCH   1  28
TORSDOF 15
ENDMDL
MODEL 2
REMARK VINA RESULT:     -13.6      3.105      4.869
REMARK SMILES Cc1nc2sc3c(c2c2nc(CCC(=O)NCCCCCCNC(=O)c4ccc(-c5c6nc(c(-c7c(F)c(F)c(F)c(F)c7F)c7ccc([nH]7)c(-c7c(F)c(F)c(F)c(F)c7F)c7nc(c(-c8c(F)c(F)c(F)c(F)c8F)c8ccc5[nH]8)C=C7)C=C6)cc4)nn12)[C@@H](C)CCC3
REMARK SMILES IDX 19 1 18 2 17 3 16 4 14 5 15 6 13 8 12 9 11 10 1 11 2 12 3 13
REMARK SMILES IDX 90 14 4 15 9 16 89 17 5 18 8 19 10 20 6 21 7 22 95 23 91 24
REMARK SMILES IDX 94 25 92 26 93 27 20 28 21 29 22 30 23 31 24 32 25 34 26 35
REMARK SMILES IDX 27 36 88 37 28 38 87 39 29 40 30 41 31 42 81 43 32 44 86 45
REMARK SMILES IDX 80 46 82 47 33 48 85 49 79 50 78 51 34 53 66 54 46 55 65 56
REMARK SMILES IDX 47 57 50 58 64 59 83 60 48 61 49 62 63 64 84 65 51 66 35 67
REMARK SMILES IDX 36 68 44 69 37 70 38 71 42 72 45 73 39 74 40 75 43 76 41 77
REMARK SMILES IDX 67 78 68 79 76 80 69 81 70 82 74 83 77 84 71 85 72 86 75 87
REMARK SMILES IDX 73 88 52 89 53 90 61 91 54 92 55 93 59 94 62 95 56 96 57 97
REMARK SMILES IDX 60 98 58 99
REMARK H PARENT 16 7 23 33 82 52 50 63
REMARK Flexibility Score: inf
ROOT
ATOM      1  C   UNL A   1      35.078  21.039  24.935  1.00  0.00     0.002 C 
ENDROOT
BRANCH   1   2
ATOM      2  C   UNL A   1      33.648  20.671  25.277  1.00  0.00     0.021 C 
BRANCH   2   3
ATOM      3  C   UNL A   1      33.286  21.242  26.624  1.00  0.00     0.116 C 
BRANCH   3   4
ATOM      4  N   UNL A   1      31.951  21.831  26.538  1.00  0.00    -0.356 N 
ATOM      5  C   UNL A   1      31.587  23.095  26.945  1.00  0.00     0.220 C 
ATOM      6  O   UNL A   1      30.412  23.301  27.248  1.00  0.00    -0.275 OA
ATOM      7  H   UNL A   1      31.243  21.268  26.150  1.00  0.00     0.163 HD
BRANCH   5   8
ATOM      8  C   UNL A   1      32.620  24.219  26.891  1.00  0.00     0.108 C 
BRANCH   8   9
ATOM      9  C   UNL A   1      33.094  24.735  25.507  1.00  0.00     0.089 C 
BRANCH   9  10
ATOM     10  C   UNL A   1      33.282  26.231  25.309  1.00  0.00     0.152 A 
ATOM     11  C   UNL A   1      35.016  29.213  27.620  1.00  0.00     0.090 C 
ATOM     12  C   UNL A   1      33.886  29.407  26.635  1.00  0.00     0.131 A 
ATOM     13  N   UNL A   1      33.257  30.560  26.588  1.00  0.00    -0.222 NA
ATOM     14  N   UNL A   1      33.598  28.265  25.823  1.00  0.00    -0.199 N 
ATOM     15  C   UNL A   1      32.185  30.588  25.741  1.00  0.00     0.129 A 
ATOM     16  C   UNL A   1      32.646  28.196  24.802  1.00  0.00     0.168 A 
ATOM     17  N   UNL A   1      34.028  26.998  26.131  1.00  0.00    -0.150 NA
ATOM     18  S   UNL A   1      30.655  32.315  25.872  1.00  0.00    -0.120 S 
ATOM     19  C   UNL A   1      31.685  29.361  24.641  1.00  0.00     0.060 A 
ATOM     20  N   UNL A   1      32.547  26.951  24.380  1.00  0.00    -0.211 NA
ATOM     21  C   UNL A   1      29.287  31.212  24.315  1.00  0.00     0.011 A 
ATOM     22  C   UNL A   1      29.997  29.674  23.780  1.00  0.00    -0.018 A 
ATOM     23  C   UNL A   1      28.116  31.871  23.649  1.00  0.00     0.047 C 
ATOM     24  C   UNL A   1      29.159  28.876  22.715  1.00  0.00     0.018 C 
ATOM     25  C   UNL A   1      28.017  31.205  22.243  1.00  0.00     0.006 C 
ATOM     26  C   UNL A   1      28.574  27.485  23.047  1.00  0.00     0.013 C 
ATOM     27  C   UNL A   1      27.858  29.689  22.368  1.00  0.00     0.008 C 
ENDBRANCH   9  10
ENDBRANCH   8   9
ENDBRANCH   5   8
ENDBRANCH   3   4
ENDBRANCH   2   3
ENDBRANCH   1   2
BRANCH   1  28
ATOM     28  C   UNL A   1      35.142  22.214  23.995  1.00  0.00     0.002 C 
BRANCH  28  29
ATOM     29  C   UNL A   1      36.376  23.333  24.158  1.00  0.00     0.021 C 
BRANCH  29  30
ATOM     30  C   UNL A   1      37.898  23.863  25.680  1.00  0.00     0.116 C 
BRANCH  30  31
ATOM     31  N   UNL A   1      38.760  22.783  26.737  1.00  0.00    -0.352 N 
ATOM     32  C   UNL A   1      40.049  22.798  27.251  1.00  0.00     0.251 C 
ATOM     33  H   UNL A   1      38.229  22.006  27.026  1.00  0.00     0.163 HD
ATOM     34  O   UNL A   1      40.694  21.790  27.497  1.00  0.00    -0.269 OA
BRANCH  32  35
ATOM     35  C   UNL A   1      40.506  24.109  27.682  1.00  0.00     0.039 A 
ATOM     36  C   UNL A   1      41.800  24.564  27.885  1.00  0.00     0.014 A 
ATOM     37  C   UNL A   1      39.471  24.921  28.085  1.00  0.00     0.014 A 
ATOM     38  C   UNL A   1      41.900  25.834  28.456  1.00  0.00     0.010 A 
ATOM     39  C   UNL A   1      39.639  26.218  27.831  1.00  0.00     0.010 A 
ATOM     40  C   UNL A   1      40.723  26.616  28.531  1.00  0.00    -0.014 A 
BRANCH  40  41
ATOM     41  C   UNL A   1      40.596  28.003  28.882  1.00  0.00     0.031 A 
ATOM     42  C   UNL A   1      41.667  28.742  28.206  1.00  0.00     0.074 A 
ATOM     43  C   UNL A   1      39.548  28.519  29.568  1.00  0.00     0.049 A 
ATOM     44  N   UNL A   1      42.839  28.864  28.720  1.00  0.00    -0.248 NA
ATOM     45  C   UNL A   1      41.634  28.985  26.753  1.00  0.00     0.031 C 
ATOM     46  C   UNL A   1      38.296  27.903  30.033  1.00  0.00     0.029 A 
ATOM     47  N   UNL A   1      39.434  29.789  30.045  1.00  0.00    -0.354 N 
ATOM     48  C   UNL A   1      43.593  29.519  27.775  1.00  0.00     0.074 A 
ATOM     49  C   UNL A   1      42.914  29.309  26.526  1.00  0.00     0.031 C 
ATOM     50  C   UNL A   1      37.467  28.853  30.541  1.00  0.00     0.029 A 
ATOM     51  C   UNL A   1      38.186  30.110  30.598  1.00  0.00     0.049 A 
ATOM     52  H   UNL A   1      40.174  30.436  30.005  1.00  0.00     0.167 HD
ATOM     53  C   UNL A   1      44.467  30.454  28.228  1.00  0.00     0.037 A 
ATOM     54  C   UNL A   1      37.849  31.323  31.124  1.00  0.00     0.037 A 
ATOM     55  C   UNL A   1      44.646  30.296  29.664  1.00  0.00     0.049 A 
ATOM     56  C   UNL A   1      39.140  31.982  31.486  1.00  0.00     0.074 A 
ATOM     57  C   UNL A   1      45.127  29.283  30.473  1.00  0.00     0.029 A 
ATOM     58  N   UNL A   1      43.816  31.059  30.455  1.00  0.00    -0.354 N 
ATOM     59  N   UNL A   1      39.925  31.519  32.425  1.00  0.00    -0.248 NA
ATOM     60  C   UNL A   1      39.796  32.747  30.433  1.00  0.00     0.031 C 
ATOM     61  C   UNL A   1      44.247  29.245  31.596  1.00  0.00     0.029 A 
ATOM     62  C   UNL A   1      43.349  30.310  31.503  1.00  0.00     0.049 A 
ATOM     63  H   UNL A   1      43.590  32.003  30.292  1.00  0.00     0.167 HD
ATOM     64  C   UNL A   1      41.194  31.537  31.860  1.00  0.00     0.074 A 
ATOM     65  C   UNL A   1      41.050  32.327  30.632  1.00  0.00     0.031 C 
ATOM     66  C   UNL A   1      42.145  30.633  32.243  1.00  0.00     0.037 A 
BRANCH  53  67
ATOM     67  C   UNL A   1      44.721  31.765  27.537  1.00  0.00     0.064 A 
ATOM     68  C   UNL A   1      45.970  31.940  26.913  1.00  0.00     0.173 A 
ATOM     69  C   UNL A   1      43.957  32.939  27.717  1.00  0.00     0.173 A 
ATOM     70  F   UNL A   1      46.782  30.893  26.703  1.00  0.00    -0.203 F 
ATOM     71  C   UNL A   1      46.457  33.206  26.584  1.00  0.00     0.198 A 
ATOM     72  C   UNL A   1      44.428  34.194  27.348  1.00  0.00     0.198 A 
ATOM     73  F   UNL A   1      42.781  32.951  28.350  1.00  0.00    -0.203 F 
ATOM     74  F   UNL A   1      47.705  33.333  26.115  1.00  0.00    -0.200 F 
ATOM     75  C   UNL A   1      45.688  34.332  26.809  1.00  0.00     0.200 A 
ATOM     76  F   UNL A   1      43.677  35.277  27.597  1.00  0.00    -0.200 F 
ATOM     77  F   UNL A   1      46.175  35.552  26.550  1.00  0.00    -0.200 F 
ENDBRANCH  53  67
BRANCH  54  78
ATOM     78  C   UNL A   1      36.601  32.117  30.929  1.00  0.00     0.064 A 
ATOM     79  C   UNL A   1      35.833  32.565  32.023  1.00  0.00     0.173 A 
ATOM     80  C   UNL A   1      36.312  32.718  29.690  1.00  0.00     0.173 A 
ATOM     81  F   UNL A   1      36.072  32.088  33.254  1.00  0.00    -0.203 F 
ATOM     82  C   UNL A   1      34.861  33.568  31.889  1.00  0.00     0.198 A 
ATOM     83  C   UNL A   1      35.346  33.723  29.558  1.00  0.00     0.198 A 
ATOM     84  F   UNL A   1      37.032  32.413  28.601  1.00  0.00    -0.203 F 
ATOM     85  F   UNL A   1      34.192  34.007  32.966  1.00  0.00    -0.200 F 
ATOM     86  C   UNL A   1      34.629  34.156  30.658  1.00  0.00     0.200 A 
ATOM     87  F   UNL A   1      35.164  34.316  28.371  1.00  0.00    -0.200 F 
ATOM     88  F   UNL A   1      33.753  35.163  30.539  1.00  0.00    -0.200 F 
ENDBRANCH  54  78
BRANCH  66  89
ATOM     89  C   UNL A   1      41.884  29.789  33.467  1.00  0.00     0.064 A 
ATOM     90  C   UNL A   1      41.493  28.437  33.447  1.00  0.00     0.173 A 
ATOM     91  C   UNL A   1      42.268  30.326  34.701  1.00  0.00     0.173 A 
ATOM     92  F   UNL A   1      41.174  27.828  32.299  1.00  0.00    -0.203 F 
ATOM     93  C   UNL A   1      41.498  27.664  34.613  1.00  0.00     0.198 A 
ATOM     94  C   UNL A   1      42.303  29.548  35.854  1.00  0.00     0.198 A 
ATOM     95  F   UNL A   1      42.689  31.599  34.770  1.00  0.00    -0.203 F 
ATOM     96  F   UNL A   1      41.145  26.371  34.568  1.00  0.00    -0.200 F 
ATOM     97  C   UNL A   1      41.920  28.218  35.811  1.00  0.00     0.200 A 
ATOM     98  F   UNL A   1      42.760  30.078  36.997  1.00  0.00    -0.200 F 
ATOM     99  F   UNL A   1      41.985  27.465  36.918  1.00  0.00    -0.200 F 
ENDBRANCH  66  89
ENDBRANCH  40  41
ENDBRANCH  32  35
ENDBRANCH  30  31
ENDBRANCH  29  30
ENDBRANCH  28  29
ENDBRANCH   1  28
TORSDOF 15
ENDMDL
MODEL 3
REMARK VINA RESULT:     -13.1      4.755      9.570
REMARK SMILES Cc1nc2sc3c(c2c2nc(CCC(=O)NCCCCCCNC(=O)c4ccc(-c5c6nc(c(-c7c(F)c(F)c(F)c(F)c7F)c7ccc([nH]7)c(-c7c(F)c(F)c(F)c(F)c7F)c7nc(c(-c8c(F)c(F)c(F)c(F)c8F)c8ccc5[nH]8)C=C7)C=C6)cc4)nn12)[C@@H](C)CCC3
REMARK SMILES IDX 19 1 18 2 17 3 16 4 14 5 15 6 13 8 12 9 11 10 1 11 2 12 3 13
REMARK SMILES IDX 90 14 4 15 9 16 89 17 5 18 8 19 10 20 6 21 7 22 95 23 91 24
REMARK SMILES IDX 94 25 92 26 93 27 20 28 21 29 22 30 23 31 24 32 25 34 26 35
REMARK SMILES IDX 27 36 88 37 28 38 87 39 29 40 30 41 31 42 81 43 32 44 86 45
REMARK SMILES IDX 80 46 82 47 33 48 85 49 79 50 78 51 34 53 66 54 46 55 65 56
REMARK SMILES IDX 47 57 50 58 64 59 83 60 48 61 49 62 63 64 84 65 51 66 35 67
REMARK SMILES IDX 36 68 44 69 37 70 38 71 42 72 45 73 39 74 40 75 43 76 41 77
REMARK SMILES IDX 67 78 68 79 76 80 69 81 70 82 74 83 77 84 71 85 72 86 75 87
REMARK SMILES IDX 73 88 52 89 53 90 61 91 54 92 55 93 59 94 62 95 56 96 57 97
REMARK SMILES IDX 60 98 58 99
REMARK H PARENT 16 7 23 33 82 52 50 63
REMARK Flexibility Score: inf
ROOT
ATOM      1  C   UNL A   1      42.168  29.771  36.069  1.00  0.00     0.002 C 
ENDROOT
BRANCH   1   2
ATOM      2  C   UNL A   1      41.112  30.860  36.088  1.00  0.00     0.021 C 
BRANCH   2   3
ATOM      3  C   UNL A   1      39.957  30.461  35.206  1.00  0.00     0.116 C 
BRANCH   3   4
ATOM      4  N   UNL A   1      38.758  30.341  36.032  1.00  0.00    -0.356 N 
ATOM      5  C   UNL A   1      38.075  31.371  36.638  1.00  0.00     0.220 C 
ATOM      6  O   UNL A   1      37.403  31.124  37.639  1.00  0.00    -0.275 OA
ATOM      7  H   UNL A   1      38.404  29.432  36.168  1.00  0.00     0.163 HD
BRANCH   5   8
ATOM      8  C   UNL A   1      38.079  32.751  35.983  1.00  0.00     0.108 C 
BRANCH   8   9
ATOM      9  C   UNL A   1      36.722  33.449  35.702  1.00  0.00     0.089 C 
BRANCH   9  10
ATOM     10  C   UNL A   1      36.474  34.037  34.321  1.00  0.00     0.152 A 
ATOM     11  C   UNL A   1      33.820  36.883  32.872  1.00  0.00     0.090 C 
ATOM     12  C   UNL A   1      34.394  35.730  32.080  1.00  0.00     0.131 A 
ATOM     13  N   UNL A   1      33.922  35.466  30.883  1.00  0.00    -0.222 NA
ATOM     14  N   UNL A   1      35.432  35.006  32.747  1.00  0.00    -0.199 N 
ATOM     15  C   UNL A   1      34.435  34.339  30.306  1.00  0.00     0.129 A 
ATOM     16  C   UNL A   1      36.166  33.938  32.220  1.00  0.00     0.168 A 
ATOM     17  N   UNL A   1      35.654  35.085  34.099  1.00  0.00    -0.150 NA
ATOM     18  S   UNL A   1      33.404  33.418  28.454  1.00  0.00    -0.120 S 
ATOM     19  C   UNL A   1      35.716  33.348  30.894  1.00  0.00     0.060 A 
ATOM     20  N   UNL A   1      36.924  33.420  33.164  1.00  0.00    -0.211 NA
ATOM     21  C   UNL A   1      34.857  31.577  28.568  1.00  0.00     0.011 A 
ATOM     22  C   UNL A   1      36.005  31.721  29.917  1.00  0.00    -0.018 A 
ATOM     23  C   UNL A   1      34.981  30.567  27.467  1.00  0.00     0.047 C 
ATOM     24  C   UNL A   1      37.036  30.541  30.056  1.00  0.00     0.018 C 
ATOM     25  C   UNL A   1      36.460  30.077  27.526  1.00  0.00     0.006 C 
ATOM     26  C   UNL A   1      37.033  29.629  31.303  1.00  0.00     0.013 C 
ATOM     27  C   UNL A   1      36.787  29.499  28.904  1.00  0.00     0.008 C 
ENDBRANCH   9  10
ENDBRANCH   8   9
ENDBRANCH   5   8
ENDBRANCH   3   4
ENDBRANCH   2   3
ENDBRANCH   1   2
BRANCH   1  28
ATOM     28  C   UNL A   1      41.669  28.521  35.394  1.00  0.00     0.002 C 
BRANCH  28  29
ATOM     29  C   UNL A   1      41.612  27.087  36.253  1.00  0.00     0.021 C 
BRANCH  29  30
ATOM     30  C   UNL A   1      42.964  25.931  37.577  1.00  0.00     0.116 C 
BRANCH  30  31
ATOM     31  N   UNL A   1      43.899  24.523  37.166  1.00  0.00    -0.352 N 
ATOM     32  C   UNL A   1      44.279  23.966  35.953  1.00  0.00     0.251 C 
ATOM     33  H   UNL A   1      44.222  24.021  37.948  1.00  0.00     0.163 HD
ATOM     34  O   UNL A   1      44.432  22.767  35.774  1.00  0.00    -0.269 OA
BRANCH  32  35
ATOM     35  C   UNL A   1      44.692  24.936  34.952  1.00  0.00     0.039 A 
ATOM     36  C   UNL A   1      45.813  25.754  34.933  1.00  0.00     0.014 A 
ATOM     37  C   UNL A   1      43.726  25.151  33.997  1.00  0.00     0.014 A 
ATOM     38  C   UNL A   1      45.842  26.695  33.902  1.00  0.00     0.010 A 
ATOM     39  C   UNL A   1      44.190  25.412  32.775  1.00  0.00     0.010 A 
ATOM     40  C   UNL A   1      44.893  26.562  32.862  1.00  0.00    -0.014 A 
BRANCH  40  41
ATOM     41  C   UNL A   1      44.840  27.264  31.609  1.00  0.00     0.031 A 
ATOM     42  C   UNL A   1      44.144  28.535  31.830  1.00  0.00     0.074 A 
ATOM     43  C   UNL A   1      45.493  26.868  30.491  1.00  0.00     0.049 A 
ATOM     44  N   UNL A   1      42.863  28.628  31.777  1.00  0.00    -0.248 NA
ATOM     45  C   UNL A   1      44.784  29.644  32.560  1.00  0.00     0.031 C 
ATOM     46  C   UNL A   1      46.441  25.768  30.258  1.00  0.00     0.029 A 
ATOM     47  N   UNL A   1      45.377  27.410  29.247  1.00  0.00    -0.354 N 
ATOM     48  C   UNL A   1      42.569  29.923  32.131  1.00  0.00     0.074 A 
ATOM     49  C   UNL A   1      43.714  30.393  32.860  1.00  0.00     0.031 C 
ATOM     50  C   UNL A   1      46.963  25.856  29.007  1.00  0.00     0.029 A 
ATOM     51  C   UNL A   1      46.269  26.907  28.290  1.00  0.00     0.049 A 
ATOM     52  H   UNL A   1      44.713  28.104  29.034  1.00  0.00     0.167 HD
ATOM     53  C   UNL A   1      41.572  30.536  31.443  1.00  0.00     0.037 A 
ATOM     54  C   UNL A   1      46.336  27.311  26.988  1.00  0.00     0.037 A 
ATOM     55  C   UNL A   1      40.806  29.540  30.708  1.00  0.00     0.049 A 
ATOM     56  C   UNL A   1      45.003  27.913  26.682  1.00  0.00     0.074 A 
ATOM     57  C   UNL A   1      40.043  28.446  31.071  1.00  0.00     0.029 A 
ATOM     58  N   UNL A   1      41.213  29.313  29.412  1.00  0.00    -0.354 N 
ATOM     59  N   UNL A   1      43.902  27.206  26.662  1.00  0.00    -0.248 NA
ATOM     60  C   UNL A   1      44.842  29.327  26.995  1.00  0.00     0.031 C 
ATOM     61  C   UNL A   1      40.366  27.427  30.125  1.00  0.00     0.029 A 
ATOM     62  C   UNL A   1      41.205  27.968  29.148  1.00  0.00     0.049 A 
ATOM     63  H   UNL A   1      41.473  30.012  28.770  1.00  0.00     0.167 HD
ATOM     64  C   UNL A   1      42.990  27.960  27.389  1.00  0.00     0.074 A 
ATOM     65  C   UNL A   1      43.628  29.272  27.552  1.00  0.00     0.031 C 
ATOM     66  C   UNL A   1      41.979  27.357  28.085  1.00  0.00     0.037 A 
BRANCH  53  67
ATOM     67  C   UNL A   1      41.614  31.977  31.016  1.00  0.00     0.064 A 
ATOM     68  C   UNL A   1      40.465  32.758  31.244  1.00  0.00     0.173 A 
ATOM     69  C   UNL A   1      42.568  32.536  30.138  1.00  0.00     0.173 A 
ATOM     70  F   UNL A   1      39.490  32.317  32.053  1.00  0.00    -0.203 F 
ATOM     71  C   UNL A   1      40.247  33.959  30.569  1.00  0.00     0.198 A 
ATOM     72  C   UNL A   1      42.366  33.755  29.500  1.00  0.00     0.198 A 
ATOM     73  F   UNL A   1      43.680  31.893  29.768  1.00  0.00    -0.203 F 
ATOM     74  F   UNL A   1      39.080  34.598  30.719  1.00  0.00    -0.200 F 
ATOM     75  C   UNL A   1      41.194  34.452  29.692  1.00  0.00     0.200 A 
ATOM     76  F   UNL A   1      43.286  34.204  28.634  1.00  0.00    -0.200 F 
ATOM     77  F   UNL A   1      40.961  35.573  28.998  1.00  0.00    -0.200 F 
ENDBRANCH  53  67
BRANCH  54  78
ATOM     78  C   UNL A   1      47.538  27.627  26.163  1.00  0.00     0.064 A 
ATOM     79  C   UNL A   1      48.662  28.275  26.714  1.00  0.00     0.173 A 
ATOM     80  C   UNL A   1      47.733  27.019  24.908  1.00  0.00     0.173 A 
ATOM     81  F   UNL A   1      48.586  28.838  27.930  1.00  0.00    -0.203 F 
ATOM     82  C   UNL A   1      49.905  28.289  26.065  1.00  0.00     0.198 A 
ATOM     83  C   UNL A   1      48.976  27.029  24.264  1.00  0.00     0.198 A 
ATOM     84  F   UNL A   1      46.748  26.319  24.330  1.00  0.00    -0.203 F 
ATOM     85  F   UNL A   1      50.965  28.868  26.650  1.00  0.00    -0.200 F 
ATOM     86  C   UNL A   1      50.064  27.653  24.846  1.00  0.00     0.200 A 
ATOM     87  F   UNL A   1      49.128  26.371  23.107  1.00  0.00    -0.200 F 
ATOM     88  F   UNL A   1      51.267  27.603  24.256  1.00  0.00    -0.200 F 
ENDBRANCH  54  78
BRANCH  66  89
ATOM     89  C   UNL A   1      41.711  25.892  27.841  1.00  0.00     0.064 A 
ATOM     90  C   UNL A   1      42.296  24.834  28.561  1.00  0.00     0.173 A 
ATOM     91  C   UNL A   1      40.648  25.575  26.988  1.00  0.00     0.173 A 
ATOM     92  F   UNL A   1      43.273  25.058  29.447  1.00  0.00    -0.203 F 
ATOM     93  C   UNL A   1      41.824  23.523  28.434  1.00  0.00     0.198 A 
ATOM     94  C   UNL A   1      40.158  24.277  26.886  1.00  0.00     0.198 A 
ATOM     95  F   UNL A   1      40.027  26.552  26.309  1.00  0.00    -0.203 F 
ATOM     96  F   UNL A   1      42.379  22.532  29.148  1.00  0.00    -0.200 F 
ATOM     97  C   UNL A   1      40.745  23.251  27.608  1.00  0.00     0.200 A 
ATOM     98  F   UNL A   1      39.084  24.032  26.125  1.00  0.00    -0.200 F 
ATOM     99  F   UNL A   1      40.250  22.008  27.530  1.00  0.00    -0.200 F 
ENDBRANCH  66  89
ENDBRANCH  40  41
ENDBRANCH  32  35
ENDBRANCH  30  31
ENDBRANCH  29  30
ENDBRANCH  28  29
ENDBRANCH   1  28
TORSDOF 15
ENDMDL
