MODEL 1
REMARK VINA RESULT:     -11.5      0.000      0.000
REMARK SMILES O=CN[C@@H](Cc1cc(Cl)ccc1[N+](=O)[O-])C(=O)NCCCCCCNC(=O)c1ccc(-c2c3nc(c(-c4c(F)c(F)c(F)c(F)c4F)c4ccc([nH]4)c(-c4c(F)c(F)c(F)c(F)c4F)c4nc(c(-c5c(F)c(F)c(F)c(F)c5F)c5ccc2[nH]5)C=C4)C=C3)cc1
REMARK SMILES IDX 21 1 20 2 19 3 18 4 16 5 17 6 4 8 3 9 1 10 2 11 5 13 6 14
REMARK SMILES IDX 7 15 12 16 8 17 11 18 9 19 10 20 13 21 14 22 15 23 22 24
REMARK SMILES IDX 23 25 24 26 25 27 26 28 27 30 28 31 29 32 90 33 30 34 89 35
REMARK SMILES IDX 31 36 32 37 33 38 83 39 34 40 88 41 82 42 84 43 35 44 87 45
REMARK SMILES IDX 81 46 80 47 36 49 68 50 48 51 67 52 49 53 52 54 66 55 85 56
REMARK SMILES IDX 50 57 51 58 65 60 86 61 53 62 37 63 38 64 46 65 39 66 40 67
REMARK SMILES IDX 44 68 47 69 41 70 42 71 45 72 43 73 69 74 70 75 78 76 71 77
REMARK SMILES IDX 72 78 76 79 79 80 73 81 74 82 77 83 75 84 54 85 55 86 63 87
REMARK SMILES IDX 56 88 57 89 61 90 64 91 58 92 59 93 62 94 60 95
REMARK H PARENT 18 7 3 12 25 29 84 48 52 59
REMARK Flexibility Score: inf
ROOT
ATOM      1  C   UNL A   1      32.544  29.866  27.271  1.00  0.00     0.002 C 
ENDROOT
BRANCH   1   2
ATOM      2  C   UNL A   1      32.650  28.373  26.966  1.00  0.00     0.021 C 
BRANCH   2   3
ATOM      3  C   UNL A   1      33.799  27.985  26.053  1.00  0.00     0.116 C 
BRANCH   3   4
ATOM      4  N   UNL A   1      33.434  27.687  24.688  1.00  0.00    -0.354 N 
ATOM      5  C   UNL A   1      33.126  26.471  24.140  1.00  0.00     0.242 C 
ATOM      6  O   UNL A   1      32.425  26.466  23.125  1.00  0.00    -0.273 OA
ATOM      7  H   UNL A   1      33.402  28.456  24.075  1.00  0.00     0.163 HD
BRANCH   5   8
ATOM      8  C   UNL A   1      33.563  25.137  24.793  1.00  0.00     0.175 C 
BRANCH   8   9
ATOM      9  N   UNL A   1      32.662  24.740  25.868  1.00  0.00    -0.347 N 
ATOM     10  O   UNL A   1      30.565  24.542  26.703  1.00  0.00    -0.279 OA
ATOM     11  C   UNL A   1      31.337  25.058  25.903  1.00  0.00     0.337 C 
ATOM     12  H   UNL A   1      33.033  24.211  26.611  1.00  0.00     0.164 HD
ENDBRANCH   8   9
BRANCH   8  13
ATOM     13  C   UNL A   1      33.960  24.009  23.806  1.00  0.00     0.078 C 
BRANCH  13  14
ATOM     14  C   UNL A   1      34.599  22.730  24.321  1.00  0.00     0.034 A 
ATOM     15  C   UNL A   1      35.973  22.756  24.647  1.00  0.00     0.031 A 
ATOM     16  C   UNL A   1      33.932  21.494  24.469  1.00  0.00     0.272 A 
ATOM     17  C   UNL A   1      36.648  21.592  25.039  1.00  0.00     0.041 A 
ATOM     18  C   UNL A   1      34.614  20.322  24.844  1.00  0.00     0.087 A 
ATOM     19  Cl  UNL A   1      38.335  21.654  25.368  1.00  0.00    -0.084 Cl
ATOM     20  C   UNL A   1      35.978  20.376  25.125  1.00  0.00     0.027 A 
BRANCH  16  21
ATOM     21  N   UNL A   1      32.516  21.344  24.154  1.00  0.00     0.062 N 
ATOM     22  O   UNL A   1      31.717  21.717  25.024  1.00  0.00    -0.258 OA
ATOM     23  O   UNL A   1      32.226  20.873  23.049  1.00  0.00    -0.258 OA
ENDBRANCH  16  21
ENDBRANCH  13  14
ENDBRANCH   8  13
ENDBRANCH   5   8
ENDBRANCH   3   4
ENDBRANCH   2   3
ENDBRANCH   1   2
BRANCH   1  24
ATOM     24  C   UNL A   1      31.624  30.677  26.347  1.00  0.00     0.002 C 
BRANCH  24  25
ATOM     25  C   UNL A   1      31.449  32.156  26.701  1.00  0.00     0.021 C 
BRANCH  25  26
ATOM     26  C   UNL A   1      32.690  32.852  27.251  1.00  0.00     0.116 C 
BRANCH  26  27
ATOM     27  N   UNL A   1      32.427  34.224  27.649  1.00  0.00    -0.352 N 
ATOM     28  C   UNL A   1      33.006  34.990  28.629  1.00  0.00     0.251 C 
ATOM     29  H   UNL A   1      31.723  34.678  27.132  1.00  0.00     0.163 HD
ATOM     30  O   UNL A   1      32.519  36.077  28.925  1.00  0.00    -0.269 OA
BRANCH  28  31
ATOM     31  C   UNL A   1      34.198  34.501  29.355  1.00  0.00     0.039 A 
ATOM     32  C   UNL A   1      34.030  33.952  30.630  1.00  0.00     0.014 A 
ATOM     33  C   UNL A   1      35.476  34.597  28.799  1.00  0.00     0.014 A 
ATOM     34  C   UNL A   1      35.131  33.430  31.312  1.00  0.00     0.010 A 
ATOM     35  C   UNL A   1      36.560  34.009  29.447  1.00  0.00     0.010 A 
ATOM     36  C   UNL A   1      36.397  33.413  30.707  1.00  0.00    -0.014 A 
BRANCH  36  37
ATOM     37  C   UNL A   1      37.556  32.753  31.362  1.00  0.00     0.031 A 
ATOM     38  C   UNL A   1      38.246  31.595  30.701  1.00  0.00     0.074 A 
ATOM     39  C   UNL A   1      37.940  33.156  32.591  1.00  0.00     0.049 A 
ATOM     40  N   UNL A   1      39.214  30.838  31.155  1.00  0.00    -0.248 NA
ATOM     41  C   UNL A   1      37.771  31.220  29.360  1.00  0.00     0.031 C 
ATOM     42  C   UNL A   1      37.327  34.245  33.351  1.00  0.00     0.029 A 
ATOM     43  N   UNL A   1      38.927  32.686  33.421  1.00  0.00    -0.354 N 
ATOM     44  C   UNL A   1      39.455  29.895  30.165  1.00  0.00     0.074 A 
ATOM     45  C   UNL A   1      38.498  30.141  29.107  1.00  0.00     0.031 C 
ATOM     46  C   UNL A   1      37.962  34.374  34.526  1.00  0.00     0.029 A 
ATOM     47  C   UNL A   1      38.993  33.345  34.624  1.00  0.00     0.049 A 
ATOM     48  H   UNL A   1      39.531  31.948  33.177  1.00  0.00     0.167 HD
ATOM     49  C   UNL A   1      40.401  28.927  30.132  1.00  0.00     0.037 A 
ATOM     50  C   UNL A   1      39.783  33.133  35.695  1.00  0.00     0.037 A 
ATOM     51  C   UNL A   1      41.360  28.696  31.182  1.00  0.00     0.049 A 
ATOM     52  C   UNL A   1      40.800  32.024  35.648  1.00  0.00     0.074 A 
ATOM     53  C   UNL A   1      42.396  27.778  31.217  1.00  0.00     0.029 A 
ATOM     54  N   UNL A   1      41.394  29.382  32.387  1.00  0.00    -0.354 N 
ATOM     55  N   UNL A   1      41.064  31.186  34.677  1.00  0.00    -0.248 NA
ATOM     56  C   UNL A   1      41.628  31.834  36.848  1.00  0.00     0.031 C 
ATOM     57  C   UNL A   1      43.016  27.867  32.467  1.00  0.00     0.029 A 
ATOM     58  C   UNL A   1      42.409  28.884  33.187  1.00  0.00     0.049 A 
ATOM     59  H   UNL A   1      40.786  30.115  32.638  1.00  0.00     0.167 HD
ATOM     60  C   UNL A   1      42.106  30.388  35.135  1.00  0.00     0.074 A 
ATOM     61  C   UNL A   1      42.436  30.854  36.465  1.00  0.00     0.031 C 
ATOM     62  C   UNL A   1      42.730  29.361  34.509  1.00  0.00     0.037 A 
BRANCH  49  63
ATOM     63  C   UNL A   1      40.446  28.036  28.924  1.00  0.00     0.064 A 
ATOM     64  C   UNL A   1      39.729  26.830  28.869  1.00  0.00     0.173 A 
ATOM     65  C   UNL A   1      41.178  28.413  27.787  1.00  0.00     0.173 A 
ATOM     66  F   UNL A   1      39.019  26.418  29.930  1.00  0.00    -0.203 F 
ATOM     67  C   UNL A   1      39.768  26.023  27.734  1.00  0.00     0.198 A 
ATOM     68  C   UNL A   1      41.188  27.620  26.642  1.00  0.00     0.198 A 
ATOM     69  F   UNL A   1      41.876  29.559  27.781  1.00  0.00    -0.203 F 
ATOM     70  F   UNL A   1      39.116  24.852  27.725  1.00  0.00    -0.200 F 
ATOM     71  C   UNL A   1      40.490  26.422  26.620  1.00  0.00     0.200 A 
ATOM     72  F   UNL A   1      41.872  28.015  25.561  1.00  0.00    -0.200 F 
ATOM     73  F   UNL A   1      40.518  25.648  25.527  1.00  0.00    -0.200 F 
ENDBRANCH  49  63
BRANCH  50  74
ATOM     74  C   UNL A   1      39.645  33.990  36.903  1.00  0.00     0.064 A 
ATOM     75  C   UNL A   1      38.850  33.588  37.986  1.00  0.00     0.173 A 
ATOM     76  C   UNL A   1      40.297  35.228  36.998  1.00  0.00     0.173 A 
ATOM     77  F   UNL A   1      38.190  32.422  37.935  1.00  0.00    -0.203 F 
ATOM     78  C   UNL A   1      38.694  34.403  39.106  1.00  0.00     0.198 A 
ATOM     79  C   UNL A   1      40.166  36.027  38.133  1.00  0.00     0.198 A 
ATOM     80  F   UNL A   1      41.075  35.659  35.994  1.00  0.00    -0.203 F 
ATOM     81  F   UNL A   1      37.888  34.016  40.104  1.00  0.00    -0.200 F 
ATOM     82  C   UNL A   1      39.357  35.618  39.181  1.00  0.00     0.200 A 
ATOM     83  F   UNL A   1      40.824  37.192  38.209  1.00  0.00    -0.200 F 
ATOM     84  F   UNL A   1      39.211  36.398  40.261  1.00  0.00    -0.200 F 
ENDBRANCH  50  74
BRANCH  62  85
ATOM     85  C   UNL A   1      43.855  28.686  35.240  1.00  0.00     0.064 A 
ATOM     86  C   UNL A   1      43.628  27.610  36.110  1.00  0.00     0.173 A 
ATOM     87  C   UNL A   1      45.183  29.090  35.028  1.00  0.00     0.173 A 
ATOM     88  F   UNL A   1      42.377  27.196  36.361  1.00  0.00    -0.203 F 
ATOM     89  C   UNL A   1      44.687  26.976  36.757  1.00  0.00     0.198 A 
ATOM     90  C   UNL A   1      46.241  28.432  35.650  1.00  0.00     0.198 A 
ATOM     91  F   UNL A   1      45.455  30.110  34.202  1.00  0.00    -0.203 F 
ATOM     92  F   UNL A   1      44.443  25.980  37.619  1.00  0.00    -0.200 F 
ATOM     93  C   UNL A   1      45.991  27.381  36.519  1.00  0.00     0.200 A 
ATOM     94  F   UNL A   1      47.502  28.814  35.405  1.00  0.00    -0.200 F 
ATOM     95  F   UNL A   1      47.010  26.760  37.132  1.00  0.00    -0.200 F 
ENDBRANCH  62  85
ENDBRANCH  36  37
ENDBRANCH  28  31
ENDBRANCH  26  27
ENDBRANCH  25  26
ENDBRANCH  24  25
ENDBRANCH   1  24
TORSDOF 17
ENDMDL
MODEL 2
REMARK VINA RESULT:     -11.5      1.318      2.708
REMARK SMILES O=CN[C@@H](Cc1cc(Cl)ccc1[N+](=O)[O-])C(=O)NCCCCCCNC(=O)c1ccc(-c2c3nc(c(-c4c(F)c(F)c(F)c(F)c4F)c4ccc([nH]4)c(-c4c(F)c(F)c(F)c(F)c4F)c4nc(c(-c5c(F)c(F)c(F)c(F)c5F)c5ccc2[nH]5)C=C4)C=C3)cc1
REMARK SMILES IDX 21 1 20 2 19 3 18 4 16 5 17 6 4 8 3 9 1 10 2 11 5 13 6 14
REMARK SMILES IDX 7 15 12 16 8 17 11 18 9 19 10 20 13 21 14 22 15 23 22 24
REMARK SMILES IDX 23 25 24 26 25 27 26 28 27 30 28 31 29 32 90 33 30 34 89 35
REMARK SMILES IDX 31 36 32 37 33 38 83 39 34 40 88 41 82 42 84 43 35 44 87 45
REMARK SMILES IDX 81 46 80 47 36 49 68 50 48 51 67 52 49 53 52 54 66 55 85 56
REMARK SMILES IDX 50 57 51 58 65 60 86 61 53 62 37 63 38 64 46 65 39 66 40 67
REMARK SMILES IDX 44 68 47 69 41 70 42 71 45 72 43 73 69 74 70 75 78 76 71 77
REMARK SMILES IDX 72 78 76 79 79 80 73 81 74 82 77 83 75 84 54 85 55 86 63 87
REMARK SMILES IDX 56 88 57 89 61 90 64 91 58 92 59 93 62 94 60 95
REMARK H PARENT 18 7 3 12 25 29 84 48 52 59
REMARK Flexibility Score: inf
ROOT
ATOM      1  C   UNL A   1      32.616  29.795  26.649  1.00  0.00     0.002 C 
ENDROOT
BRANCH   1   2
ATOM      2  C   UNL A   1      31.971  28.599  27.347  1.00  0.00     0.021 C 
BRANCH   2   3
ATOM      3  C   UNL A   1      31.870  27.341  26.502  1.00  0.00     0.116 C 
BRANCH   3   4
ATOM      4  N   UNL A   1      30.813  26.430  26.869  1.00  0.00    -0.354 N 
ATOM      5  C   UNL A   1      30.210  25.476  26.094  1.00  0.00     0.242 C 
ATOM      6  O   UNL A   1      29.677  24.526  26.672  1.00  0.00    -0.273 OA
ATOM      7  H   UNL A   1      30.485  26.502  27.794  1.00  0.00     0.163 HD
BRANCH   5   8
ATOM      8  C   UNL A   1      30.250  25.525  24.547  1.00  0.00     0.175 C 
BRANCH   8   9
ATOM      9  N   UNL A   1      30.340  26.892  24.050  1.00  0.00    -0.347 N 
ATOM     10  O   UNL A   1      30.212  28.375  22.341  1.00  0.00    -0.279 OA
ATOM     11  C   UNL A   1      30.343  27.219  22.726  1.00  0.00     0.337 C 
ATOM     12  H   UNL A   1      30.402  27.621  24.708  1.00  0.00     0.164 HD
ENDBRANCH   8   9
BRANCH   8  13
ATOM     13  C   UNL A   1      31.204  24.507  23.871  1.00  0.00     0.078 C 
BRANCH  13  14
ATOM     14  C   UNL A   1      32.583  24.246  24.452  1.00  0.00     0.034 A 
ATOM     15  C   UNL A   1      32.716  23.228  25.422  1.00  0.00     0.031 A 
ATOM     16  C   UNL A   1      33.751  24.971  24.125  1.00  0.00     0.272 A 
ATOM     17  C   UNL A   1      33.937  22.995  26.068  1.00  0.00     0.041 A 
ATOM     18  C   UNL A   1      34.973  24.750  24.788  1.00  0.00     0.087 A 
ATOM     19  Cl  UNL A   1      34.042  21.786  27.286  1.00  0.00    -0.084 Cl
ATOM     20  C   UNL A   1      35.060  23.760  25.765  1.00  0.00     0.027 A 
BRANCH  16  21
ATOM     21  N   UNL A   1      33.734  26.051  23.146  1.00  0.00     0.062 N 
ATOM     22  O   UNL A   1      33.553  27.192  23.592  1.00  0.00    -0.258 OA
ATOM     23  O   UNL A   1      33.914  25.748  21.962  1.00  0.00    -0.258 OA
ENDBRANCH  16  21
ENDBRANCH  13  14
ENDBRANCH   8  13
ENDBRANCH   5   8
ENDBRANCH   3   4
ENDBRANCH   2   3
ENDBRANCH   1   2
BRANCH   1  24
ATOM     24  C   UNL A   1      31.650  30.809  26.023  1.00  0.00     0.002 C 
BRANCH  24  25
ATOM     25  C   UNL A   1      31.419  32.099  26.815  1.00  0.00     0.021 C 
BRANCH  25  26
ATOM     26  C   UNL A   1      32.680  32.868  27.201  1.00  0.00     0.116 C 
BRANCH  26  27
ATOM     27  N   UNL A   1      32.393  34.225  27.630  1.00  0.00    -0.352 N 
ATOM     28  C   UNL A   1      32.951  34.973  28.636  1.00  0.00     0.251 C 
ATOM     29  H   UNL A   1      31.688  34.682  27.117  1.00  0.00     0.163 HD
ATOM     30  O   UNL A   1      32.444  36.046  28.954  1.00  0.00    -0.269 OA
BRANCH  28  31
ATOM     31  C   UNL A   1      34.141  34.483  29.363  1.00  0.00     0.039 A 
ATOM     32  C   UNL A   1      33.965  33.887  30.615  1.00  0.00     0.014 A 
ATOM     33  C   UNL A   1      35.425  34.623  28.829  1.00  0.00     0.014 A 
ATOM     34  C   UNL A   1      35.067  33.363  31.295  1.00  0.00     0.010 A 
ATOM     35  C   UNL A   1      36.511  34.034  29.474  1.00  0.00     0.010 A 
ATOM     36  C   UNL A   1      36.342  33.392  30.709  1.00  0.00    -0.014 A 
BRANCH  36  37
ATOM     37  C   UNL A   1      37.504  32.732  31.359  1.00  0.00     0.031 A 
ATOM     38  C   UNL A   1      38.188  31.570  30.697  1.00  0.00     0.074 A 
ATOM     39  C   UNL A   1      37.897  33.139  32.583  1.00  0.00     0.049 A 
ATOM     40  N   UNL A   1      39.157  30.813  31.147  1.00  0.00    -0.248 NA
ATOM     41  C   UNL A   1      37.702  31.191  29.361  1.00  0.00     0.031 C 
ATOM     42  C   UNL A   1      37.291  34.232  33.344  1.00  0.00     0.029 A 
ATOM     43  N   UNL A   1      38.889  32.670  33.408  1.00  0.00    -0.354 N 
ATOM     44  C   UNL A   1      39.389  29.866  30.158  1.00  0.00     0.074 A 
ATOM     45  C   UNL A   1      38.425  30.110  29.106  1.00  0.00     0.031 C 
ATOM     46  C   UNL A   1      37.935  34.363  34.514  1.00  0.00     0.029 A 
ATOM     47  C   UNL A   1      38.965  33.333  34.609  1.00  0.00     0.049 A 
ATOM     48  H   UNL A   1      39.490  31.930  33.163  1.00  0.00     0.167 HD
ATOM     49  C   UNL A   1      40.334  28.896  30.122  1.00  0.00     0.037 A 
ATOM     50  C   UNL A   1      39.761  33.123  35.675  1.00  0.00     0.037 A 
ATOM     51  C   UNL A   1      41.299  28.667  31.167  1.00  0.00     0.049 A 
ATOM     52  C   UNL A   1      40.776  32.013  35.625  1.00  0.00     0.074 A 
ATOM     53  C   UNL A   1      42.333  27.748  31.198  1.00  0.00     0.029 A 
ATOM     54  N   UNL A   1      41.343  29.357  32.370  1.00  0.00    -0.354 N 
ATOM     55  N   UNL A   1      41.032  31.170  34.655  1.00  0.00    -0.248 NA
ATOM     56  C   UNL A   1      41.613  31.825  36.819  1.00  0.00     0.031 C 
ATOM     57  C   UNL A   1      42.963  27.840  32.444  1.00  0.00     0.029 A 
ATOM     58  C   UNL A   1      42.363  28.860  33.164  1.00  0.00     0.049 A 
ATOM     59  H   UNL A   1      40.738  30.093  32.621  1.00  0.00     0.167 HD
ATOM     60  C   UNL A   1      42.075  30.372  35.108  1.00  0.00     0.074 A 
ATOM     61  C   UNL A   1      42.415  30.843  36.435  1.00  0.00     0.031 C 
ATOM     62  C   UNL A   1      42.693  29.341  34.482  1.00  0.00     0.037 A 
BRANCH  49  63
ATOM     63  C   UNL A   1      40.369  28.000  28.917  1.00  0.00     0.064 A 
ATOM     64  C   UNL A   1      41.143  28.312  27.788  1.00  0.00     0.173 A 
ATOM     65  C   UNL A   1      39.657  26.790  28.908  1.00  0.00     0.173 A 
ATOM     66  F   UNL A   1      41.837  29.459  27.741  1.00  0.00    -0.203 F 
ATOM     67  C   UNL A   1      41.177  27.461  26.685  1.00  0.00     0.198 A 
ATOM     68  C   UNL A   1      39.720  25.927  27.818  1.00  0.00     0.198 A 
ATOM     69  F   UNL A   1      38.907  26.439  29.964  1.00  0.00    -0.203 F 
ATOM     70  F   UNL A   1      41.883  27.806  25.599  1.00  0.00    -0.200 F 
ATOM     71  C   UNL A   1      40.473  26.268  26.704  1.00  0.00     0.200 A 
ATOM     72  F   UNL A   1      39.053  24.766  27.844  1.00  0.00    -0.200 F 
ATOM     73  F   UNL A   1      40.516  25.447  25.646  1.00  0.00    -0.200 F 
ENDBRANCH  49  63
BRANCH  50  74
ATOM     74  C   UNL A   1      39.634  33.985  36.880  1.00  0.00     0.064 A 
ATOM     75  C   UNL A   1      40.303  35.215  36.961  1.00  0.00     0.173 A 
ATOM     76  C   UNL A   1      38.847  33.599  37.975  1.00  0.00     0.173 A 
ATOM     77  F   UNL A   1      41.084  35.620  35.948  1.00  0.00    -0.203 F 
ATOM     78  C   UNL A   1      40.211  36.011  38.101  1.00  0.00     0.198 A 
ATOM     79  C   UNL A   1      38.729  34.413  39.101  1.00  0.00     0.198 A 
ATOM     80  F   UNL A   1      38.179  32.436  37.947  1.00  0.00    -0.203 F 
ATOM     81  F   UNL A   1      40.903  37.157  38.172  1.00  0.00    -0.200 F 
ATOM     82  C   UNL A   1      39.419  35.613  39.167  1.00  0.00     0.200 A 
ATOM     83  F   UNL A   1      37.948  34.031  40.121  1.00  0.00    -0.200 F 
ATOM     84  F   UNL A   1      39.326  36.382  40.260  1.00  0.00    -0.200 F 
ENDBRANCH  50  74
BRANCH  62  85
ATOM     85  C   UNL A   1      43.823  28.667  35.208  1.00  0.00     0.064 A 
ATOM     86  C   UNL A   1      45.154  29.074  35.040  1.00  0.00     0.173 A 
ATOM     87  C   UNL A   1      43.563  27.633  36.121  1.00  0.00     0.173 A 
ATOM     88  F   UNL A   1      45.458  30.046  34.167  1.00  0.00    -0.203 F 
ATOM     89  C   UNL A   1      46.186  28.458  35.744  1.00  0.00     0.198 A 
ATOM     90  C   UNL A   1      44.593  27.041  36.848  1.00  0.00     0.198 A 
ATOM     91  F   UNL A   1      42.307  27.209  36.323  1.00  0.00    -0.203 F 
ATOM     92  F   UNL A   1      47.455  28.832  35.534  1.00  0.00    -0.200 F 
ATOM     93  C   UNL A   1      45.903  27.450  36.654  1.00  0.00     0.200 A 
ATOM     94  F   UNL A   1      44.315  26.080  37.738  1.00  0.00    -0.200 F 
ATOM     95  F   UNL A   1      46.896  26.868  37.341  1.00  0.00    -0.200 F 
ENDBRANCH  62  85
ENDBRANCH  36  37
ENDBRANCH  28  31
ENDBRANCH  26  27
ENDBRANCH  25  26
ENDBRANCH  24  25
ENDBRANCH   1  24
TORSDOF 17
ENDMDL
MODEL 3
REMARK VINA RESULT:     -11.5      5.745     11.212
REMARK SMILES O=CN[C@@H](Cc1cc(Cl)ccc1[N+](=O)[O-])C(=O)NCCCCCCNC(=O)c1ccc(-c2c3nc(c(-c4c(F)c(F)c(F)c(F)c4F)c4ccc([nH]4)c(-c4c(F)c(F)c(F)c(F)c4F)c4nc(c(-c5c(F)c(F)c(F)c(F)c5F)c5ccc2[nH]5)C=C4)C=C3)cc1
REMARK SMILES IDX 21 1 20 2 19 3 18 4 16 5 17 6 4 8 3 9 1 10 2 11 5 13 6 14
REMARK SMILES IDX 7 15 12 16 8 17 11 18 9 19 10 20 13 21 14 22 15 23 22 24
REMARK SMILES IDX 23 25 24 26 25 27 26 28 27 30 28 31 29 32 90 33 30 34 89 35
REMARK SMILES IDX 31 36 32 37 33 38 83 39 34 40 88 41 82 42 84 43 35 44 87 45
REMARK SMILES IDX 81 46 80 47 36 49 68 50 48 51 67 52 49 53 52 54 66 55 85 56
REMARK SMILES IDX 50 57 51 58 65 60 86 61 53 62 37 63 38 64 46 65 39 66 40 67
REMARK SMILES IDX 44 68 47 69 41 70 42 71 45 72 43 73 69 74 70 75 78 76 71 77
REMARK SMILES IDX 72 78 76 79 79 80 73 81 74 82 77 83 75 84 54 85 55 86 63 87
REMARK SMILES IDX 56 88 57 89 61 90 64 91 58 92 59 93 62 94 60 95
REMARK H PARENT 18 7 3 12 25 29 84 48 52 59
REMARK Flexibility Score: inf
ROOT
ATOM      1  C   UNL A   1      37.092  22.097  24.794  1.00  0.00     0.002 C 
ENDROOT
BRANCH   1   2
ATOM      2  C   UNL A   1      36.217  22.805  23.761  1.00  0.00     0.021 C 
BRANCH   2   3
ATOM      3  C   UNL A   1      35.125  23.685  24.340  1.00  0.00     0.116 C 
BRANCH   3   4
ATOM      4  N   UNL A   1      34.922  23.567  25.764  1.00  0.00    -0.354 N 
ATOM      5  C   UNL A   1      33.856  23.018  26.425  1.00  0.00     0.242 C 
ATOM      6  O   UNL A   1      34.049  22.605  27.572  1.00  0.00    -0.273 OA
ATOM      7  H   UNL A   1      35.641  23.926  26.332  1.00  0.00     0.163 HD
BRANCH   5   8
ATOM      8  C   UNL A   1      32.473  22.839  25.754  1.00  0.00     0.175 C 
BRANCH   8   9
ATOM      9  N   UNL A   1      32.015  21.456  25.816  1.00  0.00    -0.347 N 
ATOM     10  O   UNL A   1      32.154  19.306  25.113  1.00  0.00    -0.279 OA
ATOM     11  C   UNL A   1      32.384  20.495  24.922  1.00  0.00     0.337 C 
ATOM     12  H   UNL A   1      31.405  21.202  26.545  1.00  0.00     0.164 HD
ENDBRANCH   8   9
BRANCH   8  13
ATOM     13  C   UNL A   1      31.410  23.908  26.119  1.00  0.00     0.078 C 
BRANCH  13  14
ATOM     14  C   UNL A   1      31.531  25.323  25.580  1.00  0.00     0.034 A 
ATOM     15  C   UNL A   1      31.664  26.380  26.507  1.00  0.00     0.031 A 
ATOM     16  C   UNL A   1      31.486  25.676  24.213  1.00  0.00     0.272 A 
ATOM     17  C   UNL A   1      31.688  27.717  26.086  1.00  0.00     0.041 A 
ATOM     18  C   UNL A   1      31.489  27.019  23.792  1.00  0.00     0.087 A 
ATOM     19  Cl  UNL A   1      31.791  28.977  27.252  1.00  0.00    -0.084 Cl
ATOM     20  C   UNL A   1      31.587  28.040  24.736  1.00  0.00     0.027 A 
BRANCH  16  21
ATOM     21  N   UNL A   1      31.340  24.673  23.166  1.00  0.00     0.062 N 
ATOM     22  O   UNL A   1      32.309  24.526  22.407  1.00  0.00    -0.258 OA
ATOM     23  O   UNL A   1      30.278  24.042  23.126  1.00  0.00    -0.258 OA
ENDBRANCH  16  21
ENDBRANCH  13  14
ENDBRANCH   8  13
ENDBRANCH   5   8
ENDBRANCH   3   4
ENDBRANCH   2   3
ENDBRANCH   1   2
BRANCH   1  24
ATOM     24  C   UNL A   1      36.812  20.602  25.001  1.00  0.00     0.002 C 
BRANCH  24  25
ATOM     25  C   UNL A   1      38.031  19.676  24.963  1.00  0.00     0.021 C 
BRANCH  25  26
ATOM     26  C   UNL A   1      39.228  20.132  25.792  1.00  0.00     0.116 C 
BRANCH  26  27
ATOM     27  N   UNL A   1      40.250  19.106  25.902  1.00  0.00    -0.352 N 
ATOM     28  C   UNL A   1      41.603  19.220  26.100  1.00  0.00     0.251 C 
ATOM     29  H   UNL A   1      39.920  18.182  25.824  1.00  0.00     0.163 HD
ATOM     30  O   UNL A   1      42.323  18.232  25.989  1.00  0.00    -0.269 OA
BRANCH  28  31
ATOM     31  C   UNL A   1      42.206  20.531  26.419  1.00  0.00     0.039 A 
ATOM     32  C   UNL A   1      42.731  21.300  25.376  1.00  0.00     0.014 A 
ATOM     33  C   UNL A   1      42.274  20.998  27.734  1.00  0.00     0.014 A 
ATOM     34  C   UNL A   1      43.252  22.568  25.643  1.00  0.00     0.010 A 
ATOM     35  C   UNL A   1      42.725  22.292  27.989  1.00  0.00     0.010 A 
ATOM     36  C   UNL A   1      43.212  23.092  26.944  1.00  0.00    -0.014 A 
BRANCH  36  37
ATOM     37  C   UNL A   1      43.648  24.484  27.229  1.00  0.00     0.031 A 
ATOM     38  C   UNL A   1      42.668  25.498  27.746  1.00  0.00     0.074 A 
ATOM     39  C   UNL A   1      44.916  24.851  26.951  1.00  0.00     0.049 A 
ATOM     40  N   UNL A   1      42.839  26.777  27.968  1.00  0.00    -0.248 NA
ATOM     41  C   UNL A   1      41.306  25.017  28.027  1.00  0.00     0.031 C 
ATOM     42  C   UNL A   1      45.951  23.968  26.413  1.00  0.00     0.029 A 
ATOM     43  N   UNL A   1      45.544  26.066  27.068  1.00  0.00    -0.354 N 
ATOM     44  C   UNL A   1      41.610  27.255  28.404  1.00  0.00     0.074 A 
ATOM     45  C   UNL A   1      40.688  26.140  28.365  1.00  0.00     0.031 C 
ATOM     46  C   UNL A   1      47.089  24.662  26.265  1.00  0.00     0.029 A 
ATOM     47  C   UNL A   1      46.852  26.051  26.650  1.00  0.00     0.049 A 
ATOM     48  H   UNL A   1      45.100  26.871  27.421  1.00  0.00     0.167 HD
ATOM     49  C   UNL A   1      41.287  28.503  28.819  1.00  0.00     0.037 A 
ATOM     50  C   UNL A   1      47.755  27.047  26.566  1.00  0.00     0.037 A 
ATOM     51  C   UNL A   1      42.214  29.605  28.868  1.00  0.00     0.049 A 
ATOM     52  C   UNL A   1      47.358  28.434  26.996  1.00  0.00     0.074 A 
ATOM     53  C   UNL A   1      41.998  30.892  29.328  1.00  0.00     0.029 A 
ATOM     54  N   UNL A   1      43.530  29.552  28.433  1.00  0.00    -0.354 N 
ATOM     55  N   UNL A   1      46.213  28.856  27.473  1.00  0.00    -0.248 NA
ATOM     56  C   UNL A   1      48.381  29.483  26.876  1.00  0.00     0.031 C 
ATOM     57  C   UNL A   1      43.164  31.634  29.114  1.00  0.00     0.029 A 
ATOM     58  C   UNL A   1      44.127  30.793  28.580  1.00  0.00     0.049 A 
ATOM     59  H   UNL A   1      43.974  28.750  28.073  1.00  0.00     0.167 HD
ATOM     60  C   UNL A   1      46.385  30.209  27.736  1.00  0.00     0.074 A 
ATOM     61  C   UNL A   1      47.750  30.534  27.381  1.00  0.00     0.031 C 
ATOM     62  C   UNL A   1      45.490  31.102  28.226  1.00  0.00     0.037 A 
BRANCH  49  63
ATOM     63  C   UNL A   1      39.869  28.751  29.248  1.00  0.00     0.064 A 
ATOM     64  C   UNL A   1      38.885  29.166  28.337  1.00  0.00     0.173 A 
ATOM     65  C   UNL A   1      39.477  28.525  30.577  1.00  0.00     0.173 A 
ATOM     66  F   UNL A   1      39.206  29.404  27.057  1.00  0.00    -0.203 F 
ATOM     67  C   UNL A   1      37.570  29.375  28.748  1.00  0.00     0.198 A 
ATOM     68  C   UNL A   1      38.155  28.702  30.976  1.00  0.00     0.198 A 
ATOM     69  F   UNL A   1      40.375  28.119  31.487  1.00  0.00    -0.203 F 
ATOM     70  F   UNL A   1      36.660  29.821  27.871  1.00  0.00    -0.200 F 
ATOM     71  C   UNL A   1      37.205  29.136  30.064  1.00  0.00     0.200 A 
ATOM     72  F   UNL A   1      37.800  28.454  32.244  1.00  0.00    -0.200 F 
ATOM     73  F   UNL A   1      35.938  29.328  30.454  1.00  0.00    -0.200 F 
ENDBRANCH  49  63
BRANCH  50  74
ATOM     74  C   UNL A   1      49.124  26.770  26.057  1.00  0.00     0.064 A 
ATOM     75  C   UNL A   1      49.452  26.991  24.711  1.00  0.00     0.173 A 
ATOM     76  C   UNL A   1      50.131  26.274  26.898  1.00  0.00     0.173 A 
ATOM     77  F   UNL A   1      48.519  27.446  23.862  1.00  0.00    -0.203 F 
ATOM     78  C   UNL A   1      50.725  26.703  24.223  1.00  0.00     0.198 A 
ATOM     79  C   UNL A   1      51.414  26.018  26.416  1.00  0.00     0.198 A 
ATOM     80  F   UNL A   1      49.874  26.051  28.196  1.00  0.00    -0.203 F 
ATOM     81  F   UNL A   1      50.995  26.875  22.922  1.00  0.00    -0.200 F 
ATOM     82  C   UNL A   1      51.706  26.223  25.076  1.00  0.00     0.200 A 
ATOM     83  F   UNL A   1      52.363  25.571  27.249  1.00  0.00    -0.200 F 
ATOM     84  F   UNL A   1      52.931  25.952  24.608  1.00  0.00    -0.200 F 
ENDBRANCH  50  74
BRANCH  62  85
ATOM     85  C   UNL A   1      45.963  32.512  28.437  1.00  0.00     0.064 A 
ATOM     86  C   UNL A   1      45.812  33.495  27.449  1.00  0.00     0.173 A 
ATOM     87  C   UNL A   1      46.530  32.895  29.663  1.00  0.00     0.173 A 
ATOM     88  F   UNL A   1      45.293  33.178  26.253  1.00  0.00    -0.203 F 
ATOM     89  C   UNL A   1      46.230  34.805  27.673  1.00  0.00     0.198 A 
ATOM     90  C   UNL A   1      46.915  34.212  29.895  1.00  0.00     0.198 A 
ATOM     91  F   UNL A   1      46.691  31.994  30.643  1.00  0.00    -0.203 F 
ATOM     92  F   UNL A   1      46.118  35.718  26.698  1.00  0.00    -0.200 F 
ATOM     93  C   UNL A   1      46.771  35.164  28.898  1.00  0.00     0.200 A 
ATOM     94  F   UNL A   1      47.421  34.561  31.086  1.00  0.00    -0.200 F 
ATOM     95  F   UNL A   1      47.159  36.429  29.116  1.00  0.00    -0.200 F 
ENDBRANCH  62  85
ENDBRANCH  36  37
ENDBRANCH  28  31
ENDBRANCH  26  27
ENDBRANCH  25  26
ENDBRANCH  24  25
ENDBRANCH   1  24
TORSDOF 17
ENDMDL
