MODEL 1
REMARK VINA RESULT:     -13.1      0.000      0.000
REMARK SMILES O=C(NCCCCCCNC(=O)c1ccc(-c2c3nc(c(-c4c(F)c(F)c(F)c(F)c4F)c4ccc([nH]4)c(-c4c(F)c(F)c(F)c(F)c4F)c4nc(c(-c5c(F)c(F)c(F)c(F)c5F)c5ccc2[nH]5)C=C4)C=C3)cc1)C1=Cc2cc(S(F)(F)(F)(F)F)cc(Br)c2O[C@@H]1C(F)(F)F
REMARK SMILES IDX 7 1 6 2 5 3 4 4 3 5 1 6 2 7 76 9 77 10 92 11 78 12 91 13
REMARK SMILES IDX 79 14 90 15 80 16 88 17 87 18 89 19 93 20 94 21 95 22 96 23
REMARK SMILES IDX 81 24 82 25 83 26 84 27 85 28 86 29 8 30 9 31 10 32 11 33
REMARK SMILES IDX 12 35 13 36 14 37 75 38 15 39 74 40 16 41 17 42 18 43 68 44
REMARK SMILES IDX 19 45 73 46 67 47 69 48 20 49 72 50 66 51 65 52 21 54 53 55
REMARK SMILES IDX 33 56 52 57 34 58 37 59 51 60 70 61 35 62 36 63 50 65 71 66
REMARK SMILES IDX 38 67 22 68 23 69 31 70 24 71 25 72 29 73 32 74 26 75 27 76
REMARK SMILES IDX 30 77 28 78 54 79 55 80 63 81 56 82 57 83 61 84 64 85 58 86
REMARK SMILES IDX 59 87 62 88 60 89 39 90 40 91 48 92 41 93 42 94 46 95 49 96
REMARK SMILES IDX 43 97 44 98 47 99 45 100
REMARK H PARENT 3 8 10 34 69 53 37 64
REMARK Flexibility Score: inf
ROOT
ATOM      1  C   UNL A   1      31.874  30.875  26.265  1.00  0.00     0.002 C 
ENDROOT
BRANCH   1   2
ATOM      2  C   UNL A   1      32.858  30.299  27.272  1.00  0.00     0.002 C 
BRANCH   2   3
ATOM      3  C   UNL A   1      34.088  29.787  26.540  1.00  0.00     0.021 C 
BRANCH   3   4
ATOM      4  C   UNL A   1      33.878  28.333  26.151  1.00  0.00     0.116 C 
BRANCH   4   5
ATOM      5  N   UNL A   1      32.801  27.758  26.969  1.00  0.00    -0.352 N 
ATOM      6  O   UNL A   1      30.640  26.774  27.035  1.00  0.00    -0.270 OA
ATOM      7  C   UNL A   1      31.571  27.271  26.328  1.00  0.00     0.251 C 
ATOM      8  H   UNL A   1      32.905  27.697  27.947  1.00  0.00     0.163 HD
BRANCH   7   9
ATOM      9  C   UNL A   1      31.413  27.365  24.819  1.00  0.00     0.067 C 
ATOM     10  C   UNL A   1      32.004  26.441  24.014  1.00  0.00     0.025 C 
ATOM     11  C   UNL A   1      30.592  28.490  24.210  1.00  0.00     0.314 C 
ATOM     12  C   UNL A   1      32.824  25.315  24.624  1.00  0.00     0.020 A 
ATOM     13  O   UNL A   1      31.164  24.967  26.289  1.00  0.00    -0.474 OA
ATOM     14  C   UNL A   1      34.089  25.113  24.097  1.00  0.00     0.036 A 
ATOM     15  C   UNL A   1      32.398  24.625  25.676  1.00  0.00     0.142 A 
ATOM     16  C   UNL A   1      34.730  23.947  24.575  1.00  0.00     0.109 A 
ATOM     17  C   UNL A   1      33.140  23.583  26.175  1.00  0.00     0.062 A 
ATOM     18  C   UNL A   1      34.374  23.289  25.663  1.00  0.00     0.044 A 
ATOM     19  Br  UNL A   1      32.421  22.500  27.643  1.00  0.00    -0.047 Br
BRANCH  11  20
ATOM     20  C   UNL A   1      29.438  27.902  23.414  1.00  0.00     0.429 C 
ATOM     21  F   UNL A   1      29.869  27.545  22.208  1.00  0.00    -0.167 F 
ATOM     22  F   UNL A   1      28.961  26.835  24.048  1.00  0.00    -0.167 F 
ATOM     23  F   UNL A   1      28.476  28.811  23.290  1.00  0.00    -0.167 F 
ENDBRANCH  11  20
BRANCH  16  24
ATOM     24  S   UNL A   1      36.136  23.310  23.629  1.00  0.00     0.310 S 
ATOM     25  F   UNL A   1      36.112  21.933  24.416  1.00  0.00    -0.094 F 
ATOM     26  F   UNL A   1      37.109  23.851  24.743  1.00  0.00    -0.094 F 
ATOM     27  F   UNL A   1      37.334  22.753  22.811  1.00  0.00    -0.094 F 
ATOM     28  F   UNL A   1      35.137  22.653  22.596  1.00  0.00    -0.094 F 
ATOM     29  F   UNL A   1      34.903  23.772  24.505  1.00  0.00    -0.094 F 
ENDBRANCH  16  24
ENDBRANCH   7   9
ENDBRANCH   4   5
ENDBRANCH   3   4
ENDBRANCH   2   3
ENDBRANCH   1   2
BRANCH   1  30
ATOM     30  C   UNL A   1      31.440  32.260  26.717  1.00  0.00     0.021 C 
BRANCH  30  31
ATOM     31  C   UNL A   1      32.652  33.037  27.206  1.00  0.00     0.116 C 
BRANCH  31  32
ATOM     32  N   UNL A   1      32.231  34.374  27.650  1.00  0.00    -0.352 N 
ATOM     33  C   UNL A   1      32.962  35.053  28.730  1.00  0.00     0.251 C 
ATOM     34  H   UNL A   1      31.460  34.813  27.225  1.00  0.00     0.163 HD
ATOM     35  O   UNL A   1      32.597  36.208  29.114  1.00  0.00    -0.269 OA
BRANCH  33  36
ATOM     36  C   UNL A   1      34.152  34.373  29.386  1.00  0.00     0.039 A 
ATOM     37  C   UNL A   1      35.435  34.749  29.024  1.00  0.00     0.014 A 
ATOM     38  C   UNL A   1      33.942  33.429  30.297  1.00  0.00     0.014 A 
ATOM     39  C   UNL A   1      36.441  33.861  29.473  1.00  0.00     0.010 A 
ATOM     40  C   UNL A   1      34.989  32.691  30.793  1.00  0.00     0.010 A 
ATOM     41  C   UNL A   1      36.279  32.969  30.433  1.00  0.00    -0.014 A 
BRANCH  41  42
ATOM     42  C   UNL A   1      37.462  32.288  31.101  1.00  0.00     0.031 A 
ATOM     43  C   UNL A   1      37.832  32.721  32.376  1.00  0.00     0.074 A 
ATOM     44  C   UNL A   1      38.105  31.276  30.409  1.00  0.00     0.049 A 
ATOM     45  N   UNL A   1      38.810  32.239  33.146  1.00  0.00    -0.248 NA
ATOM     46  C   UNL A   1      37.173  33.818  33.098  1.00  0.00     0.031 C 
ATOM     47  C   UNL A   1      37.732  30.827  29.128  1.00  0.00     0.029 A 
ATOM     48  N   UNL A   1      39.193  30.535  30.815  1.00  0.00    -0.354 N 
ATOM     49  C   UNL A   1      38.848  32.898  34.306  1.00  0.00     0.074 A 
ATOM     50  C   UNL A   1      37.800  33.926  34.290  1.00  0.00     0.031 C 
ATOM     51  C   UNL A   1      38.589  29.840  28.760  1.00  0.00     0.029 A 
ATOM     52  C   UNL A   1      39.512  29.652  29.807  1.00  0.00     0.049 A 
ATOM     53  H   UNL A   1      39.662  30.621  31.677  1.00  0.00     0.167 HD
ATOM     54  C   UNL A   1      39.715  32.678  35.378  1.00  0.00     0.037 A 
ATOM     55  C   UNL A   1      40.546  28.730  29.781  1.00  0.00     0.037 A 
ATOM     56  C   UNL A   1      40.722  31.727  35.370  1.00  0.00     0.049 A 
ATOM     57  C   UNL A   1      41.450  28.551  30.830  1.00  0.00     0.074 A 
ATOM     58  C   UNL A   1      41.601  31.488  36.445  1.00  0.00     0.029 A 
ATOM     59  N   UNL A   1      41.057  30.861  34.352  1.00  0.00    -0.354 N 
ATOM     60  N   UNL A   1      41.464  29.181  32.005  1.00  0.00    -0.248 NA
ATOM     61  C   UNL A   1      42.569  27.599  30.801  1.00  0.00     0.031 C 
ATOM     62  C   UNL A   1      42.458  30.498  36.076  1.00  0.00     0.029 A 
ATOM     63  C   UNL A   1      42.130  30.103  34.766  1.00  0.00     0.049 A 
ATOM     64  H   UNL A   1      40.606  30.794  33.479  1.00  0.00     0.167 HD
ATOM     65  C   UNL A   1      42.468  28.728  32.759  1.00  0.00     0.074 A 
ATOM     66  C   UNL A   1      43.198  27.710  31.992  1.00  0.00     0.031 C 
ATOM     67  C   UNL A   1      42.802  29.120  34.056  1.00  0.00     0.037 A 
BRANCH  54  68
ATOM     68  C   UNL A   1      39.546  33.532  36.624  1.00  0.00     0.064 A 
ATOM     69  C   UNL A   1      40.230  34.729  36.766  1.00  0.00     0.173 A 
ATOM     70  C   UNL A   1      38.747  33.078  37.581  1.00  0.00     0.173 A 
ATOM     71  F   UNL A   1      40.832  35.345  35.753  1.00  0.00    -0.203 F 
ATOM     72  C   UNL A   1      40.229  35.236  38.087  1.00  0.00     0.198 A 
ATOM     73  C   UNL A   1      38.695  33.703  38.804  1.00  0.00     0.198 A 
ATOM     74  F   UNL A   1      37.991  32.008  37.356  1.00  0.00    -0.203 F 
ATOM     75  F   UNL A   1      41.137  36.158  38.396  1.00  0.00    -0.200 F 
ATOM     76  C   UNL A   1      39.392  34.857  39.034  1.00  0.00     0.200 A 
ATOM     77  F   UNL A   1      37.957  33.178  39.778  1.00  0.00    -0.200 F 
ATOM     78  F   UNL A   1      39.233  35.560  40.153  1.00  0.00    -0.200 F 
ENDBRANCH  54  68
BRANCH  55  79
ATOM     79  C   UNL A   1      40.705  27.865  28.542  1.00  0.00     0.064 A 
ATOM     80  C   UNL A   1      41.549  28.328  27.546  1.00  0.00     0.173 A 
ATOM     81  C   UNL A   1      40.073  26.702  28.423  1.00  0.00     0.173 A 
ATOM     82  F   UNL A   1      42.388  29.345  27.722  1.00  0.00    -0.203 F 
ATOM     83  C   UNL A   1      41.437  27.622  26.325  1.00  0.00     0.198 A 
ATOM     84  C   UNL A   1      40.119  25.999  27.244  1.00  0.00     0.198 A 
ATOM     85  F   UNL A   1      39.391  26.215  29.456  1.00  0.00    -0.203 F 
ATOM     86  F   UNL A   1      41.921  28.201  25.230  1.00  0.00    -0.200 F 
ATOM     87  C   UNL A   1      40.886  26.430  26.197  1.00  0.00     0.200 A 
ATOM     88  F   UNL A   1      39.406  24.883  27.119  1.00  0.00    -0.200 F 
ATOM     89  F   UNL A   1      41.066  25.687  25.109  1.00  0.00    -0.200 F 
ENDBRANCH  55  79
BRANCH  67  90
ATOM     90  C   UNL A   1      43.974  28.427  34.732  1.00  0.00     0.064 A 
ATOM     91  C   UNL A   1      45.243  28.974  34.620  1.00  0.00     0.173 A 
ATOM     92  C   UNL A   1      43.763  27.311  35.419  1.00  0.00     0.173 A 
ATOM     93  F   UNL A   1      45.466  30.204  34.168  1.00  0.00    -0.203 F 
ATOM     94  C   UNL A   1      46.279  28.102  35.031  1.00  0.00     0.198 A 
ATOM     95  C   UNL A   1      44.819  26.580  35.908  1.00  0.00     0.198 A 
ATOM     96  F   UNL A   1      42.518  26.895  35.633  1.00  0.00    -0.203 F 
ATOM     97  F   UNL A   1      47.517  28.383  34.632  1.00  0.00    -0.200 F 
ATOM     98  C   UNL A   1      46.103  27.030  35.781  1.00  0.00     0.200 A 
ATOM     99  F   UNL A   1      44.588  25.419  36.514  1.00  0.00    -0.200 F 
ATOM    100  F   UNL A   1      47.122  26.420  36.382  1.00  0.00    -0.200 F 
ENDBRANCH  67  90
ENDBRANCH  41  42
ENDBRANCH  33  36
ENDBRANCH  31  32
ENDBRANCH  30  31
ENDBRANCH   1  30
TORSDOF 15
ENDMDL
MODEL 2
REMARK VINA RESULT:     -13.1      5.539      9.611
REMARK SMILES O=C(NCCCCCCNC(=O)c1ccc(-c2c3nc(c(-c4c(F)c(F)c(F)c(F)c4F)c4ccc([nH]4)c(-c4c(F)c(F)c(F)c(F)c4F)c4nc(c(-c5c(F)c(F)c(F)c(F)c5F)c5ccc2[nH]5)C=C4)C=C3)cc1)C1=Cc2cc(S(F)(F)(F)(F)F)cc(Br)c2O[C@@H]1C(F)(F)F
REMARK SMILES IDX 7 1 6 2 5 3 4 4 3 5 1 6 2 7 76 9 77 10 92 11 78 12 91 13
REMARK SMILES IDX 79 14 90 15 80 16 88 17 87 18 89 19 93 20 94 21 95 22 96 23
REMARK SMILES IDX 81 24 82 25 83 26 84 27 85 28 86 29 8 30 9 31 10 32 11 33
REMARK SMILES IDX 12 35 13 36 14 37 75 38 15 39 74 40 16 41 17 42 18 43 68 44
REMARK SMILES IDX 19 45 73 46 67 47 69 48 20 49 72 50 66 51 65 52 21 54 53 55
REMARK SMILES IDX 33 56 52 57 34 58 37 59 51 60 70 61 35 62 36 63 50 65 71 66
REMARK SMILES IDX 38 67 22 68 23 69 31 70 24 71 25 72 29 73 32 74 26 75 27 76
REMARK SMILES IDX 30 77 28 78 54 79 55 80 63 81 56 82 57 83 61 84 64 85 58 86
REMARK SMILES IDX 59 87 62 88 60 89 39 90 40 91 48 92 41 93 42 94 46 95 49 96
REMARK SMILES IDX 43 97 44 98 47 99 45 100
REMARK H PARENT 3 8 10 34 69 53 37 64
REMARK Flexibility Score: inf
ROOT
ATOM      1  C   UNL A   1      37.071  20.665  25.064  1.00  0.00     0.002 C 
ENDROOT
BRANCH   1   2
ATOM      2  C   UNL A   1      37.704  22.042  24.938  1.00  0.00     0.002 C 
BRANCH   2   3
ATOM      3  C   UNL A   1      37.286  22.901  26.120  1.00  0.00     0.021 C 
BRANCH   3   4
ATOM      4  C   UNL A   1      36.343  23.993  25.645  1.00  0.00     0.116 C 
BRANCH   4   5
ATOM      5  N   UNL A   1      36.106  23.843  24.202  1.00  0.00    -0.352 N 
ATOM      6  O   UNL A   1      34.609  23.205  22.471  1.00  0.00    -0.270 OA
ATOM      7  C   UNL A   1      34.813  23.335  23.718  1.00  0.00     0.251 C 
ATOM      8  H   UNL A   1      36.812  24.083  23.560  1.00  0.00     0.163 HD
BRANCH   7   9
ATOM      9  C   UNL A   1      33.723  22.965  24.710  1.00  0.00     0.067 C 
ATOM     10  C   UNL A   1      32.957  23.938  25.274  1.00  0.00     0.025 C 
ATOM     11  C   UNL A   1      33.488  21.507  25.072  1.00  0.00     0.314 C 
ATOM     12  C   UNL A   1      33.191  25.395  24.912  1.00  0.00     0.020 A 
ATOM     13  O   UNL A   1      33.386  24.824  22.613  1.00  0.00    -0.474 OA
ATOM     14  C   UNL A   1      33.321  26.284  25.966  1.00  0.00     0.036 A 
ATOM     15  C   UNL A   1      33.367  25.788  23.655  1.00  0.00     0.142 A 
ATOM     16  C   UNL A   1      33.356  27.642  25.572  1.00  0.00     0.109 A 
ATOM     17  C   UNL A   1      33.531  27.118  23.354  1.00  0.00     0.062 A 
ATOM     18  C   UNL A   1      33.608  28.059  24.345  1.00  0.00     0.044 A 
ATOM     19  Br  UNL A   1      33.654  27.678  21.480  1.00  0.00    -0.047 Br
BRANCH  11  20
ATOM     20  C   UNL A   1      32.067  21.116  24.703  1.00  0.00     0.429 C 
ATOM     21  F   UNL A   1      31.996  19.798  24.549  1.00  0.00    -0.167 F 
ATOM     22  F   UNL A   1      31.238  21.494  25.672  1.00  0.00    -0.167 F 
ATOM     23  F   UNL A   1      31.723  21.715  23.567  1.00  0.00    -0.167 F 
ENDBRANCH  11  20
BRANCH  16  24
ATOM     24  S   UNL A   1      33.031  28.895  26.836  1.00  0.00     0.310 S 
ATOM     25  F   UNL A   1      32.379  27.824  27.809  1.00  0.00    -0.094 F 
ATOM     26  F   UNL A   1      31.594  29.113  26.228  1.00  0.00    -0.094 F 
ATOM     27  F   UNL A   1      32.760  29.964  27.932  1.00  0.00    -0.094 F 
ATOM     28  F   UNL A   1      34.417  28.562  27.516  1.00  0.00    -0.094 F 
ATOM     29  F   UNL A   1      33.275  27.727  25.799  1.00  0.00    -0.094 F 
ENDBRANCH  16  24
ENDBRANCH   7   9
ENDBRANCH   4   5
ENDBRANCH   3   4
ENDBRANCH   2   3
ENDBRANCH   1   2
BRANCH   1  30
ATOM     30  C   UNL A   1      38.143  19.599  24.908  1.00  0.00     0.021 C 
BRANCH  30  31
ATOM     31  C   UNL A   1      39.306  19.910  25.837  1.00  0.00     0.116 C 
BRANCH  31  32
ATOM     32  N   UNL A   1      40.280  18.809  25.789  1.00  0.00    -0.352 N 
ATOM     33  C   UNL A   1      41.696  19.066  26.087  1.00  0.00     0.251 C 
ATOM     34  H   UNL A   1      39.982  17.899  25.558  1.00  0.00     0.163 HD
ATOM     35  O   UNL A   1      42.537  18.114  26.045  1.00  0.00    -0.269 OA
BRANCH  33  36
ATOM     36  C   UNL A   1      42.154  20.471  26.443  1.00  0.00     0.039 A 
ATOM     37  C   UNL A   1      42.223  20.846  27.775  1.00  0.00     0.014 A 
ATOM     38  C   UNL A   1      42.479  21.316  25.471  1.00  0.00     0.014 A 
ATOM     39  C   UNL A   1      42.374  22.239  27.971  1.00  0.00     0.010 A 
ATOM     40  C   UNL A   1      42.748  22.634  25.751  1.00  0.00     0.010 A 
ATOM     41  C   UNL A   1      42.775  23.088  27.041  1.00  0.00    -0.014 A 
BRANCH  41  42
ATOM     42  C   UNL A   1      43.241  24.492  27.386  1.00  0.00     0.031 A 
ATOM     43  C   UNL A   1      42.273  25.440  27.720  1.00  0.00     0.074 A 
ATOM     44  C   UNL A   1      44.601  24.752  27.352  1.00  0.00     0.049 A 
ATOM     45  N   UNL A   1      42.469  26.708  28.084  1.00  0.00    -0.248 NA
ATOM     46  C   UNL A   1      40.827  25.176  27.723  1.00  0.00     0.031 C 
ATOM     47  C   UNL A   1      45.585  23.799  27.026  1.00  0.00     0.029 A 
ATOM     48  N   UNL A   1      45.240  25.943  27.618  1.00  0.00    -0.354 N 
ATOM     49  C   UNL A   1      41.299  27.299  28.343  1.00  0.00     0.074 A 
ATOM     50  C   UNL A   1      40.227  26.323  28.109  1.00  0.00     0.031 C 
ATOM     51  C   UNL A   1      46.798  24.408  27.081  1.00  0.00     0.029 A 
ATOM     52  C   UNL A   1      46.593  25.753  27.445  1.00  0.00     0.049 A 
ATOM     53  H   UNL A   1      44.805  26.785  27.884  1.00  0.00     0.167 HD
ATOM     54  C   UNL A   1      41.087  28.612  28.768  1.00  0.00     0.037 A 
ATOM     55  C   UNL A   1      47.607  26.686  27.590  1.00  0.00     0.037 A 
ATOM     56  C   UNL A   1      42.104  29.534  28.954  1.00  0.00     0.049 A 
ATOM     57  C   UNL A   1      47.390  28.016  27.958  1.00  0.00     0.074 A 
ATOM     58  C   UNL A   1      41.908  30.859  29.388  1.00  0.00     0.029 A 
ATOM     59  N   UNL A   1      43.456  29.350  28.758  1.00  0.00    -0.354 N 
ATOM     60  N   UNL A   1      46.225  28.595  28.254  1.00  0.00    -0.248 NA
ATOM     61  C   UNL A   1      48.453  29.022  28.082  1.00  0.00     0.031 C 
ATOM     62  C   UNL A   1      43.123  31.468  29.444  1.00  0.00     0.029 A 
ATOM     63  C   UNL A   1      44.098  30.534  29.045  1.00  0.00     0.049 A 
ATOM     64  H   UNL A   1      43.889  28.516  28.463  1.00  0.00     0.167 HD
ATOM     65  C   UNL A   1      46.417  29.875  28.579  1.00  0.00     0.074 A 
ATOM     66  C   UNL A   1      47.852  30.170  28.466  1.00  0.00     0.031 C 
ATOM     67  C   UNL A   1      45.455  30.808  28.969  1.00  0.00     0.037 A 
BRANCH  54  68
ATOM     68  C   UNL A   1      39.659  29.055  29.039  1.00  0.00     0.064 A 
ATOM     69  C   UNL A   1      39.138  29.033  30.322  1.00  0.00     0.173 A 
ATOM     70  C   UNL A   1      38.921  29.432  28.002  1.00  0.00     0.173 A 
ATOM     71  F   UNL A   1      39.893  28.912  31.410  1.00  0.00    -0.203 F 
ATOM     72  C   UNL A   1      37.729  29.154  30.371  1.00  0.00     0.198 A 
ATOM     73  C   UNL A   1      37.575  29.665  28.149  1.00  0.00     0.198 A 
ATOM     74  F   UNL A   1      39.490  29.586  26.810  1.00  0.00    -0.203 F 
ATOM     75  F   UNL A   1      37.115  28.789  31.492  1.00  0.00    -0.200 F 
ATOM     76  C   UNL A   1      36.981  29.603  29.379  1.00  0.00     0.200 A 
ATOM     77  F   UNL A   1      36.839  29.953  27.080  1.00  0.00    -0.200 F 
ATOM     78  F   UNL A   1      35.718  29.975  29.567  1.00  0.00    -0.200 F 
ENDBRANCH  54  68
BRANCH  55  79
ATOM     79  C   UNL A   1      49.037  26.238  27.334  1.00  0.00     0.064 A 
ATOM     80  C   UNL A   1      49.782  25.830  28.429  1.00  0.00     0.173 A 
ATOM     81  C   UNL A   1      49.549  26.223  26.108  1.00  0.00     0.173 A 
ATOM     82  F   UNL A   1      49.245  25.589  29.621  1.00  0.00    -0.203 F 
ATOM     83  C   UNL A   1      51.165  25.694  28.162  1.00  0.00     0.198 A 
ATOM     84  C   UNL A   1      50.880  25.947  25.911  1.00  0.00     0.198 A 
ATOM     85  F   UNL A   1      48.765  26.475  25.064  1.00  0.00    -0.203 F 
ATOM     86  F   UNL A   1      51.994  25.663  29.202  1.00  0.00    -0.200 F 
ATOM     87  C   UNL A   1      51.689  25.595  26.955  1.00  0.00     0.200 A 
ATOM     88  F   UNL A   1      51.389  26.026  24.684  1.00  0.00    -0.200 F 
ATOM     89  F   UNL A   1      52.936  25.175  26.764  1.00  0.00    -0.200 F 
ENDBRANCH  55  79
BRANCH  67  90
ATOM     90  C   UNL A   1      45.922  32.208  29.331  1.00  0.00     0.064 A 
ATOM     91  C   UNL A   1      45.942  33.191  28.355  1.00  0.00     0.173 A 
ATOM     92  C   UNL A   1      46.303  32.465  30.577  1.00  0.00     0.173 A 
ATOM     93  F   UNL A   1      45.340  33.057  27.177  1.00  0.00    -0.203 F 
ATOM     94  C   UNL A   1      46.661  34.352  28.727  1.00  0.00     0.198 A 
ATOM     95  C   UNL A   1      46.875  33.672  30.897  1.00  0.00     0.198 A 
ATOM     96  F   UNL A   1      46.132  31.545  31.521  1.00  0.00    -0.203 F 
ATOM     97  F   UNL A   1      47.040  35.181  27.758  1.00  0.00    -0.200 F 
ATOM     98  C   UNL A   1      46.981  34.669  29.969  1.00  0.00     0.200 A 
ATOM     99  F   UNL A   1      47.332  33.874  32.131  1.00  0.00    -0.200 F 
ATOM    100  F   UNL A   1      47.386  35.894  30.296  1.00  0.00    -0.200 F 
ENDBRANCH  67  90
ENDBRANCH  41  42
ENDBRANCH  33  36
ENDBRANCH  31  32
ENDBRANCH  30  31
ENDBRANCH   1  30
TORSDOF 15
ENDMDL
MODEL 3
REMARK VINA RESULT:     -13.1      4.996     10.489
REMARK SMILES O=C(NCCCCCCNC(=O)c1ccc(-c2c3nc(c(-c4c(F)c(F)c(F)c(F)c4F)c4ccc([nH]4)c(-c4c(F)c(F)c(F)c(F)c4F)c4nc(c(-c5c(F)c(F)c(F)c(F)c5F)c5ccc2[nH]5)C=C4)C=C3)cc1)C1=Cc2cc(S(F)(F)(F)(F)F)cc(Br)c2O[C@@H]1C(F)(F)F
REMARK SMILES IDX 7 1 6 2 5 3 4 4 3 5 1 6 2 7 76 9 77 10 92 11 78 12 91 13
REMARK SMILES IDX 79 14 90 15 80 16 88 17 87 18 89 19 93 20 94 21 95 22 96 23
REMARK SMILES IDX 81 24 82 25 83 26 84 27 85 28 86 29 8 30 9 31 10 32 11 33
REMARK SMILES IDX 12 35 13 36 14 37 75 38 15 39 74 40 16 41 17 42 18 43 68 44
REMARK SMILES IDX 19 45 73 46 67 47 69 48 20 49 72 50 66 51 65 52 21 54 53 55
REMARK SMILES IDX 33 56 52 57 34 58 37 59 51 60 70 61 35 62 36 63 50 65 71 66
REMARK SMILES IDX 38 67 22 68 23 69 31 70 24 71 25 72 29 73 32 74 26 75 27 76
REMARK SMILES IDX 30 77 28 78 54 79 55 80 63 81 56 82 57 83 61 84 64 85 58 86
REMARK SMILES IDX 59 87 62 88 60 89 39 90 40 91 48 92 41 93 42 94 46 95 49 96
REMARK SMILES IDX 43 97 44 98 47 99 45 100
REMARK H PARENT 3 8 10 34 69 53 37 64
REMARK Flexibility Score: inf
ROOT
ATOM      1  C   UNL A   1      37.334  33.068  29.556  1.00  0.00     0.002 C 
ENDROOT
BRANCH   1   2
ATOM      2  C   UNL A   1      38.185  34.202  29.004  1.00  0.00     0.002 C 
BRANCH   2   3
ATOM      3  C   UNL A   1      38.958  34.853  30.139  1.00  0.00     0.021 C 
BRANCH   3   4
ATOM      4  C   UNL A   1      39.280  33.810  31.196  1.00  0.00     0.116 C 
BRANCH   4   5
ATOM      5  N   UNL A   1      39.585  34.479  32.469  1.00  0.00    -0.352 N 
ATOM      6  O   UNL A   1      38.803  35.200  34.594  1.00  0.00    -0.270 OA
ATOM      7  C   UNL A   1      38.540  34.622  33.493  1.00  0.00     0.251 C 
ATOM      8  H   UNL A   1      40.489  34.831  32.636  1.00  0.00     0.163 HD
BRANCH   7   9
ATOM      9  C   UNL A   1      37.144  34.078  33.235  1.00  0.00     0.067 C 
ATOM     10  C   UNL A   1      36.920  32.736  33.263  1.00  0.00     0.025 C 
ATOM     11  C   UNL A   1      35.998  35.034  32.947  1.00  0.00     0.314 C 
ATOM     12  C   UNL A   1      38.066  31.780  33.553  1.00  0.00     0.020 A 
ATOM     13  O   UNL A   1      38.830  33.181  35.315  1.00  0.00    -0.474 OA
ATOM     14  C   UNL A   1      38.228  30.722  32.674  1.00  0.00     0.036 A 
ATOM     15  C   UNL A   1      38.935  32.000  34.534  1.00  0.00     0.142 A 
ATOM     16  C   UNL A   1      39.189  29.771  33.091  1.00  0.00     0.109 A 
ATOM     17  C   UNL A   1      39.932  31.094  34.800  1.00  0.00     0.062 A 
ATOM     18  C   UNL A   1      40.113  29.994  34.008  1.00  0.00     0.044 A 
ATOM     19  Br  UNL A   1      41.113  31.381  36.338  1.00  0.00    -0.047 Br
BRANCH  11  20
ATOM     20  C   UNL A   1      34.918  34.863  34.002  1.00  0.00     0.429 C 
ATOM     21  F   UNL A   1      34.073  33.910  33.621  1.00  0.00    -0.167 F 
ATOM     22  F   UNL A   1      35.479  34.520  35.159  1.00  0.00    -0.167 F 
ATOM     23  F   UNL A   1      34.258  36.007  34.152  1.00  0.00    -0.167 F 
ENDBRANCH  11  20
BRANCH  16  24
ATOM     24  S   UNL A   1      39.148  28.137  32.316  1.00  0.00     0.310 S 
ATOM     25  F   UNL A   1      39.571  27.424  33.669  1.00  0.00    -0.094 F 
ATOM     26  F   UNL A   1      40.684  28.272  31.989  1.00  0.00    -0.094 F 
ATOM     27  F   UNL A   1      39.103  26.728  31.660  1.00  0.00    -0.094 F 
ATOM     28  F   UNL A   1      37.648  27.960  32.777  1.00  0.00    -0.094 F 
ATOM     29  F   UNL A   1      39.208  29.516  33.086  1.00  0.00    -0.094 F 
ENDBRANCH  16  24
ENDBRANCH   7   9
ENDBRANCH   4   5
ENDBRANCH   3   4
ENDBRANCH   2   3
ENDBRANCH   1   2
BRANCH   1  30
ATOM     30  C   UNL A   1      35.889  33.265  29.129  1.00  0.00     0.021 C 
BRANCH  30  31
ATOM     31  C   UNL A   1      35.022  32.189  29.762  1.00  0.00     0.116 C 
BRANCH  31  32
ATOM     32  N   UNL A   1      34.243  31.508  28.717  1.00  0.00    -0.352 N 
ATOM     33  C   UNL A   1      34.859  30.439  27.920  1.00  0.00     0.251 C 
ATOM     34  H   UNL A   1      33.308  31.770  28.552  1.00  0.00     0.163 HD
ATOM     35  O   UNL A   1      34.185  29.851  27.016  1.00  0.00    -0.269 OA
BRANCH  33  36
ATOM     36  C   UNL A   1      36.302  30.037  28.175  1.00  0.00     0.039 A 
ATOM     37  C   UNL A   1      37.273  30.354  27.239  1.00  0.00     0.014 A 
ATOM     38  C   UNL A   1      36.609  29.385  29.291  1.00  0.00     0.014 A 
ATOM     39  C   UNL A   1      38.503  29.684  27.438  1.00  0.00     0.010 A 
ATOM     40  C   UNL A   1      37.870  28.874  29.478  1.00  0.00     0.010 A 
ATOM     41  C   UNL A   1      38.864  29.099  28.566  1.00  0.00    -0.014 A 
BRANCH  41  42
ATOM     42  C   UNL A   1      40.304  28.698  28.834  1.00  0.00     0.031 A 
ATOM     43  C   UNL A   1      40.724  27.437  28.407  1.00  0.00     0.074 A 
ATOM     44  C   UNL A   1      41.121  29.606  29.488  1.00  0.00     0.049 A 
ATOM     45  N   UNL A   1      41.944  26.907  28.512  1.00  0.00    -0.248 NA
ATOM     46  C   UNL A   1      39.850  26.458  27.744  1.00  0.00     0.031 C 
ATOM     47  C   UNL A   1      40.708  30.883  29.913  1.00  0.00     0.029 A 
ATOM     48  N   UNL A   1      42.444  29.452  29.838  1.00  0.00    -0.354 N 
ATOM     49  C   UNL A   1      41.964  25.687  27.971  1.00  0.00     0.074 A 
ATOM     50  C   UNL A   1      40.616  25.379  27.475  1.00  0.00     0.031 C 
ATOM     51  C   UNL A   1      41.762  31.486  30.524  1.00  0.00     0.029 A 
ATOM     52  C   UNL A   1      42.853  30.596  30.487  1.00  0.00     0.049 A 
ATOM     53  H   UNL A   1      43.002  28.661  29.657  1.00  0.00     0.167 HD
ATOM     54  C   UNL A   1      43.054  24.821  27.869  1.00  0.00     0.037 A 
ATOM     55  C   UNL A   1      44.100  30.867  31.026  1.00  0.00     0.037 A 
ATOM     56  C   UNL A   1      44.313  25.109  28.370  1.00  0.00     0.049 A 
ATOM     57  C   UNL A   1      45.175  29.977  30.977  1.00  0.00     0.074 A 
ATOM     58  C   UNL A   1      45.425  24.250  28.270  1.00  0.00     0.029 A 
ATOM     59  N   UNL A   1      44.716  26.244  29.041  1.00  0.00    -0.354 N 
ATOM     60  N   UNL A   1      45.206  28.774  30.401  1.00  0.00    -0.248 NA
ATOM     61  C   UNL A   1      46.492  30.240  31.572  1.00  0.00     0.031 C 
ATOM     62  C   UNL A   1      46.480  24.855  28.880  1.00  0.00     0.029 A 
ATOM     63  C   UNL A   1      46.045  26.100  29.372  1.00  0.00     0.049 A 
ATOM     64  H   UNL A   1      44.151  27.023  29.248  1.00  0.00     0.167 HD
ATOM     65  C   UNL A   1      46.415  28.227  30.543  1.00  0.00     0.074 A 
ATOM     66  C   UNL A   1      47.258  29.158  31.305  1.00  0.00     0.031 C 
ATOM     67  C   UNL A   1      46.851  26.990  30.064  1.00  0.00     0.037 A 
BRANCH  54  68
ATOM     68  C   UNL A   1      42.848  23.487  27.172  1.00  0.00     0.064 A 
ATOM     69  C   UNL A   1      42.269  22.417  27.837  1.00  0.00     0.173 A 
ATOM     70  C   UNL A   1      43.269  23.372  25.919  1.00  0.00     0.173 A 
ATOM     71  F   UNL A   1      41.610  22.548  28.984  1.00  0.00    -0.203 F 
ATOM     72  C   UNL A   1      42.442  21.175  27.183  1.00  0.00     0.198 A 
ATOM     73  C   UNL A   1      43.284  22.148  25.295  1.00  0.00     0.198 A 
ATOM     74  F   UNL A   1      43.681  24.452  25.260  1.00  0.00    -0.203 F 
ATOM     75  F   UNL A   1      42.249  20.069  27.895  1.00  0.00    -0.200 F 
ATOM     76  C   UNL A   1      42.783  21.037  25.915  1.00  0.00     0.200 A 
ATOM     77  F   UNL A   1      43.795  22.042  24.071  1.00  0.00    -0.200 F 
ATOM     78  F   UNL A   1      42.645  19.879  25.273  1.00  0.00    -0.200 F 
ENDBRANCH  54  68
BRANCH  55  79
ATOM     79  C   UNL A   1      44.311  32.208  31.709  1.00  0.00     0.064 A 
ATOM     80  C   UNL A   1      44.087  32.269  33.075  1.00  0.00     0.173 A 
ATOM     81  C   UNL A   1      44.710  33.277  31.028  1.00  0.00     0.173 A 
ATOM     82  F   UNL A   1      43.934  31.188  33.833  1.00  0.00    -0.203 F 
ATOM     83  C   UNL A   1      44.032  33.587  33.588  1.00  0.00     0.198 A 
ATOM     84  C   UNL A   1      44.764  34.509  31.631  1.00  0.00     0.198 A 
ATOM     85  F   UNL A   1      45.062  33.150  29.752  1.00  0.00    -0.203 F 
ATOM     86  F   UNL A   1      43.476  33.761  34.783  1.00  0.00    -0.200 F 
ATOM     87  C   UNL A   1      44.497  34.653  32.965  1.00  0.00     0.200 A 
ATOM     88  F   UNL A   1      45.080  35.580  30.907  1.00  0.00    -0.200 F 
ATOM     89  F   UNL A   1      44.694  35.806  33.599  1.00  0.00    -0.200 F 
ENDBRANCH  55  79
BRANCH  67  90
ATOM     90  C   UNL A   1      48.297  26.595  30.317  1.00  0.00     0.064 A 
ATOM     91  C   UNL A   1      49.275  26.985  29.416  1.00  0.00     0.173 A 
ATOM     92  C   UNL A   1      48.598  25.885  31.397  1.00  0.00     0.173 A 
ATOM     93  F   UNL A   1      49.070  27.897  28.471  1.00  0.00    -0.203 F 
ATOM     94  C   UNL A   1      50.513  26.322  29.594  1.00  0.00     0.198 A 
ATOM     95  C   UNL A   1      49.865  25.382  31.572  1.00  0.00     0.198 A 
ATOM     96  F   UNL A   1      47.665  25.656  32.316  1.00  0.00    -0.203 F 
ATOM     97  F   UNL A   1      51.380  26.351  28.585  1.00  0.00    -0.200 F 
ATOM     98  C   UNL A   1      50.867  25.676  30.690  1.00  0.00     0.200 A 
ATOM     99  F   UNL A   1      50.120  24.597  32.616  1.00  0.00    -0.200 F 
ATOM    100  F   UNL A   1      52.130  25.332  30.924  1.00  0.00    -0.200 F 
ENDBRANCH  67  90
ENDBRANCH  41  42
ENDBRANCH  33  36
ENDBRANCH  31  32
ENDBRANCH  30  31
ENDBRANCH   1  30
TORSDOF 15
ENDMDL
