MODEL 1
REMARK VINA RESULT:      -9.4      0.000      0.000
REMARK SMILES CS(=O)(=O)c1ccc(/C=C(/C(=O)NCCCCCCNC(=O)c2ccc(-c3c4nc(c(-c5c(F)c(F)c(F)c(F)c5F)c5ccc([nH]5)c(-c5c(F)c(F)c(F)c(F)c5F)c5nc(c(-c6c(F)c(F)c(F)c(F)c6F)c6ccc3[nH]6)C=C5)C=C4)cc2)c2cccc(-c3ccc(S(C)(=O)=O)cc3)c2)cc1
REMARK SMILES IDX 16 1 15 2 14 3 13 4 11 5 12 6 10 8 9 9 8 10 5 11 6 12 103 13
REMARK SMILES IDX 7 14 102 15 2 16 1 17 3 18 4 19 86 20 87 21 101 22 88 23
REMARK SMILES IDX 90 24 89 25 91 26 92 27 100 28 93 29 99 30 94 31 95 32 96 33
REMARK SMILES IDX 97 34 98 35 17 36 18 37 19 38 20 39 21 40 22 42 23 43 24 44
REMARK SMILES IDX 85 45 25 46 84 47 26 48 27 49 28 50 78 51 29 52 83 53 77 54
REMARK SMILES IDX 79 55 30 56 82 57 76 58 75 59 31 61 63 62 43 63 62 64 44 65
REMARK SMILES IDX 47 66 61 67 80 68 45 69 46 70 60 72 81 73 48 74 32 75 33 76
REMARK SMILES IDX 41 77 34 78 35 79 39 80 42 81 36 82 37 83 40 84 38 85 64 86
REMARK SMILES IDX 65 87 73 88 66 89 67 90 71 91 74 92 68 93 69 94 72 95 70 96
REMARK SMILES IDX 49 97 50 98 58 99 51 100 52 101 56 102 59 103 53 104 54 105
REMARK SMILES IDX 57 106 55 107
REMARK H PARENT 13 7 20 41 79 60 47 71
REMARK Flexibility Score: inf
ROOT
ATOM      1  C   UNL A   1      35.643  33.602  31.070  1.00  0.00     0.002 C 
ENDROOT
BRANCH   1   2
ATOM      2  C   UNL A   1      34.942  34.451  32.143  1.00  0.00     0.021 C 
BRANCH   2   3
ATOM      3  C   UNL A   1      35.914  35.309  32.957  1.00  0.00     0.116 C 
BRANCH   3   4
ATOM      4  N   UNL A   1      37.255  35.107  32.456  1.00  0.00    -0.352 N 
ATOM      5  C   UNL A   1      38.389  34.567  32.968  1.00  0.00     0.251 C 
ATOM      6  O   UNL A   1      39.400  34.706  32.274  1.00  0.00    -0.269 OA
ATOM      7  H   UNL A   1      37.371  35.434  31.534  1.00  0.00     0.163 HD
BRANCH   5   8
ATOM      8  C   UNL A   1      38.434  33.746  34.240  1.00  0.00     0.047 C 
ATOM      9  C   UNL A   1      38.655  34.285  35.463  1.00  0.00     0.022 C 
BRANCH   9  10
ATOM     10  C   UNL A   1      38.552  33.653  36.804  1.00  0.00    -0.025 A 
ATOM     11  C   UNL A   1      38.405  32.781  39.478  1.00  0.00     0.067 A 
ATOM     12  C   UNL A   1      37.312  32.620  38.624  1.00  0.00     0.021 A 
ATOM     13  C   UNL A   1      39.602  33.302  38.992  1.00  0.00     0.021 A 
ATOM     14  C   UNL A   1      37.402  33.020  37.288  1.00  0.00     0.009 A 
ATOM     15  C   UNL A   1      39.666  33.741  37.660  1.00  0.00     0.009 A 
BRANCH  11  16
ATOM     16  S   UNL A   1      38.183  32.313  41.178  1.00  0.00     0.175 S 
ATOM     17  C   UNL A   1      39.616  32.832  42.075  1.00  0.00     0.163 C 
ATOM     18  O   UNL A   1      38.169  30.861  41.204  1.00  0.00    -0.224 OA
ATOM     19  O   UNL A   1      37.056  33.084  41.664  1.00  0.00    -0.224 OA
ENDBRANCH  11  16
ENDBRANCH   9  10
BRANCH   8  20
ATOM     20  C   UNL A   1      38.386  32.270  34.059  1.00  0.00    -0.012 A 
ATOM     21  C   UNL A   1      37.333  31.725  33.306  1.00  0.00     0.009 A 
ATOM     22  C   UNL A   1      39.416  31.427  34.495  1.00  0.00     0.017 A 
ATOM     23  C   UNL A   1      37.323  30.375  32.968  1.00  0.00     0.001 A 
ATOM     24  C   UNL A   1      39.462  30.079  34.092  1.00  0.00    -0.018 A 
ATOM     25  C   UNL A   1      38.391  29.565  33.342  1.00  0.00     0.009 A 
BRANCH  24  26
ATOM     26  C   UNL A   1      40.659  29.264  34.350  1.00  0.00    -0.018 A 
ATOM     27  C   UNL A   1      41.219  29.220  35.642  1.00  0.00     0.010 A 
ATOM     28  C   UNL A   1      41.236  28.473  33.345  1.00  0.00     0.010 A 
ATOM     29  C   UNL A   1      42.325  28.417  35.923  1.00  0.00     0.021 A 
ATOM     30  C   UNL A   1      42.348  27.670  33.615  1.00  0.00     0.021 A 
ATOM     31  C   UNL A   1      42.891  27.656  34.901  1.00  0.00     0.067 A 
BRANCH  31  32
ATOM     32  S   UNL A   1      44.319  26.663  35.255  1.00  0.00     0.175 S 
ATOM     33  C   UNL A   1      43.867  25.803  36.739  1.00  0.00     0.163 C 
ATOM     34  O   UNL A   1      44.451  25.691  34.191  1.00  0.00    -0.224 OA
ATOM     35  O   UNL A   1      45.412  27.561  35.590  1.00  0.00    -0.224 OA
ENDBRANCH  31  32
ENDBRANCH  24  26
ENDBRANCH   8  20
ENDBRANCH   5   8
ENDBRANCH   3   4
ENDBRANCH   2   3
ENDBRANCH   1   2
BRANCH   1  36
ATOM     36  C   UNL A   1      34.701  32.757  30.204  1.00  0.00     0.002 C 
BRANCH  36  37
ATOM     37  C   UNL A   1      34.250  33.436  28.910  1.00  0.00     0.021 C 
BRANCH  37  38
ATOM     38  C   UNL A   1      34.509  32.607  27.658  1.00  0.00     0.116 C 
BRANCH  38  39
ATOM     39  N   UNL A   1      33.695  31.402  27.637  1.00  0.00    -0.352 N 
ATOM     40  C   UNL A   1      34.091  30.090  27.655  1.00  0.00     0.251 C 
ATOM     41  H   UNL A   1      32.721  31.550  27.606  1.00  0.00     0.163 HD
ATOM     42  O   UNL A   1      33.297  29.196  27.384  1.00  0.00    -0.269 OA
BRANCH  40  43
ATOM     43  C   UNL A   1      35.490  29.758  27.994  1.00  0.00     0.039 A 
ATOM     44  C   UNL A   1      36.460  29.808  26.992  1.00  0.00     0.014 A 
ATOM     45  C   UNL A   1      35.838  29.392  29.297  1.00  0.00     0.014 A 
ATOM     46  C   UNL A   1      37.792  29.539  27.309  1.00  0.00     0.010 A 
ATOM     47  C   UNL A   1      37.176  29.205  29.628  1.00  0.00     0.010 A 
ATOM     48  C   UNL A   1      38.165  29.267  28.635  1.00  0.00    -0.014 A 
BRANCH  48  49
ATOM     49  C   UNL A   1      39.585  29.034  29.001  1.00  0.00     0.031 A 
ATOM     50  C   UNL A   1      40.338  30.065  29.794  1.00  0.00     0.074 A 
ATOM     51  C   UNL A   1      40.207  27.920  28.573  1.00  0.00     0.049 A 
ATOM     52  N   UNL A   1      41.595  30.072  30.162  1.00  0.00    -0.248 NA
ATOM     53  C   UNL A   1      39.587  31.263  30.205  1.00  0.00     0.031 C 
ATOM     54  C   UNL A   1      39.593  26.867  27.761  1.00  0.00     0.029 A 
ATOM     55  N   UNL A   1      41.498  27.490  28.753  1.00  0.00    -0.354 N 
ATOM     56  C   UNL A   1      41.785  31.271  30.835  1.00  0.00     0.074 A 
ATOM     57  C   UNL A   1      40.534  31.996  30.771  1.00  0.00     0.031 C 
ATOM     58  C   UNL A   1      40.497  25.901  27.538  1.00  0.00     0.029 A 
ATOM     59  C   UNL A   1      41.766  26.285  28.151  1.00  0.00     0.049 A 
ATOM     60  H   UNL A   1      42.169  27.996  29.266  1.00  0.00     0.167 HD
ATOM     61  C   UNL A   1      42.894  31.716  31.473  1.00  0.00     0.037 A 
ATOM     62  C   UNL A   1      42.908  25.575  28.091  1.00  0.00     0.037 A 
ATOM     63  C   UNL A   1      44.131  30.982  31.546  1.00  0.00     0.049 A 
ATOM     64  C   UNL A   1      44.135  26.105  28.785  1.00  0.00     0.074 A 
ATOM     65  C   UNL A   1      45.295  31.320  32.212  1.00  0.00     0.029 A 
ATOM     66  N   UNL A   1      44.364  29.764  30.925  1.00  0.00    -0.354 N 
ATOM     67  N   UNL A   1      44.284  27.207  29.479  1.00  0.00    -0.248 NA
ATOM     68  C   UNL A   1      45.353  25.288  28.691  1.00  0.00     0.031 C 
ATOM     69  C   UNL A   1      46.253  30.336  31.943  1.00  0.00     0.029 A 
ATOM     70  C   UNL A   1      45.665  29.352  31.165  1.00  0.00     0.049 A 
ATOM     71  H   UNL A   1      43.703  29.265  30.391  1.00  0.00     0.167 HD
ATOM     72  C   UNL A   1      45.597  27.201  29.930  1.00  0.00     0.074 A 
ATOM     73  C   UNL A   1      46.198  25.976  29.444  1.00  0.00     0.031 C 
ATOM     74  C   UNL A   1      46.247  28.126  30.679  1.00  0.00     0.037 A 
BRANCH  61  75
ATOM     75  C   UNL A   1      42.821  33.060  32.139  1.00  0.00     0.064 A 
ATOM     76  C   UNL A   1      43.052  34.250  31.430  1.00  0.00     0.173 A 
ATOM     77  C   UNL A   1      42.485  33.166  33.497  1.00  0.00     0.173 A 
ATOM     78  F   UNL A   1      43.388  34.208  30.131  1.00  0.00    -0.203 F 
ATOM     79  C   UNL A   1      42.981  35.489  32.063  1.00  0.00     0.198 A 
ATOM     80  C   UNL A   1      42.380  34.408  34.118  1.00  0.00     0.198 A 
ATOM     81  F   UNL A   1      42.249  32.063  34.224  1.00  0.00    -0.203 F 
ATOM     82  F   UNL A   1      43.262  36.606  31.376  1.00  0.00    -0.200 F 
ATOM     83  C   UNL A   1      42.638  35.568  33.403  1.00  0.00     0.200 A 
ATOM     84  F   UNL A   1      42.034  34.482  35.410  1.00  0.00    -0.200 F 
ATOM     85  F   UNL A   1      42.564  36.761  34.008  1.00  0.00    -0.200 F 
ENDBRANCH  61  75
BRANCH  62  86
ATOM     86  C   UNL A   1      42.943  24.279  27.364  1.00  0.00     0.064 A 
ATOM     87  C   UNL A   1      42.593  23.082  28.005  1.00  0.00     0.173 A 
ATOM     88  C   UNL A   1      43.337  24.206  26.019  1.00  0.00     0.173 A 
ATOM     89  F   UNL A   1      42.227  23.096  29.295  1.00  0.00    -0.203 F 
ATOM     90  C   UNL A   1      42.659  21.861  27.337  1.00  0.00     0.198 A 
ATOM     91  C   UNL A   1      43.370  22.989  25.343  1.00  0.00     0.198 A 
ATOM     92  F   UNL A   1      43.677  25.321  25.356  1.00  0.00    -0.203 F 
ATOM     93  F   UNL A   1      42.368  20.727  27.990  1.00  0.00    -0.200 F 
ATOM     94  C   UNL A   1      43.041  21.815  26.005  1.00  0.00     0.200 A 
ATOM     95  F   UNL A   1      43.724  22.952  24.050  1.00  0.00    -0.200 F 
ATOM     96  F   UNL A   1      43.101  20.641  25.362  1.00  0.00    -0.200 F 
ENDBRANCH  62  86
BRANCH  74  97
ATOM     97  C   UNL A   1      47.673  27.833  31.052  1.00  0.00     0.064 A 
ATOM     98  C   UNL A   1      48.004  27.143  32.227  1.00  0.00     0.173 A 
ATOM     99  C   UNL A   1      48.721  28.214  30.198  1.00  0.00     0.173 A 
ATOM    100  F   UNL A   1      47.041  26.770  33.084  1.00  0.00    -0.203 F 
ATOM    101  C   UNL A   1      49.331  26.872  32.549  1.00  0.00     0.198 A 
ATOM    102  C   UNL A   1      50.043  27.910  30.506  1.00  0.00     0.198 A 
ATOM    103  F   UNL A   1      48.460  28.869  29.057  1.00  0.00    -0.203 F 
ATOM    104  F   UNL A   1      49.627  26.261  33.705  1.00  0.00    -0.200 F 
ATOM    105  C   UNL A   1      50.349  27.247  31.685  1.00  0.00     0.200 A 
ATOM    106  F   UNL A   1      51.024  28.257  29.659  1.00  0.00    -0.200 F 
ATOM    107  F   UNL A   1      51.624  26.976  31.991  1.00  0.00    -0.200 F 
ENDBRANCH  74  97
ENDBRANCH  48  49
ENDBRANCH  40  43
ENDBRANCH  38  39
ENDBRANCH  37  38
ENDBRANCH  36  37
ENDBRANCH   1  36
TORSDOF 18
ENDMDL
MODEL 2
REMARK VINA RESULT:      -9.3      5.213     12.001
REMARK SMILES CS(=O)(=O)c1ccc(/C=C(/C(=O)NCCCCCCNC(=O)c2ccc(-c3c4nc(c(-c5c(F)c(F)c(F)c(F)c5F)c5ccc([nH]5)c(-c5c(F)c(F)c(F)c(F)c5F)c5nc(c(-c6c(F)c(F)c(F)c(F)c6F)c6ccc3[nH]6)C=C5)C=C4)cc2)c2cccc(-c3ccc(S(C)(=O)=O)cc3)c2)cc1
REMARK SMILES IDX 16 1 15 2 14 3 13 4 11 5 12 6 10 8 9 9 8 10 5 11 6 12 103 13
REMARK SMILES IDX 7 14 102 15 2 16 1 17 3 18 4 19 86 20 87 21 101 22 88 23
REMARK SMILES IDX 90 24 89 25 91 26 92 27 100 28 93 29 99 30 94 31 95 32 96 33
REMARK SMILES IDX 97 34 98 35 17 36 18 37 19 38 20 39 21 40 22 42 23 43 24 44
REMARK SMILES IDX 85 45 25 46 84 47 26 48 27 49 28 50 78 51 29 52 83 53 77 54
REMARK SMILES IDX 79 55 30 56 82 57 76 58 75 59 31 61 63 62 43 63 62 64 44 65
REMARK SMILES IDX 47 66 61 67 80 68 45 69 46 70 60 72 81 73 48 74 32 75 33 76
REMARK SMILES IDX 41 77 34 78 35 79 39 80 42 81 36 82 37 83 40 84 38 85 64 86
REMARK SMILES IDX 65 87 73 88 66 89 67 90 71 91 74 92 68 93 69 94 72 95 70 96
REMARK SMILES IDX 49 97 50 98 58 99 51 100 52 101 56 102 59 103 53 104 54 105
REMARK SMILES IDX 57 106 55 107
REMARK H PARENT 13 7 20 41 79 60 47 71
REMARK Flexibility Score: inf
ROOT
ATOM      1  C   UNL A   1      41.367  29.760  31.866  1.00  0.00     0.002 C 
ENDROOT
BRANCH   1   2
ATOM      2  C   UNL A   1      40.679  30.352  30.625  1.00  0.00     0.021 C 
BRANCH   2   3
ATOM      3  C   UNL A   1      39.267  29.802  30.404  1.00  0.00     0.116 C 
BRANCH   3   4
ATOM      4  N   UNL A   1      38.744  29.325  31.665  1.00  0.00    -0.352 N 
ATOM      5  C   UNL A   1      38.104  29.908  32.709  1.00  0.00     0.251 C 
ATOM      6  O   UNL A   1      37.938  29.187  33.696  1.00  0.00    -0.269 OA
ATOM      7  H   UNL A   1      38.883  28.359  31.794  1.00  0.00     0.163 HD
BRANCH   5   8
ATOM      8  C   UNL A   1      37.518  31.304  32.668  1.00  0.00     0.047 C 
ATOM      9  C   UNL A   1      36.302  31.583  32.140  1.00  0.00     0.022 C 
BRANCH   9  10
ATOM     10  C   UNL A   1      35.522  32.847  32.186  1.00  0.00    -0.025 A 
ATOM     11  C   UNL A   1      33.816  35.084  32.050  1.00  0.00     0.067 A 
ATOM     12  C   UNL A   1      34.038  34.441  33.269  1.00  0.00     0.021 A 
ATOM     13  C   UNL A   1      34.497  34.671  30.907  1.00  0.00     0.021 A 
ATOM     14  C   UNL A   1      34.915  33.355  33.339  1.00  0.00     0.009 A 
ATOM     15  C   UNL A   1      35.340  33.552  30.980  1.00  0.00     0.009 A 
BRANCH  11  16
ATOM     16  S   UNL A   1      32.633  36.410  32.036  1.00  0.00     0.175 S 
ATOM     17  C   UNL A   1      31.135  35.807  32.756  1.00  0.00     0.163 C 
ATOM     18  O   UNL A   1      32.350  36.691  30.640  1.00  0.00    -0.224 OA
ATOM     19  O   UNL A   1      33.164  37.433  32.916  1.00  0.00    -0.224 OA
ENDBRANCH  11  16
ENDBRANCH   9  10
BRANCH   8  20
ATOM     20  C   UNL A   1      38.428  32.400  33.095  1.00  0.00    -0.012 A 
ATOM     21  C   UNL A   1      39.036  33.187  32.103  1.00  0.00     0.009 A 
ATOM     22  C   UNL A   1      38.595  32.756  34.440  1.00  0.00     0.017 A 
ATOM     23  C   UNL A   1      39.765  34.323  32.441  1.00  0.00     0.001 A 
ATOM     24  C   UNL A   1      39.260  33.946  34.793  1.00  0.00    -0.018 A 
ATOM     25  C   UNL A   1      39.858  34.708  33.775  1.00  0.00     0.009 A 
BRANCH  24  26
ATOM     26  C   UNL A   1      39.224  34.436  36.179  1.00  0.00    -0.018 A 
ATOM     27  C   UNL A   1      38.538  33.706  37.169  1.00  0.00     0.010 A 
ATOM     28  C   UNL A   1      39.912  35.598  36.561  1.00  0.00     0.010 A 
ATOM     29  C   UNL A   1      38.531  34.126  38.500  1.00  0.00     0.021 A 
ATOM     30  C   UNL A   1      39.906  36.030  37.891  1.00  0.00     0.021 A 
ATOM     31  C   UNL A   1      39.206  35.295  38.850  1.00  0.00     0.067 A 
BRANCH  31  32
ATOM     32  S   UNL A   1      39.165  35.843  40.538  1.00  0.00     0.175 S 
ATOM     33  C   UNL A   1      38.001  34.743  41.300  1.00  0.00     0.163 C 
ATOM     34  O   UNL A   1      40.469  35.592  41.112  1.00  0.00    -0.224 OA
ATOM     35  O   UNL A   1      38.580  37.174  40.557  1.00  0.00    -0.224 OA
ENDBRANCH  31  32
ENDBRANCH  24  26
ENDBRANCH   8  20
ENDBRANCH   5   8
ENDBRANCH   3   4
ENDBRANCH   2   3
ENDBRANCH   1   2
BRANCH   1  36
ATOM     36  C   UNL A   1      42.651  28.975  31.572  1.00  0.00     0.002 C 
BRANCH  36  37
ATOM     37  C   UNL A   1      42.623  27.518  32.036  1.00  0.00     0.021 C 
BRANCH  37  38
ATOM     38  C   UNL A   1      43.508  27.240  33.246  1.00  0.00     0.116 C 
BRANCH  38  39
ATOM     39  N   UNL A   1      42.717  26.901  34.419  1.00  0.00    -0.352 N 
ATOM     40  C   UNL A   1      42.382  27.685  35.492  1.00  0.00     0.251 C 
ATOM     41  H   UNL A   1      42.375  25.978  34.446  1.00  0.00     0.163 HD
ATOM     42  O   UNL A   1      41.923  27.182  36.511  1.00  0.00    -0.269 OA
BRANCH  40  43
ATOM     43  C   UNL A   1      42.590  29.146  35.418  1.00  0.00     0.039 A 
ATOM     44  C   UNL A   1      43.891  29.642  35.336  1.00  0.00     0.014 A 
ATOM     45  C   UNL A   1      41.499  30.020  35.437  1.00  0.00     0.014 A 
ATOM     46  C   UNL A   1      44.098  31.017  35.221  1.00  0.00     0.010 A 
ATOM     47  C   UNL A   1      41.702  31.382  35.240  1.00  0.00     0.010 A 
ATOM     48  C   UNL A   1      43.004  31.895  35.140  1.00  0.00    -0.014 A 
BRANCH  48  49
ATOM     49  C   UNL A   1      43.203  33.355  34.962  1.00  0.00     0.031 A 
ATOM     50  C   UNL A   1      43.305  33.939  33.581  1.00  0.00     0.074 A 
ATOM     51  C   UNL A   1      43.346  34.144  36.044  1.00  0.00     0.049 A 
ATOM     52  N   UNL A   1      43.533  35.177  33.219  1.00  0.00    -0.248 NA
ATOM     53  C   UNL A   1      43.157  33.004  32.454  1.00  0.00     0.031 C 
ATOM     54  C   UNL A   1      43.309  33.686  37.434  1.00  0.00     0.029 A 
ATOM     55  N   UNL A   1      43.559  35.496  36.145  1.00  0.00    -0.354 N 
ATOM     56  C   UNL A   1      43.566  35.165  31.831  1.00  0.00     0.074 A 
ATOM     57  C   UNL A   1      43.398  33.789  31.415  1.00  0.00     0.031 C 
ATOM     58  C   UNL A   1      43.465  34.742  38.248  1.00  0.00     0.029 A 
ATOM     59  C   UNL A   1      43.657  35.943  37.440  1.00  0.00     0.049 A 
ATOM     60  H   UNL A   1      43.635  36.090  35.363  1.00  0.00     0.167 HD
ATOM     61  C   UNL A   1      43.698  36.210  30.979  1.00  0.00     0.037 A 
ATOM     62  C   UNL A   1      43.887  37.179  37.920  1.00  0.00     0.037 A 
ATOM     63  C   UNL A   1      43.849  37.578  31.401  1.00  0.00     0.049 A 
ATOM     64  C   UNL A   1      44.057  38.319  36.952  1.00  0.00     0.074 A 
ATOM     65  C   UNL A   1      43.937  38.716  30.619  1.00  0.00     0.029 A 
ATOM     66  N   UNL A   1      43.943  37.992  32.722  1.00  0.00    -0.354 N 
ATOM     67  N   UNL A   1      44.016  38.308  35.642  1.00  0.00    -0.248 NA
ATOM     68  C   UNL A   1      44.301  39.647  37.531  1.00  0.00     0.031 C 
ATOM     69  C   UNL A   1      44.145  39.812  31.464  1.00  0.00     0.029 A 
ATOM     70  C   UNL A   1      44.120  39.366  32.775  1.00  0.00     0.049 A 
ATOM     71  H   UNL A   1      43.892  37.398  33.506  1.00  0.00     0.167 HD
ATOM     72  C   UNL A   1      44.196  39.625  35.241  1.00  0.00     0.074 A 
ATOM     73  C   UNL A   1      44.331  40.412  36.450  1.00  0.00     0.031 C 
ATOM     74  C   UNL A   1      44.246  40.137  33.987  1.00  0.00     0.037 A 
BRANCH  61  75
ATOM     75  C   UNL A   1      43.688  35.913  29.507  1.00  0.00     0.064 A 
ATOM     76  C   UNL A   1      44.868  35.628  28.802  1.00  0.00     0.173 A 
ATOM     77  C   UNL A   1      42.480  35.881  28.795  1.00  0.00     0.173 A 
ATOM     78  F   UNL A   1      46.054  35.655  29.431  1.00  0.00    -0.203 F 
ATOM     79  C   UNL A   1      44.842  35.355  27.437  1.00  0.00     0.198 A 
ATOM     80  C   UNL A   1      42.453  35.573  27.437  1.00  0.00     0.198 A 
ATOM     81  F   UNL A   1      41.320  36.140  29.418  1.00  0.00    -0.203 F 
ATOM     82  F   UNL A   1      45.989  35.142  26.776  1.00  0.00    -0.200 F 
ATOM     83  C   UNL A   1      43.635  35.320  26.757  1.00  0.00     0.200 A 
ATOM     84  F   UNL A   1      41.283  35.524  26.785  1.00  0.00    -0.200 F 
ATOM     85  F   UNL A   1      43.610  35.051  25.445  1.00  0.00    -0.200 F 
ENDBRANCH  61  75
BRANCH  62  86
ATOM     86  C   UNL A   1      43.951  37.408  39.388  1.00  0.00     0.064 A 
ATOM     87  C   UNL A   1      42.833  37.870  40.095  1.00  0.00     0.173 A 
ATOM     88  C   UNL A   1      45.131  37.181  40.112  1.00  0.00     0.173 A 
ATOM     89  F   UNL A   1      41.686  38.120  39.446  1.00  0.00    -0.203 F 
ATOM     90  C   UNL A   1      42.898  38.120  41.465  1.00  0.00     0.198 A 
ATOM     91  C   UNL A   1      45.186  37.400  41.486  1.00  0.00     0.198 A 
ATOM     92  F   UNL A   1      46.229  36.734  39.486  1.00  0.00    -0.203 F 
ATOM     93  F   UNL A   1      41.829  38.612  42.106  1.00  0.00    -0.200 F 
ATOM     94  C   UNL A   1      44.073  37.879  42.161  1.00  0.00     0.200 A 
ATOM     95  F   UNL A   1      46.319  37.149  42.157  1.00  0.00    -0.200 F 
ATOM     96  F   UNL A   1      44.135  38.117  43.478  1.00  0.00    -0.200 F 
ENDBRANCH  62  86
BRANCH  74  97
ATOM     97  C   UNL A   1      44.417  41.624  33.855  1.00  0.00     0.064 A 
ATOM     98  C   UNL A   1      45.680  42.210  33.683  1.00  0.00     0.173 A 
ATOM     99  C   UNL A   1      43.297  42.470  33.860  1.00  0.00     0.173 A 
ATOM    100  F   UNL A   1      46.785  41.449  33.685  1.00  0.00    -0.203 F 
ATOM    101  C   UNL A   1      45.816  43.590  33.551  1.00  0.00     0.198 A 
ATOM    102  C   UNL A   1      43.434  43.843  33.692  1.00  0.00     0.198 A 
ATOM    103  F   UNL A   1      42.066  41.960  34.013  1.00  0.00    -0.203 F 
ATOM    104  F   UNL A   1      47.037  44.133  33.444  1.00  0.00    -0.200 F 
ATOM    105  C   UNL A   1      44.694  44.404  33.546  1.00  0.00     0.200 A 
ATOM    106  F   UNL A   1      42.345  44.627  33.669  1.00  0.00    -0.200 F 
ATOM    107  F   UNL A   1      44.826  45.730  33.409  1.00  0.00    -0.200 F 
ENDBRANCH  74  97
ENDBRANCH  48  49
ENDBRANCH  40  43
ENDBRANCH  38  39
ENDBRANCH  37  38
ENDBRANCH  36  37
ENDBRANCH   1  36
TORSDOF 18
ENDMDL
MODEL 3
REMARK VINA RESULT:      -9.2      3.697      9.122
REMARK SMILES CS(=O)(=O)c1ccc(/C=C(/C(=O)NCCCCCCNC(=O)c2ccc(-c3c4nc(c(-c5c(F)c(F)c(F)c(F)c5F)c5ccc([nH]5)c(-c5c(F)c(F)c(F)c(F)c5F)c5nc(c(-c6c(F)c(F)c(F)c(F)c6F)c6ccc3[nH]6)C=C5)C=C4)cc2)c2cccc(-c3ccc(S(C)(=O)=O)cc3)c2)cc1
REMARK SMILES IDX 16 1 15 2 14 3 13 4 11 5 12 6 10 8 9 9 8 10 5 11 6 12 103 13
REMARK SMILES IDX 7 14 102 15 2 16 1 17 3 18 4 19 86 20 87 21 101 22 88 23
REMARK SMILES IDX 90 24 89 25 91 26 92 27 100 28 93 29 99 30 94 31 95 32 96 33
REMARK SMILES IDX 97 34 98 35 17 36 18 37 19 38 20 39 21 40 22 42 23 43 24 44
REMARK SMILES IDX 85 45 25 46 84 47 26 48 27 49 28 50 78 51 29 52 83 53 77 54
REMARK SMILES IDX 79 55 30 56 82 57 76 58 75 59 31 61 63 62 43 63 62 64 44 65
REMARK SMILES IDX 47 66 61 67 80 68 45 69 46 70 60 72 81 73 48 74 32 75 33 76
REMARK SMILES IDX 41 77 34 78 35 79 39 80 42 81 36 82 37 83 40 84 38 85 64 86
REMARK SMILES IDX 65 87 73 88 66 89 67 90 71 91 74 92 68 93 69 94 72 95 70 96
REMARK SMILES IDX 49 97 50 98 58 99 51 100 52 101 56 102 59 103 53 104 54 105
REMARK SMILES IDX 57 106 55 107
REMARK H PARENT 13 7 20 41 79 60 47 71
REMARK Flexibility Score: inf
ROOT
ATOM      1  C   UNL A   1      37.973  33.062  32.047  1.00  0.00     0.002 C 
ENDROOT
BRANCH   1   2
ATOM      2  C   UNL A   1      37.444  33.827  30.822  1.00  0.00     0.021 C 
BRANCH   2   3
ATOM      3  C   UNL A   1      35.915  33.862  30.753  1.00  0.00     0.116 C 
BRANCH   3   4
ATOM      4  N   UNL A   1      35.513  34.265  29.424  1.00  0.00    -0.352 N 
ATOM      5  C   UNL A   1      35.229  33.600  28.276  1.00  0.00     0.251 C 
ATOM      6  O   UNL A   1      35.058  34.312  27.282  1.00  0.00    -0.269 OA
ATOM      7  H   UNL A   1      35.423  35.241  29.331  1.00  0.00     0.163 HD
BRANCH   5   8
ATOM      8  C   UNL A   1      35.016  32.103  28.197  1.00  0.00     0.047 C 
ATOM      9  C   UNL A   1      33.901  31.538  27.672  1.00  0.00     0.022 C 
BRANCH   9  10
ATOM     10  C   UNL A   1      33.623  30.112  27.362  1.00  0.00    -0.025 A 
ATOM     11  C   UNL A   1      32.862  27.529  26.536  1.00  0.00     0.067 A 
ATOM     12  C   UNL A   1      34.181  27.960  26.376  1.00  0.00     0.021 A 
ATOM     13  C   UNL A   1      31.933  28.346  27.177  1.00  0.00     0.021 A 
ATOM     14  C   UNL A   1      34.563  29.228  26.821  1.00  0.00     0.009 A 
ATOM     15  C   UNL A   1      32.317  29.634  27.580  1.00  0.00     0.009 A 
BRANCH  11  16
ATOM     16  S   UNL A   1      32.444  25.932  25.878  1.00  0.00     0.175 S 
ATOM     17  C   UNL A   1      33.938  24.995  25.744  1.00  0.00     0.163 C 
ATOM     18  O   UNL A   1      31.963  26.160  24.528  1.00  0.00    -0.224 OA
ATOM     19  O   UNL A   1      31.610  25.291  26.875  1.00  0.00    -0.224 OA
ENDBRANCH  11  16
ENDBRANCH   9  10
BRANCH   8  20
ATOM     20  C   UNL A   1      36.036  31.267  28.885  1.00  0.00    -0.012 A 
ATOM     21  C   UNL A   1      35.667  30.601  30.064  1.00  0.00     0.009 A 
ATOM     22  C   UNL A   1      37.299  31.018  28.331  1.00  0.00     0.017 A 
ATOM     23  C   UNL A   1      36.523  29.681  30.662  1.00  0.00     0.001 A 
ATOM     24  C   UNL A   1      38.142  30.031  28.877  1.00  0.00    -0.018 A 
ATOM     25  C   UNL A   1      37.743  29.386  30.060  1.00  0.00     0.009 A 
BRANCH  24  26
ATOM     26  C   UNL A   1      39.353  29.606  28.159  1.00  0.00    -0.018 A 
ATOM     27  C   UNL A   1      40.560  29.419  28.860  1.00  0.00     0.010 A 
ATOM     28  C   UNL A   1      39.327  29.320  26.786  1.00  0.00     0.010 A 
ATOM     29  C   UNL A   1      41.710  28.968  28.210  1.00  0.00     0.021 A 
ATOM     30  C   UNL A   1      40.475  28.875  26.124  1.00  0.00     0.021 A 
ATOM     31  C   UNL A   1      41.662  28.712  26.840  1.00  0.00     0.067 A 
BRANCH  31  32
ATOM     32  S   UNL A   1      43.136  28.173  26.011  1.00  0.00     0.175 S 
ATOM     33  C   UNL A   1      43.563  26.675  26.861  1.00  0.00     0.163 C 
ATOM     34  O   UNL A   1      42.775  27.834  24.651  1.00  0.00    -0.224 OA
ATOM     35  O   UNL A   1      44.182  29.143  26.290  1.00  0.00    -0.224 OA
ENDBRANCH  31  32
ENDBRANCH  24  26
ENDBRANCH   8  20
ENDBRANCH   5   8
ENDBRANCH   3   4
ENDBRANCH   2   3
ENDBRANCH   1   2
BRANCH   1  36
ATOM     36  C   UNL A   1      36.887  32.554  33.003  1.00  0.00     0.002 C 
BRANCH  36  37
ATOM     37  C   UNL A   1      36.636  33.455  34.213  1.00  0.00     0.021 C 
BRANCH  37  38
ATOM     38  C   UNL A   1      37.796  33.497  35.200  1.00  0.00     0.116 C 
BRANCH  38  39
ATOM     39  N   UNL A   1      37.621  32.529  36.271  1.00  0.00    -0.352 N 
ATOM     40  C   UNL A   1      38.156  31.272  36.396  1.00  0.00     0.251 C 
ATOM     41  H   UNL A   1      37.036  32.815  37.010  1.00  0.00     0.163 HD
ATOM     42  O   UNL A   1      37.716  30.490  37.231  1.00  0.00    -0.269 OA
BRANCH  40  43
ATOM     43  C   UNL A   1      39.261  30.861  35.507  1.00  0.00     0.039 A 
ATOM     44  C   UNL A   1      38.964  30.178  34.327  1.00  0.00     0.014 A 
ATOM     45  C   UNL A   1      40.587  31.144  35.845  1.00  0.00     0.014 A 
ATOM     46  C   UNL A   1      39.996  29.823  33.458  1.00  0.00     0.010 A 
ATOM     47  C   UNL A   1      41.606  30.863  34.941  1.00  0.00     0.010 A 
ATOM     48  C   UNL A   1      41.322  30.191  33.743  1.00  0.00    -0.014 A 
BRANCH  48  49
ATOM     49  C   UNL A   1      42.426  29.871  32.803  1.00  0.00     0.031 A 
ATOM     50  C   UNL A   1      43.225  28.611  32.980  1.00  0.00     0.074 A 
ATOM     51  C   UNL A   1      42.741  30.743  31.827  1.00  0.00     0.049 A 
ATOM     52  N   UNL A   1      44.260  28.184  32.301  1.00  0.00    -0.248 NA
ATOM     53  C   UNL A   1      42.826  27.724  34.085  1.00  0.00     0.031 C 
ATOM     54  C   UNL A   1      42.065  32.019  31.582  1.00  0.00     0.029 A 
ATOM     55  N   UNL A   1      43.715  30.693  30.861  1.00  0.00    -0.354 N 
ATOM     56  C   UNL A   1      44.639  26.990  32.901  1.00  0.00     0.074 A 
ATOM     57  C   UNL A   1      43.765  26.791  34.037  1.00  0.00     0.031 C 
ATOM     58  C   UNL A   1      42.627  32.616  30.519  1.00  0.00     0.029 A 
ATOM     59  C   UNL A   1      43.729  31.789  30.034  1.00  0.00     0.049 A 
ATOM     60  H   UNL A   1      44.345  29.942  30.770  1.00  0.00     0.167 HD
ATOM     61  C   UNL A   1      45.610  26.125  32.522  1.00  0.00     0.037 A 
ATOM     62  C   UNL A   1      44.544  32.097  29.009  1.00  0.00     0.037 A 
ATOM     63  C   UNL A   1      46.466  26.323  31.381  1.00  0.00     0.049 A 
ATOM     64  C   UNL A   1      45.633  31.131  28.626  1.00  0.00     0.074 A 
ATOM     65  C   UNL A   1      47.444  25.482  30.882  1.00  0.00     0.029 A 
ATOM     66  N   UNL A   1      46.448  27.446  30.566  1.00  0.00    -0.354 N 
ATOM     67  N   UNL A   1      45.938  29.972  29.156  1.00  0.00    -0.248 NA
ATOM     68  C   UNL A   1      46.491  31.516  27.496  1.00  0.00     0.031 C 
ATOM     69  C   UNL A   1      48.060  26.123  29.801  1.00  0.00     0.029 A 
ATOM     70  C   UNL A   1      47.422  27.333  29.586  1.00  0.00     0.049 A 
ATOM     71  H   UNL A   1      45.836  28.210  30.669  1.00  0.00     0.167 HD
ATOM     72  C   UNL A   1      46.996  29.474  28.408  1.00  0.00     0.074 A 
ATOM     73  C   UNL A   1      47.272  30.453  27.375  1.00  0.00     0.031 C 
ATOM     74  C   UNL A   1      47.680  28.314  28.561  1.00  0.00     0.037 A 
BRANCH  61  75
ATOM     75  C   UNL A   1      45.801  24.888  33.352  1.00  0.00     0.064 A 
ATOM     76  C   UNL A   1      46.848  24.775  34.281  1.00  0.00     0.173 A 
ATOM     77  C   UNL A   1      44.909  23.811  33.243  1.00  0.00     0.173 A 
ATOM     78  F   UNL A   1      47.738  25.770  34.420  1.00  0.00    -0.203 F 
ATOM     79  C   UNL A   1      47.012  23.621  35.042  1.00  0.00     0.198 A 
ATOM     80  C   UNL A   1      45.054  22.672  34.031  1.00  0.00     0.198 A 
ATOM     81  F   UNL A   1      43.887  23.865  32.375  1.00  0.00    -0.203 F 
ATOM     82  F   UNL A   1      48.053  23.516  35.881  1.00  0.00    -0.200 F 
ATOM     83  C   UNL A   1      46.112  22.574  34.923  1.00  0.00     0.200 A 
ATOM     84  F   UNL A   1      44.174  21.668  33.924  1.00  0.00    -0.200 F 
ATOM     85  F   UNL A   1      46.267  21.467  35.661  1.00  0.00    -0.200 F 
ENDBRANCH  61  75
BRANCH  62  86
ATOM     86  C   UNL A   1      44.351  33.367  28.260  1.00  0.00     0.064 A 
ATOM     87  C   UNL A   1      43.776  33.370  26.981  1.00  0.00     0.173 A 
ATOM     88  C   UNL A   1      44.747  34.601  28.798  1.00  0.00     0.173 A 
ATOM     89  F   UNL A   1      43.399  32.215  26.414  1.00  0.00    -0.203 F 
ATOM     90  C   UNL A   1      43.627  34.553  26.261  1.00  0.00     0.198 A 
ATOM     91  C   UNL A   1      44.566  35.787  28.091  1.00  0.00     0.198 A 
ATOM     92  F   UNL A   1      45.297  34.656  30.020  1.00  0.00    -0.203 F 
ATOM     93  F   UNL A   1      43.122  34.520  25.019  1.00  0.00    -0.200 F 
ATOM     94  C   UNL A   1      44.016  35.762  26.818  1.00  0.00     0.200 A 
ATOM     95  F   UNL A   1      44.928  36.954  28.642  1.00  0.00    -0.200 F 
ATOM     96  F   UNL A   1      43.869  36.900  26.127  1.00  0.00    -0.200 F 
ENDBRANCH  62  86
BRANCH  74  97
ATOM     97  C   UNL A   1      48.768  28.017  27.569  1.00  0.00     0.064 A 
ATOM     98  C   UNL A   1      50.095  28.417  27.784  1.00  0.00     0.173 A 
ATOM     99  C   UNL A   1      48.485  27.286  26.404  1.00  0.00     0.173 A 
ATOM    100  F   UNL A   1      50.417  29.131  28.874  1.00  0.00    -0.203 F 
ATOM    101  C   UNL A   1      51.091  28.123  26.857  1.00  0.00     0.198 A 
ATOM    102  C   UNL A   1      49.490  26.963  25.498  1.00  0.00     0.198 A 
ATOM    103  F   UNL A   1      47.234  26.873  26.152  1.00  0.00    -0.203 F 
ATOM    104  F   UNL A   1      52.341  28.563  27.058  1.00  0.00    -0.200 F 
ATOM    105  C   UNL A   1      50.791  27.389  25.720  1.00  0.00     0.200 A 
ATOM    106  F   UNL A   1      49.200  26.237  24.408  1.00  0.00    -0.200 F 
ATOM    107  F   UNL A   1      51.753  27.098  24.834  1.00  0.00    -0.200 F 
ENDBRANCH  74  97
ENDBRANCH  48  49
ENDBRANCH  40  43
ENDBRANCH  38  39
ENDBRANCH  37  38
ENDBRANCH  36  37
ENDBRANCH   1  36
TORSDOF 18
ENDMDL
