MODEL 1
REMARK VINA RESULT:     -13.0      0.000      0.000
REMARK SMILES CC(C)(C)OC(=O)N1CCN(c2nc3ccccc3s2)[C@H](C(=O)NCCCCCCNC(=O)c2ccc(-c3c4nc(c(-c5c(F)c(F)c(F)c(F)c5F)c5ccc([nH]5)c(-c5c(F)c(F)c(F)c(F)c5F)c5nc(c(-c6c(F)c(F)c(F)c(F)c6F)c6ccc3[nH]6)C=C5)C=C4)cc2)C1
REMARK SMILES IDX 27 1 26 2 25 3 24 4 22 5 23 6 21 8 8 9 9 10 97 11 10 12
REMARK SMILES IDX 11 13 6 14 7 15 5 16 2 17 1 18 3 19 4 20 12 21 13 22 20 23
REMARK SMILES IDX 14 24 19 25 15 26 18 27 16 28 17 29 28 30 29 31 30 32 31 33
REMARK SMILES IDX 32 34 33 36 34 37 35 38 96 39 36 40 95 41 37 42 38 43 39 44
REMARK SMILES IDX 89 45 40 46 94 47 88 48 90 49 41 50 93 51 87 52 86 53 42 55
REMARK SMILES IDX 74 56 54 57 73 58 55 59 58 60 72 61 91 62 56 63 57 64 71 66
REMARK SMILES IDX 92 67 59 68 43 69 44 70 52 71 45 72 46 73 50 74 53 75 47 76
REMARK SMILES IDX 48 77 51 78 49 79 75 80 76 81 84 82 77 83 78 84 82 85 85 86
REMARK SMILES IDX 79 87 80 88 83 89 81 90 60 91 61 92 69 93 62 94 63 95 67 96
REMARK SMILES IDX 70 97 64 98 65 99 68 100 66 101
REMARK H PARENT 24 7 31 35 90 54 58 65
REMARK Flexibility Score: inf
ROOT
ATOM      1  C   UNL A   1      32.178  29.834  27.248  1.00  0.00     0.002 C 
ENDROOT
BRANCH   1   2
ATOM      2  C   UNL A   1      33.702  29.662  27.318  1.00  0.00     0.021 C 
BRANCH   2   3
ATOM      3  C   UNL A   1      34.243  28.524  26.452  1.00  0.00     0.116 C 
BRANCH   3   4
ATOM      4  N   UNL A   1      33.529  27.297  26.742  1.00  0.00    -0.354 N 
ATOM      5  C   UNL A   1      32.514  26.714  26.035  1.00  0.00     0.244 C 
ATOM      6  O   UNL A   1      31.738  25.999  26.667  1.00  0.00    -0.273 OA
ATOM      7  H   UNL A   1      33.811  26.820  27.556  1.00  0.00     0.163 HD
BRANCH   5   8
ATOM      8  C   UNL A   1      32.385  27.020  24.536  1.00  0.00     0.193 C 
ATOM      9  N   UNL A   1      30.780  27.988  22.886  1.00  0.00    -0.304 N 
ATOM     10  C   UNL A   1      31.024  26.882  21.953  1.00  0.00     0.144 C 
ATOM     11  C   UNL A   1      31.018  27.695  24.309  1.00  0.00     0.158 C 
ATOM     12  C   UNL A   1      32.403  26.237  22.199  1.00  0.00     0.141 C 
ATOM     13  N   UNL A   1      32.494  25.860  23.613  1.00  0.00    -0.332 N 
BRANCH   9  14
ATOM     14  C   UNL A   1      30.212  29.152  22.426  1.00  0.00     0.410 C 
ATOM     15  O   UNL A   1      30.559  29.697  21.385  1.00  0.00    -0.224 OA
BRANCH  14  16
ATOM     16  O   UNL A   1      29.293  29.650  23.292  1.00  0.00    -0.444 OA
BRANCH  16  17
ATOM     17  C   UNL A   1      27.951  29.985  22.845  1.00  0.00     0.106 C 
ATOM     18  C   UNL A   1      27.567  31.237  23.647  1.00  0.00     0.056 C 
ATOM     19  C   UNL A   1      27.003  28.840  23.205  1.00  0.00     0.056 C 
ATOM     20  C   UNL A   1      27.866  30.345  21.354  1.00  0.00     0.056 C 
ENDBRANCH  16  17
ENDBRANCH  14  16
ENDBRANCH   9  14
BRANCH  13  21
ATOM     21  C   UNL A   1      33.190  24.744  23.933  1.00  0.00     0.187 A 
ATOM     22  N   UNL A   1      34.495  24.626  23.856  1.00  0.00    -0.220 NA
ATOM     23  S   UNL A   1      32.349  23.279  24.286  1.00  0.00    -0.097 S 
ATOM     24  C   UNL A   1      34.879  23.333  24.192  1.00  0.00     0.084 A 
ATOM     25  C   UNL A   1      33.835  22.461  24.501  1.00  0.00     0.056 A 
ATOM     26  C   UNL A   1      36.199  22.837  24.240  1.00  0.00     0.030 A 
ATOM     27  C   UNL A   1      34.055  21.132  24.896  1.00  0.00     0.021 A 
ATOM     28  C   UNL A   1      36.431  21.508  24.617  1.00  0.00     0.002 A 
ATOM     29  C   UNL A   1      35.371  20.670  24.951  1.00  0.00     0.002 A 
ENDBRANCH  13  21
ENDBRANCH   5   8
ENDBRANCH   3   4
ENDBRANCH   2   3
ENDBRANCH   1   2
BRANCH   1  30
ATOM     30  C   UNL A   1      31.688  30.804  26.170  1.00  0.00     0.002 C 
BRANCH  30  31
ATOM     31  C   UNL A   1      31.445  32.231  26.659  1.00  0.00     0.021 C 
BRANCH  31  32
ATOM     32  C   UNL A   1      32.664  32.893  27.290  1.00  0.00     0.116 C 
BRANCH  32  33
ATOM     33  N   UNL A   1      32.411  34.279  27.648  1.00  0.00    -0.352 N 
ATOM     34  C   UNL A   1      32.979  35.034  28.643  1.00  0.00     0.251 C 
ATOM     35  H   UNL A   1      31.736  34.741  27.099  1.00  0.00     0.163 HD
ATOM     36  O   UNL A   1      32.510  36.128  28.937  1.00  0.00    -0.269 OA
BRANCH  34  37
ATOM     37  C   UNL A   1      34.149  34.511  29.377  1.00  0.00     0.039 A 
ATOM     38  C   UNL A   1      33.948  33.884  30.609  1.00  0.00     0.014 A 
ATOM     39  C   UNL A   1      35.438  34.631  28.850  1.00  0.00     0.014 A 
ATOM     40  C   UNL A   1      35.035  33.322  31.281  1.00  0.00     0.010 A 
ATOM     41  C   UNL A   1      36.504  34.000  29.479  1.00  0.00     0.010 A 
ATOM     42  C   UNL A   1      36.315  33.342  30.705  1.00  0.00    -0.014 A 
BRANCH  42  43
ATOM     43  C   UNL A   1      37.465  32.676  31.367  1.00  0.00     0.031 A 
ATOM     44  C   UNL A   1      38.164  31.526  30.697  1.00  0.00     0.074 A 
ATOM     45  C   UNL A   1      37.841  33.069  32.599  1.00  0.00     0.049 A 
ATOM     46  N   UNL A   1      39.146  30.781  31.140  1.00  0.00    -0.248 NA
ATOM     47  C   UNL A   1      37.679  31.145  29.362  1.00  0.00     0.031 C 
ATOM     48  C   UNL A   1      37.214  34.142  33.372  1.00  0.00     0.029 A 
ATOM     49  N   UNL A   1      38.838  32.607  33.423  1.00  0.00    -0.354 N 
ATOM     50  C   UNL A   1      39.387  29.842  30.145  1.00  0.00     0.074 A 
ATOM     51  C   UNL A   1      38.409  30.070  29.103  1.00  0.00     0.031 C 
ATOM     52  C   UNL A   1      37.855  34.274  34.544  1.00  0.00     0.029 A 
ATOM     53  C   UNL A   1      38.909  33.266  34.627  1.00  0.00     0.049 A 
ATOM     54  H   UNL A   1      39.445  31.872  33.175  1.00  0.00     0.167 HD
ATOM     55  C   UNL A   1      40.352  28.893  30.095  1.00  0.00     0.037 A 
ATOM     56  C   UNL A   1      39.723  33.074  35.681  1.00  0.00     0.037 A 
ATOM     57  C   UNL A   1      41.330  28.680  31.130  1.00  0.00     0.049 A 
ATOM     58  C   UNL A   1      40.769  31.993  35.610  1.00  0.00     0.074 A 
ATOM     59  C   UNL A   1      42.381  27.780  31.151  1.00  0.00     0.029 A 
ATOM     60  N   UNL A   1      41.372  29.371  32.332  1.00  0.00    -0.354 N 
ATOM     61  N   UNL A   1      41.034  31.158  34.635  1.00  0.00    -0.248 NA
ATOM     62  C   UNL A   1      41.636  31.833  36.786  1.00  0.00     0.031 C 
ATOM     63  C   UNL A   1      43.019  27.882  32.390  1.00  0.00     0.029 A 
ATOM     64  C   UNL A   1      42.413  28.895  33.114  1.00  0.00     0.049 A 
ATOM     65  H   UNL A   1      40.755  30.093  32.591  1.00  0.00     0.167 HD
ATOM     66  C   UNL A   1      42.115  30.399  35.064  1.00  0.00     0.074 A 
ATOM     67  C   UNL A   1      42.466  30.883  36.382  1.00  0.00     0.031 C 
ATOM     68  C   UNL A   1      42.759  29.393  34.423  1.00  0.00     0.037 A 
BRANCH  55  69
ATOM     69  C   UNL A   1      40.395  28.006  28.883  1.00  0.00     0.064 A 
ATOM     70  C   UNL A   1      41.154  28.340  27.749  1.00  0.00     0.173 A 
ATOM     71  C   UNL A   1      39.699  26.787  28.867  1.00  0.00     0.173 A 
ATOM     72  F   UNL A   1      41.829  29.499  27.707  1.00  0.00    -0.203 F 
ATOM     73  C   UNL A   1      41.188  27.504  26.637  1.00  0.00     0.198 A 
ATOM     74  C   UNL A   1      39.765  25.937  27.765  1.00  0.00     0.198 A 
ATOM     75  F   UNL A   1      38.963  26.414  29.924  1.00  0.00    -0.203 F 
ATOM     76  F   UNL A   1      41.875  27.871  25.545  1.00  0.00    -0.200 F 
ATOM     77  C   UNL A   1      40.502  26.300  26.648  1.00  0.00     0.200 A 
ATOM     78  F   UNL A   1      39.114  24.766  27.786  1.00  0.00    -0.200 F 
ATOM     79  F   UNL A   1      40.543  25.491  25.580  1.00  0.00    -0.200 F 
ENDBRANCH  55  69
BRANCH  56  80
ATOM     80  C   UNL A   1      39.593  33.931  36.889  1.00  0.00     0.064 A 
ATOM     81  C   UNL A   1      38.823  33.520  37.987  1.00  0.00     0.173 A 
ATOM     82  C   UNL A   1      40.223  35.182  36.968  1.00  0.00     0.173 A 
ATOM     83  F   UNL A   1      38.186  32.341  37.953  1.00  0.00    -0.203 F 
ATOM     84  C   UNL A   1      38.668  34.337  39.106  1.00  0.00     0.198 A 
ATOM     85  C   UNL A   1      40.094  35.983  38.100  1.00  0.00     0.198 A 
ATOM     86  F   UNL A   1      40.976  35.621  35.949  1.00  0.00    -0.203 F 
ATOM     87  F   UNL A   1      37.883  33.943  40.117  1.00  0.00    -0.200 F 
ATOM     88  C   UNL A   1      39.308  35.566  39.163  1.00  0.00     0.200 A 
ATOM     89  F   UNL A   1      40.730  37.161  38.159  1.00  0.00    -0.200 F 
ATOM     90  F   UNL A   1      39.162  36.350  40.239  1.00  0.00    -0.200 F 
ENDBRANCH  56  80
BRANCH  68  91
ATOM     91  C   UNL A   1      43.941  28.775  35.116  1.00  0.00     0.064 A 
ATOM     92  C   UNL A   1      45.243  29.267  34.941  1.00  0.00     0.173 A 
ATOM     93  C   UNL A   1      43.760  27.699  35.999  1.00  0.00     0.173 A 
ATOM     94  F   UNL A   1      45.473  30.284  34.097  1.00  0.00    -0.203 F 
ATOM     95  C   UNL A   1      46.323  28.685  35.602  1.00  0.00     0.198 A 
ATOM     96  C   UNL A   1      44.836  27.144  36.685  1.00  0.00     0.198 A 
ATOM     97  F   UNL A   1      42.535  27.195  36.209  1.00  0.00    -0.203 F 
ATOM     98  F   UNL A   1      47.564  29.137  35.376  1.00  0.00    -0.200 F 
ATOM     99  C   UNL A   1      46.117  27.632  36.479  1.00  0.00     0.200 A 
ATOM    100  F   UNL A   1      44.632  26.138  37.547  1.00  0.00    -0.200 F 
ATOM    101  F   UNL A   1      47.156  27.080  37.121  1.00  0.00    -0.200 F 
ENDBRANCH  68  91
ENDBRANCH  42  43
ENDBRANCH  34  37
ENDBRANCH  32  33
ENDBRANCH  31  32
ENDBRANCH  30  31
ENDBRANCH   1  30
TORSDOF 17
ENDMDL
MODEL 2
REMARK VINA RESULT:     -12.9      1.152      4.254
REMARK SMILES CC(C)(C)OC(=O)N1CCN(c2nc3ccccc3s2)[C@H](C(=O)NCCCCCCNC(=O)c2ccc(-c3c4nc(c(-c5c(F)c(F)c(F)c(F)c5F)c5ccc([nH]5)c(-c5c(F)c(F)c(F)c(F)c5F)c5nc(c(-c6c(F)c(F)c(F)c(F)c6F)c6ccc3[nH]6)C=C5)C=C4)cc2)C1
REMARK SMILES IDX 27 1 26 2 25 3 24 4 22 5 23 6 21 8 8 9 9 10 97 11 10 12
REMARK SMILES IDX 11 13 6 14 7 15 5 16 2 17 1 18 3 19 4 20 12 21 13 22 20 23
REMARK SMILES IDX 14 24 19 25 15 26 18 27 16 28 17 29 28 30 29 31 30 32 31 33
REMARK SMILES IDX 32 34 33 36 34 37 35 38 96 39 36 40 95 41 37 42 38 43 39 44
REMARK SMILES IDX 89 45 40 46 94 47 88 48 90 49 41 50 93 51 87 52 86 53 42 55
REMARK SMILES IDX 74 56 54 57 73 58 55 59 58 60 72 61 91 62 56 63 57 64 71 66
REMARK SMILES IDX 92 67 59 68 43 69 44 70 52 71 45 72 46 73 50 74 53 75 47 76
REMARK SMILES IDX 48 77 51 78 49 79 75 80 76 81 84 82 77 83 78 84 82 85 85 86
REMARK SMILES IDX 79 87 80 88 83 89 81 90 60 91 61 92 69 93 62 94 63 95 67 96
REMARK SMILES IDX 70 97 64 98 65 99 68 100 66 101
REMARK H PARENT 24 7 31 35 90 54 58 65
REMARK Flexibility Score: inf
ROOT
ATOM      1  C   UNL A   1      32.647  29.993  27.182  1.00  0.00     0.002 C 
ENDROOT
BRANCH   1   2
ATOM      2  C   UNL A   1      33.889  29.566  26.388  1.00  0.00     0.021 C 
BRANCH   2   3
ATOM      3  C   UNL A   1      33.832  28.131  25.861  1.00  0.00     0.116 C 
BRANCH   3   4
ATOM      4  N   UNL A   1      32.893  27.353  26.644  1.00  0.00    -0.354 N 
ATOM      5  C   UNL A   1      32.057  26.355  26.225  1.00  0.00     0.244 C 
ATOM      6  O   UNL A   1      31.034  26.177  26.885  1.00  0.00    -0.273 OA
ATOM      7  H   UNL A   1      32.852  27.570  27.602  1.00  0.00     0.163 HD
BRANCH   5   8
ATOM      8  C   UNL A   1      32.419  25.568  24.958  1.00  0.00     0.193 C 
ATOM      9  N   UNL A   1      34.386  24.553  23.800  1.00  0.00    -0.304 N 
ATOM     10  C   UNL A   1      33.962  25.122  22.515  1.00  0.00     0.144 C 
ATOM     11  C   UNL A   1      33.931  25.270  25.003  1.00  0.00     0.158 C 
ATOM     12  C   UNL A   1      32.445  25.396  22.499  1.00  0.00     0.141 C 
ATOM     13  N   UNL A   1      32.110  26.226  23.661  1.00  0.00    -0.332 N 
BRANCH   9  14
ATOM     14  C   UNL A   1      35.282  23.512  23.819  1.00  0.00     0.410 C 
ATOM     15  O   UNL A   1      35.907  23.152  22.829  1.00  0.00    -0.224 OA
BRANCH  14  16
ATOM     16  O   UNL A   1      35.327  22.899  25.029  1.00  0.00    -0.444 OA
BRANCH  16  17
ATOM     17  C   UNL A   1      34.718  21.594  25.228  1.00  0.00     0.106 C 
ATOM     18  C   UNL A   1      34.254  21.592  26.692  1.00  0.00     0.056 C 
ATOM     19  C   UNL A   1      35.778  20.510  25.030  1.00  0.00     0.056 C 
ATOM     20  C   UNL A   1      33.481  21.347  24.349  1.00  0.00     0.056 C 
ENDBRANCH  16  17
ENDBRANCH  14  16
ENDBRANCH   9  14
BRANCH  13  21
ATOM     21  C   UNL A   1      31.118  27.138  23.531  1.00  0.00     0.187 A 
ATOM     22  N   UNL A   1      29.835  26.864  23.588  1.00  0.00    -0.220 NA
ATOM     23  S   UNL A   1      31.494  28.755  23.060  1.00  0.00    -0.097 S 
ATOM     24  C   UNL A   1      29.090  28.012  23.349  1.00  0.00     0.084 A 
ATOM     25  C   UNL A   1      29.833  29.162  23.082  1.00  0.00     0.056 A 
ATOM     26  C   UNL A   1      27.683  28.112  23.347  1.00  0.00     0.030 A 
ATOM     27  C   UNL A   1      29.233  30.411  22.856  1.00  0.00     0.021 A 
ATOM     28  C   UNL A   1      27.071  29.350  23.107  1.00  0.00     0.002 A 
ATOM     29  C   UNL A   1      27.840  30.486  22.875  1.00  0.00     0.002 A 
ENDBRANCH  13  21
ENDBRANCH   5   8
ENDBRANCH   3   4
ENDBRANCH   2   3
ENDBRANCH   1   2
BRANCH   1  30
ATOM     30  C   UNL A   1      31.555  30.674  26.352  1.00  0.00     0.002 C 
BRANCH  30  31
ATOM     31  C   UNL A   1      31.477  32.191  26.522  1.00  0.00     0.021 C 
BRANCH  31  32
ATOM     32  C   UNL A   1      32.616  32.789  27.339  1.00  0.00     0.116 C 
BRANCH  32  33
ATOM     33  N   UNL A   1      32.398  34.195  27.637  1.00  0.00    -0.352 N 
ATOM     34  C   UNL A   1      32.994  34.982  28.589  1.00  0.00     0.251 C 
ATOM     35  H   UNL A   1      31.726  34.646  27.075  1.00  0.00     0.163 HD
ATOM     36  O   UNL A   1      32.553  36.098  28.838  1.00  0.00    -0.269 OA
BRANCH  34  37
ATOM     37  C   UNL A   1      34.162  34.466  29.332  1.00  0.00     0.039 A 
ATOM     38  C   UNL A   1      33.957  33.846  30.567  1.00  0.00     0.014 A 
ATOM     39  C   UNL A   1      35.453  34.587  28.811  1.00  0.00     0.014 A 
ATOM     40  C   UNL A   1      35.041  33.292  31.249  1.00  0.00     0.010 A 
ATOM     41  C   UNL A   1      36.518  33.963  29.451  1.00  0.00     0.010 A 
ATOM     42  C   UNL A   1      36.324  33.313  30.679  1.00  0.00    -0.014 A 
BRANCH  42  43
ATOM     43  C   UNL A   1      37.473  32.654  31.352  1.00  0.00     0.031 A 
ATOM     44  C   UNL A   1      38.188  31.511  30.686  1.00  0.00     0.074 A 
ATOM     45  C   UNL A   1      37.834  33.048  32.588  1.00  0.00     0.049 A 
ATOM     46  N   UNL A   1      39.170  30.773  31.138  1.00  0.00    -0.248 NA
ATOM     47  C   UNL A   1      37.718  31.128  29.346  1.00  0.00     0.031 C 
ATOM     48  C   UNL A   1      37.190  34.115  33.357  1.00  0.00     0.029 A 
ATOM     49  N   UNL A   1      38.826  32.592  33.421  1.00  0.00    -0.354 N 
ATOM     50  C   UNL A   1      39.429  29.838  30.144  1.00  0.00     0.074 A 
ATOM     51  C   UNL A   1      38.460  30.060  29.092  1.00  0.00     0.031 C 
ATOM     52  C   UNL A   1      37.819  34.249  34.535  1.00  0.00     0.029 A 
ATOM     53  C   UNL A   1      38.879  33.250  34.626  1.00  0.00     0.049 A 
ATOM     54  H   UNL A   1      39.441  31.863  33.178  1.00  0.00     0.167 HD
ATOM     55  C   UNL A   1      40.401  28.896  30.102  1.00  0.00     0.037 A 
ATOM     56  C   UNL A   1      39.684  33.061  35.689  1.00  0.00     0.037 A 
ATOM     57  C   UNL A   1      41.371  28.689  31.146  1.00  0.00     0.049 A 
ATOM     58  C   UNL A   1      40.739  31.989  35.626  1.00  0.00     0.074 A 
ATOM     59  C   UNL A   1      42.428  27.797  31.176  1.00  0.00     0.029 A 
ATOM     60  N   UNL A   1      41.396  29.378  32.349  1.00  0.00    -0.354 N 
ATOM     61  N   UNL A   1      41.021  31.158  34.652  1.00  0.00    -0.248 NA
ATOM     62  C   UNL A   1      41.596  31.834  36.811  1.00  0.00     0.031 C 
ATOM     63  C   UNL A   1      43.054  27.901  32.422  1.00  0.00     0.029 A 
ATOM     64  C   UNL A   1      42.433  28.909  33.141  1.00  0.00     0.049 A 
ATOM     65  H   UNL A   1      40.771  30.095  32.604  1.00  0.00     0.167 HD
ATOM     66  C   UNL A   1      42.103  30.407  35.091  1.00  0.00     0.074 A 
ATOM     67  C   UNL A   1      42.438  30.891  36.413  1.00  0.00     0.031 C 
ATOM     68  C   UNL A   1      42.761  29.407  34.454  1.00  0.00     0.037 A 
BRANCH  55  69
ATOM     69  C   UNL A   1      40.463  28.012  28.888  1.00  0.00     0.064 A 
ATOM     70  C   UNL A   1      39.761  26.798  28.820  1.00  0.00     0.173 A 
ATOM     71  C   UNL A   1      41.204  28.402  27.761  1.00  0.00     0.173 A 
ATOM     72  F   UNL A   1      39.046  26.373  29.873  1.00  0.00    -0.203 F 
ATOM     73  C   UNL A   1      39.824  25.995  27.686  1.00  0.00     0.198 A 
ATOM     74  C   UNL A   1      41.235  27.612  26.614  1.00  0.00     0.198 A 
ATOM     75  F   UNL A   1      41.889  29.555  27.767  1.00  0.00    -0.203 F 
ATOM     76  F   UNL A   1      39.190  24.813  27.666  1.00  0.00    -0.200 F 
ATOM     77  C   UNL A   1      40.553  26.406  26.581  1.00  0.00     0.200 A 
ATOM     78  F   UNL A   1      41.926  28.020  25.541  1.00  0.00    -0.200 F 
ATOM     79  F   UNL A   1      40.605  25.635  25.484  1.00  0.00    -0.200 F 
ENDBRANCH  55  69
BRANCH  56  80
ATOM     80  C   UNL A   1      39.536  33.916  36.897  1.00  0.00     0.064 A 
ATOM     81  C   UNL A   1      38.778  33.486  37.996  1.00  0.00     0.173 A 
ATOM     82  C   UNL A   1      40.136  35.181  36.975  1.00  0.00     0.173 A 
ATOM     83  F   UNL A   1      38.168  32.292  37.963  1.00  0.00    -0.203 F 
ATOM     84  C   UNL A   1      38.605  34.299  39.115  1.00  0.00     0.198 A 
ATOM     85  C   UNL A   1      39.990  35.979  38.107  1.00  0.00     0.198 A 
ATOM     86  F   UNL A   1      40.877  35.638  35.954  1.00  0.00    -0.203 F 
ATOM     87  F   UNL A   1      37.830  33.886  40.127  1.00  0.00    -0.200 F 
ATOM     88  C   UNL A   1      39.215  35.543  39.171  1.00  0.00     0.200 A 
ATOM     89  F   UNL A   1      40.596  37.172  38.166  1.00  0.00    -0.200 F 
ATOM     90  F   UNL A   1      39.051  36.324  40.248  1.00  0.00    -0.200 F 
ENDBRANCH  56  80
BRANCH  68  91
ATOM     91  C   UNL A   1      43.941  28.797  35.158  1.00  0.00     0.064 A 
ATOM     92  C   UNL A   1      43.803  27.706  36.029  1.00  0.00     0.173 A 
ATOM     93  C   UNL A   1      45.235  29.290  34.925  1.00  0.00     0.173 A 
ATOM     94  F   UNL A   1      42.587  27.206  36.297  1.00  0.00    -0.203 F 
ATOM     95  C   UNL A   1      44.912  27.150  36.662  1.00  0.00     0.198 A 
ATOM     96  C   UNL A   1      46.345  28.709  35.531  1.00  0.00     0.198 A 
ATOM     97  F   UNL A   1      45.425  30.326  34.095  1.00  0.00    -0.203 F 
ATOM     98  F   UNL A   1      44.749  26.144  37.533  1.00  0.00    -0.200 F 
ATOM     99  C   UNL A   1      46.182  27.646  36.406  1.00  0.00     0.200 A 
ATOM    100  F   UNL A   1      47.572  29.177  35.267  1.00  0.00    -0.200 F 
ATOM    101  F   UNL A   1      47.248  27.103  37.009  1.00  0.00    -0.200 F 
ENDBRANCH  68  91
ENDBRANCH  42  43
ENDBRANCH  34  37
ENDBRANCH  32  33
ENDBRANCH  31  32
ENDBRANCH  30  31
ENDBRANCH   1  30
TORSDOF 17
ENDMDL
MODEL 3
REMARK VINA RESULT:     -12.9      1.220      4.380
REMARK SMILES CC(C)(C)OC(=O)N1CCN(c2nc3ccccc3s2)[C@H](C(=O)NCCCCCCNC(=O)c2ccc(-c3c4nc(c(-c5c(F)c(F)c(F)c(F)c5F)c5ccc([nH]5)c(-c5c(F)c(F)c(F)c(F)c5F)c5nc(c(-c6c(F)c(F)c(F)c(F)c6F)c6ccc3[nH]6)C=C5)C=C4)cc2)C1
REMARK SMILES IDX 27 1 26 2 25 3 24 4 22 5 23 6 21 8 8 9 9 10 97 11 10 12
REMARK SMILES IDX 11 13 6 14 7 15 5 16 2 17 1 18 3 19 4 20 12 21 13 22 20 23
REMARK SMILES IDX 14 24 19 25 15 26 18 27 16 28 17 29 28 30 29 31 30 32 31 33
REMARK SMILES IDX 32 34 33 36 34 37 35 38 96 39 36 40 95 41 37 42 38 43 39 44
REMARK SMILES IDX 89 45 40 46 94 47 88 48 90 49 41 50 93 51 87 52 86 53 42 55
REMARK SMILES IDX 74 56 54 57 73 58 55 59 58 60 72 61 91 62 56 63 57 64 71 66
REMARK SMILES IDX 92 67 59 68 43 69 44 70 52 71 45 72 46 73 50 74 53 75 47 76
REMARK SMILES IDX 48 77 51 78 49 79 75 80 76 81 84 82 77 83 78 84 82 85 85 86
REMARK SMILES IDX 79 87 80 88 83 89 81 90 60 91 61 92 69 93 62 94 63 95 67 96
REMARK SMILES IDX 70 97 64 98 65 99 68 100 66 101
REMARK H PARENT 24 7 31 35 90 54 58 65
REMARK Flexibility Score: inf
ROOT
ATOM      1  C   UNL A   1      32.092  29.683  27.026  1.00  0.00     0.002 C 
ENDROOT
BRANCH   1   2
ATOM      2  C   UNL A   1      32.385  28.323  26.377  1.00  0.00     0.021 C 
BRANCH   2   3
ATOM      3  C   UNL A   1      33.787  28.206  25.777  1.00  0.00     0.116 C 
BRANCH   3   4
ATOM      4  N   UNL A   1      33.716  28.276  24.331  1.00  0.00    -0.354 N 
ATOM      5  C   UNL A   1      33.582  27.253  23.434  1.00  0.00     0.244 C 
ATOM      6  O   UNL A   1      34.028  27.445  22.304  1.00  0.00    -0.273 OA
ATOM      7  H   UNL A   1      33.771  29.179  23.943  1.00  0.00     0.163 HD
BRANCH   5   8
ATOM      8  C   UNL A   1      32.938  25.939  23.900  1.00  0.00     0.193 C 
ATOM      9  N   UNL A   1      33.245  23.466  23.743  1.00  0.00    -0.304 N 
ATOM     10  C   UNL A   1      31.820  23.277  23.445  1.00  0.00     0.144 C 
ATOM     11  C   UNL A   1      33.809  24.777  23.384  1.00  0.00     0.158 C 
ATOM     12  C   UNL A   1      30.976  24.448  23.985  1.00  0.00     0.141 C 
ATOM     13  N   UNL A   1      31.536  25.701  23.467  1.00  0.00    -0.332 N 
BRANCH   9  14
ATOM     14  C   UNL A   1      33.995  22.401  24.179  1.00  0.00     0.410 C 
ATOM     15  O   UNL A   1      33.730  21.238  23.896  1.00  0.00    -0.224 OA
BRANCH  14  16
ATOM     16  O   UNL A   1      34.999  22.787  25.007  1.00  0.00    -0.444 OA
BRANCH  16  17
ATOM     17  C   UNL A   1      36.390  22.585  24.639  1.00  0.00     0.106 C 
ATOM     18  C   UNL A   1      36.711  21.147  25.073  1.00  0.00     0.056 C 
ATOM     19  C   UNL A   1      37.264  23.561  25.428  1.00  0.00     0.056 C 
ATOM     20  C   UNL A   1      36.652  22.682  23.128  1.00  0.00     0.056 C 
ENDBRANCH  16  17
ENDBRANCH  14  16
ENDBRANCH   9  14
BRANCH  13  21
ATOM     21  C   UNL A   1      30.683  26.715  23.189  1.00  0.00     0.187 A 
ATOM     22  N   UNL A   1      31.007  27.811  22.543  1.00  0.00    -0.220 NA
ATOM     23  S   UNL A   1      29.098  26.717  23.871  1.00  0.00    -0.097 S 
ATOM     24  C   UNL A   1      29.917  28.672  22.486  1.00  0.00     0.084 A 
ATOM     25  C   UNL A   1      28.764  28.219  23.126  1.00  0.00     0.056 A 
ATOM     26  C   UNL A   1      29.879  29.935  21.859  1.00  0.00     0.030 A 
ATOM     27  C   UNL A   1      27.566  28.952  23.129  1.00  0.00     0.021 A 
ATOM     28  C   UNL A   1      28.695  30.684  21.869  1.00  0.00     0.002 A 
ATOM     29  C   UNL A   1      27.551  30.192  22.488  1.00  0.00     0.002 A 
ENDBRANCH  13  21
ENDBRANCH   5   8
ENDBRANCH   3   4
ENDBRANCH   2   3
ENDBRANCH   1   2
BRANCH   1  30
ATOM     30  C   UNL A   1      31.679  30.787  26.049  1.00  0.00     0.002 C 
BRANCH  30  31
ATOM     31  C   UNL A   1      31.402  32.142  26.698  1.00  0.00     0.021 C 
BRANCH  31  32
ATOM     32  C   UNL A   1      32.626  32.799  27.324  1.00  0.00     0.116 C 
BRANCH  32  33
ATOM     33  N   UNL A   1      32.399  34.203  27.626  1.00  0.00    -0.352 N 
ATOM     34  C   UNL A   1      32.975  34.984  28.596  1.00  0.00     0.251 C 
ATOM     35  H   UNL A   1      31.739  34.658  27.054  1.00  0.00     0.163 HD
ATOM     36  O   UNL A   1      32.527  36.098  28.844  1.00  0.00    -0.269 OA
BRANCH  34  37
ATOM     37  C   UNL A   1      34.128  34.465  29.361  1.00  0.00     0.039 A 
ATOM     38  C   UNL A   1      33.900  33.868  30.602  1.00  0.00     0.014 A 
ATOM     39  C   UNL A   1      35.426  34.559  28.852  1.00  0.00     0.014 A 
ATOM     40  C   UNL A   1      34.969  33.309  31.305  1.00  0.00     0.010 A 
ATOM     41  C   UNL A   1      36.475  33.931  29.512  1.00  0.00     0.010 A 
ATOM     42  C   UNL A   1      36.259  33.303  30.748  1.00  0.00    -0.014 A 
BRANCH  42  43
ATOM     43  C   UNL A   1      37.391  32.640  31.444  1.00  0.00     0.031 A 
ATOM     44  C   UNL A   1      38.092  31.471  30.808  1.00  0.00     0.074 A 
ATOM     45  C   UNL A   1      37.748  33.053  32.675  1.00  0.00     0.049 A 
ATOM     46  N   UNL A   1      39.058  30.726  31.283  1.00  0.00    -0.248 NA
ATOM     47  C   UNL A   1      37.627  31.069  29.472  1.00  0.00     0.031 C 
ATOM     48  C   UNL A   1      37.117  34.146  33.417  1.00  0.00     0.029 A 
ATOM     49  N   UNL A   1      38.726  32.598  33.526  1.00  0.00    -0.354 N 
ATOM     50  C   UNL A   1      39.309  29.767  30.310  1.00  0.00     0.074 A 
ATOM     51  C   UNL A   1      38.353  29.984  29.246  1.00  0.00     0.031 C 
ATOM     52  C   UNL A   1      37.738  34.294  34.597  1.00  0.00     0.029 A 
ATOM     53  C   UNL A   1      38.781  33.279  34.718  1.00  0.00     0.049 A 
ATOM     54  H   UNL A   1      39.331  31.853  33.302  1.00  0.00     0.167 HD
ATOM     55  C   UNL A   1      40.266  28.809  30.296  1.00  0.00     0.037 A 
ATOM     56  C   UNL A   1      39.574  33.099  35.790  1.00  0.00     0.037 A 
ATOM     57  C   UNL A   1      41.224  28.607  31.352  1.00  0.00     0.049 A 
ATOM     58  C   UNL A   1      40.611  32.009  35.758  1.00  0.00     0.074 A 
ATOM     59  C   UNL A   1      42.266  27.698  31.409  1.00  0.00     0.029 A 
ATOM     60  N   UNL A   1      41.251  29.320  32.541  1.00  0.00    -0.354 N 
ATOM     61  N   UNL A   1      40.887  31.153  34.804  1.00  0.00    -0.248 NA
ATOM     62  C   UNL A   1      41.456  31.863  36.953  1.00  0.00     0.031 C 
ATOM     63  C   UNL A   1      42.883  27.818  32.658  1.00  0.00     0.029 A 
ATOM     64  C   UNL A   1      42.273  28.850  33.351  1.00  0.00     0.049 A 
ATOM     65  H   UNL A   1      40.636  30.052  32.776  1.00  0.00     0.167 HD
ATOM     66  C   UNL A   1      41.953  30.393  35.267  1.00  0.00     0.074 A 
ATOM     67  C   UNL A   1      42.285  30.899  36.581  1.00  0.00     0.031 C 
ATOM     68  C   UNL A   1      42.599  29.370  34.657  1.00  0.00     0.037 A 
BRANCH  55  69
ATOM     69  C   UNL A   1      40.323  27.899  29.101  1.00  0.00     0.064 A 
ATOM     70  C   UNL A   1      39.617  26.686  29.060  1.00  0.00     0.173 A 
ATOM     71  C   UNL A   1      41.063  28.262  27.964  1.00  0.00     0.173 A 
ATOM     72  F   UNL A   1      38.902  26.286  30.123  1.00  0.00    -0.203 F 
ATOM     73  C   UNL A   1      39.675  25.859  27.943  1.00  0.00     0.198 A 
ATOM     74  C   UNL A   1      41.089  27.448  26.834  1.00  0.00     0.198 A 
ATOM     75  F   UNL A   1      41.752  29.413  27.945  1.00  0.00    -0.203 F 
ATOM     76  F   UNL A   1      39.037  24.680  27.949  1.00  0.00    -0.200 F 
ATOM     77  C   UNL A   1      40.403  26.244  26.828  1.00  0.00     0.200 A 
ATOM     78  F   UNL A   1      41.780  27.831  25.752  1.00  0.00    -0.200 F 
ATOM     79  F   UNL A   1      40.451  25.450  25.748  1.00  0.00    -0.200 F 
ENDBRANCH  55  69
BRANCH  56  80
ATOM     80  C   UNL A   1      39.430  33.981  36.980  1.00  0.00     0.064 A 
ATOM     81  C   UNL A   1      40.071  35.227  37.036  1.00  0.00     0.173 A 
ATOM     82  C   UNL A   1      38.663  33.593  38.088  1.00  0.00     0.173 A 
ATOM     83  F   UNL A   1      40.831  35.635  36.009  1.00  0.00    -0.203 F 
ATOM     84  C   UNL A   1      39.970  36.040  38.163  1.00  0.00     0.198 A 
ATOM     85  C   UNL A   1      38.536  34.420  39.201  1.00  0.00     0.198 A 
ATOM     86  F   UNL A   1      38.025  32.413  38.084  1.00  0.00    -0.203 F 
ATOM     87  F   UNL A   1      40.637  37.201  38.212  1.00  0.00    -0.200 F 
ATOM     88  C   UNL A   1      39.198  35.638  39.243  1.00  0.00     0.200 A 
ATOM     89  F   UNL A   1      37.774  34.036  40.234  1.00  0.00    -0.200 F 
ATOM     90  F   UNL A   1      39.099  36.420  40.327  1.00  0.00    -0.200 F 
ENDBRANCH  56  80
BRANCH  68  91
ATOM     91  C   UNL A   1      43.763  28.755  35.382  1.00  0.00     0.064 A 
ATOM     92  C   UNL A   1      45.073  29.228  35.218  1.00  0.00     0.173 A 
ATOM     93  C   UNL A   1      43.556  27.701  36.287  1.00  0.00     0.173 A 
ATOM     94  F   UNL A   1      45.328  30.224  34.355  1.00  0.00    -0.203 F 
ATOM     95  C   UNL A   1      46.136  28.651  35.909  1.00  0.00     0.198 A 
ATOM     96  C   UNL A   1      44.614  27.151  37.002  1.00  0.00     0.198 A 
ATOM     97  F   UNL A   1      42.322  27.215  36.488  1.00  0.00    -0.203 F 
ATOM     98  F   UNL A   1      47.386  29.083  35.693  1.00  0.00    -0.200 F 
ATOM     99  C   UNL A   1      45.905  27.619  36.806  1.00  0.00     0.200 A 
ATOM    100  F   UNL A   1      44.386  26.166  37.883  1.00  0.00    -0.200 F 
ATOM    101  F   UNL A   1      46.927  27.071  37.477  1.00  0.00    -0.200 F 
ENDBRANCH  68  91
ENDBRANCH  42  43
ENDBRANCH  34  37
ENDBRANCH  32  33
ENDBRANCH  31  32
ENDBRANCH  30  31
ENDBRANCH   1  30
TORSDOF 17
ENDMDL
