MODEL 1
REMARK VINA RESULT:     -12.4      0.000      0.000
REMARK SMILES O=C(NCCCCCCNC(=O)[C@@H]1CC2(CCN(C(=O)C3(c4ccccc4F)CC3)CC2)C[NH2+]1)c1ccc(-c2c3nc(c(-c4c(F)c(F)c(F)c(F)c4F)c4ccc([nH]4)c(-c4c(F)c(F)c(F)c(F)c4F)c4nc(c(-c5c(F)c(F)c(F)c(F)c5F)c5ccc2[nH]5)C=C4)C=C3)cc1
REMARK SMILES IDX 6 1 5 2 4 3 3 4 1 5 2 6 35 8 36 9 97 10 37 11 96 12 38 13
REMARK SMILES IDX 39 14 40 15 90 16 41 17 95 18 89 19 91 20 42 21 94 22 88 23
REMARK SMILES IDX 87 24 43 26 75 27 55 28 74 29 56 30 59 31 73 32 92 33 57 34
REMARK SMILES IDX 58 35 72 37 93 38 60 39 44 40 45 41 53 42 46 43 47 44 51 45
REMARK SMILES IDX 54 46 48 47 49 48 52 49 50 50 76 51 77 52 85 53 78 54 79 55
REMARK SMILES IDX 83 56 86 57 80 58 81 59 84 60 82 61 61 62 62 63 70 64 63 65
REMARK SMILES IDX 64 66 68 67 71 68 65 69 66 70 69 71 67 72 7 73 8 74 9 75
REMARK SMILES IDX 10 76 11 77 12 79 13 80 14 81 34 82 15 83 33 84 16 87 32 88
REMARK SMILES IDX 17 89 31 90 18 91 19 92 20 93 21 94 29 95 30 96 22 97 23 98
REMARK SMILES IDX 27 99 24 100 26 101 28 102 25 103
REMARK H PARENT 3 7 91 25 59 36 10 78 34 85 34 86
REMARK Flexibility Score: inf
ROOT
ATOM      1  C   UNL A   1      34.692  34.588  28.424  1.00  0.00     0.002 C 
ENDROOT
BRANCH   1   2
ATOM      2  C   UNL A   1      33.344  35.167  28.850  1.00  0.00     0.021 C 
BRANCH   2   3
ATOM      3  C   UNL A   1      33.457  36.389  29.750  1.00  0.00     0.116 C 
BRANCH   3   4
ATOM      4  N   UNL A   1      32.464  36.367  30.811  1.00  0.00    -0.352 N 
ATOM      5  O   UNL A   1      31.440  35.553  32.651  1.00  0.00    -0.269 OA
ATOM      6  C   UNL A   1      32.457  35.631  31.967  1.00  0.00     0.251 C 
ATOM      7  H   UNL A   1      31.691  36.963  30.681  1.00  0.00     0.163 HD
BRANCH   6   8
ATOM      8  C   UNL A   1      33.680  34.915  32.376  1.00  0.00     0.039 A 
ATOM      9  C   UNL A   1      34.935  35.520  32.244  1.00  0.00     0.014 A 
ATOM     10  C   UNL A   1      33.567  33.627  32.901  1.00  0.00     0.014 A 
ATOM     11  C   UNL A   1      36.085  34.790  32.522  1.00  0.00     0.010 A 
ATOM     12  C   UNL A   1      34.719  32.926  33.258  1.00  0.00     0.010 A 
ATOM     13  C   UNL A   1      35.986  33.493  33.048  1.00  0.00    -0.014 A 
BRANCH  13  14
ATOM     14  C   UNL A   1      37.211  32.754  33.436  1.00  0.00     0.031 A 
ATOM     15  C   UNL A   1      37.919  33.063  34.721  1.00  0.00     0.074 A 
ATOM     16  C   UNL A   1      37.696  31.816  32.601  1.00  0.00     0.049 A 
ATOM     17  N   UNL A   1      39.047  32.581  35.177  1.00  0.00    -0.248 NA
ATOM     18  C   UNL A   1      37.283  34.047  35.610  1.00  0.00     0.031 C 
ATOM     19  C   UNL A   1      37.083  31.427  31.329  1.00  0.00     0.029 A 
ATOM     20  N   UNL A   1      38.812  31.026  32.689  1.00  0.00    -0.354 N 
ATOM     21  C   UNL A   1      39.267  33.218  36.391  1.00  0.00     0.074 A 
ATOM     22  C   UNL A   1      38.170  34.139  36.591  1.00  0.00     0.031 C 
ATOM     23  C   UNL A   1      37.818  30.458  30.767  1.00  0.00     0.029 A 
ATOM     24  C   UNL A   1      38.989  30.208  31.600  1.00  0.00     0.049 A 
ATOM     25  H   UNL A   1      39.427  31.042  33.458  1.00  0.00     0.167 HD
ATOM     26  C   UNL A   1      40.293  33.040  37.257  1.00  0.00     0.037 A 
ATOM     27  C   UNL A   1      39.997  29.373  31.289  1.00  0.00     0.037 A 
ATOM     28  C   UNL A   1      41.374  32.110  37.047  1.00  0.00     0.049 A 
ATOM     29  C   UNL A   1      41.151  29.233  32.236  1.00  0.00     0.074 A 
ATOM     30  C   UNL A   1      42.441  31.830  37.883  1.00  0.00     0.029 A 
ATOM     31  N   UNL A   1      41.532  31.319  35.918  1.00  0.00    -0.354 N 
ATOM     32  N   UNL A   1      41.342  29.823  33.392  1.00  0.00    -0.248 NA
ATOM     33  C   UNL A   1      42.232  28.320  31.841  1.00  0.00     0.031 C 
ATOM     34  C   UNL A   1      43.277  30.919  37.233  1.00  0.00     0.029 A 
ATOM     35  C   UNL A   1      42.696  30.574  36.023  1.00  0.00     0.049 A 
ATOM     36  H   UNL A   1      40.909  31.291  35.156  1.00  0.00     0.167 HD
ATOM     37  C   UNL A   1      42.547  29.335  33.876  1.00  0.00     0.074 A 
ATOM     38  C   UNL A   1      43.045  28.399  32.889  1.00  0.00     0.031 C 
ATOM     39  C   UNL A   1      43.175  29.635  35.037  1.00  0.00     0.037 A 
BRANCH  26  40
ATOM     40  C   UNL A   1      40.316  33.877  38.504  1.00  0.00     0.064 A 
ATOM     41  C   UNL A   1      41.045  35.077  38.538  1.00  0.00     0.173 A 
ATOM     42  C   UNL A   1      39.672  33.471  39.682  1.00  0.00     0.173 A 
ATOM     43  F   UNL A   1      41.688  35.510  37.442  1.00  0.00    -0.203 F 
ATOM     44  C   UNL A   1      41.136  35.831  39.705  1.00  0.00     0.198 A 
ATOM     45  C   UNL A   1      39.738  34.244  40.839  1.00  0.00     0.198 A 
ATOM     46  F   UNL A   1      38.954  32.338  39.702  1.00  0.00    -0.203 F 
ATOM     47  F   UNL A   1      41.866  36.955  39.720  1.00  0.00    -0.200 F 
ATOM     48  C   UNL A   1      40.478  35.418  40.852  1.00  0.00     0.200 A 
ATOM     49  F   UNL A   1      39.079  33.857  41.940  1.00  0.00    -0.200 F 
ATOM     50  F   UNL A   1      40.551  36.153  41.971  1.00  0.00    -0.200 F 
ENDBRANCH  26  40
BRANCH  27  51
ATOM     51  C   UNL A   1      39.928  28.608  30.018  1.00  0.00     0.064 A 
ATOM     52  C   UNL A   1      39.365  27.324  29.969  1.00  0.00     0.173 A 
ATOM     53  C   UNL A   1      40.506  29.113  28.846  1.00  0.00     0.173 A 
ATOM     54  F   UNL A   1      38.809  26.792  31.069  1.00  0.00    -0.203 F 
ATOM     55  C   UNL A   1      39.414  26.560  28.806  1.00  0.00     0.198 A 
ATOM     56  C   UNL A   1      40.530  28.359  27.675  1.00  0.00     0.198 A 
ATOM     57  F   UNL A   1      41.043  30.341  28.840  1.00  0.00    -0.203 F 
ATOM     58  F   UNL A   1      38.919  25.315  28.803  1.00  0.00    -0.200 F 
ATOM     59  C   UNL A   1      39.997  27.078  27.660  1.00  0.00     0.200 A 
ATOM     60  F   UNL A   1      41.078  28.868  26.564  1.00  0.00    -0.200 F 
ATOM     61  F   UNL A   1      40.049  26.342  26.541  1.00  0.00    -0.200 F 
ENDBRANCH  27  51
BRANCH  39  62
ATOM     62  C   UNL A   1      44.461  28.925  35.346  1.00  0.00     0.064 A 
ATOM     63  C   UNL A   1      45.678  29.436  34.867  1.00  0.00     0.173 A 
ATOM     64  C   UNL A   1      44.481  27.689  36.005  1.00  0.00     0.173 A 
ATOM     65  F   UNL A   1      45.710  30.613  34.224  1.00  0.00    -0.203 F 
ATOM     66  C   UNL A   1      46.862  28.718  35.007  1.00  0.00     0.198 A 
ATOM     67  C   UNL A   1      45.672  26.987  36.169  1.00  0.00     0.198 A 
ATOM     68  F   UNL A   1      43.347  27.167  36.494  1.00  0.00    -0.203 F 
ATOM     69  F   UNL A   1      48.001  29.201  34.494  1.00  0.00    -0.200 F 
ATOM     70  C   UNL A   1      46.858  27.494  35.656  1.00  0.00     0.200 A 
ATOM     71  F   UNL A   1      45.672  25.813  36.817  1.00  0.00    -0.200 F 
ATOM     72  F   UNL A   1      47.996  26.800  35.787  1.00  0.00    -0.200 F 
ENDBRANCH  39  62
ENDBRANCH  13  14
ENDBRANCH   6   8
ENDBRANCH   3   4
ENDBRANCH   2   3
ENDBRANCH   1   2
BRANCH   1  73
ATOM     73  C   UNL A   1      34.950  33.158  28.913  1.00  0.00     0.002 C 
BRANCH  73  74
ATOM     74  C   UNL A   1      35.887  32.335  28.015  1.00  0.00     0.021 C 
BRANCH  74  75
ATOM     75  C   UNL A   1      35.325  30.961  27.641  1.00  0.00     0.116 C 
BRANCH  75  76
ATOM     76  N   UNL A   1      34.068  31.126  26.948  1.00  0.00    -0.351 N 
ATOM     77  C   UNL A   1      33.179  30.145  26.624  1.00  0.00     0.278 C 
ATOM     78  H   UNL A   1      33.829  32.043  26.681  1.00  0.00     0.163 HD
ATOM     79  O   UNL A   1      32.441  30.343  25.662  1.00  0.00    -0.268 OA
BRANCH  77  80
ATOM     80  C   UNL A   1      33.120  28.893  27.522  1.00  0.00     0.273 C 
ATOM     81  C   UNL A   1      33.542  27.625  26.812  1.00  0.00     0.088 C 
ATOM     82  N   UNL A   1      31.726  28.599  27.911  1.00  0.00    -0.336 N 
ATOM     83  C   UNL A   1      32.267  27.092  26.124  1.00  0.00     0.029 C 
ATOM     84  C   UNL A   1      31.127  27.901  26.765  1.00  0.00     0.268 C 
ATOM     85  H   UNL A   1      31.219  29.465  28.103  1.00  0.00     0.346 HD
ATOM     86  H   UNL A   1      31.684  28.032  28.758  1.00  0.00     0.346 HD
ATOM     87  C   UNL A   1      32.112  25.581  26.378  1.00  0.00     0.034 C 
ATOM     88  C   UNL A   1      32.275  27.287  24.596  1.00  0.00     0.034 C 
ATOM     89  C   UNL A   1      33.197  24.761  25.670  1.00  0.00     0.120 C 
ATOM     90  C   UNL A   1      33.409  26.510  23.947  1.00  0.00     0.120 C 
ATOM     91  N   UNL A   1      33.289  25.081  24.248  1.00  0.00    -0.342 N 
ATOM     92  C   UNL A   1      33.314  24.226  23.143  1.00  0.00     0.233 C 
ATOM     93  O   UNL A   1      33.318  24.724  22.013  1.00  0.00    -0.274 OA
BRANCH  92  94
ATOM     94  C   UNL A   1      33.333  22.700  23.200  1.00  0.00     0.077 C 
ATOM     95  C   UNL A   1      32.168  21.720  23.293  1.00  0.00     0.023 C 
ATOM     96  C   UNL A   1      32.785  21.996  21.959  1.00  0.00     0.023 C 
BRANCH  94  97
ATOM     97  C   UNL A   1      34.613  22.170  23.880  1.00  0.00     0.003 A 
ATOM     98  C   UNL A   1      34.540  21.401  25.057  1.00  0.00     0.008 A 
ATOM     99  C   UNL A   1      35.890  22.550  23.440  1.00  0.00     0.127 A 
ATOM    100  C   UNL A   1      35.691  21.056  25.770  1.00  0.00     0.001 A 
ATOM    101  C   UNL A   1      37.040  22.231  24.156  1.00  0.00     0.039 A 
ATOM    102  F   UNL A   1      36.017  23.280  22.321  1.00  0.00    -0.207 F 
ATOM    103  C   UNL A   1      36.941  21.486  25.328  1.00  0.00     0.003 A 
ENDBRANCH  94  97
ENDBRANCH  92  94
ENDBRANCH  77  80
ENDBRANCH  75  76
ENDBRANCH  74  75
ENDBRANCH  73  74
ENDBRANCH   1  73
TORSDOF 15
ENDMDL
MODEL 2
REMARK VINA RESULT:     -12.1      6.531     12.316
REMARK SMILES O=C(NCCCCCCNC(=O)[C@@H]1CC2(CCN(C(=O)C3(c4ccccc4F)CC3)CC2)C[NH2+]1)c1ccc(-c2c3nc(c(-c4c(F)c(F)c(F)c(F)c4F)c4ccc([nH]4)c(-c4c(F)c(F)c(F)c(F)c4F)c4nc(c(-c5c(F)c(F)c(F)c(F)c5F)c5ccc2[nH]5)C=C4)C=C3)cc1
REMARK SMILES IDX 6 1 5 2 4 3 3 4 1 5 2 6 35 8 36 9 97 10 37 11 96 12 38 13
REMARK SMILES IDX 39 14 40 15 90 16 41 17 95 18 89 19 91 20 42 21 94 22 88 23
REMARK SMILES IDX 87 24 43 26 75 27 55 28 74 29 56 30 59 31 73 32 92 33 57 34
REMARK SMILES IDX 58 35 72 37 93 38 60 39 44 40 45 41 53 42 46 43 47 44 51 45
REMARK SMILES IDX 54 46 48 47 49 48 52 49 50 50 76 51 77 52 85 53 78 54 79 55
REMARK SMILES IDX 83 56 86 57 80 58 81 59 84 60 82 61 61 62 62 63 70 64 63 65
REMARK SMILES IDX 64 66 68 67 71 68 65 69 66 70 69 71 67 72 7 73 8 74 9 75
REMARK SMILES IDX 10 76 11 77 12 79 13 80 14 81 34 82 15 83 33 84 16 87 32 88
REMARK SMILES IDX 17 89 31 90 18 91 19 92 20 93 21 94 29 95 30 96 22 97 23 98
REMARK SMILES IDX 27 99 24 100 26 101 28 102 25 103
REMARK H PARENT 3 7 91 25 59 36 10 78 34 85 34 86
REMARK Flexibility Score: inf
ROOT
ATOM      1  C   UNL A   1      41.874  19.933  27.709  1.00  0.00     0.002 C 
ENDROOT
BRANCH   1   2
ATOM      2  C   UNL A   1      42.666  18.944  26.854  1.00  0.00     0.021 C 
BRANCH   2   3
ATOM      3  C   UNL A   1      42.630  19.255  25.364  1.00  0.00     0.116 C 
BRANCH   3   4
ATOM      4  N   UNL A   1      43.813  18.755  24.684  1.00  0.00    -0.352 N 
ATOM      5  O   UNL A   1      45.716  18.921  23.479  1.00  0.00    -0.269 OA
ATOM      6  C   UNL A   1      44.906  19.450  24.235  1.00  0.00     0.251 C 
ATOM      7  H   UNL A   1      43.833  17.783  24.524  1.00  0.00     0.163 HD
BRANCH   6   8
ATOM      8  C   UNL A   1      45.092  20.853  24.653  1.00  0.00     0.039 A 
ATOM      9  C   UNL A   1      45.607  21.154  25.918  1.00  0.00     0.014 A 
ATOM     10  C   UNL A   1      44.750  21.875  23.766  1.00  0.00     0.014 A 
ATOM     11  C   UNL A   1      45.666  22.477  26.342  1.00  0.00     0.010 A 
ATOM     12  C   UNL A   1      44.888  23.205  24.164  1.00  0.00     0.010 A 
ATOM     13  C   UNL A   1      45.323  23.515  25.462  1.00  0.00    -0.014 A 
BRANCH  13  14
ATOM     14  C   UNL A   1      45.479  24.927  25.882  1.00  0.00     0.031 A 
ATOM     15  C   UNL A   1      46.813  25.609  25.801  1.00  0.00     0.074 A 
ATOM     16  C   UNL A   1      44.409  25.584  26.366  1.00  0.00     0.049 A 
ATOM     17  N   UNL A   1      47.153  26.806  26.206  1.00  0.00    -0.248 NA
ATOM     18  C   UNL A   1      47.912  24.846  25.192  1.00  0.00     0.031 C 
ATOM     19  C   UNL A   1      43.061  25.022  26.481  1.00  0.00     0.029 A 
ATOM     20  N   UNL A   1      44.281  26.858  26.855  1.00  0.00    -0.354 N 
ATOM     21  C   UNL A   1      48.506  26.931  25.923  1.00  0.00     0.074 A 
ATOM     22  C   UNL A   1      48.933  25.680  25.334  1.00  0.00     0.031 C 
ATOM     23  C   UNL A   1      42.240  25.952  26.986  1.00  0.00     0.029 A 
ATOM     24  C   UNL A   1      43.015  27.149  27.297  1.00  0.00     0.049 A 
ATOM     25  H   UNL A   1      45.026  27.501  26.887  1.00  0.00     0.167 HD
ATOM     26  C   UNL A   1      49.311  28.000  26.134  1.00  0.00     0.037 A 
ATOM     27  C   UNL A   1      42.533  28.244  27.913  1.00  0.00     0.037 A 
ATOM     28  C   UNL A   1      48.867  29.242  26.712  1.00  0.00     0.049 A 
ATOM     29  C   UNL A   1      43.457  29.394  28.188  1.00  0.00     0.074 A 
ATOM     30  C   UNL A   1      49.598  30.397  26.933  1.00  0.00     0.029 A 
ATOM     31  N   UNL A   1      47.581  29.489  27.172  1.00  0.00    -0.354 N 
ATOM     32  N   UNL A   1      44.730  29.513  27.898  1.00  0.00    -0.248 NA
ATOM     33  C   UNL A   1      42.885  30.559  28.876  1.00  0.00     0.031 C 
ATOM     34  C   UNL A   1      48.773  31.318  27.584  1.00  0.00     0.029 A 
ATOM     35  C   UNL A   1      47.507  30.767  27.705  1.00  0.00     0.049 A 
ATOM     36  H   UNL A   1      46.833  28.851  27.127  1.00  0.00     0.167 HD
ATOM     37  C   UNL A   1      45.107  30.773  28.342  1.00  0.00     0.074 A 
ATOM     38  C   UNL A   1      43.927  31.381  28.922  1.00  0.00     0.031 C 
ATOM     39  C   UNL A   1      46.322  31.367  28.268  1.00  0.00     0.037 A 
BRANCH  26  40
ATOM     40  C   UNL A   1      50.760  27.874  25.760  1.00  0.00     0.064 A 
ATOM     41  C   UNL A   1      51.161  28.019  24.421  1.00  0.00     0.173 A 
ATOM     42  C   UNL A   1      51.745  27.551  26.705  1.00  0.00     0.173 A 
ATOM     43  F   UNL A   1      50.260  28.320  23.474  1.00  0.00    -0.203 F 
ATOM     44  C   UNL A   1      52.489  27.836  24.044  1.00  0.00     0.198 A 
ATOM     45  C   UNL A   1      53.078  27.400  26.329  1.00  0.00     0.198 A 
ATOM     46  F   UNL A   1      51.419  27.409  27.998  1.00  0.00    -0.203 F 
ATOM     47  F   UNL A   1      52.839  27.948  22.756  1.00  0.00    -0.200 F 
ATOM     48  C   UNL A   1      53.447  27.533  24.998  1.00  0.00     0.200 A 
ATOM     49  F   UNL A   1      54.007  27.134  27.257  1.00  0.00    -0.200 F 
ATOM     50  F   UNL A   1      54.728  27.375  24.637  1.00  0.00    -0.200 F 
ENDBRANCH  26  40
BRANCH  27  51
ATOM     51  C   UNL A   1      41.099  28.281  28.293  1.00  0.00     0.064 A 
ATOM     52  C   UNL A   1      40.139  28.878  27.461  1.00  0.00     0.173 A 
ATOM     53  C   UNL A   1      40.676  27.799  29.538  1.00  0.00     0.173 A 
ATOM     54  F   UNL A   1      40.498  29.365  26.263  1.00  0.00    -0.203 F 
ATOM     55  C   UNL A   1      38.817  29.023  27.876  1.00  0.00     0.198 A 
ATOM     56  C   UNL A   1      39.347  27.920  29.941  1.00  0.00     0.198 A 
ATOM     57  F   UNL A   1      41.554  27.208  30.361  1.00  0.00    -0.203 F 
ATOM     58  F   UNL A   1      37.934  29.647  27.085  1.00  0.00    -0.200 F 
ATOM     59  C   UNL A   1      38.423  28.544  29.115  1.00  0.00     0.200 A 
ATOM     60  F   UNL A   1      38.964  27.440  31.131  1.00  0.00    -0.200 F 
ATOM     61  F   UNL A   1      37.152  28.687  29.516  1.00  0.00    -0.200 F 
ENDBRANCH  27  51
BRANCH  39  62
ATOM     62  C   UNL A   1      46.453  32.768  28.789  1.00  0.00     0.064 A 
ATOM     63  C   UNL A   1      46.728  32.990  30.148  1.00  0.00     0.173 A 
ATOM     64  C   UNL A   1      46.191  33.882  27.981  1.00  0.00     0.173 A 
ATOM     65  F   UNL A   1      46.979  31.954  30.964  1.00  0.00    -0.203 F 
ATOM     66  C   UNL A   1      46.702  34.273  30.684  1.00  0.00     0.198 A 
ATOM     67  C   UNL A   1      46.194  35.168  28.516  1.00  0.00     0.198 A 
ATOM     68  F   UNL A   1      45.938  33.724  26.673  1.00  0.00    -0.203 F 
ATOM     69  F   UNL A   1      46.914  34.454  31.995  1.00  0.00    -0.200 F 
ATOM     70  C   UNL A   1      46.434  35.361  29.869  1.00  0.00     0.200 A 
ATOM     71  F   UNL A   1      45.957  36.222  27.722  1.00  0.00    -0.200 F 
ATOM     72  F   UNL A   1      46.403  36.596  30.387  1.00  0.00    -0.200 F 
ENDBRANCH  39  62
ENDBRANCH  13  14
ENDBRANCH   6   8
ENDBRANCH   3   4
ENDBRANCH   2   3
ENDBRANCH   1   2
BRANCH   1  73
ATOM     73  C   UNL A   1      42.163  21.407  27.402  1.00  0.00     0.002 C 
BRANCH  73  74
ATOM     74  C   UNL A   1      41.374  21.979  26.213  1.00  0.00     0.021 C 
BRANCH  74  75
ATOM     75  C   UNL A   1      39.908  21.538  26.182  1.00  0.00     0.116 C 
BRANCH  75  76
ATOM     76  N   UNL A   1      39.081  22.571  26.761  1.00  0.00    -0.351 N 
ATOM     77  C   UNL A   1      38.121  23.300  26.126  1.00  0.00     0.278 C 
ATOM     78  H   UNL A   1      39.226  22.769  27.714  1.00  0.00     0.163 HD
ATOM     79  O   UNL A   1      37.859  24.411  26.579  1.00  0.00    -0.268 OA
BRANCH  77  80
ATOM     80  C   UNL A   1      37.391  22.654  24.931  1.00  0.00     0.273 C 
ATOM     81  C   UNL A   1      36.248  23.494  24.402  1.00  0.00     0.088 C 
ATOM     82  N   UNL A   1      36.714  21.409  25.347  1.00  0.00    -0.336 N 
ATOM     83  C   UNL A   1      35.021  23.107  25.255  1.00  0.00     0.029 C 
ATOM     84  C   UNL A   1      35.459  21.828  25.987  1.00  0.00     0.268 C 
ATOM     85  H   UNL A   1      37.294  20.892  26.008  1.00  0.00     0.346 HD
ATOM     86  H   UNL A   1      36.541  20.793  24.552  1.00  0.00     0.346 HD
ATOM     87  C   UNL A   1      33.796  22.863  24.354  1.00  0.00     0.034 C 
ATOM     88  C   UNL A   1      34.618  24.197  26.266  1.00  0.00     0.034 C 
ATOM     89  C   UNL A   1      33.301  24.152  23.689  1.00  0.00     0.120 C 
ATOM     90  C   UNL A   1      34.200  25.477  25.561  1.00  0.00     0.120 C 
ATOM     91  N   UNL A   1      33.075  25.221  24.657  1.00  0.00    -0.342 N 
ATOM     92  C   UNL A   1      31.965  26.052  24.823  1.00  0.00     0.233 C 
ATOM     93  O   UNL A   1      31.959  26.846  25.769  1.00  0.00    -0.274 OA
BRANCH  92  94
ATOM     94  C   UNL A   1      30.726  26.070  23.931  1.00  0.00     0.077 C 
ATOM     95  C   UNL A   1      30.145  24.963  23.057  1.00  0.00     0.023 C 
ATOM     96  C   UNL A   1      29.563  25.203  24.413  1.00  0.00     0.023 C 
BRANCH  94  97
ATOM     97  C   UNL A   1      30.449  27.479  23.367  1.00  0.00     0.003 A 
ATOM     98  C   UNL A   1      29.163  28.047  23.439  1.00  0.00     0.008 A 
ATOM     99  C   UNL A   1      31.421  28.183  22.639  1.00  0.00     0.127 A 
ATOM    100  C   UNL A   1      28.862  29.247  22.790  1.00  0.00     0.001 A 
ATOM    101  C   UNL A   1      31.124  29.367  21.969  1.00  0.00     0.039 A 
ATOM    102  F   UNL A   1      32.665  27.690  22.542  1.00  0.00    -0.207 F 
ATOM    103  C   UNL A   1      29.839  29.898  22.040  1.00  0.00     0.003 A 
ENDBRANCH  94  97
ENDBRANCH  92  94
ENDBRANCH  77  80
ENDBRANCH  75  76
ENDBRANCH  74  75
ENDBRANCH  73  74
ENDBRANCH   1  73
TORSDOF 15
ENDMDL
MODEL 3
REMARK VINA RESULT:     -12.0     10.372     15.013
REMARK SMILES O=C(NCCCCCCNC(=O)[C@@H]1CC2(CCN(C(=O)C3(c4ccccc4F)CC3)CC2)C[NH2+]1)c1ccc(-c2c3nc(c(-c4c(F)c(F)c(F)c(F)c4F)c4ccc([nH]4)c(-c4c(F)c(F)c(F)c(F)c4F)c4nc(c(-c5c(F)c(F)c(F)c(F)c5F)c5ccc2[nH]5)C=C4)C=C3)cc1
REMARK SMILES IDX 6 1 5 2 4 3 3 4 1 5 2 6 35 8 36 9 97 10 37 11 96 12 38 13
REMARK SMILES IDX 39 14 40 15 90 16 41 17 95 18 89 19 91 20 42 21 94 22 88 23
REMARK SMILES IDX 87 24 43 26 75 27 55 28 74 29 56 30 59 31 73 32 92 33 57 34
REMARK SMILES IDX 58 35 72 37 93 38 60 39 44 40 45 41 53 42 46 43 47 44 51 45
REMARK SMILES IDX 54 46 48 47 49 48 52 49 50 50 76 51 77 52 85 53 78 54 79 55
REMARK SMILES IDX 83 56 86 57 80 58 81 59 84 60 82 61 61 62 62 63 70 64 63 65
REMARK SMILES IDX 64 66 68 67 71 68 65 69 66 70 69 71 67 72 7 73 8 74 9 75
REMARK SMILES IDX 10 76 11 77 12 79 13 80 14 81 34 82 15 83 33 84 16 87 32 88
REMARK SMILES IDX 17 89 31 90 18 91 19 92 20 93 21 94 29 95 30 96 22 97 23 98
REMARK SMILES IDX 27 99 24 100 26 101 28 102 25 103
REMARK H PARENT 3 7 91 25 59 36 10 78 34 85 34 86
REMARK Flexibility Score: inf
ROOT
ATOM      1  C   UNL A   1      43.209  37.720  28.508  1.00  0.00     0.002 C 
ENDROOT
BRANCH   1   2
ATOM      2  C   UNL A   1      43.764  38.542  29.671  1.00  0.00     0.021 C 
BRANCH   2   3
ATOM      3  C   UNL A   1      44.731  37.774  30.560  1.00  0.00     0.116 C 
BRANCH   3   4
ATOM      4  N   UNL A   1      46.093  37.844  30.057  1.00  0.00    -0.352 N 
ATOM      5  O   UNL A   1      48.088  37.013  29.406  1.00  0.00    -0.269 OA
ATOM      6  C   UNL A   1      46.886  36.834  29.579  1.00  0.00     0.251 C 
ATOM      7  H   UNL A   1      46.501  38.740  30.060  1.00  0.00     0.163 HD
BRANCH   6   8
ATOM      8  C   UNL A   1      46.286  35.518  29.291  1.00  0.00     0.039 A 
ATOM      9  C   UNL A   1      45.649  35.279  28.069  1.00  0.00     0.014 A 
ATOM     10  C   UNL A   1      46.367  34.511  30.255  1.00  0.00     0.014 A 
ATOM     11  C   UNL A   1      44.986  34.075  27.859  1.00  0.00     0.010 A 
ATOM     12  C   UNL A   1      45.772  33.274  30.008  1.00  0.00     0.010 A 
ATOM     13  C   UNL A   1      45.057  33.056  28.820  1.00  0.00    -0.014 A 
BRANCH  13  14
ATOM     14  C   UNL A   1      44.432  31.739  28.552  1.00  0.00     0.031 A 
ATOM     15  C   UNL A   1      43.086  31.399  29.119  1.00  0.00     0.074 A 
ATOM     16  C   UNL A   1      45.105  30.838  27.813  1.00  0.00     0.049 A 
ATOM     17  N   UNL A   1      42.429  30.269  29.064  1.00  0.00    -0.248 NA
ATOM     18  C   UNL A   1      42.386  32.465  29.853  1.00  0.00     0.031 C 
ATOM     19  C   UNL A   1      46.417  31.064  27.203  1.00  0.00     0.029 A 
ATOM     20  N   UNL A   1      44.787  29.554  27.452  1.00  0.00    -0.354 N 
ATOM     21  C   UNL A   1      41.253  30.478  29.771  1.00  0.00     0.074 A 
ATOM     22  C   UNL A   1      41.295  31.836  30.268  1.00  0.00     0.031 C 
ATOM     23  C   UNL A   1      46.782  29.967  26.527  1.00  0.00     0.029 A 
ATOM     24  C   UNL A   1      45.766  28.936  26.714  1.00  0.00     0.049 A 
ATOM     25  H   UNL A   1      43.939  29.117  27.699  1.00  0.00     0.167 HD
ATOM     26  C   UNL A   1      40.233  29.612  29.976  1.00  0.00     0.037 A 
ATOM     27  C   UNL A   1      45.854  27.672  26.263  1.00  0.00     0.037 A 
ATOM     28  C   UNL A   1      40.202  28.266  29.465  1.00  0.00     0.049 A 
ATOM     29  C   UNL A   1      44.737  26.712  26.551  1.00  0.00     0.074 A 
ATOM     30  C   UNL A   1      39.196  27.322  29.588  1.00  0.00     0.029 A 
ATOM     31  N   UNL A   1      41.226  27.667  28.743  1.00  0.00    -0.354 N 
ATOM     32  N   UNL A   1      43.619  26.925  27.202  1.00  0.00    -0.248 NA
ATOM     33  C   UNL A   1      44.890  25.340  26.050  1.00  0.00     0.031 C 
ATOM     34  C   UNL A   1      39.638  26.135  28.998  1.00  0.00     0.029 A 
ATOM     35  C   UNL A   1      40.888  26.357  28.442  1.00  0.00     0.049 A 
ATOM     36  H   UNL A   1      42.066  28.108  28.484  1.00  0.00     0.167 HD
ATOM     37  C   UNL A   1      42.923  25.725  27.167  1.00  0.00     0.074 A 
ATOM     38  C   UNL A   1      43.744  24.787  26.430  1.00  0.00     0.031 C 
ATOM     39  C   UNL A   1      41.710  25.436  27.696  1.00  0.00     0.037 A 
BRANCH  26  40
ATOM     40  C   UNL A   1      39.070  30.078  30.806  1.00  0.00     0.064 A 
ATOM     41  C   UNL A   1      38.007  30.774  30.208  1.00  0.00     0.173 A 
ATOM     42  C   UNL A   1      39.030  29.894  32.196  1.00  0.00     0.173 A 
ATOM     43  F   UNL A   1      37.997  30.987  28.883  1.00  0.00    -0.203 F 
ATOM     44  C   UNL A   1      36.956  31.276  30.971  1.00  0.00     0.198 A 
ATOM     45  C   UNL A   1      37.961  30.369  32.952  1.00  0.00     0.198 A 
ATOM     46  F   UNL A   1      40.015  29.227  32.817  1.00  0.00    -0.203 F 
ATOM     47  F   UNL A   1      35.971  31.966  30.380  1.00  0.00    -0.200 F 
ATOM     48  C   UNL A   1      36.930  31.067  32.340  1.00  0.00     0.200 A 
ATOM     49  F   UNL A   1      37.924  30.143  34.272  1.00  0.00    -0.200 F 
ATOM     50  F   UNL A   1      35.909  31.535  33.072  1.00  0.00    -0.200 F 
ENDBRANCH  26  40
BRANCH  27  51
ATOM     51  C   UNL A   1      47.054  27.269  25.486  1.00  0.00     0.064 A 
ATOM     52  C   UNL A   1      48.139  26.627  26.101  1.00  0.00     0.173 A 
ATOM     53  C   UNL A   1      47.173  27.602  24.130  1.00  0.00     0.173 A 
ATOM     54  F   UNL A   1      48.077  26.299  27.400  1.00  0.00    -0.203 F 
ATOM     55  C   UNL A   1      49.313  26.365  25.397  1.00  0.00     0.198 A 
ATOM     56  C   UNL A   1      48.337  27.314  23.420  1.00  0.00     0.198 A 
ATOM     57  F   UNL A   1      46.156  28.203  23.497  1.00  0.00    -0.203 F 
ATOM     58  F   UNL A   1      50.355  25.802  26.023  1.00  0.00    -0.200 F 
ATOM     59  C   UNL A   1      49.410  26.708  24.058  1.00  0.00     0.200 A 
ATOM     60  F   UNL A   1      48.422  27.631  22.122  1.00  0.00    -0.200 F 
ATOM     61  F   UNL A   1      50.540  26.460  23.382  1.00  0.00    -0.200 F 
ENDBRANCH  27  51
BRANCH  39  62
ATOM     62  C   UNL A   1      41.156  24.059  27.475  1.00  0.00     0.064 A 
ATOM     63  C   UNL A   1      41.746  22.954  28.110  1.00  0.00     0.173 A 
ATOM     64  C   UNL A   1      40.130  23.816  26.552  1.00  0.00     0.173 A 
ATOM     65  F   UNL A   1      42.736  23.134  28.997  1.00  0.00    -0.203 F 
ATOM     66  C   UNL A   1      41.351  21.655  27.803  1.00  0.00     0.198 A 
ATOM     67  C   UNL A   1      39.718  22.517  26.268  1.00  0.00     0.198 A 
ATOM     68  F   UNL A   1      39.525  24.839  25.930  1.00  0.00    -0.203 F 
ATOM     69  F   UNL A   1      41.966  20.615  28.382  1.00  0.00    -0.200 F 
ATOM     70  C   UNL A   1      40.339  21.438  26.882  1.00  0.00     0.200 A 
ATOM     71  F   UNL A   1      38.724  22.307  25.393  1.00  0.00    -0.200 F 
ATOM     72  F   UNL A   1      39.962  20.187  26.582  1.00  0.00    -0.200 F 
ENDBRANCH  39  62
ENDBRANCH  13  14
ENDBRANCH   6   8
ENDBRANCH   3   4
ENDBRANCH   2   3
ENDBRANCH   1   2
BRANCH   1  73
ATOM     73  C   UNL A   1      43.226  38.444  27.157  1.00  0.00     0.002 C 
BRANCH  73  74
ATOM     74  C   UNL A   1      43.967  39.791  27.163  1.00  0.00     0.021 C 
BRANCH  74  75
ATOM     75  C   UNL A   1      43.077  40.981  26.793  1.00  0.00     0.116 C 
BRANCH  75  76
ATOM     76  N   UNL A   1      42.753  40.922  25.387  1.00  0.00    -0.351 N 
ATOM     77  C   UNL A   1      42.785  41.954  24.497  1.00  0.00     0.278 C 
ATOM     78  H   UNL A   1      42.480  40.044  25.034  1.00  0.00     0.163 HD
ATOM     79  O   UNL A   1      42.055  41.877  23.512  1.00  0.00    -0.268 OA
BRANCH  77  80
ATOM     80  C   UNL A   1      43.777  43.105  24.757  1.00  0.00     0.273 C 
ATOM     81  C   UNL A   1      43.882  44.078  23.601  1.00  0.00     0.088 C 
ATOM     82  N   UNL A   1      45.156  42.587  24.871  1.00  0.00    -0.336 N 
ATOM     83  C   UNL A   1      44.947  43.482  22.655  1.00  0.00     0.029 C 
ATOM     84  C   UNL A   1      45.627  42.387  23.494  1.00  0.00     0.268 C 
ATOM     85  H   UNL A   1      45.162  41.703  25.381  1.00  0.00     0.346 HD
ATOM     86  H   UNL A   1      45.757  43.233  25.383  1.00  0.00     0.346 HD
ATOM     87  C   UNL A   1      45.943  44.571  22.215  1.00  0.00     0.034 C 
ATOM     88  C   UNL A   1      44.348  42.883  21.368  1.00  0.00     0.034 C 
ATOM     89  C   UNL A   1      45.291  45.620  21.307  1.00  0.00     0.120 C 
ATOM     90  C   UNL A   1      43.653  43.948  20.535  1.00  0.00     0.120 C 
ATOM     91  N   UNL A   1      44.595  45.013  20.176  1.00  0.00    -0.342 N 
ATOM     92  C   UNL A   1      44.669  45.321  18.816  1.00  0.00     0.233 C 
ATOM     93  O   UNL A   1      44.042  44.617  18.017  1.00  0.00    -0.274 OA
BRANCH  92  94
ATOM     94  C   UNL A   1      45.474  46.467  18.206  1.00  0.00     0.077 C 
ATOM     95  C   UNL A   1      46.984  46.660  18.136  1.00  0.00     0.023 C 
ATOM     96  C   UNL A   1      46.264  46.110  16.947  1.00  0.00     0.023 C 
BRANCH  94  97
ATOM     97  C   UNL A   1      44.705  47.803  18.275  1.00  0.00     0.003 A 
ATOM     98  C   UNL A   1      44.964  48.733  19.300  1.00  0.00     0.008 A 
ATOM     99  C   UNL A   1      43.629  48.078  17.417  1.00  0.00     0.127 A 
ATOM    100  C   UNL A   1      44.165  49.866  19.470  1.00  0.00     0.001 A 
ATOM    101  C   UNL A   1      42.814  49.192  17.593  1.00  0.00     0.039 A 
ATOM    102  F   UNL A   1      43.341  47.227  16.420  1.00  0.00    -0.207 F 
ATOM    103  C   UNL A   1      43.079  50.087  18.626  1.00  0.00     0.003 A 
ENDBRANCH  94  97
ENDBRANCH  92  94
ENDBRANCH  77  80
ENDBRANCH  75  76
ENDBRANCH  74  75
ENDBRANCH  73  74
ENDBRANCH   1  73
TORSDOF 15
ENDMDL
