MODEL 1
REMARK VINA RESULT:     -12.2      0.000      0.000
REMARK SMILES CC[C@](C)(NC(=O)N[C@@H]1C=CS(=O)(=O)C1)C(=O)NCCCCCCNC(=O)c1ccc(-c2c3nc(c(-c4c(F)c(F)c(F)c(F)c4F)c4ccc([nH]4)c(-c4c(F)c(F)c(F)c(F)c4F)c4nc(c(-c5c(F)c(F)c(F)c(F)c5F)c5ccc2[nH]5)C=C4)C=C3)cc1
REMARK SMILES IDX 21 1 20 2 19 3 18 4 16 5 17 6 3 8 4 9 2 10 1 11 5 12 6 13
REMARK SMILES IDX 7 15 8 16 9 18 10 19 15 20 11 21 12 22 13 23 14 24 22 25
REMARK SMILES IDX 23 26 24 27 25 28 26 29 27 31 28 32 29 33 90 34 30 35 89 36
REMARK SMILES IDX 31 37 32 38 33 39 83 40 34 41 88 42 82 43 84 44 35 45 87 46
REMARK SMILES IDX 81 47 80 48 36 50 68 51 48 52 67 53 49 54 52 55 66 56 85 57
REMARK SMILES IDX 50 58 51 59 65 61 86 62 53 63 37 64 38 65 46 66 39 67 40 68
REMARK SMILES IDX 44 69 47 70 41 71 42 72 45 73 43 74 69 75 70 76 78 77 71 78
REMARK SMILES IDX 72 79 76 80 79 81 73 82 74 83 77 84 75 85 54 86 55 87 63 88
REMARK SMILES IDX 56 89 57 90 61 91 64 92 58 93 59 94 62 95 60 96
REMARK H PARENT 18 7 5 14 8 17 25 30 84 49 52 60
REMARK Flexibility Score: inf
ROOT
ATOM      1  C   UNL A   1      31.705  29.468  26.854  1.00  0.00     0.002 C 
ENDROOT
BRANCH   1   2
ATOM      2  C   UNL A   1      33.023  28.975  27.446  1.00  0.00     0.021 C 
BRANCH   2   3
ATOM      3  C   UNL A   1      34.067  28.320  26.530  1.00  0.00     0.116 C 
BRANCH   3   4
ATOM      4  N   UNL A   1      34.092  28.693  25.121  1.00  0.00    -0.354 N 
ATOM      5  C   UNL A   1      33.646  28.081  23.978  1.00  0.00     0.245 C 
ATOM      6  O   UNL A   1      33.628  28.767  22.950  1.00  0.00    -0.272 OA
ATOM      7  H   UNL A   1      34.517  29.566  24.956  1.00  0.00     0.163 HD
BRANCH   5   8
ATOM      8  C   UNL A   1      33.064  26.654  23.980  1.00  0.00     0.117 C 
ATOM      9  C   UNL A   1      31.810  26.437  24.847  1.00  0.00     0.045 C 
BRANCH   8  10
ATOM     10  C   UNL A   1      34.193  25.746  24.580  1.00  0.00     0.035 C 
ATOM     11  C   UNL A   1      34.399  24.428  23.819  1.00  0.00     0.007 C 
ENDBRANCH   8  10
BRANCH   8  12
ATOM     12  N   UNL A   1      32.727  26.290  22.599  1.00  0.00    -0.324 N 
ATOM     13  C   UNL A   1      31.700  26.568  21.785  1.00  0.00     0.316 C 
ATOM     14  H   UNL A   1      33.407  25.716  22.177  1.00  0.00     0.166 HD
ATOM     15  O   UNL A   1      31.669  25.955  20.713  1.00  0.00    -0.249 OA
ATOM     16  N   UNL A   1      30.744  27.487  21.975  1.00  0.00    -0.331 N 
ATOM     17  H   UNL A   1      30.252  27.648  21.138  1.00  0.00     0.166 HD
BRANCH  16  18
ATOM     18  C   UNL A   1      30.208  28.327  23.054  1.00  0.00     0.123 C 
ATOM     19  C   UNL A   1      28.835  27.787  23.376  1.00  0.00     0.011 C 
ATOM     20  C   UNL A   1      30.008  29.815  22.745  1.00  0.00     0.170 C 
ATOM     21  C   UNL A   1      27.786  28.583  23.126  1.00  0.00     0.104 C 
ATOM     22  S   UNL A   1      28.282  30.084  22.446  1.00  0.00     0.173 S 
ATOM     23  O   UNL A   1      27.833  31.181  23.287  1.00  0.00    -0.224 OA
ATOM     24  O   UNL A   1      28.047  30.077  21.021  1.00  0.00    -0.224 OA
ENDBRANCH  16  18
ENDBRANCH   8  12
ENDBRANCH   5   8
ENDBRANCH   3   4
ENDBRANCH   2   3
ENDBRANCH   1   2
BRANCH   1  25
ATOM     25  C   UNL A   1      31.774  30.769  26.058  1.00  0.00     0.002 C 
BRANCH  25  26
ATOM     26  C   UNL A   1      31.449  32.014  26.878  1.00  0.00     0.021 C 
BRANCH  26  27
ATOM     27  C   UNL A   1      32.672  32.785  27.352  1.00  0.00     0.116 C 
BRANCH  27  28
ATOM     28  N   UNL A   1      32.386  34.190  27.603  1.00  0.00    -0.352 N 
ATOM     29  C   UNL A   1      32.965  35.015  28.537  1.00  0.00     0.251 C 
ATOM     30  H   UNL A   1      31.695  34.598  27.034  1.00  0.00     0.163 HD
ATOM     31  O   UNL A   1      32.529  36.138  28.756  1.00  0.00    -0.269 OA
BRANCH  29  32
ATOM     32  C   UNL A   1      34.113  34.501  29.310  1.00  0.00     0.039 A 
ATOM     33  C   UNL A   1      33.876  33.851  30.522  1.00  0.00     0.014 A 
ATOM     34  C   UNL A   1      35.406  34.586  28.784  1.00  0.00     0.014 A 
ATOM     35  C   UNL A   1      34.933  33.216  31.173  1.00  0.00     0.010 A 
ATOM     36  C   UNL A   1      36.439  33.886  29.393  1.00  0.00     0.010 A 
ATOM     37  C   UNL A   1      36.211  33.188  30.590  1.00  0.00    -0.014 A 
BRANCH  37  38
ATOM     38  C   UNL A   1      37.316  32.409  31.202  1.00  0.00     0.031 A 
ATOM     39  C   UNL A   1      37.832  32.770  32.563  1.00  0.00     0.074 A 
ATOM     40  C   UNL A   1      37.903  31.424  30.495  1.00  0.00     0.049 A 
ATOM     41  N   UNL A   1      38.827  32.251  33.237  1.00  0.00    -0.248 NA
ATOM     42  C   UNL A   1      37.159  33.885  33.247  1.00  0.00     0.031 C 
ATOM     43  C   UNL A   1      37.531  31.022  29.138  1.00  0.00     0.029 A 
ATOM     44  N   UNL A   1      38.947  30.592  30.814  1.00  0.00    -0.354 N 
ATOM     45  C   UNL A   1      38.900  32.976  34.418  1.00  0.00     0.074 A 
ATOM     46  C   UNL A   1      37.895  34.014  34.340  1.00  0.00     0.031 C 
ATOM     47  C   UNL A   1      38.323  30.012  28.746  1.00  0.00     0.029 A 
ATOM     48  C   UNL A   1      39.284  29.721  29.806  1.00  0.00     0.049 A 
ATOM     49  H   UNL A   1      39.411  30.618  31.682  1.00  0.00     0.167 HD
ATOM     50  C   UNL A   1      39.712  32.775  35.485  1.00  0.00     0.037 A 
ATOM     51  C   UNL A   1      40.265  28.802  29.738  1.00  0.00     0.037 A 
ATOM     52  C   UNL A   1      40.708  31.738  35.554  1.00  0.00     0.049 A 
ATOM     53  C   UNL A   1      41.170  28.609  30.923  1.00  0.00     0.074 A 
ATOM     54  C   UNL A   1      41.542  31.412  36.609  1.00  0.00     0.029 A 
ATOM     55  N   UNL A   1      41.013  30.865  34.519  1.00  0.00    -0.354 N 
ATOM     56  N   UNL A   1      41.177  29.244  32.070  1.00  0.00    -0.248 NA
ATOM     57  C   UNL A   1      42.200  27.568  30.808  1.00  0.00     0.031 C 
ATOM     58  C   UNL A   1      42.392  30.381  36.191  1.00  0.00     0.029 A 
ATOM     59  C   UNL A   1      42.048  30.024  34.897  1.00  0.00     0.049 A 
ATOM     60  H   UNL A   1      40.561  30.846  33.645  1.00  0.00     0.167 HD
ATOM     61  C   UNL A   1      42.197  28.674  32.818  1.00  0.00     0.074 A 
ATOM     62  C   UNL A   1      42.773  27.624  32.003  1.00  0.00     0.031 C 
ATOM     63  C   UNL A   1      42.621  28.992  34.067  1.00  0.00     0.037 A 
BRANCH  50  64
ATOM     64  C   UNL A   1      39.551  33.703  36.654  1.00  0.00     0.064 A 
ATOM     65  C   UNL A   1      40.183  34.957  36.694  1.00  0.00     0.173 A 
ATOM     66  C   UNL A   1      38.751  33.341  37.749  1.00  0.00     0.173 A 
ATOM     67  F   UNL A   1      40.967  35.349  35.678  1.00  0.00    -0.203 F 
ATOM     68  C   UNL A   1      40.059  35.791  37.802  1.00  0.00     0.198 A 
ATOM     69  C   UNL A   1      38.599  34.195  38.840  1.00  0.00     0.198 A 
ATOM     70  F   UNL A   1      38.116  32.160  37.763  1.00  0.00    -0.203 F 
ATOM     71  F   UNL A   1      40.728  36.951  37.843  1.00  0.00    -0.200 F 
ATOM     72  C   UNL A   1      39.263  35.411  38.872  1.00  0.00     0.200 A 
ATOM     73  F   UNL A   1      37.818  33.833  39.867  1.00  0.00    -0.200 F 
ATOM     74  F   UNL A   1      39.145  36.213  39.939  1.00  0.00    -0.200 F 
ENDBRANCH  50  64
BRANCH  51  75
ATOM     75  C   UNL A   1      40.429  27.995  28.501  1.00  0.00     0.064 A 
ATOM     76  C   UNL A   1      41.199  28.463  27.427  1.00  0.00     0.173 A 
ATOM     77  C   UNL A   1      39.843  26.727  28.380  1.00  0.00     0.173 A 
ATOM     78  F   UNL A   1      41.764  29.678  27.488  1.00  0.00    -0.203 F 
ATOM     79  C   UNL A   1      41.368  27.698  26.275  1.00  0.00     0.198 A 
ATOM     80  C   UNL A   1      40.035  25.950  27.239  1.00  0.00     0.198 A 
ATOM     81  F   UNL A   1      39.101  26.230  29.381  1.00  0.00    -0.203 F 
ATOM     82  F   UNL A   1      42.079  28.182  25.249  1.00  0.00    -0.200 F 
ATOM     83  C   UNL A   1      40.793  26.438  26.185  1.00  0.00     0.200 A 
ATOM     84  F   UNL A   1      39.494  24.727  27.166  1.00  0.00    -0.200 F 
ATOM     85  F   UNL A   1      40.967  25.696  25.084  1.00  0.00    -0.200 F 
ENDBRANCH  51  75
BRANCH  63  86
ATOM     86  C   UNL A   1      43.761  28.193  34.631  1.00  0.00     0.064 A 
ATOM     87  C   UNL A   1      45.092  28.608  34.485  1.00  0.00     0.173 A 
ATOM     88  C   UNL A   1      43.515  27.022  35.364  1.00  0.00     0.173 A 
ATOM     89  F   UNL A   1      45.382  29.712  33.779  1.00  0.00    -0.203 F 
ATOM     90  C   UNL A   1      46.137  27.868  35.031  1.00  0.00     0.198 A 
ATOM     91  C   UNL A   1      44.560  26.302  35.938  1.00  0.00     0.198 A 
ATOM     92  F   UNL A   1      42.259  26.583  35.539  1.00  0.00    -0.203 F 
ATOM     93  F   UNL A   1      47.405  28.258  34.838  1.00  0.00    -0.200 F 
ATOM     94  C   UNL A   1      45.870  26.721  35.764  1.00  0.00     0.200 A 
ATOM     95  F   UNL A   1      44.298  25.203  36.658  1.00  0.00    -0.200 F 
ATOM     96  F   UNL A   1      46.877  26.016  36.298  1.00  0.00    -0.200 F 
ENDBRANCH  63  86
ENDBRANCH  37  38
ENDBRANCH  29  32
ENDBRANCH  27  28
ENDBRANCH  26  27
ENDBRANCH  25  26
ENDBRANCH   1  25
TORSDOF 16
ENDMDL
MODEL 2
REMARK VINA RESULT:     -12.1      0.194      1.595
REMARK SMILES CC[C@](C)(NC(=O)N[C@@H]1C=CS(=O)(=O)C1)C(=O)NCCCCCCNC(=O)c1ccc(-c2c3nc(c(-c4c(F)c(F)c(F)c(F)c4F)c4ccc([nH]4)c(-c4c(F)c(F)c(F)c(F)c4F)c4nc(c(-c5c(F)c(F)c(F)c(F)c5F)c5ccc2[nH]5)C=C4)C=C3)cc1
REMARK SMILES IDX 21 1 20 2 19 3 18 4 16 5 17 6 3 8 4 9 2 10 1 11 5 12 6 13
REMARK SMILES IDX 7 15 8 16 9 18 10 19 15 20 11 21 12 22 13 23 14 24 22 25
REMARK SMILES IDX 23 26 24 27 25 28 26 29 27 31 28 32 29 33 90 34 30 35 89 36
REMARK SMILES IDX 31 37 32 38 33 39 83 40 34 41 88 42 82 43 84 44 35 45 87 46
REMARK SMILES IDX 81 47 80 48 36 50 68 51 48 52 67 53 49 54 52 55 66 56 85 57
REMARK SMILES IDX 50 58 51 59 65 61 86 62 53 63 37 64 38 65 46 66 39 67 40 68
REMARK SMILES IDX 44 69 47 70 41 71 42 72 45 73 43 74 69 75 70 76 78 77 71 78
REMARK SMILES IDX 72 79 76 80 79 81 73 82 74 83 77 84 75 85 54 86 55 87 63 88
REMARK SMILES IDX 56 89 57 90 61 91 64 92 58 93 59 94 62 95 60 96
REMARK H PARENT 18 7 5 14 8 17 25 30 84 49 52 60
REMARK Flexibility Score: inf
ROOT
ATOM      1  C   UNL A   1      32.205  29.704  27.283  1.00  0.00     0.002 C 
ENDROOT
BRANCH   1   2
ATOM      2  C   UNL A   1      33.690  29.378  27.426  1.00  0.00     0.021 C 
BRANCH   2   3
ATOM      3  C   UNL A   1      34.373  28.483  26.381  1.00  0.00     0.116 C 
BRANCH   3   4
ATOM      4  N   UNL A   1      34.259  28.843  24.972  1.00  0.00    -0.354 N 
ATOM      5  C   UNL A   1      33.644  28.252  23.899  1.00  0.00     0.245 C 
ATOM      6  O   UNL A   1      33.552  28.929  22.868  1.00  0.00    -0.272 OA
ATOM      7  H   UNL A   1      34.717  29.684  24.746  1.00  0.00     0.163 HD
BRANCH   5   8
ATOM      8  C   UNL A   1      32.975  26.867  23.989  1.00  0.00     0.117 C 
ATOM      9  C   UNL A   1      31.695  26.790  24.843  1.00  0.00     0.045 C 
BRANCH   8  10
ATOM     10  C   UNL A   1      34.034  25.938  24.677  1.00  0.00     0.035 C 
ATOM     11  C   UNL A   1      34.352  24.664  23.881  1.00  0.00     0.007 C 
ENDBRANCH   8  10
BRANCH   8  12
ATOM     12  N   UNL A   1      32.640  26.425  22.631  1.00  0.00    -0.324 N 
ATOM     13  C   UNL A   1      31.615  26.658  21.800  1.00  0.00     0.316 C 
ATOM     14  H   UNL A   1      33.318  25.825  22.244  1.00  0.00     0.166 HD
ATOM     15  O   UNL A   1      31.585  25.984  20.765  1.00  0.00    -0.249 OA
ATOM     16  N   UNL A   1      30.661  27.590  21.935  1.00  0.00    -0.331 N 
ATOM     17  H   UNL A   1      30.171  27.704  21.089  1.00  0.00     0.166 HD
BRANCH  16  18
ATOM     18  C   UNL A   1      30.126  28.492  22.962  1.00  0.00     0.123 C 
ATOM     19  C   UNL A   1      28.739  27.992  23.291  1.00  0.00     0.011 C 
ATOM     20  C   UNL A   1      29.956  29.966  22.576  1.00  0.00     0.170 C 
ATOM     21  C   UNL A   1      27.707  28.792  22.986  1.00  0.00     0.104 C 
ATOM     22  S   UNL A   1      28.239  30.248  22.239  1.00  0.00     0.173 S 
ATOM     23  O   UNL A   1      27.798  31.393  23.017  1.00  0.00    -0.224 OA
ATOM     24  O   UNL A   1      28.024  30.174  20.812  1.00  0.00    -0.224 OA
ENDBRANCH  16  18
ENDBRANCH   8  12
ENDBRANCH   5   8
ENDBRANCH   3   4
ENDBRANCH   2   3
ENDBRANCH   1   2
BRANCH   1  25
ATOM     25  C   UNL A   1      31.846  30.731  26.211  1.00  0.00     0.002 C 
BRANCH  25  26
ATOM     26  C   UNL A   1      31.485  32.105  26.767  1.00  0.00     0.021 C 
BRANCH  26  27
ATOM     27  C   UNL A   1      32.631  32.810  27.477  1.00  0.00     0.116 C 
BRANCH  27  28
ATOM     28  N   UNL A   1      32.369  34.225  27.696  1.00  0.00    -0.352 N 
ATOM     29  C   UNL A   1      32.981  35.067  28.593  1.00  0.00     0.251 C 
ATOM     30  H   UNL A   1      31.668  34.626  27.134  1.00  0.00     0.163 HD
ATOM     31  O   UNL A   1      32.563  36.201  28.793  1.00  0.00    -0.269 OA
BRANCH  29  32
ATOM     32  C   UNL A   1      34.141  34.560  29.351  1.00  0.00     0.039 A 
ATOM     33  C   UNL A   1      33.929  33.957  30.592  1.00  0.00     0.014 A 
ATOM     34  C   UNL A   1      35.420  34.603  28.785  1.00  0.00     0.014 A 
ATOM     35  C   UNL A   1      34.993  33.326  31.235  1.00  0.00     0.010 A 
ATOM     36  C   UNL A   1      36.458  33.905  29.389  1.00  0.00     0.010 A 
ATOM     37  C   UNL A   1      36.253  33.254  30.616  1.00  0.00    -0.014 A 
BRANCH  37  38
ATOM     38  C   UNL A   1      37.362  32.477  31.224  1.00  0.00     0.031 A 
ATOM     39  C   UNL A   1      37.881  32.838  32.584  1.00  0.00     0.074 A 
ATOM     40  C   UNL A   1      37.949  31.495  30.514  1.00  0.00     0.049 A 
ATOM     41  N   UNL A   1      38.879  32.321  33.254  1.00  0.00    -0.248 NA
ATOM     42  C   UNL A   1      37.207  33.950  33.272  1.00  0.00     0.031 C 
ATOM     43  C   UNL A   1      37.574  31.094  29.157  1.00  0.00     0.029 A 
ATOM     44  N   UNL A   1      38.996  30.665  30.828  1.00  0.00    -0.354 N 
ATOM     45  C   UNL A   1      38.954  33.044  34.436  1.00  0.00     0.074 A 
ATOM     46  C   UNL A   1      37.947  34.080  34.363  1.00  0.00     0.031 C 
ATOM     47  C   UNL A   1      38.368  30.087  28.762  1.00  0.00     0.029 A 
ATOM     48  C   UNL A   1      39.332  29.797  29.819  1.00  0.00     0.049 A 
ATOM     49  H   UNL A   1      39.463  30.690  31.695  1.00  0.00     0.167 HD
ATOM     50  C   UNL A   1      39.770  32.843  35.500  1.00  0.00     0.037 A 
ATOM     51  C   UNL A   1      40.315  28.880  29.746  1.00  0.00     0.037 A 
ATOM     52  C   UNL A   1      40.769  31.809  35.565  1.00  0.00     0.049 A 
ATOM     53  C   UNL A   1      41.224  28.687  30.928  1.00  0.00     0.074 A 
ATOM     54  C   UNL A   1      41.607  31.483  36.616  1.00  0.00     0.029 A 
ATOM     55  N   UNL A   1      41.072  30.938  34.527  1.00  0.00    -0.354 N 
ATOM     56  N   UNL A   1      41.233  29.321  32.076  1.00  0.00    -0.248 NA
ATOM     57  C   UNL A   1      42.257  27.649  30.809  1.00  0.00     0.031 C 
ATOM     58  C   UNL A   1      42.458  30.455  36.194  1.00  0.00     0.029 A 
ATOM     59  C   UNL A   1      42.111  30.099  34.901  1.00  0.00     0.049 A 
ATOM     60  H   UNL A   1      40.618  30.919  33.655  1.00  0.00     0.167 HD
ATOM     61  C   UNL A   1      42.257  28.752  32.820  1.00  0.00     0.074 A 
ATOM     62  C   UNL A   1      42.833  27.705  32.001  1.00  0.00     0.031 C 
ATOM     63  C   UNL A   1      42.684  29.070  34.068  1.00  0.00     0.037 A 
BRANCH  50  64
ATOM     64  C   UNL A   1      39.610  33.770  36.671  1.00  0.00     0.064 A 
ATOM     65  C   UNL A   1      38.823  33.425  37.783  1.00  0.00     0.173 A 
ATOM     66  C   UNL A   1      40.254  35.016  36.689  1.00  0.00     0.173 A 
ATOM     67  F   UNL A   1      38.177  32.249  37.814  1.00  0.00    -0.203 F 
ATOM     68  C   UNL A   1      38.650  34.310  38.844  1.00  0.00     0.198 A 
ATOM     69  C   UNL A   1      40.108  35.884  37.770  1.00  0.00     0.198 A 
ATOM     70  F   UNL A   1      41.025  35.395  35.659  1.00  0.00    -0.203 F 
ATOM     71  F   UNL A   1      37.839  33.984  39.860  1.00  0.00    -0.200 F 
ATOM     72  C   UNL A   1      39.297  35.536  38.839  1.00  0.00     0.200 A 
ATOM     73  F   UNL A   1      40.745  37.063  37.770  1.00  0.00    -0.200 F 
ATOM     74  F   UNL A   1      39.129  36.388  39.860  1.00  0.00    -0.200 F 
ENDBRANCH  50  64
BRANCH  51  75
ATOM     75  C   UNL A   1      40.478  28.075  28.507  1.00  0.00     0.064 A 
ATOM     76  C   UNL A   1      41.258  28.538  27.439  1.00  0.00     0.173 A 
ATOM     77  C   UNL A   1      39.879  26.813  28.379  1.00  0.00     0.173 A 
ATOM     78  F   UNL A   1      41.835  29.747  27.506  1.00  0.00    -0.203 F 
ATOM     79  C   UNL A   1      41.425  27.775  26.285  1.00  0.00     0.198 A 
ATOM     80  C   UNL A   1      40.069  26.038  27.237  1.00  0.00     0.198 A 
ATOM     81  F   UNL A   1      39.127  26.321  29.375  1.00  0.00    -0.203 F 
ATOM     82  F   UNL A   1      42.147  28.255  25.265  1.00  0.00    -0.200 F 
ATOM     83  C   UNL A   1      40.837  26.521  26.189  1.00  0.00     0.200 A 
ATOM     84  F   UNL A   1      39.516  24.821  27.157  1.00  0.00    -0.200 F 
ATOM     85  F   UNL A   1      41.010  25.781  25.086  1.00  0.00    -0.200 F 
ENDBRANCH  51  75
BRANCH  63  86
ATOM     86  C   UNL A   1      43.827  28.273  34.627  1.00  0.00     0.064 A 
ATOM     87  C   UNL A   1      43.625  27.030  35.243  1.00  0.00     0.173 A 
ATOM     88  C   UNL A   1      45.146  28.736  34.503  1.00  0.00     0.173 A 
ATOM     89  F   UNL A   1      42.381  26.548  35.402  1.00  0.00    -0.203 F 
ATOM     90  C   UNL A   1      44.697  26.291  35.737  1.00  0.00     0.198 A 
ATOM     91  C   UNL A   1      46.219  27.980  34.968  1.00  0.00     0.198 A 
ATOM     92  F   UNL A   1      45.397  29.916  33.916  1.00  0.00    -0.203 F 
ATOM     93  F   UNL A   1      44.475  25.129  36.366  1.00  0.00    -0.200 F 
ATOM     94  C   UNL A   1      45.993  26.763  35.592  1.00  0.00     0.200 A 
ATOM     95  F   UNL A   1      47.472  28.430  34.812  1.00  0.00    -0.200 F 
ATOM     96  F   UNL A   1      47.025  26.045  36.058  1.00  0.00    -0.200 F 
ENDBRANCH  63  86
ENDBRANCH  37  38
ENDBRANCH  29  32
ENDBRANCH  27  28
ENDBRANCH  26  27
ENDBRANCH  25  26
ENDBRANCH   1  25
TORSDOF 16
ENDMDL
MODEL 3
REMARK VINA RESULT:     -12.1      1.726      7.870
REMARK SMILES CC[C@](C)(NC(=O)N[C@@H]1C=CS(=O)(=O)C1)C(=O)NCCCCCCNC(=O)c1ccc(-c2c3nc(c(-c4c(F)c(F)c(F)c(F)c4F)c4ccc([nH]4)c(-c4c(F)c(F)c(F)c(F)c4F)c4nc(c(-c5c(F)c(F)c(F)c(F)c5F)c5ccc2[nH]5)C=C4)C=C3)cc1
REMARK SMILES IDX 21 1 20 2 19 3 18 4 16 5 17 6 3 8 4 9 2 10 1 11 5 12 6 13
REMARK SMILES IDX 7 15 8 16 9 18 10 19 15 20 11 21 12 22 13 23 14 24 22 25
REMARK SMILES IDX 23 26 24 27 25 28 26 29 27 31 28 32 29 33 90 34 30 35 89 36
REMARK SMILES IDX 31 37 32 38 33 39 83 40 34 41 88 42 82 43 84 44 35 45 87 46
REMARK SMILES IDX 81 47 80 48 36 50 68 51 48 52 67 53 49 54 52 55 66 56 85 57
REMARK SMILES IDX 50 58 51 59 65 61 86 62 53 63 37 64 38 65 46 66 39 67 40 68
REMARK SMILES IDX 44 69 47 70 41 71 42 72 45 73 43 74 69 75 70 76 78 77 71 78
REMARK SMILES IDX 72 79 76 80 79 81 73 82 74 83 77 84 75 85 54 86 55 87 63 88
REMARK SMILES IDX 56 89 57 90 61 91 64 92 58 93 59 94 62 95 60 96
REMARK H PARENT 18 7 5 14 8 17 25 30 84 49 52 60
REMARK Flexibility Score: inf
ROOT
ATOM      1  C   UNL A   1      32.515  29.331  27.207  1.00  0.00     0.002 C 
ENDROOT
BRANCH   1   2
ATOM      2  C   UNL A   1      31.543  28.155  27.159  1.00  0.00     0.021 C 
BRANCH   2   3
ATOM      3  C   UNL A   1      31.872  26.936  26.283  1.00  0.00     0.116 C 
BRANCH   3   4
ATOM      4  N   UNL A   1      30.994  26.625  25.161  1.00  0.00    -0.354 N 
ATOM      5  C   UNL A   1      31.152  26.683  23.801  1.00  0.00     0.245 C 
ATOM      6  O   UNL A   1      30.277  26.141  23.115  1.00  0.00    -0.272 OA
ATOM      7  H   UNL A   1      30.105  26.307  25.438  1.00  0.00     0.163 HD
BRANCH   5   8
ATOM      8  C   UNL A   1      32.414  27.271  23.140  1.00  0.00     0.117 C 
ATOM      9  C   UNL A   1      33.741  27.025  23.883  1.00  0.00     0.045 C 
BRANCH   8  10
ATOM     10  C   UNL A   1      32.188  28.822  23.118  1.00  0.00     0.035 C 
ATOM     11  C   UNL A   1      30.782  29.237  22.657  1.00  0.00     0.007 C 
ENDBRANCH   8  10
BRANCH   8  12
ATOM     12  N   UNL A   1      32.538  26.703  21.793  1.00  0.00    -0.324 N 
ATOM     13  C   UNL A   1      32.766  25.471  21.316  1.00  0.00     0.316 C 
ATOM     14  H   UNL A   1      32.429  27.375  21.081  1.00  0.00     0.166 HD
ATOM     15  O   UNL A   1      32.963  25.382  20.100  1.00  0.00    -0.249 OA
ATOM     16  N   UNL A   1      32.734  24.321  22.003  1.00  0.00    -0.331 N 
ATOM     17  H   UNL A   1      32.708  23.554  21.386  1.00  0.00     0.166 HD
BRANCH  16  18
ATOM     18  C   UNL A   1      32.726  23.857  23.397  1.00  0.00     0.123 C 
ATOM     19  C   UNL A   1      34.019  23.106  23.605  1.00  0.00     0.011 C 
ATOM     20  C   UNL A   1      31.610  22.888  23.802  1.00  0.00     0.170 C 
ATOM     21  C   UNL A   1      33.934  21.792  23.857  1.00  0.00     0.104 C 
ATOM     22  S   UNL A   1      32.298  21.255  23.857  1.00  0.00     0.173 S 
ATOM     23  O   UNL A   1      31.972  20.660  25.142  1.00  0.00    -0.224 OA
ATOM     24  O   UNL A   1      32.004  20.581  22.614  1.00  0.00    -0.224 OA
ENDBRANCH  16  18
ENDBRANCH   8  12
ENDBRANCH   5   8
ENDBRANCH   3   4
ENDBRANCH   2   3
ENDBRANCH   1   2
BRANCH   1  25
ATOM     25  C   UNL A   1      32.256  30.455  26.207  1.00  0.00     0.002 C 
BRANCH  25  26
ATOM     26  C   UNL A   1      31.766  31.751  26.846  1.00  0.00     0.021 C 
BRANCH  26  27
ATOM     27  C   UNL A   1      32.869  32.602  27.457  1.00  0.00     0.116 C 
BRANCH  27  28
ATOM     28  N   UNL A   1      32.474  33.991  27.633  1.00  0.00    -0.352 N 
ATOM     29  C   UNL A   1      32.975  34.904  28.530  1.00  0.00     0.251 C 
ATOM     30  H   UNL A   1      31.761  34.316  27.037  1.00  0.00     0.163 HD
ATOM     31  O   UNL A   1      32.450  35.999  28.688  1.00  0.00    -0.269 OA
BRANCH  29  32
ATOM     32  C   UNL A   1      34.148  34.519  29.339  1.00  0.00     0.039 A 
ATOM     33  C   UNL A   1      33.947  34.024  30.629  1.00  0.00     0.014 A 
ATOM     34  C   UNL A   1      35.429  34.566  28.781  1.00  0.00     0.014 A 
ATOM     35  C   UNL A   1      35.031  33.501  31.335  1.00  0.00     0.010 A 
ATOM     36  C   UNL A   1      36.489  33.973  29.454  1.00  0.00     0.010 A 
ATOM     37  C   UNL A   1      36.299  33.428  30.734  1.00  0.00    -0.014 A 
BRANCH  37  38
ATOM     38  C   UNL A   1      37.434  32.759  31.418  1.00  0.00     0.031 A 
ATOM     39  C   UNL A   1      38.111  31.582  30.783  1.00  0.00     0.074 A 
ATOM     40  C   UNL A   1      37.801  33.169  32.648  1.00  0.00     0.049 A 
ATOM     41  N   UNL A   1      39.075  30.829  31.250  1.00  0.00    -0.248 NA
ATOM     42  C   UNL A   1      37.621  31.177  29.457  1.00  0.00     0.031 C 
ATOM     43  C   UNL A   1      37.176  34.262  33.394  1.00  0.00     0.029 A 
ATOM     44  N   UNL A   1      38.778  32.706  33.492  1.00  0.00    -0.354 N 
ATOM     45  C   UNL A   1      39.302  29.863  30.280  1.00  0.00     0.074 A 
ATOM     46  C   UNL A   1      38.331  30.082  29.230  1.00  0.00     0.031 C 
ATOM     47  C   UNL A   1      37.793  34.395  34.578  1.00  0.00     0.029 A 
ATOM     48  C   UNL A   1      38.830  33.373  34.692  1.00  0.00     0.049 A 
ATOM     49  H   UNL A   1      39.383  31.964  33.261  1.00  0.00     0.167 HD
ATOM     50  C   UNL A   1      40.254  28.899  30.253  1.00  0.00     0.037 A 
ATOM     51  C   UNL A   1      39.614  33.175  35.768  1.00  0.00     0.037 A 
ATOM     52  C   UNL A   1      41.218  28.689  31.302  1.00  0.00     0.049 A 
ATOM     53  C   UNL A   1      40.650  32.086  35.728  1.00  0.00     0.074 A 
ATOM     54  C   UNL A   1      42.259  27.780  31.347  1.00  0.00     0.029 A 
ATOM     55  N   UNL A   1      41.249  29.394  32.497  1.00  0.00    -0.354 N 
ATOM     56  N   UNL A   1      40.913  31.230  34.770  1.00  0.00    -0.248 NA
ATOM     57  C   UNL A   1      41.503  31.937  36.915  1.00  0.00     0.031 C 
ATOM     58  C   UNL A   1      42.884  27.893  32.595  1.00  0.00     0.029 A 
ATOM     59  C   UNL A   1      42.270  28.914  33.304  1.00  0.00     0.049 A 
ATOM     60  H   UNL A   1      40.637  30.126  32.738  1.00  0.00     0.167 HD
ATOM     61  C   UNL A   1      41.966  30.452  35.229  1.00  0.00     0.074 A 
ATOM     62  C   UNL A   1      42.310  30.954  36.544  1.00  0.00     0.031 C 
ATOM     63  C   UNL A   1      42.591  29.414  34.618  1.00  0.00     0.037 A 
BRANCH  50  64
ATOM     64  C   UNL A   1      40.288  28.001  29.049  1.00  0.00     0.064 A 
ATOM     65  C   UNL A   1      41.028  28.332  27.902  1.00  0.00     0.173 A 
ATOM     66  C   UNL A   1      39.577  26.791  29.041  1.00  0.00     0.173 A 
ATOM     67  F   UNL A   1      41.718  29.481  27.853  1.00  0.00    -0.203 F 
ATOM     68  C   UNL A   1      41.017  27.511  26.778  1.00  0.00     0.198 A 
ATOM     69  C   UNL A   1      39.599  25.954  27.927  1.00  0.00     0.198 A 
ATOM     70  F   UNL A   1      38.859  26.420  30.111  1.00  0.00    -0.203 F 
ATOM     71  F   UNL A   1      41.676  27.884  25.672  1.00  0.00    -0.200 F 
ATOM     72  C   UNL A   1      40.307  26.320  26.793  1.00  0.00     0.200 A 
ATOM     73  F   UNL A   1      38.923  24.797  27.949  1.00  0.00    -0.200 F 
ATOM     74  F   UNL A   1      40.296  25.531  25.710  1.00  0.00    -0.200 F 
ENDBRANCH  50  64
BRANCH  51  75
ATOM     75  C   UNL A   1      39.446  34.038  36.966  1.00  0.00     0.064 A 
ATOM     76  C   UNL A   1      38.694  33.610  38.068  1.00  0.00     0.173 A 
ATOM     77  C   UNL A   1      40.060  35.297  37.045  1.00  0.00     0.173 A 
ATOM     78  F   UNL A   1      38.072  32.421  38.033  1.00  0.00    -0.203 F 
ATOM     79  C   UNL A   1      38.552  34.411  39.199  1.00  0.00     0.198 A 
ATOM     80  C   UNL A   1      39.941  36.086  38.187  1.00  0.00     0.198 A 
ATOM     81  F   UNL A   1      40.796  35.752  36.020  1.00  0.00    -0.203 F 
ATOM     82  F   UNL A   1      37.799  33.993  40.225  1.00  0.00    -0.200 F 
ATOM     83  C   UNL A   1      39.183  35.645  39.261  1.00  0.00     0.200 A 
ATOM     84  F   UNL A   1      40.569  37.268  38.249  1.00  0.00    -0.200 F 
ATOM     85  F   UNL A   1      39.060  36.410  40.354  1.00  0.00    -0.200 F 
ENDBRANCH  51  75
BRANCH  63  86
ATOM     86  C   UNL A   1      43.714  28.753  35.364  1.00  0.00     0.064 A 
ATOM     87  C   UNL A   1      43.480  27.713  36.274  1.00  0.00     0.173 A 
ATOM     88  C   UNL A   1      45.045  29.134  35.131  1.00  0.00     0.173 A 
ATOM     89  F   UNL A   1      42.225  27.322  36.545  1.00  0.00    -0.203 F 
ATOM     90  C   UNL A   1      44.533  27.095  36.943  1.00  0.00     0.198 A 
ATOM     91  C   UNL A   1      46.099  28.492  35.776  1.00  0.00     0.198 A 
ATOM     92  F   UNL A   1      45.325  30.120  34.266  1.00  0.00    -0.203 F 
ATOM     93  F   UNL A   1      44.282  26.136  37.845  1.00  0.00    -0.200 F 
ATOM     94  C   UNL A   1      45.842  27.479  36.687  1.00  0.00     0.200 A 
ATOM     95  F   UNL A   1      47.362  28.853  35.516  1.00  0.00    -0.200 F 
ATOM     96  F   UNL A   1      46.855  26.875  37.323  1.00  0.00    -0.200 F 
ENDBRANCH  63  86
ENDBRANCH  37  38
ENDBRANCH  29  32
ENDBRANCH  27  28
ENDBRANCH  26  27
ENDBRANCH  25  26
ENDBRANCH   1  25
TORSDOF 16
ENDMDL
