MODEL 1
REMARK VINA RESULT:     -12.4      0.000      0.000
REMARK SMILES Cc1ccc(S(=O)(=O)Nc2ccc(Cl)c(C(=O)NCCCCCCNC(=O)c3ccc(-c4c5nc(c(-c6c(F)c(F)c(F)c(F)c6F)c6ccc([nH]6)c(-c6c(F)c(F)c(F)c(F)c6F)c6nc(c(-c7c(F)c(F)c(F)c(F)c7F)c7ccc4[nH]7)C=C6)C=C5)cc3)c2)cc1Cl
REMARK SMILES IDX 21 1 20 2 19 3 18 4 16 5 17 6 15 8 10 9 11 10 91 11 12 12
REMARK SMILES IDX 13 13 14 14 9 15 6 17 7 18 8 19 5 20 1 21 2 22 3 23 93 24
REMARK SMILES IDX 4 25 92 26 94 27 22 28 23 29 24 30 25 31 26 32 27 34 28 35
REMARK SMILES IDX 29 36 90 37 30 38 89 39 31 40 32 41 33 42 83 43 34 44 88 45
REMARK SMILES IDX 82 46 84 47 35 48 87 49 81 50 80 51 36 53 68 54 48 55 67 56
REMARK SMILES IDX 49 57 52 58 66 59 85 60 50 61 51 62 65 64 86 65 53 66 37 67
REMARK SMILES IDX 38 68 46 69 39 70 40 71 44 72 47 73 41 74 42 75 45 76 43 77
REMARK SMILES IDX 69 78 70 79 78 80 71 81 72 82 76 83 79 84 73 85 74 86 77 87
REMARK SMILES IDX 75 88 54 89 55 90 63 91 56 92 57 93 61 94 64 95 58 96 59 97
REMARK SMILES IDX 62 98 60 99
REMARK H PARENT 18 7 9 16 25 33 84 52 52 63
REMARK Flexibility Score: inf
ROOT
ATOM      1  C   UNL A   1      32.148  29.100  26.069  1.00  0.00     0.002 C 
ENDROOT
BRANCH   1   2
ATOM      2  C   UNL A   1      33.284  28.548  25.199  1.00  0.00     0.021 C 
BRANCH   2   3
ATOM      3  C   UNL A   1      33.604  29.448  24.003  1.00  0.00     0.116 C 
BRANCH   3   4
ATOM      4  N   UNL A   1      33.763  28.635  22.812  1.00  0.00    -0.352 N 
ATOM      5  C   UNL A   1      33.109  27.528  22.332  1.00  0.00     0.252 C 
ATOM      6  O   UNL A   1      33.653  26.918  21.413  1.00  0.00    -0.269 OA
ATOM      7  H   UNL A   1      34.491  28.942  22.224  1.00  0.00     0.163 HD
BRANCH   5   8
ATOM      8  C   UNL A   1      31.782  27.076  22.840  1.00  0.00     0.060 A 
ATOM      9  C   UNL A   1      30.416  25.519  24.112  1.00  0.00     0.050 A 
ATOM     10  C   UNL A   1      29.287  26.302  23.877  1.00  0.00     0.028 A 
ATOM     11  C   UNL A   1      31.623  25.838  23.484  1.00  0.00     0.042 A 
ATOM     12  C   UNL A   1      29.403  27.486  23.158  1.00  0.00     0.023 A 
ATOM     13  C   UNL A   1      30.653  27.904  22.684  1.00  0.00     0.053 A 
ATOM     14  Cl  UNL A   1      30.697  29.494  22.003  1.00  0.00    -0.083 Cl
BRANCH   9  15
ATOM     15  N   UNL A   1      30.278  24.478  25.069  1.00  0.00    -0.280 N 
ATOM     16  H   UNL A   1      29.599  23.787  24.897  1.00  0.00     0.180 HD
BRANCH  15  17
ATOM     17  S   UNL A   1      31.188  24.344  26.474  1.00  0.00     0.261 S 
ATOM     18  O   UNL A   1      30.577  23.318  27.301  1.00  0.00    -0.201 OA
ATOM     19  O   UNL A   1      31.368  25.691  26.956  1.00  0.00    -0.201 OA
BRANCH  17  20
ATOM     20  C   UNL A   1      32.814  23.733  26.066  1.00  0.00     0.089 A 
ATOM     21  C   UNL A   1      36.389  22.266  24.151  1.00  0.00     0.046 C 
ATOM     22  C   UNL A   1      35.153  22.731  24.872  1.00  0.00    -0.032 A 
ATOM     23  C   UNL A   1      35.099  24.048  25.355  1.00  0.00     0.006 A 
ATOM     24  C   UNL A   1      34.055  21.890  25.096  1.00  0.00     0.045 A 
ATOM     25  C   UNL A   1      33.944  24.542  25.972  1.00  0.00     0.022 A 
ATOM     26  C   UNL A   1      32.886  22.390  25.674  1.00  0.00     0.043 A 
ATOM     27  Cl  UNL A   1      34.072  20.227  24.629  1.00  0.00    -0.084 Cl
ENDBRANCH  17  20
ENDBRANCH  15  17
ENDBRANCH   9  15
ENDBRANCH   5   8
ENDBRANCH   3   4
ENDBRANCH   2   3
ENDBRANCH   1   2
BRANCH   1  28
ATOM     28  C   UNL A   1      31.479  30.365  25.515  1.00  0.00     0.002 C 
BRANCH  28  29
ATOM     29  C   UNL A   1      31.370  31.531  26.502  1.00  0.00     0.021 C 
BRANCH  29  30
ATOM     30  C   UNL A   1      32.697  32.187  26.876  1.00  0.00     0.116 C 
BRANCH  30  31
ATOM     31  N   UNL A   1      32.524  33.558  27.325  1.00  0.00    -0.352 N 
ATOM     32  C   UNL A   1      33.171  34.233  28.329  1.00  0.00     0.251 C 
ATOM     33  H   UNL A   1      31.844  34.078  26.839  1.00  0.00     0.163 HD
ATOM     34  O   UNL A   1      32.774  35.340  28.684  1.00  0.00    -0.269 OA
BRANCH  32  35
ATOM     35  C   UNL A   1      34.340  33.625  29.001  1.00  0.00     0.039 A 
ATOM     36  C   UNL A   1      34.118  32.664  29.991  1.00  0.00     0.014 A 
ATOM     37  C   UNL A   1      35.643  34.022  28.685  1.00  0.00     0.014 A 
ATOM     38  C   UNL A   1      35.204  32.064  30.631  1.00  0.00     0.010 A 
ATOM     39  C   UNL A   1      36.727  33.388  29.290  1.00  0.00     0.010 A 
ATOM     40  C   UNL A   1      36.516  32.406  30.269  1.00  0.00    -0.014 A 
BRANCH  40  41
ATOM     41  C   UNL A   1      37.679  31.743  30.909  1.00  0.00     0.031 A 
ATOM     42  C   UNL A   1      38.121  32.150  32.285  1.00  0.00     0.074 A 
ATOM     43  C   UNL A   1      38.370  30.812  30.225  1.00  0.00     0.049 A 
ATOM     44  N   UNL A   1      39.140  31.724  32.987  1.00  0.00    -0.248 NA
ATOM     45  C   UNL A   1      37.324  33.192  32.953  1.00  0.00     0.031 C 
ATOM     46  C   UNL A   1      38.069  30.368  28.864  1.00  0.00     0.029 A 
ATOM     47  N   UNL A   1      39.478  30.082  30.578  1.00  0.00    -0.354 N 
ATOM     48  C   UNL A   1      39.118  32.455  34.168  1.00  0.00     0.074 A 
ATOM     49  C   UNL A   1      38.006  33.376  34.074  1.00  0.00     0.031 C 
ATOM     50  C   UNL A   1      38.962  29.431  28.501  1.00  0.00     0.029 A 
ATOM     51  C   UNL A   1      39.909  29.228  29.594  1.00  0.00     0.049 A 
ATOM     52  H   UNL A   1      39.919  30.162  31.454  1.00  0.00     0.167 HD
ATOM     53  C   UNL A   1      39.943  32.353  35.237  1.00  0.00     0.037 A 
ATOM     54  C   UNL A   1      40.952  28.378  29.575  1.00  0.00     0.037 A 
ATOM     55  C   UNL A   1      41.027  31.413  35.344  1.00  0.00     0.049 A 
ATOM     56  C   UNL A   1      41.832  28.263  30.789  1.00  0.00     0.074 A 
ATOM     57  C   UNL A   1      41.874  31.190  36.414  1.00  0.00     0.029 A 
ATOM     58  N   UNL A   1      41.411  30.538  34.340  1.00  0.00    -0.354 N 
ATOM     59  N   UNL A   1      41.762  28.912  31.925  1.00  0.00    -0.248 NA
ATOM     60  C   UNL A   1      42.932  27.291  30.721  1.00  0.00     0.031 C 
ATOM     61  C   UNL A   1      42.790  30.197  36.048  1.00  0.00     0.029 A 
ATOM     62  C   UNL A   1      42.491  29.781  34.761  1.00  0.00     0.049 A 
ATOM     63  H   UNL A   1      40.979  30.465  33.457  1.00  0.00     0.167 HD
ATOM     64  C   UNL A   1      42.789  28.414  32.713  1.00  0.00     0.074 A 
ATOM     65  C   UNL A   1      43.462  27.398  31.931  1.00  0.00     0.031 C 
ATOM     66  C   UNL A   1      43.143  28.768  33.972  1.00  0.00     0.037 A 
BRANCH  53  67
ATOM     67  C   UNL A   1      39.697  33.280  36.389  1.00  0.00     0.064 A 
ATOM     68  C   UNL A   1      40.316  34.537  36.463  1.00  0.00     0.173 A 
ATOM     69  C   UNL A   1      38.801  32.928  37.409  1.00  0.00     0.173 A 
ATOM     70  F   UNL A   1      41.190  34.915  35.517  1.00  0.00    -0.203 F 
ATOM     71  C   UNL A   1      40.062  35.398  37.527  1.00  0.00     0.198 A 
ATOM     72  C   UNL A   1      38.532  33.801  38.459  1.00  0.00     0.198 A 
ATOM     73  F   UNL A   1      38.180  31.739  37.382  1.00  0.00    -0.203 F 
ATOM     74  F   UNL A   1      40.692  36.580  37.596  1.00  0.00    -0.200 F 
ATOM     75  C   UNL A   1      39.166  35.033  38.520  1.00  0.00     0.200 A 
ATOM     76  F   UNL A   1      37.659  33.451  39.413  1.00  0.00    -0.200 F 
ATOM     77  F   UNL A   1      38.917  35.867  39.539  1.00  0.00    -0.200 F 
ENDBRANCH  53  67
BRANCH  54  78
ATOM     78  C   UNL A   1      41.202  27.543  28.375  1.00  0.00     0.064 A 
ATOM     79  C   UNL A   1      42.092  27.969  27.378  1.00  0.00     0.173 A 
ATOM     80  C   UNL A   1      40.564  26.308  28.199  1.00  0.00     0.173 A 
ATOM     81  F   UNL A   1      42.709  29.154  27.496  1.00  0.00    -0.203 F 
ATOM     82  C   UNL A   1      42.322  27.196  26.243  1.00  0.00     0.198 A 
ATOM     83  C   UNL A   1      40.811  25.526  27.073  1.00  0.00     0.198 A 
ATOM     84  F   UNL A   1      39.706  25.858  29.126  1.00  0.00    -0.203 F 
ATOM     85  F   UNL A   1      43.149  27.643  25.287  1.00  0.00    -0.200 F 
ATOM     86  C   UNL A   1      41.685  25.973  26.093  1.00  0.00     0.200 A 
ATOM     87  F   UNL A   1      40.201  24.341  26.935  1.00  0.00    -0.200 F 
ATOM     88  F   UNL A   1      41.908  25.230  25.001  1.00  0.00    -0.200 F 
ENDBRANCH  54  78
BRANCH  66  89
ATOM     89  C   UNL A   1      44.292  28.032  34.591  1.00  0.00     0.064 A 
ATOM     90  C   UNL A   1      44.100  26.836  35.297  1.00  0.00     0.173 A 
ATOM     91  C   UNL A   1      45.603  28.511  34.446  1.00  0.00     0.173 A 
ATOM     92  F   UNL A   1      42.862  26.349  35.475  1.00  0.00    -0.203 F 
ATOM     93  C   UNL A   1      45.178  26.154  35.852  1.00  0.00     0.198 A 
ATOM     94  C   UNL A   1      46.680  27.814  34.983  1.00  0.00     0.198 A 
ATOM     95  F   UNL A   1      45.836  29.649  33.776  1.00  0.00    -0.203 F 
ATOM     96  F   UNL A   1      44.969  25.032  36.554  1.00  0.00    -0.200 F 
ATOM     97  C   UNL A   1      46.468  26.639  35.690  1.00  0.00     0.200 A 
ATOM     98  F   UNL A   1      47.926  28.280  34.820  1.00  0.00    -0.200 F 
ATOM     99  F   UNL A   1      47.505  25.979  36.222  1.00  0.00    -0.200 F 
ENDBRANCH  66  89
ENDBRANCH  40  41
ENDBRANCH  32  35
ENDBRANCH  30  31
ENDBRANCH  29  30
ENDBRANCH  28  29
ENDBRANCH   1  28
TORSDOF 16
ENDMDL
MODEL 2
REMARK VINA RESULT:     -12.4      0.423      7.279
REMARK SMILES Cc1ccc(S(=O)(=O)Nc2ccc(Cl)c(C(=O)NCCCCCCNC(=O)c3ccc(-c4c5nc(c(-c6c(F)c(F)c(F)c(F)c6F)c6ccc([nH]6)c(-c6c(F)c(F)c(F)c(F)c6F)c6nc(c(-c7c(F)c(F)c(F)c(F)c7F)c7ccc4[nH]7)C=C6)C=C5)cc3)c2)cc1Cl
REMARK SMILES IDX 21 1 20 2 19 3 18 4 16 5 17 6 15 8 10 9 11 10 91 11 12 12
REMARK SMILES IDX 13 13 14 14 9 15 6 17 7 18 8 19 5 20 1 21 2 22 3 23 93 24
REMARK SMILES IDX 4 25 92 26 94 27 22 28 23 29 24 30 25 31 26 32 27 34 28 35
REMARK SMILES IDX 29 36 90 37 30 38 89 39 31 40 32 41 33 42 83 43 34 44 88 45
REMARK SMILES IDX 82 46 84 47 35 48 87 49 81 50 80 51 36 53 68 54 48 55 67 56
REMARK SMILES IDX 49 57 52 58 66 59 85 60 50 61 51 62 65 64 86 65 53 66 37 67
REMARK SMILES IDX 38 68 46 69 39 70 40 71 44 72 47 73 41 74 42 75 45 76 43 77
REMARK SMILES IDX 69 78 70 79 78 80 71 81 72 82 76 83 79 84 73 85 74 86 77 87
REMARK SMILES IDX 75 88 54 89 55 90 63 91 56 92 57 93 61 94 64 95 58 96 59 97
REMARK SMILES IDX 62 98 60 99
REMARK H PARENT 18 7 9 16 25 33 84 52 52 63
REMARK Flexibility Score: inf
ROOT
ATOM      1  C   UNL A   1      32.260  29.031  25.989  1.00  0.00     0.002 C 
ENDROOT
BRANCH   1   2
ATOM      2  C   UNL A   1      33.392  28.479  25.114  1.00  0.00     0.021 C 
BRANCH   2   3
ATOM      3  C   UNL A   1      33.675  29.355  23.891  1.00  0.00     0.116 C 
BRANCH   3   4
ATOM      4  N   UNL A   1      33.803  28.517  22.712  1.00  0.00    -0.352 N 
ATOM      5  C   UNL A   1      33.125  27.413  22.263  1.00  0.00     0.252 C 
ATOM      6  O   UNL A   1      33.645  26.778  21.347  1.00  0.00    -0.269 OA
ATOM      7  H   UNL A   1      34.528  28.802  22.109  1.00  0.00     0.163 HD
BRANCH   5   8
ATOM      8  C   UNL A   1      31.798  26.993  22.797  1.00  0.00     0.060 A 
ATOM      9  C   UNL A   1      30.420  25.462  24.088  1.00  0.00     0.050 A 
ATOM     10  C   UNL A   1      29.307  26.276  23.885  1.00  0.00     0.028 A 
ATOM     11  C   UNL A   1      31.620  25.754  23.435  1.00  0.00     0.042 A 
ATOM     12  C   UNL A   1      29.438  27.464  23.173  1.00  0.00     0.023 A 
ATOM     13  C   UNL A   1      30.689  27.851  22.674  1.00  0.00     0.053 A 
ATOM     14  Cl  UNL A   1      30.760  29.446  22.005  1.00  0.00    -0.083 Cl
BRANCH   9  15
ATOM     15  N   UNL A   1      30.275  24.417  25.040  1.00  0.00    -0.280 N 
ATOM     16  H   UNL A   1      29.599  23.726  24.859  1.00  0.00     0.180 HD
BRANCH  15  17
ATOM     17  S   UNL A   1      31.175  24.278  26.450  1.00  0.00     0.261 S 
ATOM     18  O   UNL A   1      30.558  23.248  27.269  1.00  0.00    -0.201 OA
ATOM     19  O   UNL A   1      31.349  25.623  26.940  1.00  0.00    -0.201 OA
BRANCH  17  20
ATOM     20  C   UNL A   1      32.804  23.670  26.053  1.00  0.00     0.089 A 
ATOM     21  C   UNL A   1      36.394  22.211  24.160  1.00  0.00     0.046 C 
ATOM     22  C   UNL A   1      35.153  22.674  24.873  1.00  0.00    -0.032 A 
ATOM     23  C   UNL A   1      35.093  23.990  25.357  1.00  0.00     0.006 A 
ATOM     24  C   UNL A   1      34.055  21.830  25.091  1.00  0.00     0.045 A 
ATOM     25  C   UNL A   1      33.933  24.482  25.966  1.00  0.00     0.022 A 
ATOM     26  C   UNL A   1      32.881  22.327  25.661  1.00  0.00     0.043 A 
ATOM     27  Cl  UNL A   1      34.079  20.168  24.624  1.00  0.00    -0.084 Cl
ENDBRANCH  17  20
ENDBRANCH  15  17
ENDBRANCH   9  15
ENDBRANCH   5   8
ENDBRANCH   3   4
ENDBRANCH   2   3
ENDBRANCH   1   2
BRANCH   1  28
ATOM     28  C   UNL A   1      31.586  30.294  25.436  1.00  0.00     0.002 C 
BRANCH  28  29
ATOM     29  C   UNL A   1      31.403  31.432  26.445  1.00  0.00     0.021 C 
BRANCH  29  30
ATOM     30  C   UNL A   1      32.693  32.126  26.876  1.00  0.00     0.116 C 
BRANCH  30  31
ATOM     31  N   UNL A   1      32.468  33.505  27.273  1.00  0.00    -0.352 N 
ATOM     32  C   UNL A   1      33.072  34.235  28.265  1.00  0.00     0.251 C 
ATOM     33  H   UNL A   1      31.782  33.986  26.755  1.00  0.00     0.163 HD
ATOM     34  O   UNL A   1      32.633  35.340  28.574  1.00  0.00    -0.269 OA
BRANCH  32  35
ATOM     35  C   UNL A   1      34.244  33.688  28.982  1.00  0.00     0.039 A 
ATOM     36  C   UNL A   1      34.038  32.699  29.948  1.00  0.00     0.014 A 
ATOM     37  C   UNL A   1      35.533  34.167  28.731  1.00  0.00     0.014 A 
ATOM     38  C   UNL A   1      35.129  32.156  30.629  1.00  0.00     0.010 A 
ATOM     39  C   UNL A   1      36.626  33.590  29.375  1.00  0.00     0.010 A 
ATOM     40  C   UNL A   1      36.433  32.582  30.331  1.00  0.00    -0.014 A 
BRANCH  40  41
ATOM     41  C   UNL A   1      37.604  31.981  31.015  1.00  0.00     0.031 A 
ATOM     42  C   UNL A   1      38.428  30.932  30.326  1.00  0.00     0.074 A 
ATOM     43  C   UNL A   1      37.891  32.343  32.280  1.00  0.00     0.049 A 
ATOM     44  N   UNL A   1      39.455  30.257  30.778  1.00  0.00    -0.248 NA
ATOM     45  C   UNL A   1      38.033  30.578  28.953  1.00  0.00     0.031 C 
ATOM     46  C   UNL A   1      37.135  33.314  33.072  1.00  0.00     0.029 A 
ATOM     47  N   UNL A   1      38.887  31.925  33.125  1.00  0.00    -0.354 N 
ATOM     48  C   UNL A   1      39.815  29.389  29.756  1.00  0.00     0.074 A 
ATOM     49  C   UNL A   1      38.878  29.596  28.674  1.00  0.00     0.031 C 
ATOM     50  C   UNL A   1      37.704  33.428  34.284  1.00  0.00     0.029 A 
ATOM     51  C   UNL A   1      38.846  32.522  34.361  1.00  0.00     0.049 A 
ATOM     52  H   UNL A   1      39.567  31.261  32.870  1.00  0.00     0.167 HD
ATOM     53  C   UNL A   1      40.846  28.510  29.721  1.00  0.00     0.037 A 
ATOM     54  C   UNL A   1      39.639  32.355  35.435  1.00  0.00     0.037 A 
ATOM     55  C   UNL A   1      41.798  28.328  30.785  1.00  0.00     0.049 A 
ATOM     56  C   UNL A   1      40.795  31.396  35.356  1.00  0.00     0.074 A 
ATOM     57  C   UNL A   1      42.914  27.511  30.815  1.00  0.00     0.029 A 
ATOM     58  N   UNL A   1      41.745  28.978  32.008  1.00  0.00    -0.354 N 
ATOM     59  N   UNL A   1      41.166  30.629  34.362  1.00  0.00    -0.248 NA
ATOM     60  C   UNL A   1      41.647  31.286  36.549  1.00  0.00     0.031 C 
ATOM     61  C   UNL A   1      43.522  27.646  32.068  1.00  0.00     0.029 A 
ATOM     62  C   UNL A   1      42.802  28.572  32.805  1.00  0.00     0.049 A 
ATOM     63  H   UNL A   1      41.058  29.633  32.272  1.00  0.00     0.167 HD
ATOM     64  C   UNL A   1      42.303  29.963  34.797  1.00  0.00     0.074 A 
ATOM     65  C   UNL A   1      42.570  30.427  36.142  1.00  0.00     0.031 C 
ATOM     66  C   UNL A   1      43.058  29.050  34.139  1.00  0.00     0.037 A 
BRANCH  53  67
ATOM     67  C   UNL A   1      41.004  27.679  28.484  1.00  0.00     0.064 A 
ATOM     68  C   UNL A   1      40.319  26.466  28.324  1.00  0.00     0.173 A 
ATOM     69  C   UNL A   1      41.814  28.122  27.428  1.00  0.00     0.173 A 
ATOM     70  F   UNL A   1      39.541  25.995  29.310  1.00  0.00    -0.203 F 
ATOM     71  C   UNL A   1      40.457  25.715  27.159  1.00  0.00     0.198 A 
ATOM     72  C   UNL A   1      41.932  27.380  26.256  1.00  0.00     0.198 A 
ATOM     73  F   UNL A   1      42.486  29.279  27.530  1.00  0.00    -0.203 F 
ATOM     74  F   UNL A   1      39.822  24.540  27.042  1.00  0.00    -0.200 F 
ATOM     75  C   UNL A   1      41.257  26.175  26.125  1.00  0.00     0.200 A 
ATOM     76  F   UNL A   1      42.698  27.830  25.253  1.00  0.00    -0.200 F 
ATOM     77  F   UNL A   1      41.383  25.454  25.001  1.00  0.00    -0.200 F 
ENDBRANCH  53  67
BRANCH  54  78
ATOM     78  C   UNL A   1      39.387  33.141  36.668  1.00  0.00     0.064 A 
ATOM     79  C   UNL A   1      38.492  32.677  37.642  1.00  0.00     0.173 A 
ATOM     80  C   UNL A   1      40.033  34.363  36.899  1.00  0.00     0.173 A 
ATOM     81  F   UNL A   1      37.836  31.523  37.452  1.00  0.00    -0.203 F 
ATOM     82  C   UNL A   1      38.241  33.416  38.795  1.00  0.00     0.198 A 
ATOM     83  C   UNL A   1      39.797  35.090  38.064  1.00  0.00     0.198 A 
ATOM     84  F   UNL A   1      40.899  34.846  35.997  1.00  0.00    -0.203 F 
ATOM     85  F   UNL A   1      37.352  32.969  39.694  1.00  0.00    -0.200 F 
ATOM     86  C   UNL A   1      38.897  34.619  39.008  1.00  0.00     0.200 A 
ATOM     87  F   UNL A   1      40.439  36.248  38.270  1.00  0.00    -0.200 F 
ATOM     88  F   UNL A   1      38.656  35.328  40.119  1.00  0.00    -0.200 F 
ENDBRANCH  54  78
BRANCH  66  89
ATOM     89  C   UNL A   1      44.258  28.512  34.856  1.00  0.00     0.064 A 
ATOM     90  C   UNL A   1      45.499  29.162  34.793  1.00  0.00     0.173 A 
ATOM     91  C   UNL A   1      44.157  27.355  35.642  1.00  0.00     0.173 A 
ATOM     92  F   UNL A   1      45.647  30.263  34.041  1.00  0.00    -0.203 F 
ATOM     93  C   UNL A   1      46.602  28.661  35.478  1.00  0.00     0.198 A 
ATOM     94  C   UNL A   1      45.256  26.870  36.342  1.00  0.00     0.198 A 
ATOM     95  F   UNL A   1      42.990  26.700  35.734  1.00  0.00    -0.203 F 
ATOM     96  F   UNL A   1      47.788  29.277  35.376  1.00  0.00    -0.200 F 
ATOM     97  C   UNL A   1      46.479  27.520  36.257  1.00  0.00     0.200 A 
ATOM     98  F   UNL A   1      45.135  25.771  37.100  1.00  0.00    -0.200 F 
ATOM     99  F   UNL A   1      47.541  27.041  36.919  1.00  0.00    -0.200 F 
ENDBRANCH  66  89
ENDBRANCH  40  41
ENDBRANCH  32  35
ENDBRANCH  30  31
ENDBRANCH  29  30
ENDBRANCH  28  29
ENDBRANCH   1  28
TORSDOF 16
ENDMDL
MODEL 3
REMARK VINA RESULT:     -12.4      3.175      4.488
REMARK SMILES Cc1ccc(S(=O)(=O)Nc2ccc(Cl)c(C(=O)NCCCCCCNC(=O)c3ccc(-c4c5nc(c(-c6c(F)c(F)c(F)c(F)c6F)c6ccc([nH]6)c(-c6c(F)c(F)c(F)c(F)c6F)c6nc(c(-c7c(F)c(F)c(F)c(F)c7F)c7ccc4[nH]7)C=C6)C=C5)cc3)c2)cc1Cl
REMARK SMILES IDX 21 1 20 2 19 3 18 4 16 5 17 6 15 8 10 9 11 10 91 11 12 12
REMARK SMILES IDX 13 13 14 14 9 15 6 17 7 18 8 19 5 20 1 21 2 22 3 23 93 24
REMARK SMILES IDX 4 25 92 26 94 27 22 28 23 29 24 30 25 31 26 32 27 34 28 35
REMARK SMILES IDX 29 36 90 37 30 38 89 39 31 40 32 41 33 42 83 43 34 44 88 45
REMARK SMILES IDX 82 46 84 47 35 48 87 49 81 50 80 51 36 53 68 54 48 55 67 56
REMARK SMILES IDX 49 57 52 58 66 59 85 60 50 61 51 62 65 64 86 65 53 66 37 67
REMARK SMILES IDX 38 68 46 69 39 70 40 71 44 72 47 73 41 74 42 75 45 76 43 77
REMARK SMILES IDX 69 78 70 79 78 80 71 81 72 82 76 83 79 84 73 85 74 86 77 87
REMARK SMILES IDX 75 88 54 89 55 90 63 91 56 92 57 93 61 94 64 95 58 96 59 97
REMARK SMILES IDX 62 98 60 99
REMARK H PARENT 18 7 9 16 25 33 84 52 52 63
REMARK Flexibility Score: inf
ROOT
ATOM      1  C   UNL A   1      33.406  29.043  24.039  1.00  0.00     0.002 C 
ENDROOT
BRANCH   1   2
ATOM      2  C   UNL A   1      34.041  28.701  22.686  1.00  0.00     0.021 C 
BRANCH   2   3
ATOM      3  C   UNL A   1      34.114  27.193  22.431  1.00  0.00     0.116 C 
BRANCH   3   4
ATOM      4  N   UNL A   1      33.215  26.840  21.348  1.00  0.00    -0.352 N 
ATOM      5  C   UNL A   1      31.973  26.257  21.306  1.00  0.00     0.252 C 
ATOM      6  O   UNL A   1      31.586  25.859  20.209  1.00  0.00    -0.269 OA
ATOM      7  H   UNL A   1      33.570  27.066  20.458  1.00  0.00     0.163 HD
BRANCH   5   8
ATOM      8  C   UNL A   1      31.085  26.135  22.496  1.00  0.00     0.060 A 
ATOM      9  C   UNL A   1      30.317  24.913  24.452  1.00  0.00     0.050 A 
ATOM     10  C   UNL A   1      29.478  25.972  24.797  1.00  0.00     0.028 A 
ATOM     11  C   UNL A   1      31.011  24.946  23.240  1.00  0.00     0.042 A 
ATOM     12  C   UNL A   1      29.464  27.125  24.020  1.00  0.00     0.023 A 
ATOM     13  C   UNL A   1      30.302  27.233  22.903  1.00  0.00     0.053 A 
ATOM     14  Cl  UNL A   1      30.351  28.794  22.158  1.00  0.00    -0.083 Cl
BRANCH   9  15
ATOM     15  N   UNL A   1      30.480  23.891  25.425  1.00  0.00    -0.280 N 
ATOM     16  H   UNL A   1      29.904  23.096  25.354  1.00  0.00     0.180 HD
BRANCH  15  17
ATOM     17  S   UNL A   1      31.585  23.941  26.688  1.00  0.00     0.261 S 
ATOM     18  O   UNL A   1      31.279  22.842  27.587  1.00  0.00    -0.201 OA
ATOM     19  O   UNL A   1      31.594  25.308  27.148  1.00  0.00    -0.201 OA
BRANCH  17  20
ATOM     20  C   UNL A   1      33.219  23.610  26.055  1.00  0.00     0.089 A 
ATOM     21  C   UNL A   1      36.681  22.628  23.678  1.00  0.00     0.046 C 
ATOM     22  C   UNL A   1      35.503  22.935  24.561  1.00  0.00    -0.032 A 
ATOM     23  C   UNL A   1      35.243  24.268  24.917  1.00  0.00     0.006 A 
ATOM     24  C   UNL A   1      34.660  21.933  25.060  1.00  0.00     0.045 A 
ATOM     25  C   UNL A   1      34.121  24.604  25.681  1.00  0.00     0.022 A 
ATOM     26  C   UNL A   1      33.515  22.267  25.788  1.00  0.00     0.043 A 
ATOM     27  Cl  UNL A   1      34.960  20.259  24.760  1.00  0.00    -0.084 Cl
ENDBRANCH  17  20
ENDBRANCH  15  17
ENDBRANCH   9  15
ENDBRANCH   5   8
ENDBRANCH   3   4
ENDBRANCH   2   3
ENDBRANCH   1   2
BRANCH   1  28
ATOM     28  C   UNL A   1      33.160  27.834  24.951  1.00  0.00     0.002 C 
BRANCH  28  29
ATOM     29  C   UNL A   1      32.800  28.171  26.401  1.00  0.00     0.021 C 
BRANCH  29  30
ATOM     30  C   UNL A   1      33.973  28.621  27.269  1.00  0.00     0.116 C 
BRANCH  30  31
ATOM     31  N   UNL A   1      33.836  30.001  27.703  1.00  0.00    -0.352 N 
ATOM     32  C   UNL A   1      34.712  30.778  28.419  1.00  0.00     0.251 C 
ATOM     33  H   UNL A   1      32.994  30.442  27.448  1.00  0.00     0.163 HD
ATOM     34  O   UNL A   1      34.357  31.874  28.847  1.00  0.00    -0.269 OA
BRANCH  32  35
ATOM     35  C   UNL A   1      36.082  30.295  28.695  1.00  0.00     0.039 A 
ATOM     36  C   UNL A   1      37.058  30.446  27.706  1.00  0.00     0.014 A 
ATOM     37  C   UNL A   1      36.397  29.666  29.903  1.00  0.00     0.014 A 
ATOM     38  C   UNL A   1      38.362  30.011  27.946  1.00  0.00     0.010 A 
ATOM     39  C   UNL A   1      37.710  29.276  30.161  1.00  0.00     0.010 A 
ATOM     40  C   UNL A   1      38.703  29.443  29.184  1.00  0.00    -0.014 A 
BRANCH  40  41
ATOM     41  C   UNL A   1      40.095  29.018  29.468  1.00  0.00     0.031 A 
ATOM     42  C   UNL A   1      41.015  29.909  30.251  1.00  0.00     0.074 A 
ATOM     43  C   UNL A   1      40.545  27.850  28.973  1.00  0.00     0.049 A 
ATOM     44  N   UNL A   1      42.276  29.734  30.556  1.00  0.00    -0.248 NA
ATOM     45  C   UNL A   1      40.450  31.179  30.736  1.00  0.00     0.031 C 
ATOM     46  C   UNL A   1      39.762  26.921  28.157  1.00  0.00     0.029 A 
ATOM     47  N   UNL A   1      41.777  27.252  29.072  1.00  0.00    -0.354 N 
ATOM     48  C   UNL A   1      42.659  30.874  31.251  1.00  0.00     0.074 A 
ATOM     49  C   UNL A   1      41.508  31.750  31.293  1.00  0.00     0.031 C 
ATOM     50  C   UNL A   1      40.528  25.863  27.841  1.00  0.00     0.029 A 
ATOM     51  C   UNL A   1      41.859  26.051  28.411  1.00  0.00     0.049 A 
ATOM     52  H   UNL A   1      42.528  27.646  29.570  1.00  0.00     0.167 HD
ATOM     53  C   UNL A   1      43.858  31.154  31.816  1.00  0.00     0.037 A 
ATOM     54  C   UNL A   1      42.893  25.200  28.279  1.00  0.00     0.037 A 
ATOM     55  C   UNL A   1      44.991  30.267  31.803  1.00  0.00     0.049 A 
ATOM     56  C   UNL A   1      44.203  25.522  28.943  1.00  0.00     0.074 A 
ATOM     57  C   UNL A   1      46.225  30.435  32.406  1.00  0.00     0.029 A 
ATOM     58  N   UNL A   1      45.025  29.043  31.155  1.00  0.00    -0.354 N 
ATOM     59  N   UNL A   1      44.533  26.572  29.653  1.00  0.00    -0.248 NA
ATOM     60  C   UNL A   1      45.282  24.535  28.794  1.00  0.00     0.031 C 
ATOM     61  C   UNL A   1      47.017  29.322  32.098  1.00  0.00     0.029 A 
ATOM     62  C   UNL A   1      46.263  28.449  31.332  1.00  0.00     0.049 A 
ATOM     63  H   UNL A   1      44.279  28.652  30.644  1.00  0.00     0.167 HD
ATOM     64  C   UNL A   1      45.846  26.365  30.054  1.00  0.00     0.074 A 
ATOM     65  C   UNL A   1      46.248  25.081  29.518  1.00  0.00     0.031 C 
ATOM     66  C   UNL A   1      46.645  27.167  30.799  1.00  0.00     0.037 A 
BRANCH  53  67
ATOM     67  C   UNL A   1      44.004  32.476  32.506  1.00  0.00     0.064 A 
ATOM     68  C   UNL A   1      43.714  32.625  33.871  1.00  0.00     0.173 A 
ATOM     69  C   UNL A   1      44.478  33.596  31.808  1.00  0.00     0.173 A 
ATOM     70  F   UNL A   1      43.247  31.586  34.579  1.00  0.00    -0.203 F 
ATOM     71  C   UNL A   1      43.876  33.853  34.506  1.00  0.00     0.198 A 
ATOM     72  C   UNL A   1      44.660  34.817  32.452  1.00  0.00     0.198 A 
ATOM     73  F   UNL A   1      44.774  33.504  30.503  1.00  0.00    -0.203 F 
ATOM     74  F   UNL A   1      43.560  33.983  35.803  1.00  0.00    -0.200 F 
ATOM     75  C   UNL A   1      44.354  34.946  33.798  1.00  0.00     0.200 A 
ATOM     76  F   UNL A   1      45.132  35.869  31.769  1.00  0.00    -0.200 F 
ATOM     77  F   UNL A   1      44.516  36.126  34.414  1.00  0.00    -0.200 F 
ENDBRANCH  53  67
BRANCH  54  78
ATOM     78  C   UNL A   1      42.720  23.943  27.511  1.00  0.00     0.064 A 
ATOM     79  C   UNL A   1      43.064  23.880  26.153  1.00  0.00     0.173 A 
ATOM     80  C   UNL A   1      42.213  22.784  28.113  1.00  0.00     0.173 A 
ATOM     81  F   UNL A   1      43.534  24.971  25.532  1.00  0.00    -0.203 F 
ATOM     82  C   UNL A   1      42.893  22.707  25.423  1.00  0.00     0.198 A 
ATOM     83  C   UNL A   1      42.062  21.604  27.387  1.00  0.00     0.198 A 
ATOM     84  F   UNL A   1      41.872  22.795  29.410  1.00  0.00    -0.203 F 
ATOM     85  F   UNL A   1      43.195  22.683  24.117  1.00  0.00    -0.200 F 
ATOM     86  C   UNL A   1      42.397  21.568  26.041  1.00  0.00     0.200 A 
ATOM     87  F   UNL A   1      41.591  20.504  27.989  1.00  0.00    -0.200 F 
ATOM     88  F   UNL A   1      42.234  20.439  25.338  1.00  0.00    -0.200 F 
ENDBRANCH  54  78
BRANCH  66  89
ATOM     89  C   UNL A   1      48.025  26.667  31.100  1.00  0.00     0.064 A 
ATOM     90  C   UNL A   1      48.276  25.833  32.198  1.00  0.00     0.173 A 
ATOM     91  C   UNL A   1      49.098  26.997  30.260  1.00  0.00     0.173 A 
ATOM     92  F   UNL A   1      47.283  25.504  33.038  1.00  0.00    -0.203 F 
ATOM     93  C   UNL A   1      49.560  25.362  32.456  1.00  0.00     0.198 A 
ATOM     94  C   UNL A   1      50.376  26.506  30.509  1.00  0.00     0.198 A 
ATOM     95  F   UNL A   1      48.905  27.790  29.196  1.00  0.00    -0.203 F 
ATOM     96  F   UNL A   1      49.786  24.595  33.532  1.00  0.00    -0.200 F 
ATOM     97  C   UNL A   1      50.607  25.692  31.609  1.00  0.00     0.200 A 
ATOM     98  F   UNL A   1      51.385  26.821  29.686  1.00  0.00    -0.200 F 
ATOM     99  F   UNL A   1      51.842  25.235  31.857  1.00  0.00    -0.200 F 
ENDBRANCH  66  89
ENDBRANCH  40  41
ENDBRANCH  32  35
ENDBRANCH  30  31
ENDBRANCH  29  30
ENDBRANCH  28  29
ENDBRANCH   1  28
TORSDOF 16
ENDMDL
