MODEL 1
REMARK VINA RESULT:     -11.1      0.000      0.000
REMARK SMILES C[C@@H]1SCCC[C@@]1(CC(=O)NCCCCCCNC(=O)c1ccc(-c2c3nc(c(-c4c(F)c(F)c(F)c(F)c4F)c4ccc([nH]4)c(-c4c(F)c(F)c(F)c(F)c4F)c4nc(c(-c5c(F)c(F)c(F)c(F)c5F)c5ccc2[nH]5)C=C4)C=C3)cc1)[NH+]1CCCC1
REMARK SMILES IDX 14 1 13 2 12 3 11 4 9 5 10 6 8 8 7 9 1 10 2 11 3 12 4 13
REMARK SMILES IDX 6 14 5 15 84 16 85 17 88 18 86 20 87 21 15 22 16 23 17 24
REMARK SMILES IDX 18 25 19 26 20 28 21 29 22 30 83 31 23 32 82 33 24 34 25 35
REMARK SMILES IDX 26 36 76 37 27 38 81 39 75 40 77 41 28 42 80 43 74 44 73 45
REMARK SMILES IDX 29 47 61 48 41 49 60 50 42 51 45 52 59 53 78 54 43 55 44 56
REMARK SMILES IDX 58 58 79 59 46 60 30 61 31 62 39 63 32 64 33 65 37 66 40 67
REMARK SMILES IDX 34 68 35 69 38 70 36 71 62 72 63 73 71 74 64 75 65 76 69 77
REMARK SMILES IDX 72 78 66 79 67 80 70 81 68 82 47 83 48 84 56 85 49 86 50 87
REMARK SMILES IDX 54 88 57 89 51 90 52 91 55 92 53 93
REMARK H PARENT 11 7 84 19 18 27 77 46 45 57
REMARK Flexibility Score: inf
ROOT
ATOM      1  C   UNL A   1      34.925  32.814  28.047  1.00  0.00     0.002 C 
ENDROOT
BRANCH   1   2
ATOM      2  C   UNL A   1      34.252  31.478  28.372  1.00  0.00     0.021 C 
BRANCH   2   3
ATOM      3  C   UNL A   1      33.676  30.762  27.150  1.00  0.00     0.116 C 
BRANCH   3   4
ATOM      4  N   UNL A   1      32.717  29.746  27.529  1.00  0.00    -0.356 N 
ATOM      5  C   UNL A   1      32.619  28.435  27.206  1.00  0.00     0.226 C 
ATOM      6  O   UNL A   1      31.777  27.784  27.832  1.00  0.00    -0.275 OA
ATOM      7  H   UNL A   1      32.006  30.068  28.129  1.00  0.00     0.163 HD
BRANCH   5   8
ATOM      8  C   UNL A   1      33.517  27.755  26.181  1.00  0.00     0.169 C 
BRANCH   8   9
ATOM      9  C   UNL A   1      32.829  26.992  24.977  1.00  0.00     0.118 C 
ATOM     10  C   UNL A   1      34.145  24.796  25.719  1.00  0.00     0.026 C 
ATOM     11  C   UNL A   1      32.791  25.417  25.286  1.00  0.00     0.105 C 
ATOM     12  S   UNL A   1      32.226  24.333  23.892  1.00  0.00    -0.152 SA
ATOM     13  C   UNL A   1      33.284  24.953  22.562  1.00  0.00     0.070 C 
ATOM     14  C   UNL A   1      33.756  27.176  23.719  1.00  0.00     0.071 C 
ATOM     15  C   UNL A   1      33.279  26.469  22.450  1.00  0.00     0.017 C 
BRANCH   9  16
ATOM     16  N   UNL A   1      31.523  27.685  24.737  1.00  0.00    -0.329 N 
ATOM     17  C   UNL A   1      30.256  27.003  24.529  1.00  0.00     0.262 C 
ATOM     18  C   UNL A   1      31.499  28.975  24.038  1.00  0.00     0.262 C 
ATOM     19  H   UNL A   1      31.558  27.805  25.749  1.00  0.00     0.348 HD
ATOM     20  C   UNL A   1      29.592  27.701  23.353  1.00  0.00     0.067 C 
ATOM     21  C   UNL A   1      30.131  29.107  23.390  1.00  0.00     0.067 C 
ENDBRANCH   9  16
ENDBRANCH   8   9
ENDBRANCH   5   8
ENDBRANCH   3   4
ENDBRANCH   2   3
ENDBRANCH   1   2
BRANCH   1  22
ATOM     22  C   UNL A   1      34.699  33.917  29.086  1.00  0.00     0.002 C 
BRANCH  22  23
ATOM     23  C   UNL A   1      33.320  34.584  29.059  1.00  0.00     0.021 C 
BRANCH  23  24
ATOM     24  C   UNL A   1      33.288  36.053  29.483  1.00  0.00     0.116 C 
BRANCH  24  25
ATOM     25  N   UNL A   1      32.503  36.260  30.690  1.00  0.00    -0.352 N 
ATOM     26  C   UNL A   1      32.648  35.746  31.950  1.00  0.00     0.251 C 
ATOM     27  H   UNL A   1      31.741  36.872  30.583  1.00  0.00     0.163 HD
ATOM     28  O   UNL A   1      31.740  35.887  32.772  1.00  0.00    -0.269 OA
BRANCH  26  29
ATOM     29  C   UNL A   1      33.872  35.017  32.347  1.00  0.00     0.039 A 
ATOM     30  C   UNL A   1      33.743  33.729  32.876  1.00  0.00     0.014 A 
ATOM     31  C   UNL A   1      35.134  35.612  32.269  1.00  0.00     0.014 A 
ATOM     32  C   UNL A   1      34.879  33.019  33.278  1.00  0.00     0.010 A 
ATOM     33  C   UNL A   1      36.272  34.883  32.611  1.00  0.00     0.010 A 
ATOM     34  C   UNL A   1      36.156  33.580  33.122  1.00  0.00    -0.014 A 
BRANCH  34  35
ATOM     35  C   UNL A   1      37.378  32.820  33.491  1.00  0.00     0.031 A 
ATOM     36  C   UNL A   1      38.104  33.121  34.772  1.00  0.00     0.074 A 
ATOM     37  C   UNL A   1      37.867  31.898  32.640  1.00  0.00     0.049 A 
ATOM     38  N   UNL A   1      39.226  32.621  35.226  1.00  0.00    -0.248 NA
ATOM     39  C   UNL A   1      37.503  34.137  35.647  1.00  0.00     0.031 C 
ATOM     40  C   UNL A   1      37.278  31.544  31.349  1.00  0.00     0.029 A 
ATOM     41  N   UNL A   1      38.983  31.102  32.727  1.00  0.00    -0.354 N 
ATOM     42  C   UNL A   1      39.469  33.266  36.430  1.00  0.00     0.074 A 
ATOM     43  C   UNL A   1      38.406  34.231  36.613  1.00  0.00     0.031 C 
ATOM     44  C   UNL A   1      38.031  30.597  30.768  1.00  0.00     0.029 A 
ATOM     45  C   UNL A   1      39.173  30.301  31.628  1.00  0.00     0.049 A 
ATOM     46  H   UNL A   1      39.588  31.106  33.504  1.00  0.00     0.167 HD
ATOM     47  C   UNL A   1      40.475  33.059  37.314  1.00  0.00     0.037 A 
ATOM     48  C   UNL A   1      40.162  29.434  31.341  1.00  0.00     0.037 A 
ATOM     49  C   UNL A   1      41.523  32.087  37.139  1.00  0.00     0.049 A 
ATOM     50  C   UNL A   1      41.270  29.223  32.337  1.00  0.00     0.074 A 
ATOM     51  C   UNL A   1      42.561  31.771  37.998  1.00  0.00     0.029 A 
ATOM     52  N   UNL A   1      41.668  31.275  36.023  1.00  0.00    -0.354 N 
ATOM     53  N   UNL A   1      41.459  29.800  33.497  1.00  0.00    -0.248 NA
ATOM     54  C   UNL A   1      42.298  28.233  31.984  1.00  0.00     0.031 C 
ATOM     55  C   UNL A   1      43.357  30.796  37.385  1.00  0.00     0.029 A 
ATOM     56  C   UNL A   1      42.788  30.470  36.166  1.00  0.00     0.049 A 
ATOM     57  H   UNL A   1      41.064  31.270  35.246  1.00  0.00     0.167 HD
ATOM     58  C   UNL A   1      42.609  29.230  34.025  1.00  0.00     0.074 A 
ATOM     59  C   UNL A   1      43.068  28.249  33.063  1.00  0.00     0.031 C 
ATOM     60  C   UNL A   1      43.230  29.496  35.200  1.00  0.00     0.037 A 
BRANCH  47  61
ATOM     61  C   UNL A   1      40.488  33.902  38.557  1.00  0.00     0.064 A 
ATOM     62  C   UNL A   1      39.783  33.521  39.709  1.00  0.00     0.173 A 
ATOM     63  C   UNL A   1      41.236  35.088  38.609  1.00  0.00     0.173 A 
ATOM     64  F   UNL A   1      39.044  32.401  39.709  1.00  0.00    -0.203 F 
ATOM     65  C   UNL A   1      39.800  34.310  40.855  1.00  0.00     0.198 A 
ATOM     66  C   UNL A   1      41.274  35.860  39.768  1.00  0.00     0.198 A 
ATOM     67  F   UNL A   1      41.935  35.495  37.540  1.00  0.00    -0.203 F 
ATOM     68  F   UNL A   1      39.076  33.952  41.925  1.00  0.00    -0.200 F 
ATOM     69  C   UNL A   1      40.550  35.476  40.885  1.00  0.00     0.200 A 
ATOM     70  F   UNL A   1      42.010  36.980  39.799  1.00  0.00    -0.200 F 
ATOM     71  F   UNL A   1      40.568  36.234  41.991  1.00  0.00    -0.200 F 
ENDBRANCH  47  61
BRANCH  48  72
ATOM     72  C   UNL A   1      40.136  28.688  30.057  1.00  0.00     0.064 A 
ATOM     73  C   UNL A   1      40.745  29.210  28.908  1.00  0.00     0.173 A 
ATOM     74  C   UNL A   1      39.514  27.436  29.956  1.00  0.00     0.173 A 
ATOM     75  F   UNL A   1      41.335  30.413  28.951  1.00  0.00    -0.203 F 
ATOM     76  C   UNL A   1      40.719  28.512  27.701  1.00  0.00     0.198 A 
ATOM     77  C   UNL A   1      39.513  26.727  28.757  1.00  0.00     0.198 A 
ATOM     78  F   UNL A   1      38.922  26.890  31.030  1.00  0.00    -0.203 F 
ATOM     79  F   UNL A   1      41.275  29.051  26.608  1.00  0.00    -0.200 F 
ATOM     80  C   UNL A   1      40.109  27.269  27.628  1.00  0.00     0.200 A 
ATOM     81  F   UNL A   1      38.935  25.520  28.694  1.00  0.00    -0.200 F 
ATOM     82  F   UNL A   1      40.091  26.596  26.470  1.00  0.00    -0.200 F 
ENDBRANCH  48  72
BRANCH  60  83
ATOM     83  C   UNL A   1      44.458  28.696  35.525  1.00  0.00     0.064 A 
ATOM     84  C   UNL A   1      44.382  27.485  36.228  1.00  0.00     0.173 A 
ATOM     85  C   UNL A   1      45.721  29.129  35.095  1.00  0.00     0.173 A 
ATOM     86  F   UNL A   1      43.199  27.037  36.675  1.00  0.00    -0.203 F 
ATOM     87  C   UNL A   1      45.530  26.748  36.508  1.00  0.00     0.198 A 
ATOM     88  C   UNL A   1      46.863  28.375  35.354  1.00  0.00     0.198 A 
ATOM     89  F   UNL A   1      45.847  30.278  34.414  1.00  0.00    -0.203 F 
ATOM     90  F   UNL A   1      45.438  25.616  37.221  1.00  0.00    -0.200 F 
ATOM     91  C   UNL A   1      46.767  27.190  36.066  1.00  0.00     0.200 A 
ATOM     92  F   UNL A   1      48.057  28.798  34.914  1.00  0.00    -0.200 F 
ATOM     93  F   UNL A   1      47.869  26.475  36.331  1.00  0.00    -0.200 F 
ENDBRANCH  60  83
ENDBRANCH  34  35
ENDBRANCH  26  29
ENDBRANCH  24  25
ENDBRANCH  23  24
ENDBRANCH  22  23
ENDBRANCH   1  22
TORSDOF 15
ENDMDL
MODEL 2
REMARK VINA RESULT:     -11.0      1.994      8.043
REMARK SMILES C[C@@H]1SCCC[C@@]1(CC(=O)NCCCCCCNC(=O)c1ccc(-c2c3nc(c(-c4c(F)c(F)c(F)c(F)c4F)c4ccc([nH]4)c(-c4c(F)c(F)c(F)c(F)c4F)c4nc(c(-c5c(F)c(F)c(F)c(F)c5F)c5ccc2[nH]5)C=C4)C=C3)cc1)[NH+]1CCCC1
REMARK SMILES IDX 14 1 13 2 12 3 11 4 9 5 10 6 8 8 7 9 1 10 2 11 3 12 4 13
REMARK SMILES IDX 6 14 5 15 84 16 85 17 88 18 86 20 87 21 15 22 16 23 17 24
REMARK SMILES IDX 18 25 19 26 20 28 21 29 22 30 83 31 23 32 82 33 24 34 25 35
REMARK SMILES IDX 26 36 76 37 27 38 81 39 75 40 77 41 28 42 80 43 74 44 73 45
REMARK SMILES IDX 29 47 61 48 41 49 60 50 42 51 45 52 59 53 78 54 43 55 44 56
REMARK SMILES IDX 58 58 79 59 46 60 30 61 31 62 39 63 32 64 33 65 37 66 40 67
REMARK SMILES IDX 34 68 35 69 38 70 36 71 62 72 63 73 71 74 64 75 65 76 69 77
REMARK SMILES IDX 72 78 66 79 67 80 70 81 68 82 47 83 48 84 56 85 49 86 50 87
REMARK SMILES IDX 54 88 57 89 51 90 52 91 55 92 53 93
REMARK H PARENT 11 7 84 19 18 27 77 46 45 57
REMARK Flexibility Score: inf
ROOT
ATOM      1  C   UNL A   1      32.289  29.859  26.839  1.00  0.00     0.002 C 
ENDROOT
BRANCH   1   2
ATOM      2  C   UNL A   1      31.634  28.574  27.353  1.00  0.00     0.021 C 
BRANCH   2   3
ATOM      3  C   UNL A   1      31.480  27.490  26.286  1.00  0.00     0.116 C 
BRANCH   3   4
ATOM      4  N   UNL A   1      31.114  26.216  26.867  1.00  0.00    -0.356 N 
ATOM      5  C   UNL A   1      31.268  24.947  26.422  1.00  0.00     0.226 C 
ATOM      6  O   UNL A   1      31.004  24.053  27.232  1.00  0.00    -0.275 OA
ATOM      7  H   UNL A   1      30.673  26.286  27.744  1.00  0.00     0.163 HD
BRANCH   5   8
ATOM      8  C   UNL A   1      31.788  24.603  25.033  1.00  0.00     0.169 C 
BRANCH   8   9
ATOM      9  C   UNL A   1      33.097  23.719  24.926  1.00  0.00     0.118 C 
ATOM     10  C   UNL A   1      34.524  25.906  25.461  1.00  0.00     0.026 C 
ATOM     11  C   UNL A   1      34.283  24.404  25.765  1.00  0.00     0.105 C 
ATOM     12  S   UNL A   1      35.959  23.634  25.573  1.00  0.00    -0.152 SA
ATOM     13  C   UNL A   1      36.070  23.567  23.769  1.00  0.00     0.070 C 
ATOM     14  C   UNL A   1      33.550  23.740  23.419  1.00  0.00     0.071 C 
ATOM     15  C   UNL A   1      34.835  22.969  23.114  1.00  0.00     0.017 C 
BRANCH   9  16
ATOM     16  N   UNL A   1      32.693  22.327  25.304  1.00  0.00    -0.329 N 
ATOM     17  C   UNL A   1      33.338  21.535  26.338  1.00  0.00     0.262 C 
ATOM     18  C   UNL A   1      32.128  21.431  24.288  1.00  0.00     0.262 C 
ATOM     19  H   UNL A   1      31.965  22.826  25.815  1.00  0.00     0.348 HD
ATOM     20  C   UNL A   1      33.526  20.147  25.748  1.00  0.00     0.067 C 
ATOM     21  C   UNL A   1      32.415  20.009  24.739  1.00  0.00     0.067 C 
ENDBRANCH   9  16
ENDBRANCH   8   9
ENDBRANCH   5   8
ENDBRANCH   3   4
ENDBRANCH   2   3
ENDBRANCH   1   2
BRANCH   1  22
ATOM     22  C   UNL A   1      31.354  30.788  26.056  1.00  0.00     0.002 C 
BRANCH  22  23
ATOM     23  C   UNL A   1      31.327  32.249  26.518  1.00  0.00     0.021 C 
BRANCH  23  24
ATOM     24  C   UNL A   1      32.644  32.791  27.071  1.00  0.00     0.116 C 
BRANCH  24  25
ATOM     25  N   UNL A   1      32.499  34.130  27.623  1.00  0.00    -0.352 N 
ATOM     26  C   UNL A   1      33.084  34.716  28.713  1.00  0.00     0.251 C 
ATOM     27  H   UNL A   1      31.876  34.711  27.131  1.00  0.00     0.163 HD
ATOM     28  O   UNL A   1      32.653  35.794  29.127  1.00  0.00    -0.269 OA
BRANCH  26  29
ATOM     29  C   UNL A   1      34.222  34.079  29.410  1.00  0.00     0.039 A 
ATOM     30  C   UNL A   1      35.522  34.417  29.020  1.00  0.00     0.014 A 
ATOM     31  C   UNL A   1      34.023  33.103  30.391  1.00  0.00     0.014 A 
ATOM     32  C   UNL A   1      36.619  33.819  29.646  1.00  0.00     0.010 A 
ATOM     33  C   UNL A   1      35.116  32.553  31.059  1.00  0.00     0.010 A 
ATOM     34  C   UNL A   1      36.425  32.902  30.691  1.00  0.00    -0.014 A 
BRANCH  34  35
ATOM     35  C   UNL A   1      37.580  32.299  31.406  1.00  0.00     0.031 A 
ATOM     36  C   UNL A   1      38.322  31.137  30.809  1.00  0.00     0.074 A 
ATOM     37  C   UNL A   1      37.920  32.760  32.625  1.00  0.00     0.049 A 
ATOM     38  N   UNL A   1      39.301  30.430  31.316  1.00  0.00    -0.248 NA
ATOM     39  C   UNL A   1      37.892  30.696  29.474  1.00  0.00     0.031 C 
ATOM     40  C   UNL A   1      37.251  33.854  33.330  1.00  0.00     0.029 A 
ATOM     41  N   UNL A   1      38.904  32.356  33.493  1.00  0.00    -0.354 N 
ATOM     42  C   UNL A   1      39.596  29.457  30.370  1.00  0.00     0.074 A 
ATOM     43  C   UNL A   1      38.659  29.632  29.280  1.00  0.00     0.031 C 
ATOM     44  C   UNL A   1      37.848  34.040  34.518  1.00  0.00     0.029 A 
ATOM     45  C   UNL A   1      38.918  33.058  34.673  1.00  0.00     0.049 A 
ATOM     46  H   UNL A   1      39.538  31.631  33.289  1.00  0.00     0.167 HD
ATOM     47  C   UNL A   1      40.571  28.517  30.397  1.00  0.00     0.037 A 
ATOM     48  C   UNL A   1      39.696  32.919  35.762  1.00  0.00     0.037 A 
ATOM     49  C   UNL A   1      41.514  28.355  31.475  1.00  0.00     0.049 A 
ATOM     50  C   UNL A   1      40.772  31.866  35.770  1.00  0.00     0.074 A 
ATOM     51  C   UNL A   1      42.566  27.463  31.575  1.00  0.00     0.029 A 
ATOM     52  N   UNL A   1      41.512  29.104  32.643  1.00  0.00    -0.354 N 
ATOM     53  N   UNL A   1      41.075  30.989  34.847  1.00  0.00    -0.248 NA
ATOM     54  C   UNL A   1      41.617  31.792  36.970  1.00  0.00     0.031 C 
ATOM     55  C   UNL A   1      43.178  27.644  32.821  1.00  0.00     0.029 A 
ATOM     56  C   UNL A   1      42.537  28.682  33.477  1.00  0.00     0.049 A 
ATOM     57  H   UNL A   1      40.879  29.829  32.849  1.00  0.00     0.167 HD
ATOM     58  C   UNL A   1      42.158  30.275  35.340  1.00  0.00     0.074 A 
ATOM     59  C   UNL A   1      42.469  30.832  36.641  1.00  0.00     0.031 C 
ATOM     60  C   UNL A   1      42.835  29.248  34.768  1.00  0.00     0.037 A 
BRANCH  47  61
ATOM     61  C   UNL A   1      40.671  27.590  29.220  1.00  0.00     0.064 A 
ATOM     62  C   UNL A   1      41.628  27.784  28.213  1.00  0.00     0.173 A 
ATOM     63  C   UNL A   1      39.822  26.478  29.112  1.00  0.00     0.173 A 
ATOM     64  F   UNL A   1      42.458  28.837  28.264  1.00  0.00    -0.203 F 
ATOM     65  C   UNL A   1      41.711  26.919  27.125  1.00  0.00     0.198 A 
ATOM     66  C   UNL A   1      39.928  25.598  28.037  1.00  0.00     0.198 A 
ATOM     67  F   UNL A   1      38.895  26.241  30.051  1.00  0.00    -0.203 F 
ATOM     68  F   UNL A   1      42.599  27.156  26.149  1.00  0.00    -0.200 F 
ATOM     69  C   UNL A   1      40.864  25.825  27.041  1.00  0.00     0.200 A 
ATOM     70  F   UNL A   1      39.117  24.533  27.965  1.00  0.00    -0.200 F 
ATOM     71  F   UNL A   1      40.947  24.991  25.995  1.00  0.00    -0.200 F 
ENDBRANCH  47  61
BRANCH  48  72
ATOM     72  C   UNL A   1      39.496  33.816  36.929  1.00  0.00     0.064 A 
ATOM     73  C   UNL A   1      38.736  33.404  38.032  1.00  0.00     0.173 A 
ATOM     74  C   UNL A   1      40.070  35.094  36.970  1.00  0.00     0.173 A 
ATOM     75  F   UNL A   1      38.152  32.198  38.029  1.00  0.00    -0.203 F 
ATOM     76  C   UNL A   1      38.544  34.245  39.126  1.00  0.00     0.198 A 
ATOM     77  C   UNL A   1      39.900  35.924  38.077  1.00  0.00     0.198 A 
ATOM     78  F   UNL A   1      40.811  35.533  35.942  1.00  0.00    -0.203 F 
ATOM     79  F   UNL A   1      37.780  33.842  40.151  1.00  0.00    -0.200 F 
ATOM     80  C   UNL A   1      39.131  35.502  39.151  1.00  0.00     0.200 A 
ATOM     81  F   UNL A   1      40.481  37.131  38.103  1.00  0.00    -0.200 F 
ATOM     82  F   UNL A   1      38.953  36.306  40.207  1.00  0.00    -0.200 F 
ENDBRANCH  48  72
BRANCH  60  83
ATOM     83  C   UNL A   1      43.994  28.678  35.531  1.00  0.00     0.064 A 
ATOM     84  C   UNL A   1      45.289  29.201  35.401  1.00  0.00     0.173 A 
ATOM     85  C   UNL A   1      43.800  27.621  36.433  1.00  0.00     0.173 A 
ATOM     86  F   UNL A   1      45.529  30.202  34.541  1.00  0.00    -0.203 F 
ATOM     87  C   UNL A   1      46.351  28.671  36.128  1.00  0.00     0.198 A 
ATOM     88  C   UNL A   1      44.859  27.111  37.177  1.00  0.00     0.198 A 
ATOM     89  F   UNL A   1      42.580  27.088  36.597  1.00  0.00    -0.203 F 
ATOM     90  F   UNL A   1      47.588  29.157  35.954  1.00  0.00    -0.200 F 
ATOM     91  C   UNL A   1      46.134  27.631  37.020  1.00  0.00     0.200 A 
ATOM     92  F   UNL A   1      44.646  26.113  38.048  1.00  0.00    -0.200 F 
ATOM     93  F   UNL A   1      47.157  27.126  37.723  1.00  0.00    -0.200 F 
ENDBRANCH  60  83
ENDBRANCH  34  35
ENDBRANCH  26  29
ENDBRANCH  24  25
ENDBRANCH  23  24
ENDBRANCH  22  23
ENDBRANCH   1  22
TORSDOF 15
ENDMDL
MODEL 3
REMARK VINA RESULT:     -10.9      1.926      7.899
REMARK SMILES C[C@@H]1SCCC[C@@]1(CC(=O)NCCCCCCNC(=O)c1ccc(-c2c3nc(c(-c4c(F)c(F)c(F)c(F)c4F)c4ccc([nH]4)c(-c4c(F)c(F)c(F)c(F)c4F)c4nc(c(-c5c(F)c(F)c(F)c(F)c5F)c5ccc2[nH]5)C=C4)C=C3)cc1)[NH+]1CCCC1
REMARK SMILES IDX 14 1 13 2 12 3 11 4 9 5 10 6 8 8 7 9 1 10 2 11 3 12 4 13
REMARK SMILES IDX 6 14 5 15 84 16 85 17 88 18 86 20 87 21 15 22 16 23 17 24
REMARK SMILES IDX 18 25 19 26 20 28 21 29 22 30 83 31 23 32 82 33 24 34 25 35
REMARK SMILES IDX 26 36 76 37 27 38 81 39 75 40 77 41 28 42 80 43 74 44 73 45
REMARK SMILES IDX 29 47 61 48 41 49 60 50 42 51 45 52 59 53 78 54 43 55 44 56
REMARK SMILES IDX 58 58 79 59 46 60 30 61 31 62 39 63 32 64 33 65 37 66 40 67
REMARK SMILES IDX 34 68 35 69 38 70 36 71 62 72 63 73 71 74 64 75 65 76 69 77
REMARK SMILES IDX 72 78 66 79 67 80 70 81 68 82 47 83 48 84 56 85 49 86 50 87
REMARK SMILES IDX 54 88 57 89 51 90 52 91 55 92 53 93
REMARK H PARENT 11 7 84 19 18 27 77 46 45 57
REMARK Flexibility Score: inf
ROOT
ATOM      1  C   UNL A   1      32.173  30.164  26.935  1.00  0.00     0.002 C 
ENDROOT
BRANCH   1   2
ATOM      2  C   UNL A   1      33.429  29.618  26.249  1.00  0.00     0.021 C 
BRANCH   2   3
ATOM      3  C   UNL A   1      33.617  28.110  26.415  1.00  0.00     0.116 C 
BRANCH   3   4
ATOM      4  N   UNL A   1      33.580  27.424  25.141  1.00  0.00    -0.356 N 
ATOM      5  C   UNL A   1      33.315  26.135  24.821  1.00  0.00     0.226 C 
ATOM      6  O   UNL A   1      33.191  25.890  23.617  1.00  0.00    -0.275 OA
ATOM      7  H   UNL A   1      33.783  27.998  24.368  1.00  0.00     0.163 HD
BRANCH   5   8
ATOM      8  C   UNL A   1      33.118  25.037  25.858  1.00  0.00     0.169 C 
BRANCH   8   9
ATOM      9  C   UNL A   1      33.645  23.584  25.514  1.00  0.00     0.118 C 
ATOM     10  C   UNL A   1      31.108  22.815  25.237  1.00  0.00     0.026 C 
ATOM     11  C   UNL A   1      32.543  22.800  24.649  1.00  0.00     0.105 C 
ATOM     12  S   UNL A   1      32.883  21.003  24.343  1.00  0.00    -0.152 SA
ATOM     13  C   UNL A   1      33.240  20.459  26.031  1.00  0.00     0.070 C 
ATOM     14  C   UNL A   1      33.778  22.804  26.874  1.00  0.00     0.071 C 
ATOM     15  C   UNL A   1      34.239  21.351  26.750  1.00  0.00     0.017 C 
BRANCH   9  16
ATOM     16  N   UNL A   1      35.004  23.766  24.910  1.00  0.00    -0.329 N 
ATOM     17  C   UNL A   1      35.426  23.184  23.647  1.00  0.00     0.262 C 
ATOM     18  C   UNL A   1      36.172  23.934  25.781  1.00  0.00     0.262 C 
ATOM     19  H   UNL A   1      34.607  24.663  24.631  1.00  0.00     0.348 HD
ATOM     20  C   UNL A   1      36.813  22.612  23.891  1.00  0.00     0.067 C 
ATOM     21  C   UNL A   1      37.384  23.458  24.998  1.00  0.00     0.067 C 
ENDBRANCH   9  16
ENDBRANCH   8   9
ENDBRANCH   5   8
ENDBRANCH   3   4
ENDBRANCH   2   3
ENDBRANCH   1   2
BRANCH   1  22
ATOM     22  C   UNL A   1      31.321  31.096  26.068  1.00  0.00     0.002 C 
BRANCH  22  23
ATOM     23  C   UNL A   1      31.309  32.570  26.487  1.00  0.00     0.021 C 
BRANCH  23  24
ATOM     24  C   UNL A   1      32.580  33.071  27.175  1.00  0.00     0.116 C 
BRANCH  24  25
ATOM     25  N   UNL A   1      32.419  34.411  27.719  1.00  0.00    -0.352 N 
ATOM     26  C   UNL A   1      33.022  35.021  28.785  1.00  0.00     0.251 C 
ATOM     27  H   UNL A   1      31.767  34.971  27.241  1.00  0.00     0.163 HD
ATOM     28  O   UNL A   1      32.578  36.092  29.203  1.00  0.00    -0.269 OA
BRANCH  26  29
ATOM     29  C   UNL A   1      34.196  34.418  29.453  1.00  0.00     0.039 A 
ATOM     30  C   UNL A   1      34.005  33.742  30.662  1.00  0.00     0.014 A 
ATOM     31  C   UNL A   1      35.487  34.572  28.939  1.00  0.00     0.014 A 
ATOM     32  C   UNL A   1      35.096  33.177  31.329  1.00  0.00     0.010 A 
ATOM     33  C   UNL A   1      36.567  33.956  29.570  1.00  0.00     0.010 A 
ATOM     34  C   UNL A   1      36.383  33.255  30.773  1.00  0.00    -0.014 A 
BRANCH  34  35
ATOM     35  C   UNL A   1      37.546  32.612  31.438  1.00  0.00     0.031 A 
ATOM     36  C   UNL A   1      38.245  31.449  30.792  1.00  0.00     0.074 A 
ATOM     37  C   UNL A   1      37.932  33.038  32.655  1.00  0.00     0.049 A 
ATOM     38  N   UNL A   1      39.225  30.711  31.252  1.00  0.00    -0.248 NA
ATOM     39  C   UNL A   1      37.766  31.048  29.461  1.00  0.00     0.031 C 
ATOM     40  C   UNL A   1      37.309  34.128  33.406  1.00  0.00     0.029 A 
ATOM     41  N   UNL A   1      38.934  32.593  33.483  1.00  0.00    -0.354 N 
ATOM     42  C   UNL A   1      39.470  29.755  30.275  1.00  0.00     0.074 A 
ATOM     43  C   UNL A   1      38.504  29.974  29.220  1.00  0.00     0.031 C 
ATOM     44  C   UNL A   1      37.945  34.274  34.578  1.00  0.00     0.029 A 
ATOM     45  C   UNL A   1      38.998  33.267  34.678  1.00  0.00     0.049 A 
ATOM     46  H   UNL A   1      39.546  31.860  33.243  1.00  0.00     0.167 HD
ATOM     47  C   UNL A   1      40.426  28.795  30.251  1.00  0.00     0.037 A 
ATOM     48  C   UNL A   1      39.807  33.088  35.739  1.00  0.00     0.037 A 
ATOM     49  C   UNL A   1      41.397  28.589  31.294  1.00  0.00     0.049 A 
ATOM     50  C   UNL A   1      40.860  32.013  35.690  1.00  0.00     0.074 A 
ATOM     51  C   UNL A   1      42.433  27.674  31.342  1.00  0.00     0.029 A 
ATOM     52  N   UNL A   1      41.447  29.310  32.479  1.00  0.00    -0.354 N 
ATOM     53  N   UNL A   1      41.117  31.152  34.737  1.00  0.00    -0.248 NA
ATOM     54  C   UNL A   1      41.740  31.894  36.861  1.00  0.00     0.031 C 
ATOM     55  C   UNL A   1      43.087  27.813  32.572  1.00  0.00     0.029 A 
ATOM     56  C   UNL A   1      42.488  28.848  33.271  1.00  0.00     0.049 A 
ATOM     57  H   UNL A   1      40.835  30.043  32.722  1.00  0.00     0.167 HD
ATOM     58  C   UNL A   1      42.200  30.405  35.180  1.00  0.00     0.074 A 
ATOM     59  C   UNL A   1      42.561  30.925  36.483  1.00  0.00     0.031 C 
ATOM     60  C   UNL A   1      42.837  29.378  34.565  1.00  0.00     0.037 A 
BRANCH  47  61
ATOM     61  C   UNL A   1      40.471  27.894  29.051  1.00  0.00     0.064 A 
ATOM     62  C   UNL A   1      39.665  26.748  28.964  1.00  0.00     0.173 A 
ATOM     63  C   UNL A   1      41.304  28.193  27.963  1.00  0.00     0.173 A 
ATOM     64  F   UNL A   1      38.857  26.412  29.981  1.00  0.00    -0.203 F 
ATOM     65  C   UNL A   1      39.716  25.918  27.847  1.00  0.00     0.198 A 
ATOM     66  C   UNL A   1      41.330  27.376  26.835  1.00  0.00     0.198 A 
ATOM     67  F   UNL A   1      42.090  29.279  27.990  1.00  0.00    -0.203 F 
ATOM     68  F   UNL A   1      38.975  24.802  27.810  1.00  0.00    -0.200 F 
ATOM     69  C   UNL A   1      40.544  26.236  26.782  1.00  0.00     0.200 A 
ATOM     70  F   UNL A   1      42.122  27.692  25.800  1.00  0.00    -0.200 F 
ATOM     71  F   UNL A   1      40.590  25.438  25.706  1.00  0.00    -0.200 F 
ENDBRANCH  47  61
BRANCH  48  72
ATOM     72  C   UNL A   1      39.661  33.960  36.932  1.00  0.00     0.064 A 
ATOM     73  C   UNL A   1      38.850  33.579  38.009  1.00  0.00     0.173 A 
ATOM     74  C   UNL A   1      40.338  35.185  37.024  1.00  0.00     0.173 A 
ATOM     75  F   UNL A   1      38.168  32.426  37.957  1.00  0.00    -0.203 F 
ATOM     76  C   UNL A   1      38.710  34.399  39.127  1.00  0.00     0.198 A 
ATOM     77  C   UNL A   1      40.218  35.990  38.154  1.00  0.00     0.198 A 
ATOM     78  F   UNL A   1      41.132  35.592  36.021  1.00  0.00    -0.203 F 
ATOM     79  F   UNL A   1      37.898  34.028  40.127  1.00  0.00    -0.200 F 
ATOM     80  C   UNL A   1      39.399  35.600  39.202  1.00  0.00     0.200 A 
ATOM     81  F   UNL A   1      40.897  37.143  38.228  1.00  0.00    -0.200 F 
ATOM     82  F   UNL A   1      39.269  36.383  40.281  1.00  0.00    -0.200 F 
ENDBRANCH  48  72
BRANCH  60  83
ATOM     83  C   UNL A   1      44.007  28.768  35.278  1.00  0.00     0.064 A 
ATOM     84  C   UNL A   1      43.844  27.713  36.188  1.00  0.00     0.173 A 
ATOM     85  C   UNL A   1      45.310  29.218  35.020  1.00  0.00     0.173 A 
ATOM     86  F   UNL A   1      42.617  27.257  36.481  1.00  0.00    -0.203 F 
ATOM     87  C   UNL A   1      44.942  27.148  36.832  1.00  0.00     0.198 A 
ATOM     88  C   UNL A   1      46.407  28.633  35.645  1.00  0.00     0.198 A 
ATOM     89  F   UNL A   1      45.520  30.221  34.155  1.00  0.00    -0.203 F 
ATOM     90  F   UNL A   1      44.758  26.171  37.732  1.00  0.00    -0.200 F 
ATOM     91  C   UNL A   1      46.222  27.603  36.555  1.00  0.00     0.200 A 
ATOM     92  F   UNL A   1      47.645  29.066  35.367  1.00  0.00    -0.200 F 
ATOM     93  F   UNL A   1      47.278  27.053  37.170  1.00  0.00    -0.200 F 
ENDBRANCH  60  83
ENDBRANCH  34  35
ENDBRANCH  26  29
ENDBRANCH  24  25
ENDBRANCH  23  24
ENDBRANCH  22  23
ENDBRANCH   1  22
TORSDOF 15
ENDMDL
