MODEL 1
REMARK VINA RESULT:     -12.2      0.000      0.000
REMARK SMILES CC(C)c1nc(N2C[C@H](C)OC(C)(C)C2)sc1C(=O)NCCCCCCNC(=O)c1ccc(-c2c3nc(c(-c4c(F)c(F)c(F)c(F)c4F)c4ccc([nH]4)c(-c4c(F)c(F)c(F)c(F)c4F)c4nc(c(-c5c(F)c(F)c(F)c(F)c5F)c5ccc2[nH]5)C=C4)C=C3)cc1
REMARK SMILES IDX 24 1 23 2 22 3 21 4 20 5 18 6 19 7 17 9 4 10 5 11 6 12 16 13
REMARK SMILES IDX 2 14 1 15 3 16 7 17 8 18 15 19 9 20 12 21 11 22 10 23 13 24
REMARK SMILES IDX 14 25 25 26 26 27 27 28 28 29 29 31 30 32 31 33 92 34 32 35
REMARK SMILES IDX 91 36 33 37 34 38 35 39 85 40 36 41 90 42 84 43 86 44 37 45
REMARK SMILES IDX 89 46 83 47 82 48 38 50 70 51 50 52 69 53 51 54 54 55 68 56
REMARK SMILES IDX 87 57 52 58 53 59 67 61 88 62 55 63 39 64 40 65 48 66 41 67
REMARK SMILES IDX 42 68 46 69 49 70 43 71 44 72 47 73 45 74 71 75 72 76 80 77
REMARK SMILES IDX 73 78 74 79 78 80 81 81 75 82 76 83 79 84 77 85 56 86 57 87
REMARK SMILES IDX 65 88 58 89 59 90 63 91 66 92 60 93 61 94 64 95 62 96
REMARK H PARENT 20 8 27 30 86 49 54 60
REMARK Flexibility Score: inf
ROOT
ATOM      1  C   UNL A   1      31.528  30.847  25.848  1.00  0.00     0.002 C 
ENDROOT
BRANCH   1   2
ATOM      2  C   UNL A   1      30.695  30.505  24.607  1.00  0.00     0.002 C 
BRANCH   2   3
ATOM      3  C   UNL A   1      30.453  29.024  24.304  1.00  0.00     0.021 C 
BRANCH   3   4
ATOM      4  C   UNL A   1      30.998  28.513  22.978  1.00  0.00     0.116 C 
BRANCH   4   5
ATOM      5  N   UNL A   1      32.325  28.934  22.634  1.00  0.00    -0.351 N 
ATOM      6  C   UNL A   1      33.534  28.443  23.080  1.00  0.00     0.263 C 
ATOM      7  O   UNL A   1      34.524  29.004  22.599  1.00  0.00    -0.268 OA
ATOM      8  H   UNL A   1      32.381  29.678  21.990  1.00  0.00     0.163 HD
BRANCH   6   9
ATOM      9  C   UNL A   1      33.640  27.386  24.080  1.00  0.00     0.117 A 
ATOM     10  C   UNL A   1      33.520  27.289  25.468  1.00  0.00     0.069 A 
ATOM     11  N   UNL A   1      33.610  25.985  25.954  1.00  0.00    -0.224 NA
ATOM     12  C   UNL A   1      33.874  25.111  25.014  1.00  0.00     0.186 A 
ATOM     13  S   UNL A   1      33.945  25.804  23.447  1.00  0.00    -0.091 S 
BRANCH  10  14
ATOM     14  C   UNL A   1      33.308  28.360  26.515  1.00  0.00     0.034 C 
ATOM     15  C   UNL A   1      32.321  27.949  27.606  1.00  0.00     0.014 C 
ATOM     16  C   UNL A   1      34.607  28.868  27.156  1.00  0.00     0.014 C 
ENDBRANCH  10  14
BRANCH  12  17
ATOM     17  N   UNL A   1      34.049  23.788  25.258  1.00  0.00    -0.343 N 
ATOM     18  C   UNL A   1      33.012  22.781  25.061  1.00  0.00     0.150 C 
ATOM     19  C   UNL A   1      35.358  23.263  25.650  1.00  0.00     0.153 C 
ATOM     20  C   UNL A   1      33.523  21.732  24.052  1.00  0.00     0.135 C 
ATOM     21  C   UNL A   1      35.813  22.108  24.716  1.00  0.00     0.081 C 
ATOM     22  O   UNL A   1      34.757  21.142  24.497  1.00  0.00    -0.369 OA
ATOM     23  C   UNL A   1      32.513  20.606  23.879  1.00  0.00     0.040 C 
ATOM     24  C   UNL A   1      36.341  22.642  23.377  1.00  0.00     0.044 C 
ATOM     25  C   UNL A   1      36.940  21.324  25.405  1.00  0.00     0.044 C 
ENDBRANCH  12  17
ENDBRANCH   6   9
ENDBRANCH   4   5
ENDBRANCH   3   4
ENDBRANCH   2   3
ENDBRANCH   1   2
BRANCH   1  26
ATOM     26  C   UNL A   1      31.289  32.209  26.503  1.00  0.00     0.021 C 
BRANCH  26  27
ATOM     27  C   UNL A   1      32.466  32.816  27.260  1.00  0.00     0.116 C 
BRANCH  27  28
ATOM     28  N   UNL A   1      32.266  34.209  27.617  1.00  0.00    -0.352 N 
ATOM     29  C   UNL A   1      32.938  34.993  28.522  1.00  0.00     0.251 C 
ATOM     30  H   UNL A   1      31.536  34.662  27.135  1.00  0.00     0.163 HD
ATOM     31  O   UNL A   1      32.542  36.133  28.754  1.00  0.00    -0.269 OA
BRANCH  29  32
ATOM     32  C   UNL A   1      34.116  34.468  29.248  1.00  0.00     0.039 A 
ATOM     33  C   UNL A   1      33.918  33.852  30.487  1.00  0.00     0.014 A 
ATOM     34  C   UNL A   1      35.409  34.591  28.731  1.00  0.00     0.014 A 
ATOM     35  C   UNL A   1      35.003  33.304  31.175  1.00  0.00     0.010 A 
ATOM     36  C   UNL A   1      36.478  33.978  29.380  1.00  0.00     0.010 A 
ATOM     37  C   UNL A   1      36.288  33.327  30.609  1.00  0.00    -0.014 A 
BRANCH  37  38
ATOM     38  C   UNL A   1      37.437  32.670  31.286  1.00  0.00     0.031 A 
ATOM     39  C   UNL A   1      38.152  31.522  30.627  1.00  0.00     0.074 A 
ATOM     40  C   UNL A   1      37.799  33.068  32.522  1.00  0.00     0.049 A 
ATOM     41  N   UNL A   1      39.129  30.780  31.086  1.00  0.00    -0.248 NA
ATOM     42  C   UNL A   1      37.693  31.142  29.282  1.00  0.00     0.031 C 
ATOM     43  C   UNL A   1      37.159  34.140  33.285  1.00  0.00     0.029 A 
ATOM     44  N   UNL A   1      38.787  32.610  33.359  1.00  0.00    -0.354 N 
ATOM     45  C   UNL A   1      39.389  29.842  30.096  1.00  0.00     0.074 A 
ATOM     46  C   UNL A   1      38.433  30.071  29.035  1.00  0.00     0.031 C 
ATOM     47  C   UNL A   1      37.783  34.273  34.466  1.00  0.00     0.029 A 
ATOM     48  C   UNL A   1      38.836  33.269  34.565  1.00  0.00     0.049 A 
ATOM     49  H   UNL A   1      39.402  31.879  33.119  1.00  0.00     0.167 HD
ATOM     50  C   UNL A   1      40.354  28.891  30.064  1.00  0.00     0.037 A 
ATOM     51  C   UNL A   1      39.633  33.076  35.634  1.00  0.00     0.037 A 
ATOM     52  C   UNL A   1      41.315  28.678  31.115  1.00  0.00     0.049 A 
ATOM     53  C   UNL A   1      40.682  31.996  35.580  1.00  0.00     0.074 A 
ATOM     54  C   UNL A   1      42.365  27.777  31.154  1.00  0.00     0.029 A 
ATOM     55  N   UNL A   1      41.339  29.373  32.317  1.00  0.00    -0.354 N 
ATOM     56  N   UNL A   1      40.963  31.161  34.610  1.00  0.00    -0.248 NA
ATOM     57  C   UNL A   1      41.530  31.838  36.770  1.00  0.00     0.031 C 
ATOM     58  C   UNL A   1      42.987  27.885  32.402  1.00  0.00     0.029 A 
ATOM     59  C   UNL A   1      42.370  28.899  33.115  1.00  0.00     0.049 A 
ATOM     60  H   UNL A   1      40.718  30.094  32.565  1.00  0.00     0.167 HD
ATOM     61  C   UNL A   1      42.039  30.405  35.056  1.00  0.00     0.074 A 
ATOM     62  C   UNL A   1      42.369  30.890  36.380  1.00  0.00     0.031 C 
ATOM     63  C   UNL A   1      42.696  29.400  34.426  1.00  0.00     0.037 A 
BRANCH  50  64
ATOM     64  C   UNL A   1      40.420  28.003  28.853  1.00  0.00     0.064 A 
ATOM     65  C   UNL A   1      39.720  26.789  28.789  1.00  0.00     0.173 A 
ATOM     66  C   UNL A   1      41.155  28.395  27.723  1.00  0.00     0.173 A 
ATOM     67  F   UNL A   1      39.009  26.363  29.844  1.00  0.00    -0.203 F 
ATOM     68  C   UNL A   1      39.778  25.986  27.652  1.00  0.00     0.198 A 
ATOM     69  C   UNL A   1      41.182  27.605  26.576  1.00  0.00     0.198 A 
ATOM     70  F   UNL A   1      41.838  29.549  27.726  1.00  0.00    -0.203 F 
ATOM     71  F   UNL A   1      39.141  24.806  27.635  1.00  0.00    -0.200 F 
ATOM     72  C   UNL A   1      40.501  26.399  26.545  1.00  0.00     0.200 A 
ATOM     73  F   UNL A   1      41.869  28.014  25.500  1.00  0.00    -0.200 F 
ATOM     74  F   UNL A   1      40.547  25.630  25.448  1.00  0.00    -0.200 F 
ENDBRANCH  50  64
BRANCH  51  75
ATOM     75  C   UNL A   1      39.482  33.930  36.841  1.00  0.00     0.064 A 
ATOM     76  C   UNL A   1      40.112  35.180  36.924  1.00  0.00     0.173 A 
ATOM     77  C   UNL A   1      38.723  33.511  37.944  1.00  0.00     0.173 A 
ATOM     78  F   UNL A   1      40.865  35.619  35.905  1.00  0.00    -0.203 F 
ATOM     79  C   UNL A   1      40.011  35.965  38.071  1.00  0.00     0.198 A 
ATOM     80  C   UNL A   1      38.594  34.311  39.077  1.00  0.00     0.198 A 
ATOM     81  F   UNL A   1      38.094  32.326  37.916  1.00  0.00    -0.203 F 
ATOM     82  F   UNL A   1      40.669  37.129  38.143  1.00  0.00    -0.200 F 
ATOM     83  C   UNL A   1      39.247  35.532  39.145  1.00  0.00     0.200 A 
ATOM     84  F   UNL A   1      37.842  33.896  40.105  1.00  0.00    -0.200 F 
ATOM     85  F   UNL A   1      39.149  36.287  40.248  1.00  0.00    -0.200 F 
ENDBRANCH  51  75
BRANCH  63  86
ATOM     86  C   UNL A   1      43.869  28.786  35.137  1.00  0.00     0.064 A 
ATOM     87  C   UNL A   1      45.167  29.299  35.005  1.00  0.00     0.173 A 
ATOM     88  C   UNL A   1      43.680  27.693  35.998  1.00  0.00     0.173 A 
ATOM     89  F   UNL A   1      45.405  30.333  34.184  1.00  0.00    -0.203 F 
ATOM     90  C   UNL A   1      46.237  28.721  35.684  1.00  0.00     0.198 A 
ATOM     91  C   UNL A   1      44.746  27.141  36.703  1.00  0.00     0.198 A 
ATOM     92  F   UNL A   1      42.456  27.168  36.167  1.00  0.00    -0.203 F 
ATOM     93  F   UNL A   1      47.478  29.194  35.500  1.00  0.00    -0.200 F 
ATOM     94  C   UNL A   1      46.024  27.650  36.538  1.00  0.00     0.200 A 
ATOM     95  F   UNL A   1      44.534  26.118  37.541  1.00  0.00    -0.200 F 
ATOM     96  F   UNL A   1      47.054  27.103  37.199  1.00  0.00    -0.200 F 
ENDBRANCH  63  86
ENDBRANCH  37  38
ENDBRANCH  29  32
ENDBRANCH  27  28
ENDBRANCH  26  27
ENDBRANCH   1  26
TORSDOF 15
ENDMDL
MODEL 2
REMARK VINA RESULT:     -12.2      0.994      2.148
REMARK SMILES CC(C)c1nc(N2C[C@H](C)OC(C)(C)C2)sc1C(=O)NCCCCCCNC(=O)c1ccc(-c2c3nc(c(-c4c(F)c(F)c(F)c(F)c4F)c4ccc([nH]4)c(-c4c(F)c(F)c(F)c(F)c4F)c4nc(c(-c5c(F)c(F)c(F)c(F)c5F)c5ccc2[nH]5)C=C4)C=C3)cc1
REMARK SMILES IDX 24 1 23 2 22 3 21 4 20 5 18 6 19 7 17 9 4 10 5 11 6 12 16 13
REMARK SMILES IDX 2 14 1 15 3 16 7 17 8 18 15 19 9 20 12 21 11 22 10 23 13 24
REMARK SMILES IDX 14 25 25 26 26 27 27 28 28 29 29 31 30 32 31 33 92 34 32 35
REMARK SMILES IDX 91 36 33 37 34 38 35 39 85 40 36 41 90 42 84 43 86 44 37 45
REMARK SMILES IDX 89 46 83 47 82 48 38 50 70 51 50 52 69 53 51 54 54 55 68 56
REMARK SMILES IDX 87 57 52 58 53 59 67 61 88 62 55 63 39 64 40 65 48 66 41 67
REMARK SMILES IDX 42 68 46 69 49 70 43 71 44 72 47 73 45 74 71 75 72 76 80 77
REMARK SMILES IDX 73 78 74 79 78 80 81 81 75 82 76 83 79 84 77 85 56 86 57 87
REMARK SMILES IDX 65 88 58 89 59 90 63 91 66 92 60 93 61 94 64 95 62 96
REMARK H PARENT 20 8 27 30 86 49 54 60
REMARK Flexibility Score: inf
ROOT
ATOM      1  C   UNL A   1      31.481  30.637  26.489  1.00  0.00     0.002 C 
ENDROOT
BRANCH   1   2
ATOM      2  C   UNL A   1      31.702  30.076  25.079  1.00  0.00     0.002 C 
BRANCH   2   3
ATOM      3  C   UNL A   1      33.063  29.443  24.776  1.00  0.00     0.021 C 
BRANCH   3   4
ATOM      4  C   UNL A   1      33.329  29.090  23.320  1.00  0.00     0.116 C 
BRANCH   4   5
ATOM      5  N   UNL A   1      32.179  28.767  22.525  1.00  0.00    -0.351 N 
ATOM      6  C   UNL A   1      31.488  27.577  22.445  1.00  0.00     0.263 C 
ATOM      7  O   UNL A   1      30.523  27.596  21.673  1.00  0.00    -0.268 OA
ATOM      8  H   UNL A   1      31.837  29.495  21.958  1.00  0.00     0.163 HD
BRANCH   6   9
ATOM      9  C   UNL A   1      31.891  26.375  23.167  1.00  0.00     0.117 A 
ATOM     10  C   UNL A   1      31.629  25.806  24.415  1.00  0.00     0.069 A 
ATOM     11  N   UNL A   1      32.196  24.544  24.593  1.00  0.00    -0.224 NA
ATOM     12  C   UNL A   1      32.936  24.173  23.577  1.00  0.00     0.186 A 
ATOM     13  S   UNL A   1      32.926  25.302  22.285  1.00  0.00    -0.091 S 
BRANCH  10  14
ATOM     14  C   UNL A   1      30.838  26.335  25.591  1.00  0.00     0.034 C 
ATOM     15  C   UNL A   1      29.780  25.354  26.094  1.00  0.00     0.014 C 
ATOM     16  C   UNL A   1      31.707  26.808  26.764  1.00  0.00     0.014 C 
ENDBRANCH  10  14
BRANCH  12  17
ATOM     17  N   UNL A   1      33.620  23.003  23.544  1.00  0.00    -0.343 N 
ATOM     18  C   UNL A   1      35.063  22.909  23.354  1.00  0.00     0.150 C 
ATOM     19  C   UNL A   1      32.944  21.731  23.806  1.00  0.00     0.153 C 
ATOM     20  C   UNL A   1      35.679  22.184  24.568  1.00  0.00     0.135 C 
ATOM     21  C   UNL A   1      33.648  20.932  24.937  1.00  0.00     0.081 C 
ATOM     22  O   UNL A   1      35.083  20.888  24.755  1.00  0.00    -0.369 OA
ATOM     23  C   UNL A   1      37.176  21.978  24.377  1.00  0.00     0.040 C 
ATOM     24  C   UNL A   1      33.298  21.492  26.323  1.00  0.00     0.044 C 
ATOM     25  C   UNL A   1      33.189  19.467  24.875  1.00  0.00     0.044 C 
ENDBRANCH  12  17
ENDBRANCH   6   9
ENDBRANCH   4   5
ENDBRANCH   3   4
ENDBRANCH   2   3
ENDBRANCH   1   2
BRANCH   1  26
ATOM     26  C   UNL A   1      31.389  32.158  26.634  1.00  0.00     0.021 C 
BRANCH  26  27
ATOM     27  C   UNL A   1      32.622  32.865  27.183  1.00  0.00     0.116 C 
BRANCH  27  28
ATOM     28  N   UNL A   1      32.362  34.224  27.622  1.00  0.00    -0.352 N 
ATOM     29  C   UNL A   1      32.984  34.974  28.589  1.00  0.00     0.251 C 
ATOM     30  H   UNL A   1      31.625  34.679  27.152  1.00  0.00     0.163 HD
ATOM     31  O   UNL A   1      32.540  36.082  28.882  1.00  0.00    -0.269 OA
BRANCH  29  32
ATOM     32  C   UNL A   1      34.167  34.449  29.308  1.00  0.00     0.039 A 
ATOM     33  C   UNL A   1      33.966  33.738  30.495  1.00  0.00     0.014 A 
ATOM     34  C   UNL A   1      35.465  34.663  28.836  1.00  0.00     0.014 A 
ATOM     35  C   UNL A   1      35.057  33.188  31.171  1.00  0.00     0.010 A 
ATOM     36  C   UNL A   1      36.544  34.050  29.469  1.00  0.00     0.010 A 
ATOM     37  C   UNL A   1      36.353  33.306  30.643  1.00  0.00    -0.014 A 
BRANCH  37  38
ATOM     38  C   UNL A   1      37.514  32.651  31.303  1.00  0.00     0.031 A 
ATOM     39  C   UNL A   1      38.219  31.502  30.635  1.00  0.00     0.074 A 
ATOM     40  C   UNL A   1      37.896  33.052  32.532  1.00  0.00     0.049 A 
ATOM     41  N   UNL A   1      39.202  30.761  31.080  1.00  0.00    -0.248 NA
ATOM     42  C   UNL A   1      37.737  31.118  29.299  1.00  0.00     0.031 C 
ATOM     43  C   UNL A   1      37.267  34.126  33.302  1.00  0.00     0.029 A 
ATOM     44  N   UNL A   1      38.897  32.597  33.354  1.00  0.00    -0.354 N 
ATOM     45  C   UNL A   1      39.447  29.821  30.088  1.00  0.00     0.074 A 
ATOM     46  C   UNL A   1      38.474  30.047  29.042  1.00  0.00     0.031 C 
ATOM     47  C   UNL A   1      37.910  34.262  34.473  1.00  0.00     0.029 A 
ATOM     48  C   UNL A   1      38.965  33.258  34.557  1.00  0.00     0.049 A 
ATOM     49  H   UNL A   1      39.508  31.866  33.106  1.00  0.00     0.167 HD
ATOM     50  C   UNL A   1      40.413  28.870  30.043  1.00  0.00     0.037 A 
ATOM     51  C   UNL A   1      39.779  33.068  35.613  1.00  0.00     0.037 A 
ATOM     52  C   UNL A   1      41.390  28.661  31.078  1.00  0.00     0.049 A 
ATOM     53  C   UNL A   1      40.828  31.989  35.546  1.00  0.00     0.074 A 
ATOM     54  C   UNL A   1      42.442  27.760  31.103  1.00  0.00     0.029 A 
ATOM     55  N   UNL A   1      41.434  29.358  32.278  1.00  0.00    -0.354 N 
ATOM     56  N   UNL A   1      41.094  31.152  34.573  1.00  0.00    -0.248 NA
ATOM     57  C   UNL A   1      41.695  31.834  36.722  1.00  0.00     0.031 C 
ATOM     58  C   UNL A   1      43.084  27.871  32.340  1.00  0.00     0.029 A 
ATOM     59  C   UNL A   1      42.477  28.887  33.061  1.00  0.00     0.049 A 
ATOM     60  H   UNL A   1      40.816  30.079  32.535  1.00  0.00     0.167 HD
ATOM     61  C   UNL A   1      42.177  30.397  35.003  1.00  0.00     0.074 A 
ATOM     62  C   UNL A   1      42.528  30.886  36.320  1.00  0.00     0.031 C 
ATOM     63  C   UNL A   1      42.824  29.391  34.365  1.00  0.00     0.037 A 
BRANCH  50  64
ATOM     64  C   UNL A   1      40.459  27.980  28.833  1.00  0.00     0.064 A 
ATOM     65  C   UNL A   1      41.230  28.305  27.707  1.00  0.00     0.173 A 
ATOM     66  C   UNL A   1      39.763  26.761  28.819  1.00  0.00     0.173 A 
ATOM     67  F   UNL A   1      41.909  29.462  27.664  1.00  0.00    -0.203 F 
ATOM     68  C   UNL A   1      41.276  27.461  26.600  1.00  0.00     0.198 A 
ATOM     69  C   UNL A   1      39.839  25.904  27.724  1.00  0.00     0.198 A 
ATOM     70  F   UNL A   1      39.016  26.396  29.871  1.00  0.00    -0.203 F 
ATOM     71  F   UNL A   1      41.979  27.819  25.515  1.00  0.00    -0.200 F 
ATOM     72  C   UNL A   1      40.588  26.258  26.614  1.00  0.00     0.200 A 
ATOM     73  F   UNL A   1      39.186  24.733  27.746  1.00  0.00    -0.200 F 
ATOM     74  F   UNL A   1      40.643  25.441  25.552  1.00  0.00    -0.200 F 
ENDBRANCH  50  64
BRANCH  51  75
ATOM     75  C   UNL A   1      39.648  33.926  36.821  1.00  0.00     0.064 A 
ATOM     76  C   UNL A   1      38.864  33.523  37.910  1.00  0.00     0.173 A 
ATOM     77  C   UNL A   1      40.288  35.171  36.907  1.00  0.00     0.173 A 
ATOM     78  F   UNL A   1      38.216  32.349  37.871  1.00  0.00    -0.203 F 
ATOM     79  C   UNL A   1      38.701  34.342  39.026  1.00  0.00     0.198 A 
ATOM     80  C   UNL A   1      40.152  35.976  38.036  1.00  0.00     0.198 A 
ATOM     81  F   UNL A   1      41.056  35.604  35.895  1.00  0.00    -0.203 F 
ATOM     82  F   UNL A   1      37.900  33.955  40.028  1.00  0.00    -0.200 F 
ATOM     83  C   UNL A   1      39.350  35.566  39.090  1.00  0.00     0.200 A 
ATOM     84  F   UNL A   1      40.795  37.150  38.101  1.00  0.00    -0.200 F 
ATOM     85  F   UNL A   1      39.195  36.354  40.163  1.00  0.00    -0.200 F 
ENDBRANCH  51  75
BRANCH  63  86
ATOM     86  C   UNL A   1      44.009  28.780  35.058  1.00  0.00     0.064 A 
ATOM     87  C   UNL A   1      45.306  29.287  34.897  1.00  0.00     0.173 A 
ATOM     88  C   UNL A   1      43.833  27.695  35.932  1.00  0.00     0.173 A 
ATOM     89  F   UNL A   1      45.531  30.314  34.063  1.00  0.00    -0.203 F 
ATOM     90  C   UNL A   1      46.387  28.712  35.560  1.00  0.00     0.198 A 
ATOM     91  C   UNL A   1      44.911  27.145  36.620  1.00  0.00     0.198 A 
ATOM     92  F   UNL A   1      42.612  27.175  36.129  1.00  0.00    -0.203 F 
ATOM     93  F   UNL A   1      47.626  29.180  35.349  1.00  0.00    -0.200 F 
ATOM     94  C   UNL A   1      46.188  27.648  36.427  1.00  0.00     0.200 A 
ATOM     95  F   UNL A   1      44.713  26.130  37.471  1.00  0.00    -0.200 F 
ATOM     96  F   UNL A   1      47.228  27.104  37.073  1.00  0.00    -0.200 F 
ENDBRANCH  63  86
ENDBRANCH  37  38
ENDBRANCH  29  32
ENDBRANCH  27  28
ENDBRANCH  26  27
ENDBRANCH   1  26
TORSDOF 15
ENDMDL
MODEL 3
REMARK VINA RESULT:     -12.1      0.536      7.210
REMARK SMILES CC(C)c1nc(N2C[C@H](C)OC(C)(C)C2)sc1C(=O)NCCCCCCNC(=O)c1ccc(-c2c3nc(c(-c4c(F)c(F)c(F)c(F)c4F)c4ccc([nH]4)c(-c4c(F)c(F)c(F)c(F)c4F)c4nc(c(-c5c(F)c(F)c(F)c(F)c5F)c5ccc2[nH]5)C=C4)C=C3)cc1
REMARK SMILES IDX 24 1 23 2 22 3 21 4 20 5 18 6 19 7 17 9 4 10 5 11 6 12 16 13
REMARK SMILES IDX 2 14 1 15 3 16 7 17 8 18 15 19 9 20 12 21 11 22 10 23 13 24
REMARK SMILES IDX 14 25 25 26 26 27 27 28 28 29 29 31 30 32 31 33 92 34 32 35
REMARK SMILES IDX 91 36 33 37 34 38 35 39 85 40 36 41 90 42 84 43 86 44 37 45
REMARK SMILES IDX 89 46 83 47 82 48 38 50 70 51 50 52 69 53 51 54 54 55 68 56
REMARK SMILES IDX 87 57 52 58 53 59 67 61 88 62 55 63 39 64 40 65 48 66 41 67
REMARK SMILES IDX 42 68 46 69 49 70 43 71 44 72 47 73 45 74 71 75 72 76 80 77
REMARK SMILES IDX 73 78 74 79 78 80 81 81 75 82 76 83 79 84 77 85 56 86 57 87
REMARK SMILES IDX 65 88 58 89 59 90 63 91 66 92 60 93 61 94 64 95 62 96
REMARK H PARENT 20 8 27 30 86 49 54 60
REMARK Flexibility Score: inf
ROOT
ATOM      1  C   UNL A   1      31.343  30.831  25.861  1.00  0.00     0.002 C 
ENDROOT
BRANCH   1   2
ATOM      2  C   UNL A   1      30.689  30.543  24.504  1.00  0.00     0.002 C 
BRANCH   2   3
ATOM      3  C   UNL A   1      30.333  29.087  24.186  1.00  0.00     0.021 C 
BRANCH   3   4
ATOM      4  C   UNL A   1      30.946  28.507  22.921  1.00  0.00     0.116 C 
BRANCH   4   5
ATOM      5  N   UNL A   1      32.275  28.944  22.603  1.00  0.00    -0.351 N 
ATOM      6  C   UNL A   1      33.480  28.465  23.070  1.00  0.00     0.263 C 
ATOM      7  O   UNL A   1      34.473  29.038  22.610  1.00  0.00    -0.268 OA
ATOM      8  H   UNL A   1      32.335  29.689  21.962  1.00  0.00     0.163 HD
BRANCH   6   9
ATOM      9  C   UNL A   1      33.579  27.407  24.071  1.00  0.00     0.117 A 
ATOM     10  C   UNL A   1      33.433  27.304  25.455  1.00  0.00     0.069 A 
ATOM     11  N   UNL A   1      33.529  26.000  25.940  1.00  0.00    -0.224 NA
ATOM     12  C   UNL A   1      33.821  25.132  25.004  1.00  0.00     0.186 A 
ATOM     13  S   UNL A   1      33.915  25.830  23.439  1.00  0.00    -0.091 S 
BRANCH  10  14
ATOM     14  C   UNL A   1      33.189  28.370  26.501  1.00  0.00     0.034 C 
ATOM     15  C   UNL A   1      32.202  27.937  27.583  1.00  0.00     0.014 C 
ATOM     16  C   UNL A   1      34.470  28.908  27.152  1.00  0.00     0.014 C 
ENDBRANCH  10  14
BRANCH  12  17
ATOM     17  N   UNL A   1      34.006  23.811  25.247  1.00  0.00    -0.343 N 
ATOM     18  C   UNL A   1      32.983  22.793  25.033  1.00  0.00     0.150 C 
ATOM     19  C   UNL A   1      35.315  23.298  25.658  1.00  0.00     0.153 C 
ATOM     20  C   UNL A   1      33.520  21.751  24.030  1.00  0.00     0.135 C 
ATOM     21  C   UNL A   1      35.796  22.150  24.729  1.00  0.00     0.081 C 
ATOM     22  O   UNL A   1      34.754  21.174  24.492  1.00  0.00    -0.369 OA
ATOM     23  C   UNL A   1      32.524  20.615  23.840  1.00  0.00     0.040 C 
ATOM     24  C   UNL A   1      36.338  22.693  23.399  1.00  0.00     0.044 C 
ATOM     25  C   UNL A   1      36.921  21.376  25.433  1.00  0.00     0.044 C 
ENDBRANCH  12  17
ENDBRANCH   6   9
ENDBRANCH   4   5
ENDBRANCH   3   4
ENDBRANCH   2   3
ENDBRANCH   1   2
BRANCH   1  26
ATOM     26  C   UNL A   1      31.239  32.260  26.401  1.00  0.00     0.021 C 
BRANCH  26  27
ATOM     27  C   UNL A   1      32.427  32.768  27.211  1.00  0.00     0.116 C 
BRANCH  27  28
ATOM     28  N   UNL A   1      32.290  34.150  27.632  1.00  0.00    -0.352 N 
ATOM     29  C   UNL A   1      33.005  34.865  28.560  1.00  0.00     0.251 C 
ATOM     30  H   UNL A   1      31.573  34.654  27.181  1.00  0.00     0.163 HD
ATOM     31  O   UNL A   1      32.661  36.009  28.848  1.00  0.00    -0.269 OA
BRANCH  29  32
ATOM     32  C   UNL A   1      34.170  34.261  29.245  1.00  0.00     0.039 A 
ATOM     33  C   UNL A   1      33.940  33.381  30.306  1.00  0.00     0.014 A 
ATOM     34  C   UNL A   1      35.481  34.565  28.866  1.00  0.00     0.014 A 
ATOM     35  C   UNL A   1      35.015  32.757  30.942  1.00  0.00     0.010 A 
ATOM     36  C   UNL A   1      36.548  33.885  29.448  1.00  0.00     0.010 A 
ATOM     37  C   UNL A   1      36.328  32.973  30.493  1.00  0.00    -0.014 A 
BRANCH  37  38
ATOM     38  C   UNL A   1      37.477  32.250  31.099  1.00  0.00     0.031 A 
ATOM     39  C   UNL A   1      37.978  32.630  32.467  1.00  0.00     0.074 A 
ATOM     40  C   UNL A   1      38.109  31.291  30.393  1.00  0.00     0.049 A 
ATOM     41  N   UNL A   1      39.005  32.164  33.132  1.00  0.00    -0.248 NA
ATOM     42  C   UNL A   1      37.241  33.691  33.169  1.00  0.00     0.031 C 
ATOM     43  C   UNL A   1      37.747  30.861  29.043  1.00  0.00     0.029 A 
ATOM     44  N   UNL A   1      39.195  30.512  30.709  1.00  0.00    -0.354 N 
ATOM     45  C   UNL A   1      39.043  32.881  34.320  1.00  0.00     0.074 A 
ATOM     46  C   UNL A   1      37.972  33.852  34.262  1.00  0.00     0.031 C 
ATOM     47  C   UNL A   1      38.579  29.882  28.654  1.00  0.00     0.029 A 
ATOM     48  C   UNL A   1      39.561  29.646  29.707  1.00  0.00     0.049 A 
ATOM     49  H   UNL A   1      39.667  30.570  31.571  1.00  0.00     0.167 HD
ATOM     50  C   UNL A   1      39.881  32.729  35.375  1.00  0.00     0.037 A 
ATOM     51  C   UNL A   1      40.581  28.768  29.641  1.00  0.00     0.037 A 
ATOM     52  C   UNL A   1      40.934  31.749  35.435  1.00  0.00     0.049 A 
ATOM     53  C   UNL A   1      41.511  28.635  30.817  1.00  0.00     0.074 A 
ATOM     54  C   UNL A   1      41.802  31.479  36.479  1.00  0.00     0.029 A 
ATOM     55  N   UNL A   1      41.268  30.882  34.404  1.00  0.00    -0.354 N 
ATOM     56  N   UNL A   1      41.494  29.272  31.963  1.00  0.00    -0.248 NA
ATOM     57  C   UNL A   1      42.599  27.655  30.694  1.00  0.00     0.031 C 
ATOM     58  C   UNL A   1      42.697  30.490  36.059  1.00  0.00     0.029 A 
ATOM     59  C   UNL A   1      42.347  30.095  34.778  1.00  0.00     0.049 A 
ATOM     60  H   UNL A   1      40.807  30.832  33.536  1.00  0.00     0.167 HD
ATOM     61  C   UNL A   1      42.542  28.746  32.708  1.00  0.00     0.074 A 
ATOM     62  C   UNL A   1      43.166  27.728  31.889  1.00  0.00     0.031 C 
ATOM     63  C   UNL A   1      42.950  29.076  33.958  1.00  0.00     0.037 A 
BRANCH  50  64
ATOM     64  C   UNL A   1      39.695  33.643  36.552  1.00  0.00     0.064 A 
ATOM     65  C   UNL A   1      40.307  34.905  36.611  1.00  0.00     0.173 A 
ATOM     66  C   UNL A   1      38.856  33.274  37.615  1.00  0.00     0.173 A 
ATOM     67  F   UNL A   1      41.127  35.304  35.626  1.00  0.00    -0.203 F 
ATOM     68  C   UNL A   1      40.111  35.748  37.701  1.00  0.00     0.198 A 
ATOM     69  C   UNL A   1      38.636  34.135  38.688  1.00  0.00     0.198 A 
ATOM     70  F   UNL A   1      38.240  32.083  37.609  1.00  0.00    -0.203 F 
ATOM     71  F   UNL A   1      40.748  36.927  37.758  1.00  0.00    -0.200 F 
ATOM     72  C   UNL A   1      39.269  35.366  38.734  1.00  0.00     0.200 A 
ATOM     73  F   UNL A   1      37.808  33.770  39.677  1.00  0.00    -0.200 F 
ATOM     74  F   UNL A   1      39.073  36.183  39.778  1.00  0.00    -0.200 F 
ENDBRANCH  50  64
BRANCH  51  75
ATOM     75  C   UNL A   1      40.771  27.935  28.423  1.00  0.00     0.064 A 
ATOM     76  C   UNL A   1      41.540  28.396  27.346  1.00  0.00     0.173 A 
ATOM     77  C   UNL A   1      40.176  26.671  28.302  1.00  0.00     0.173 A 
ATOM     78  F   UNL A   1      42.115  29.606  27.404  1.00  0.00    -0.203 F 
ATOM     79  C   UNL A   1      41.685  27.639  26.185  1.00  0.00     0.198 A 
ATOM     80  C   UNL A   1      40.348  25.899  27.155  1.00  0.00     0.198 A 
ATOM     81  F   UNL A   1      39.433  26.178  29.306  1.00  0.00    -0.203 F 
ATOM     82  F   UNL A   1      42.380  28.129  25.150  1.00  0.00    -0.200 F 
ATOM     83  C   UNL A   1      41.093  26.387  26.093  1.00  0.00     0.200 A 
ATOM     84  F   UNL A   1      39.788  24.684  27.077  1.00  0.00    -0.200 F 
ATOM     85  F   UNL A   1      41.232  25.658  24.978  1.00  0.00    -0.200 F 
ENDBRANCH  51  75
BRANCH  63  86
ATOM     86  C   UNL A   1      44.096  28.298  34.540  1.00  0.00     0.064 A 
ATOM     87  C   UNL A   1      45.417  28.766  34.481  1.00  0.00     0.173 A 
ATOM     88  C   UNL A   1      43.861  27.084  35.205  1.00  0.00     0.173 A 
ATOM     89  F   UNL A   1      45.699  29.913  33.844  1.00  0.00    -0.203 F 
ATOM     90  C   UNL A   1      46.462  28.034  35.039  1.00  0.00     0.198 A 
ATOM     91  C   UNL A   1      44.903  26.373  35.793  1.00  0.00     0.198 A 
ATOM     92  F   UNL A   1      42.615  26.594  35.298  1.00  0.00    -0.203 F 
ATOM     93  F   UNL A   1      47.723  28.475  34.923  1.00  0.00    -0.200 F 
ATOM     94  C   UNL A   1      46.203  26.843  35.702  1.00  0.00     0.200 A 
ATOM     95  F   UNL A   1      44.647  25.233  36.448  1.00  0.00    -0.200 F 
ATOM     96  F   UNL A   1      47.209  26.146  36.247  1.00  0.00    -0.200 F 
ENDBRANCH  63  86
ENDBRANCH  37  38
ENDBRANCH  29  32
ENDBRANCH  27  28
ENDBRANCH  26  27
ENDBRANCH   1  26
TORSDOF 15
ENDMDL
