MODEL 1
REMARK VINA RESULT:     -11.2      0.000      0.000
REMARK SMILES O=C(CN(C(=O)[C@H]1CC[C@H]2CCCC[C@H]2[NH2+]1)C1CC1)NCCCCCCNC(=O)c1ccc(-c2c3nc(c(-c4c(F)c(F)c(F)c(F)c4F)c4ccc([nH]4)c(-c4c(F)c(F)c(F)c(F)c4F)c4nc(c(-c5c(F)c(F)c(F)c(F)c5F)c5ccc2[nH]5)C=C4)C=C3)cc1
REMARK SMILES IDX 23 1 22 2 21 3 20 4 1 5 2 6 3 8 4 9 5 10 6 11 7 12 8 13
REMARK SMILES IDX 16 14 9 15 15 16 10 19 14 20 11 21 13 22 12 23 17 24 18 25
REMARK SMILES IDX 19 26 24 27 25 28 26 29 27 30 28 31 29 33 30 34 31 35 92 36
REMARK SMILES IDX 32 37 91 38 33 39 34 40 35 41 85 42 36 43 90 44 84 45 86 46
REMARK SMILES IDX 37 47 89 48 83 49 82 50 38 52 70 53 50 54 69 55 51 56 54 57
REMARK SMILES IDX 68 58 87 59 52 60 53 61 67 63 88 64 55 65 39 66 40 67 48 68
REMARK SMILES IDX 41 69 42 70 46 71 49 72 43 73 44 74 47 75 45 76 71 77 72 78
REMARK SMILES IDX 80 79 73 80 74 81 78 82 81 83 75 84 76 85 79 86 77 87 56 88
REMARK SMILES IDX 57 89 65 90 58 91 59 92 63 93 66 94 60 95 61 96 64 97 62 98
REMARK H PARENT 20 7 16 17 16 18 27 32 86 51 54 62
REMARK Flexibility Score: inf
ROOT
ATOM      1  C   UNL A   1      34.403  32.143  29.029  1.00  0.00     0.002 C 
ENDROOT
BRANCH   1   2
ATOM      2  C   UNL A   1      33.687  31.587  27.791  1.00  0.00     0.021 C 
BRANCH   2   3
ATOM      3  C   UNL A   1      34.160  30.201  27.352  1.00  0.00     0.116 C 
BRANCH   3   4
ATOM      4  N   UNL A   1      33.952  29.977  25.937  1.00  0.00    -0.355 N 
ATOM      5  O   UNL A   1      33.912  27.690  26.074  1.00  0.00    -0.273 OA
ATOM      6  C   UNL A   1      33.794  28.714  25.404  1.00  0.00     0.239 C 
ATOM      7  H   UNL A   1      33.921  30.754  25.332  1.00  0.00     0.163 HD
BRANCH   6   8
ATOM      8  C   UNL A   1      33.671  28.660  23.876  1.00  0.00     0.219 C 
BRANCH   8   9
ATOM      9  N   UNL A   1      32.855  27.537  23.392  1.00  0.00    -0.325 N 
BRANCH   9  10
ATOM     10  C   UNL A   1      33.355  26.399  22.761  1.00  0.00     0.281 C 
ATOM     11  O   UNL A   1      33.828  26.467  21.622  1.00  0.00    -0.268 OA
BRANCH  10  12
ATOM     12  C   UNL A   1      33.257  25.047  23.516  1.00  0.00     0.273 C 
ATOM     13  C   UNL A   1      33.354  23.904  22.488  1.00  0.00     0.076 C 
ATOM     14  N   UNL A   1      34.329  24.984  24.529  1.00  0.00    -0.333 N 
ATOM     15  C   UNL A   1      33.481  22.539  23.160  1.00  0.00     0.016 C 
ATOM     16  C   UNL A   1      34.395  23.678  25.200  1.00  0.00     0.186 C 
ATOM     17  H   UNL A   1      34.157  25.704  25.231  1.00  0.00     0.347 HD
ATOM     18  H   UNL A   1      35.217  25.131  24.049  1.00  0.00     0.347 HD
ATOM     19  C   UNL A   1      34.612  22.530  24.199  1.00  0.00     0.048 C 
ATOM     20  C   UNL A   1      35.528  23.666  26.232  1.00  0.00     0.065 C 
ATOM     21  C   UNL A   1      35.998  22.584  23.527  1.00  0.00     0.010 C 
ATOM     22  C   UNL A   1      36.898  23.849  25.584  1.00  0.00     0.006 C 
ATOM     23  C   UNL A   1      37.167  22.830  24.481  1.00  0.00     0.001 C 
ENDBRANCH  10  12
ENDBRANCH   9  10
BRANCH   9  24
ATOM     24  C   UNL A   1      31.416  27.719  23.469  1.00  0.00     0.086 C 
ATOM     25  C   UNL A   1      30.459  26.567  23.291  1.00  0.00     0.027 C 
ATOM     26  C   UNL A   1      30.635  27.182  24.643  1.00  0.00     0.027 C 
ENDBRANCH   9  24
ENDBRANCH   8   9
ENDBRANCH   6   8
ENDBRANCH   3   4
ENDBRANCH   2   3
ENDBRANCH   1   2
BRANCH   1  27
ATOM     27  C   UNL A   1      34.629  33.659  29.036  1.00  0.00     0.002 C 
BRANCH  27  28
ATOM     28  C   UNL A   1      33.373  34.514  28.863  1.00  0.00     0.021 C 
BRANCH  28  29
ATOM     29  C   UNL A   1      33.454  35.915  29.460  1.00  0.00     0.116 C 
BRANCH  29  30
ATOM     30  N   UNL A   1      32.543  36.102  30.579  1.00  0.00    -0.352 N 
ATOM     31  C   UNL A   1      32.630  35.634  31.866  1.00  0.00     0.251 C 
ATOM     32  H   UNL A   1      31.746  36.645  30.384  1.00  0.00     0.163 HD
ATOM     33  O   UNL A   1      31.677  35.767  32.635  1.00  0.00    -0.269 OA
BRANCH  31  34
ATOM     34  C   UNL A   1      33.852  34.947  32.335  1.00  0.00     0.039 A 
ATOM     35  C   UNL A   1      33.746  33.641  32.823  1.00  0.00     0.014 A 
ATOM     36  C   UNL A   1      35.096  35.584  32.314  1.00  0.00     0.014 A 
ATOM     37  C   UNL A   1      34.893  32.954  33.231  1.00  0.00     0.010 A 
ATOM     38  C   UNL A   1      36.247  34.874  32.651  1.00  0.00     0.010 A 
ATOM     39  C   UNL A   1      36.157  33.553  33.115  1.00  0.00    -0.014 A 
BRANCH  39  40
ATOM     40  C   UNL A   1      37.395  32.810  33.471  1.00  0.00     0.031 A 
ATOM     41  C   UNL A   1      38.124  33.113  34.749  1.00  0.00     0.074 A 
ATOM     42  C   UNL A   1      37.896  31.900  32.612  1.00  0.00     0.049 A 
ATOM     43  N   UNL A   1      39.247  32.614  35.203  1.00  0.00    -0.248 NA
ATOM     44  C   UNL A   1      37.526  34.133  35.625  1.00  0.00     0.031 C 
ATOM     45  C   UNL A   1      37.310  31.548  31.317  1.00  0.00     0.029 A 
ATOM     46  N   UNL A   1      39.019  31.114  32.691  1.00  0.00    -0.354 N 
ATOM     47  C   UNL A   1      39.495  33.267  36.403  1.00  0.00     0.074 A 
ATOM     48  C   UNL A   1      38.435  34.236  36.584  1.00  0.00     0.031 C 
ATOM     49  C   UNL A   1      38.064  30.601  30.736  1.00  0.00     0.029 A 
ATOM     50  C   UNL A   1      39.206  30.308  31.595  1.00  0.00     0.049 A 
ATOM     51  H   UNL A   1      39.632  31.127  33.462  1.00  0.00     0.167 HD
ATOM     52  C   UNL A   1      40.502  33.062  37.286  1.00  0.00     0.037 A 
ATOM     53  C   UNL A   1      40.193  29.436  31.310  1.00  0.00     0.037 A 
ATOM     54  C   UNL A   1      41.544  32.082  37.115  1.00  0.00     0.049 A 
ATOM     55  C   UNL A   1      41.304  29.232  32.305  1.00  0.00     0.074 A 
ATOM     56  C   UNL A   1      42.573  31.755  37.981  1.00  0.00     0.029 A 
ATOM     57  N   UNL A   1      41.691  31.272  35.998  1.00  0.00    -0.354 N 
ATOM     58  N   UNL A   1      41.488  29.803  33.469  1.00  0.00    -0.248 NA
ATOM     59  C   UNL A   1      42.341  28.254  31.947  1.00  0.00     0.031 C 
ATOM     60  C   UNL A   1      43.373  30.787  37.366  1.00  0.00     0.029 A 
ATOM     61  C   UNL A   1      42.810  30.466  36.142  1.00  0.00     0.049 A 
ATOM     62  H   UNL A   1      41.091  31.271  35.217  1.00  0.00     0.167 HD
ATOM     63  C   UNL A   1      42.639  29.234  33.997  1.00  0.00     0.074 A 
ATOM     64  C   UNL A   1      43.104  28.261  33.031  1.00  0.00     0.031 C 
ATOM     65  C   UNL A   1      43.257  29.495  35.175  1.00  0.00     0.037 A 
BRANCH  52  66
ATOM     66  C   UNL A   1      40.530  33.917  38.521  1.00  0.00     0.064 A 
ATOM     67  C   UNL A   1      39.851  33.545  39.692  1.00  0.00     0.173 A 
ATOM     68  C   UNL A   1      41.281  35.103  38.548  1.00  0.00     0.173 A 
ATOM     69  F   UNL A   1      39.112  32.426  39.716  1.00  0.00    -0.203 F 
ATOM     70  C   UNL A   1      39.896  34.344  40.832  1.00  0.00     0.198 A 
ATOM     71  C   UNL A   1      41.350  35.882  39.701  1.00  0.00     0.198 A 
ATOM     72  F   UNL A   1      41.956  35.503  37.461  1.00  0.00    -0.203 F 
ATOM     73  F   UNL A   1      39.197  33.993  41.921  1.00  0.00    -0.200 F 
ATOM     74  C   UNL A   1      40.652  35.506  40.839  1.00  0.00     0.200 A 
ATOM     75  F   UNL A   1      42.093  36.998  39.710  1.00  0.00    -0.200 F 
ATOM     76  F   UNL A   1      40.701  36.269  41.939  1.00  0.00    -0.200 F 
ENDBRANCH  52  66
BRANCH  53  77
ATOM     77  C   UNL A   1      40.163  28.671  30.036  1.00  0.00     0.064 A 
ATOM     78  C   UNL A   1      40.769  29.175  28.878  1.00  0.00     0.173 A 
ATOM     79  C   UNL A   1      39.523  27.425  29.946  1.00  0.00     0.173 A 
ATOM     80  F   UNL A   1      41.375  30.372  28.907  1.00  0.00    -0.203 F 
ATOM     81  C   UNL A   1      40.719  28.475  27.674  1.00  0.00     0.198 A 
ATOM     82  C   UNL A   1      39.499  26.712  28.750  1.00  0.00     0.198 A 
ATOM     83  F   UNL A   1      38.931  26.895  31.028  1.00  0.00    -0.203 F 
ATOM     84  F   UNL A   1      41.264  29.005  26.570  1.00  0.00    -0.200 F 
ATOM     85  C   UNL A   1      40.089  27.242  27.612  1.00  0.00     0.200 A 
ATOM     86  F   UNL A   1      38.904  25.513  28.699  1.00  0.00    -0.200 F 
ATOM     87  F   UNL A   1      40.043  26.567  26.455  1.00  0.00    -0.200 F 
ENDBRANCH  53  77
BRANCH  65  88
ATOM     88  C   UNL A   1      44.480  28.687  35.507  1.00  0.00     0.064 A 
ATOM     89  C   UNL A   1      45.767  29.114  35.148  1.00  0.00     0.173 A 
ATOM     90  C   UNL A   1      44.363  27.488  36.226  1.00  0.00     0.173 A 
ATOM     91  F   UNL A   1      45.933  30.245  34.448  1.00  0.00    -0.203 F 
ATOM     92  C   UNL A   1      46.889  28.354  35.471  1.00  0.00     0.198 A 
ATOM     93  C   UNL A   1      45.488  26.749  36.577  1.00  0.00     0.198 A 
ATOM     94  F   UNL A   1      43.155  27.039  36.601  1.00  0.00    -0.203 F 
ATOM     95  F   UNL A   1      48.104  28.754  35.071  1.00  0.00    -0.200 F 
ATOM     96  C   UNL A   1      46.749  27.177  36.191  1.00  0.00     0.200 A 
ATOM     97  F   UNL A   1      45.352  25.619  37.287  1.00  0.00    -0.200 F 
ATOM     98  F   UNL A   1      47.830  26.451  36.507  1.00  0.00    -0.200 F 
ENDBRANCH  65  88
ENDBRANCH  39  40
ENDBRANCH  31  34
ENDBRANCH  29  30
ENDBRANCH  28  29
ENDBRANCH  27  28
ENDBRANCH   1  27
TORSDOF 17
ENDMDL
MODEL 2
REMARK VINA RESULT:     -11.1      1.560      3.555
REMARK SMILES O=C(CN(C(=O)[C@H]1CC[C@H]2CCCC[C@H]2[NH2+]1)C1CC1)NCCCCCCNC(=O)c1ccc(-c2c3nc(c(-c4c(F)c(F)c(F)c(F)c4F)c4ccc([nH]4)c(-c4c(F)c(F)c(F)c(F)c4F)c4nc(c(-c5c(F)c(F)c(F)c(F)c5F)c5ccc2[nH]5)C=C4)C=C3)cc1
REMARK SMILES IDX 23 1 22 2 21 3 20 4 1 5 2 6 3 8 4 9 5 10 6 11 7 12 8 13
REMARK SMILES IDX 16 14 9 15 15 16 10 19 14 20 11 21 13 22 12 23 17 24 18 25
REMARK SMILES IDX 19 26 24 27 25 28 26 29 27 30 28 31 29 33 30 34 31 35 92 36
REMARK SMILES IDX 32 37 91 38 33 39 34 40 35 41 85 42 36 43 90 44 84 45 86 46
REMARK SMILES IDX 37 47 89 48 83 49 82 50 38 52 70 53 50 54 69 55 51 56 54 57
REMARK SMILES IDX 68 58 87 59 52 60 53 61 67 63 88 64 55 65 39 66 40 67 48 68
REMARK SMILES IDX 41 69 42 70 46 71 49 72 43 73 44 74 47 75 45 76 71 77 72 78
REMARK SMILES IDX 80 79 73 80 74 81 78 82 81 83 75 84 76 85 79 86 77 87 56 88
REMARK SMILES IDX 57 89 65 90 58 91 59 92 63 93 66 94 60 95 61 96 64 97 62 98
REMARK H PARENT 20 7 16 17 16 18 27 32 86 51 54 62
REMARK Flexibility Score: inf
ROOT
ATOM      1  C   UNL A   1      34.831  32.413  28.725  1.00  0.00     0.002 C 
ENDROOT
BRANCH   1   2
ATOM      2  C   UNL A   1      33.717  31.653  27.994  1.00  0.00     0.021 C 
BRANCH   2   3
ATOM      3  C   UNL A   1      34.186  30.414  27.233  1.00  0.00     0.116 C 
BRANCH   3   4
ATOM      4  N   UNL A   1      33.077  29.635  26.723  1.00  0.00    -0.355 N 
ATOM      5  O   UNL A   1      34.325  28.401  25.250  1.00  0.00    -0.273 OA
ATOM      6  C   UNL A   1      33.244  28.637  25.786  1.00  0.00     0.239 C 
ATOM      7  H   UNL A   1      32.170  29.823  27.058  1.00  0.00     0.163 HD
BRANCH   6   8
ATOM      8  C   UNL A   1      31.949  27.975  25.296  1.00  0.00     0.219 C 
BRANCH   8   9
ATOM      9  N   UNL A   1      31.953  27.668  23.858  1.00  0.00    -0.325 N 
BRANCH   9  10
ATOM     10  C   UNL A   1      31.719  28.593  22.843  1.00  0.00     0.281 C 
ATOM     11  O   UNL A   1      32.626  29.330  22.441  1.00  0.00    -0.268 OA
BRANCH  10  12
ATOM     12  C   UNL A   1      30.282  28.695  22.268  1.00  0.00     0.273 C 
ATOM     13  C   UNL A   1      29.285  28.269  23.362  1.00  0.00     0.076 C 
ATOM     14  N   UNL A   1      30.048  30.077  21.802  1.00  0.00    -0.333 N 
ATOM     15  C   UNL A   1      27.839  28.542  22.957  1.00  0.00     0.016 C 
ATOM     16  C   UNL A   1      28.663  30.298  21.365  1.00  0.00     0.186 C 
ATOM     17  H   UNL A   1      30.673  30.267  21.018  1.00  0.00     0.347 HD
ATOM     18  H   UNL A   1      30.230  30.703  22.586  1.00  0.00     0.347 HD
ATOM     19  C   UNL A   1      27.653  29.992  22.486  1.00  0.00     0.048 C 
ATOM     20  C   UNL A   1      28.475  31.747  20.902  1.00  0.00     0.065 C 
ATOM     21  C   UNL A   1      27.752  30.985  23.660  1.00  0.00     0.010 C 
ATOM     22  C   UNL A   1      28.699  32.746  22.034  1.00  0.00     0.006 C 
ATOM     23  C   UNL A   1      27.829  32.457  23.254  1.00  0.00     0.001 C 
ENDBRANCH  10  12
ENDBRANCH   9  10
BRANCH   9  24
ATOM     24  C   UNL A   1      32.079  26.264  23.510  1.00  0.00     0.086 C 
ATOM     25  C   UNL A   1      32.439  25.821  22.114  1.00  0.00     0.027 C 
ATOM     26  C   UNL A   1      33.432  25.661  23.222  1.00  0.00     0.027 C 
ENDBRANCH   9  24
ENDBRANCH   8   9
ENDBRANCH   6   8
ENDBRANCH   3   4
ENDBRANCH   2   3
ENDBRANCH   1   2
BRANCH   1  27
ATOM     27  C   UNL A   1      34.752  33.941  28.645  1.00  0.00     0.002 C 
BRANCH  27  28
ATOM     28  C   UNL A   1      33.383  34.547  28.956  1.00  0.00     0.021 C 
BRANCH  28  29
ATOM     29  C   UNL A   1      33.411  35.973  29.498  1.00  0.00     0.116 C 
BRANCH  29  30
ATOM     30  N   UNL A   1      32.508  36.163  30.623  1.00  0.00    -0.352 N 
ATOM     31  C   UNL A   1      32.600  35.695  31.908  1.00  0.00     0.251 C 
ATOM     32  H   UNL A   1      31.711  36.710  30.432  1.00  0.00     0.163 HD
ATOM     33  O   UNL A   1      31.651  35.832  32.683  1.00  0.00    -0.269 OA
BRANCH  31  34
ATOM     34  C   UNL A   1      33.821  35.002  32.371  1.00  0.00     0.039 A 
ATOM     35  C   UNL A   1      33.714  33.691  32.844  1.00  0.00     0.014 A 
ATOM     36  C   UNL A   1      35.065  35.639  32.358  1.00  0.00     0.014 A 
ATOM     37  C   UNL A   1      34.860  33.000  33.245  1.00  0.00     0.010 A 
ATOM     38  C   UNL A   1      36.215  34.926  32.689  1.00  0.00     0.010 A 
ATOM     39  C   UNL A   1      36.125  33.600  33.137  1.00  0.00    -0.014 A 
BRANCH  39  40
ATOM     40  C   UNL A   1      37.362  32.852  33.486  1.00  0.00     0.031 A 
ATOM     41  C   UNL A   1      38.096  33.149  34.763  1.00  0.00     0.074 A 
ATOM     42  C   UNL A   1      37.858  31.945  32.621  1.00  0.00     0.049 A 
ATOM     43  N   UNL A   1      39.220  32.645  35.211  1.00  0.00    -0.248 NA
ATOM     44  C   UNL A   1      37.503  34.167  35.645  1.00  0.00     0.031 C 
ATOM     45  C   UNL A   1      37.267  31.599  31.328  1.00  0.00     0.029 A 
ATOM     46  N   UNL A   1      38.979  31.155  32.694  1.00  0.00    -0.354 N 
ATOM     47  C   UNL A   1      39.473  33.293  36.413  1.00  0.00     0.074 A 
ATOM     48  C   UNL A   1      38.417  34.264  36.600  1.00  0.00     0.031 C 
ATOM     49  C   UNL A   1      38.016  30.652  30.740  1.00  0.00     0.029 A 
ATOM     50  C   UNL A   1      39.161  30.353  31.594  1.00  0.00     0.049 A 
ATOM     51  H   UNL A   1      39.595  31.164  33.462  1.00  0.00     0.167 HD
ATOM     52  C   UNL A   1      40.484  33.082  37.291  1.00  0.00     0.037 A 
ATOM     53  C   UNL A   1      40.145  29.480  31.302  1.00  0.00     0.037 A 
ATOM     54  C   UNL A   1      41.522  32.101  37.112  1.00  0.00     0.049 A 
ATOM     55  C   UNL A   1      41.259  29.270  32.293  1.00  0.00     0.074 A 
ATOM     56  C   UNL A   1      42.553  31.768  37.974  1.00  0.00     0.029 A 
ATOM     57  N   UNL A   1      41.664  31.295  35.992  1.00  0.00    -0.354 N 
ATOM     58  N   UNL A   1      41.448  29.836  33.458  1.00  0.00    -0.248 NA
ATOM     59  C   UNL A   1      42.292  28.291  31.927  1.00  0.00     0.031 C 
ATOM     60  C   UNL A   1      43.349  30.801  37.352  1.00  0.00     0.029 A 
ATOM     61  C   UNL A   1      42.781  30.486  36.129  1.00  0.00     0.049 A 
ATOM     62  H   UNL A   1      41.061  31.298  35.214  1.00  0.00     0.167 HD
ATOM     63  C   UNL A   1      42.600  29.263  33.980  1.00  0.00     0.074 A 
ATOM     64  C   UNL A   1      43.059  28.292  33.008  1.00  0.00     0.031 C 
ATOM     65  C   UNL A   1      43.223  29.517  35.157  1.00  0.00     0.037 A 
BRANCH  52  66
ATOM     66  C   UNL A   1      40.518  33.933  38.529  1.00  0.00     0.064 A 
ATOM     67  C   UNL A   1      39.841  33.558  39.701  1.00  0.00     0.173 A 
ATOM     68  C   UNL A   1      41.272  35.117  38.559  1.00  0.00     0.173 A 
ATOM     69  F   UNL A   1      39.099  32.441  39.723  1.00  0.00    -0.203 F 
ATOM     70  C   UNL A   1      39.892  34.353  40.844  1.00  0.00     0.198 A 
ATOM     71  C   UNL A   1      41.348  35.890  39.714  1.00  0.00     0.198 A 
ATOM     72  F   UNL A   1      41.945  35.518  37.470  1.00  0.00    -0.203 F 
ATOM     73  F   UNL A   1      39.195  34.000  41.933  1.00  0.00    -0.200 F 
ATOM     74  C   UNL A   1      40.651  35.513  40.853  1.00  0.00     0.200 A 
ATOM     75  F   UNL A   1      42.094  37.004  39.725  1.00  0.00    -0.200 F 
ATOM     76  F   UNL A   1      40.706  36.271  41.955  1.00  0.00    -0.200 F 
ENDBRANCH  52  66
BRANCH  53  77
ATOM     77  C   UNL A   1      40.108  28.720  30.026  1.00  0.00     0.064 A 
ATOM     78  C   UNL A   1      39.490  27.464  29.952  1.00  0.00     0.173 A 
ATOM     79  C   UNL A   1      40.694  29.227  28.856  1.00  0.00     0.173 A 
ATOM     80  F   UNL A   1      38.935  26.927  31.049  1.00  0.00    -0.203 F 
ATOM     81  C   UNL A   1      39.478  26.734  28.765  1.00  0.00     0.198 A 
ATOM     82  C   UNL A   1      40.655  28.510  27.662  1.00  0.00     0.198 A 
ATOM     83  F   UNL A   1      41.294  30.427  28.871  1.00  0.00    -0.203 F 
ATOM     84  F   UNL A   1      38.925  25.514  28.736  1.00  0.00    -0.200 F 
ATOM     85  C   UNL A   1      40.056  27.260  27.619  1.00  0.00     0.200 A 
ATOM     86  F   UNL A   1      41.200  29.029  26.553  1.00  0.00    -0.200 F 
ATOM     87  F   UNL A   1      40.041  26.561  26.476  1.00  0.00    -0.200 F 
ENDBRANCH  53  77
BRANCH  65  88
ATOM     88  C   UNL A   1      44.445  28.706  35.482  1.00  0.00     0.064 A 
ATOM     89  C   UNL A   1      45.733  29.138  35.134  1.00  0.00     0.173 A 
ATOM     90  C   UNL A   1      44.326  27.495  36.182  1.00  0.00     0.173 A 
ATOM     91  F   UNL A   1      45.901  30.281  34.452  1.00  0.00    -0.203 F 
ATOM     92  C   UNL A   1      46.854  28.375  35.450  1.00  0.00     0.198 A 
ATOM     93  C   UNL A   1      45.450  26.751  36.525  1.00  0.00     0.198 A 
ATOM     94  F   UNL A   1      43.117  27.040  36.545  1.00  0.00    -0.203 F 
ATOM     95  F   UNL A   1      48.070  28.782  35.061  1.00  0.00    -0.200 F 
ATOM     96  C   UNL A   1      46.713  27.187  36.151  1.00  0.00     0.200 A 
ATOM     97  F   UNL A   1      45.313  25.611  37.217  1.00  0.00    -0.200 F 
ATOM     98  F   UNL A   1      47.793  26.457  36.461  1.00  0.00    -0.200 F 
ENDBRANCH  65  88
ENDBRANCH  39  40
ENDBRANCH  31  34
ENDBRANCH  29  30
ENDBRANCH  28  29
ENDBRANCH  27  28
ENDBRANCH   1  27
TORSDOF 17
ENDMDL
MODEL 3
REMARK VINA RESULT:     -11.1      0.985      2.209
REMARK SMILES O=C(CN(C(=O)[C@H]1CC[C@H]2CCCC[C@H]2[NH2+]1)C1CC1)NCCCCCCNC(=O)c1ccc(-c2c3nc(c(-c4c(F)c(F)c(F)c(F)c4F)c4ccc([nH]4)c(-c4c(F)c(F)c(F)c(F)c4F)c4nc(c(-c5c(F)c(F)c(F)c(F)c5F)c5ccc2[nH]5)C=C4)C=C3)cc1
REMARK SMILES IDX 23 1 22 2 21 3 20 4 1 5 2 6 3 8 4 9 5 10 6 11 7 12 8 13
REMARK SMILES IDX 16 14 9 15 15 16 10 19 14 20 11 21 13 22 12 23 17 24 18 25
REMARK SMILES IDX 19 26 24 27 25 28 26 29 27 30 28 31 29 33 30 34 31 35 92 36
REMARK SMILES IDX 32 37 91 38 33 39 34 40 35 41 85 42 36 43 90 44 84 45 86 46
REMARK SMILES IDX 37 47 89 48 83 49 82 50 38 52 70 53 50 54 69 55 51 56 54 57
REMARK SMILES IDX 68 58 87 59 52 60 53 61 67 63 88 64 55 65 39 66 40 67 48 68
REMARK SMILES IDX 41 69 42 70 46 71 49 72 43 73 44 74 47 75 45 76 71 77 72 78
REMARK SMILES IDX 80 79 73 80 74 81 78 82 81 83 75 84 76 85 79 86 77 87 56 88
REMARK SMILES IDX 57 89 65 90 58 91 59 92 63 93 66 94 60 95 61 96 64 97 62 98
REMARK H PARENT 20 7 16 17 16 18 27 32 86 51 54 62
REMARK Flexibility Score: inf
ROOT
ATOM      1  C   UNL A   1      35.380  33.396  28.586  1.00  0.00     0.002 C 
ENDROOT
BRANCH   1   2
ATOM      2  C   UNL A   1      34.451  32.202  28.839  1.00  0.00     0.021 C 
BRANCH   2   3
ATOM      3  C   UNL A   1      34.605  31.054  27.842  1.00  0.00     0.116 C 
BRANCH   3   4
ATOM      4  N   UNL A   1      33.361  30.343  27.633  1.00  0.00    -0.355 N 
ATOM      5  O   UNL A   1      34.204  28.853  26.111  1.00  0.00    -0.273 OA
ATOM      6  C   UNL A   1      33.266  29.246  26.802  1.00  0.00     0.239 C 
ATOM      7  H   UNL A   1      32.552  30.653  28.102  1.00  0.00     0.163 HD
BRANCH   6   8
ATOM      8  C   UNL A   1      31.854  28.673  26.632  1.00  0.00     0.219 C 
BRANCH   8   9
ATOM      9  N   UNL A   1      31.648  27.986  25.349  1.00  0.00    -0.325 N 
BRANCH   9  10
ATOM     10  C   UNL A   1      31.681  26.604  25.168  1.00  0.00     0.281 C 
ATOM     11  O   UNL A   1      30.721  25.902  25.503  1.00  0.00    -0.268 OA
BRANCH  10  12
ATOM     12  C   UNL A   1      32.971  25.978  24.576  1.00  0.00     0.273 C 
ATOM     13  C   UNL A   1      33.803  25.387  25.730  1.00  0.00     0.076 C 
ATOM     14  N   UNL A   1      32.595  24.960  23.576  1.00  0.00    -0.333 N 
ATOM     15  C   UNL A   1      34.983  24.564  25.221  1.00  0.00     0.016 C 
ATOM     16  C   UNL A   1      33.756  24.220  23.061  1.00  0.00     0.186 C 
ATOM     17  H   UNL A   1      32.132  25.425  22.795  1.00  0.00     0.347 HD
ATOM     18  H   UNL A   1      31.978  24.289  24.033  1.00  0.00     0.347 HD
ATOM     19  C   UNL A   1      34.535  23.520  24.188  1.00  0.00     0.048 C 
ATOM     20  C   UNL A   1      33.308  23.172  22.035  1.00  0.00     0.065 C 
ATOM     21  C   UNL A   1      33.730  22.382  24.847  1.00  0.00     0.010 C 
ATOM     22  C   UNL A   1      32.403  22.111  22.655  1.00  0.00     0.006 C 
ATOM     23  C   UNL A   1      33.034  21.435  23.869  1.00  0.00     0.001 C 
ENDBRANCH  10  12
ENDBRANCH   9  10
BRANCH   9  24
ATOM     24  C   UNL A   1      31.540  28.842  24.181  1.00  0.00     0.086 C 
ATOM     25  C   UNL A   1      30.689  28.463  22.995  1.00  0.00     0.027 C 
ATOM     26  C   UNL A   1      30.260  29.585  23.888  1.00  0.00     0.027 C 
ENDBRANCH   9  24
ENDBRANCH   8   9
ENDBRANCH   6   8
ENDBRANCH   3   4
ENDBRANCH   2   3
ENDBRANCH   1   2
BRANCH   1  27
ATOM     27  C   UNL A   1      34.689  34.691  28.148  1.00  0.00     0.002 C 
BRANCH  27  28
ATOM     28  C   UNL A   1      33.360  34.996  28.842  1.00  0.00     0.021 C 
BRANCH  28  29
ATOM     29  C   UNL A   1      33.288  36.350  29.541  1.00  0.00     0.116 C 
BRANCH  29  30
ATOM     30  N   UNL A   1      32.446  36.325  30.728  1.00  0.00    -0.352 N 
ATOM     31  C   UNL A   1      32.598  35.619  31.894  1.00  0.00     0.251 C 
ATOM     32  H   UNL A   1      31.648  36.900  30.687  1.00  0.00     0.163 HD
ATOM     33  O   UNL A   1      31.692  35.608  32.729  1.00  0.00    -0.269 OA
BRANCH  31  34
ATOM     34  C   UNL A   1      33.832  34.847  32.150  1.00  0.00     0.039 A 
ATOM     35  C   UNL A   1      35.054  35.526  32.201  1.00  0.00     0.014 A 
ATOM     36  C   UNL A   1      33.798  33.460  32.323  1.00  0.00     0.014 A 
ATOM     37  C   UNL A   1      36.229  34.825  32.486  1.00  0.00     0.010 A 
ATOM     38  C   UNL A   1      34.958  32.775  32.679  1.00  0.00     0.010 A 
ATOM     39  C   UNL A   1      36.185  33.449  32.762  1.00  0.00    -0.014 A 
BRANCH  39  40
ATOM     40  C   UNL A   1      37.414  32.703  33.143  1.00  0.00     0.031 A 
ATOM     41  C   UNL A   1      38.120  33.009  34.434  1.00  0.00     0.074 A 
ATOM     42  C   UNL A   1      37.927  31.788  32.297  1.00  0.00     0.049 A 
ATOM     43  N   UNL A   1      39.233  32.507  34.910  1.00  0.00    -0.248 NA
ATOM     44  C   UNL A   1      37.510  34.034  35.294  1.00  0.00     0.031 C 
ATOM     45  C   UNL A   1      37.364  31.433  30.994  1.00  0.00     0.029 A 
ATOM     46  N   UNL A   1      39.045  30.998  32.401  1.00  0.00    -0.354 N 
ATOM     47  C   UNL A   1      39.461  33.165  36.112  1.00  0.00     0.074 A 
ATOM     48  C   UNL A   1      38.402  34.138  36.269  1.00  0.00     0.031 C 
ATOM     49  C   UNL A   1      38.125  30.481  30.430  1.00  0.00     0.029 A 
ATOM     50  C   UNL A   1      39.250  30.187  31.311  1.00  0.00     0.049 A 
ATOM     51  H   UNL A   1      39.644  31.012  33.182  1.00  0.00     0.167 HD
ATOM     52  C   UNL A   1      40.452  32.959  37.013  1.00  0.00     0.037 A 
ATOM     53  C   UNL A   1      40.239  29.310  31.047  1.00  0.00     0.037 A 
ATOM     54  C   UNL A   1      41.493  31.975  36.865  1.00  0.00     0.049 A 
ATOM     55  C   UNL A   1      41.331  29.107  32.064  1.00  0.00     0.074 A 
ATOM     56  C   UNL A   1      42.504  31.648  37.751  1.00  0.00     0.029 A 
ATOM     57  N   UNL A   1      41.658  31.161  35.754  1.00  0.00    -0.354 N 
ATOM     58  N   UNL A   1      41.495  29.682  33.229  1.00  0.00    -0.248 NA
ATOM     59  C   UNL A   1      42.370  28.124  31.728  1.00  0.00     0.031 C 
ATOM     60  C   UNL A   1      43.312  30.675  37.155  1.00  0.00     0.029 A 
ATOM     61  C   UNL A   1      42.771  30.351  35.922  1.00  0.00     0.049 A 
ATOM     62  H   UNL A   1      41.072  31.158  34.963  1.00  0.00     0.167 HD
ATOM     63  C   UNL A   1      42.635  29.111  33.780  1.00  0.00     0.074 A 
ATOM     64  C   UNL A   1      43.114  28.132  32.826  1.00  0.00     0.031 C 
ATOM     65  C   UNL A   1      43.232  29.374  34.968  1.00  0.00     0.037 A 
BRANCH  52  66
ATOM     66  C   UNL A   1      40.460  33.820  38.245  1.00  0.00     0.064 A 
ATOM     67  C   UNL A   1      39.714  33.483  39.386  1.00  0.00     0.173 A 
ATOM     68  C   UNL A   1      41.258  34.973  38.302  1.00  0.00     0.173 A 
ATOM     69  F   UNL A   1      38.928  32.396  39.381  1.00  0.00    -0.203 F 
ATOM     70  C   UNL A   1      39.741  34.286  40.524  1.00  0.00     0.198 A 
ATOM     71  C   UNL A   1      41.309  35.754  39.454  1.00  0.00     0.198 A 
ATOM     72  F   UNL A   1      41.998  35.338  37.245  1.00  0.00    -0.203 F 
ATOM     73  F   UNL A   1      38.980  33.971  41.581  1.00  0.00    -0.200 F 
ATOM     74  C   UNL A   1      40.544  35.415  40.560  1.00  0.00     0.200 A 
ATOM     75  F   UNL A   1      42.097  36.838  39.493  1.00  0.00    -0.200 F 
ATOM     76  F   UNL A   1      40.576  36.181  41.659  1.00  0.00    -0.200 F 
ENDBRANCH  52  66
BRANCH  53  77
ATOM     77  C   UNL A   1      40.229  28.540  29.776  1.00  0.00     0.064 A 
ATOM     78  C   UNL A   1      39.547  27.320  29.678  1.00  0.00     0.173 A 
ATOM     79  C   UNL A   1      40.905  29.002  28.636  1.00  0.00     0.173 A 
ATOM     80  F   UNL A   1      38.903  26.826  30.747  1.00  0.00    -0.203 F 
ATOM     81  C   UNL A   1      39.558  26.580  28.497  1.00  0.00     0.198 A 
ATOM     82  C   UNL A   1      40.890  28.276  27.447  1.00  0.00     0.198 A 
ATOM     83  F   UNL A   1      41.569  30.167  28.675  1.00  0.00    -0.203 F 
ATOM     84  F   UNL A   1      38.939  25.392  28.448  1.00  0.00    -0.200 F 
ATOM     85  C   UNL A   1      40.225  27.061  27.381  1.00  0.00     0.200 A 
ATOM     86  F   UNL A   1      41.522  28.752  26.367  1.00  0.00    -0.200 F 
ATOM     87  F   UNL A   1      40.234  26.351  26.245  1.00  0.00    -0.200 F 
ENDBRANCH  53  77
BRANCH  65  88
ATOM     88  C   UNL A   1      44.445  28.564  35.325  1.00  0.00     0.064 A 
ATOM     89  C   UNL A   1      44.344  27.346  36.014  1.00  0.00     0.173 A 
ATOM     90  C   UNL A   1      45.724  28.997  34.942  1.00  0.00     0.173 A 
ATOM     91  F   UNL A   1      43.147  26.894  36.416  1.00  0.00    -0.203 F 
ATOM     92  C   UNL A   1      45.481  26.606  36.331  1.00  0.00     0.198 A 
ATOM     93  C   UNL A   1      46.855  28.239  35.230  1.00  0.00     0.198 A 
ATOM     94  F   UNL A   1      45.876  30.151  34.275  1.00  0.00    -0.203 F 
ATOM     95  F   UNL A   1      45.365  25.472  37.035  1.00  0.00    -0.200 F 
ATOM     96  C   UNL A   1      46.734  27.049  35.932  1.00  0.00     0.200 A 
ATOM     97  F   UNL A   1      48.063  28.660  34.831  1.00  0.00    -0.200 F 
ATOM     98  F   UNL A   1      47.826  26.332  36.231  1.00  0.00    -0.200 F 
ENDBRANCH  65  88
ENDBRANCH  39  40
ENDBRANCH  31  34
ENDBRANCH  29  30
ENDBRANCH  28  29
ENDBRANCH  27  28
ENDBRANCH   1  27
TORSDOF 17
ENDMDL
