MODEL 1
REMARK VINA RESULT:     -11.6      0.000      0.000
REMARK SMILES Cc1onc2c(=O)n(C)nc(C(=O)NCCCCCCNC(=O)c3ccc(-c4c5nc(c(-c6c(F)c(F)c(F)c(F)c6F)c6ccc([nH]6)c(-c6c(F)c(F)c(F)c(F)c6F)c6nc(c(-c7c(F)c(F)c(F)c(F)c7F)c7ccc4[nH]7)C=C6)C=C5)cc3)c12
REMARK SMILES IDX 18 1 17 2 16 3 15 4 14 5 12 6 13 7 11 9 1 10 2 11 3 12 87 13
REMARK SMILES IDX 4 14 5 15 6 16 10 17 7 18 8 19 9 20 19 21 20 22 21 23 22 24
REMARK SMILES IDX 23 26 24 27 25 28 86 29 26 30 85 31 27 32 28 33 29 34 79 35
REMARK SMILES IDX 30 36 84 37 78 38 80 39 31 40 83 41 77 42 76 43 32 45 64 46
REMARK SMILES IDX 44 47 63 48 45 49 48 50 62 51 81 52 46 53 47 54 61 56 82 57
REMARK SMILES IDX 49 58 33 59 34 60 42 61 35 62 36 63 40 64 43 65 37 66 38 67
REMARK SMILES IDX 41 68 39 69 65 70 66 71 74 72 67 73 68 74 72 75 75 76 69 77
REMARK SMILES IDX 70 78 73 79 71 80 50 81 51 82 59 83 52 84 53 85 57 86 60 87
REMARK SMILES IDX 54 88 55 89 58 90 56 91
REMARK H PARENT 14 8 21 25 80 44 48 55
REMARK Flexibility Score: inf
ROOT
ATOM      1  C   UNL A   1      36.139  23.411  26.107  1.00  0.00     0.002 C 
ENDROOT
BRANCH   1   2
ATOM      2  C   UNL A   1      35.711  22.207  25.261  1.00  0.00     0.002 C 
BRANCH   2   3
ATOM      3  C   UNL A   1      34.737  21.246  25.950  1.00  0.00     0.021 C 
BRANCH   3   4
ATOM      4  C   UNL A   1      33.946  21.865  27.102  1.00  0.00     0.116 C 
BRANCH   4   5
ATOM      5  N   UNL A   1      32.524  21.928  26.802  1.00  0.00    -0.351 N 
ATOM      6  C   UNL A   1      31.760  22.836  26.104  1.00  0.00     0.272 C 
ATOM      7  O   UNL A   1      30.553  22.625  26.029  1.00  0.00    -0.267 OA
ATOM      8  H   UNL A   1      32.008  21.175  27.171  1.00  0.00     0.163 HD
BRANCH   6   9
ATOM      9  C   UNL A   1      32.357  24.069  25.406  1.00  0.00     0.161 A 
ATOM     10  C   UNL A   1      32.535  21.746  22.812  1.00  0.00     0.091 C 
ATOM     11  C   UNL A   1      32.908  23.159  23.019  1.00  0.00     0.144 A 
ATOM     12  O   UNL A   1      33.485  23.759  21.935  1.00  0.00    -0.360 OA
ATOM     13  C   UNL A   1      32.834  24.077  24.042  1.00  0.00     0.083 A 
ATOM     14  N   UNL A   1      33.795  25.074  22.230  1.00  0.00    -0.074 NA
ATOM     15  C   UNL A   1      33.398  25.249  23.494  1.00  0.00     0.183 A 
ATOM     16  C   UNL A   1      33.511  26.472  24.255  1.00  0.00     0.296 A 
ATOM     17  N   UNL A   1      32.464  25.177  26.092  1.00  0.00    -0.164 NA
ATOM     18  O   UNL A   1      33.999  27.520  23.817  1.00  0.00    -0.265 OA
ATOM     19  N   UNL A   1      33.001  26.344  25.555  1.00  0.00    -0.230 N 
ATOM     20  C   UNL A   1      33.043  27.492  26.438  1.00  0.00     0.178 C 
ENDBRANCH   6   9
ENDBRANCH   4   5
ENDBRANCH   3   4
ENDBRANCH   2   3
ENDBRANCH   1   2
BRANCH   1  21
ATOM     21  C   UNL A   1      37.640  23.748  26.066  1.00  0.00     0.021 C 
BRANCH  21  22
ATOM     22  C   UNL A   1      38.549  22.607  25.587  1.00  0.00     0.116 C 
BRANCH  22  23
ATOM     23  N   UNL A   1      39.111  21.907  26.727  1.00  0.00    -0.352 N 
ATOM     24  C   UNL A   1      40.238  22.145  27.457  1.00  0.00     0.251 C 
ATOM     25  H   UNL A   1      38.589  21.127  27.023  1.00  0.00     0.163 HD
ATOM     26  O   UNL A   1      40.761  21.198  28.043  1.00  0.00    -0.269 OA
BRANCH  24  27
ATOM     27  C   UNL A   1      40.817  23.496  27.620  1.00  0.00     0.039 A 
ATOM     28  C   UNL A   1      40.087  24.414  28.386  1.00  0.00     0.014 A 
ATOM     29  C   UNL A   1      41.924  23.932  26.885  1.00  0.00     0.014 A 
ATOM     30  C   UNL A   1      40.449  25.758  28.410  1.00  0.00     0.010 A 
ATOM     31  C   UNL A   1      42.291  25.284  26.914  1.00  0.00     0.010 A 
ATOM     32  C   UNL A   1      41.550  26.204  27.670  1.00  0.00    -0.014 A 
BRANCH  32  33
ATOM     33  C   UNL A   1      41.919  27.629  27.790  1.00  0.00     0.031 A 
ATOM     34  C   UNL A   1      40.797  28.603  27.639  1.00  0.00     0.074 A 
ATOM     35  C   UNL A   1      43.028  28.025  28.452  1.00  0.00     0.049 A 
ATOM     36  N   UNL A   1      40.013  28.928  28.625  1.00  0.00    -0.248 NA
ATOM     37  C   UNL A   1      40.331  29.075  26.336  1.00  0.00     0.031 C 
ATOM     38  C   UNL A   1      43.584  27.315  29.609  1.00  0.00     0.029 A 
ATOM     39  N   UNL A   1      43.742  29.203  28.402  1.00  0.00    -0.354 N 
ATOM     40  C   UNL A   1      38.927  29.592  28.088  1.00  0.00     0.074 A 
ATOM     41  C   UNL A   1      39.177  29.679  26.665  1.00  0.00     0.031 C 
ATOM     42  C   UNL A   1      44.426  28.142  30.262  1.00  0.00     0.029 A 
ATOM     43  C   UNL A   1      44.590  29.377  29.495  1.00  0.00     0.049 A 
ATOM     44  H   UNL A   1      43.663  29.855  27.669  1.00  0.00     0.167 HD
ATOM     45  C   UNL A   1      37.881  30.013  28.846  1.00  0.00     0.037 A 
ATOM     46  C   UNL A   1      44.904  30.578  30.056  1.00  0.00     0.037 A 
ATOM     47  C   UNL A   1      37.979  29.724  30.246  1.00  0.00     0.049 A 
ATOM     48  C   UNL A   1      43.572  30.992  30.627  1.00  0.00     0.074 A 
ATOM     49  C   UNL A   1      37.545  28.738  31.105  1.00  0.00     0.029 A 
ATOM     50  N   UNL A   1      38.741  30.561  31.025  1.00  0.00    -0.354 N 
ATOM     51  N   UNL A   1      43.046  30.557  31.741  1.00  0.00    -0.248 NA
ATOM     52  C   UNL A   1      42.631  31.665  29.728  1.00  0.00     0.031 C 
ATOM     53  C   UNL A   1      38.445  28.784  32.216  1.00  0.00     0.029 A 
ATOM     54  C   UNL A   1      39.389  29.769  31.934  1.00  0.00     0.049 A 
ATOM     55  H   UNL A   1      38.807  31.540  30.944  1.00  0.00     0.167 HD
ATOM     56  C   UNL A   1      41.665  30.661  31.561  1.00  0.00     0.074 A 
ATOM     57  C   UNL A   1      41.479  31.375  30.315  1.00  0.00     0.031 C 
ATOM     58  C   UNL A   1      40.756  30.000  32.332  1.00  0.00     0.037 A 
BRANCH  45  59
ATOM     59  C   UNL A   1      36.745  30.829  28.381  1.00  0.00     0.064 A 
ATOM     60  C   UNL A   1      36.846  32.222  28.510  1.00  0.00     0.173 A 
ATOM     61  C   UNL A   1      35.496  30.280  28.081  1.00  0.00     0.173 A 
ATOM     62  F   UNL A   1      38.031  32.782  28.813  1.00  0.00    -0.203 F 
ATOM     63  C   UNL A   1      35.727  33.038  28.401  1.00  0.00     0.198 A 
ATOM     64  C   UNL A   1      34.375  31.102  27.959  1.00  0.00     0.198 A 
ATOM     65  F   UNL A   1      35.349  28.952  27.967  1.00  0.00    -0.203 F 
ATOM     66  F   UNL A   1      35.844  34.358  28.594  1.00  0.00    -0.200 F 
ATOM     67  C   UNL A   1      34.489  32.477  28.138  1.00  0.00     0.200 A 
ATOM     68  F   UNL A   1      33.174  30.562  27.711  1.00  0.00    -0.200 F 
ATOM     69  F   UNL A   1      33.401  33.257  28.076  1.00  0.00    -0.200 F 
ENDBRANCH  45  59
BRANCH  46  70
ATOM     70  C   UNL A   1      45.768  31.489  29.236  1.00  0.00     0.064 A 
ATOM     71  C   UNL A   1      47.032  31.862  29.741  1.00  0.00     0.173 A 
ATOM     72  C   UNL A   1      45.421  32.038  27.992  1.00  0.00     0.173 A 
ATOM     73  F   UNL A   1      47.401  31.493  30.978  1.00  0.00    -0.203 F 
ATOM     74  C   UNL A   1      47.938  32.618  28.992  1.00  0.00     0.198 A 
ATOM     75  C   UNL A   1      46.338  32.770  27.230  1.00  0.00     0.198 A 
ATOM     76  F   UNL A   1      44.196  31.870  27.478  1.00  0.00    -0.203 F 
ATOM     77  F   UNL A   1      49.141  32.915  29.500  1.00  0.00    -0.200 F 
ATOM     78  C   UNL A   1      47.601  33.042  27.721  1.00  0.00     0.200 A 
ATOM     79  F   UNL A   1      45.993  33.192  26.004  1.00  0.00    -0.200 F 
ATOM     80  F   UNL A   1      48.486  33.717  26.975  1.00  0.00    -0.200 F 
ENDBRANCH  46  70
BRANCH  58  81
ATOM     81  C   UNL A   1      41.307  29.289  33.515  1.00  0.00     0.064 A 
ATOM     82  C   UNL A   1      41.748  27.967  33.395  1.00  0.00     0.173 A 
ATOM     83  C   UNL A   1      41.455  29.930  34.754  1.00  0.00     0.173 A 
ATOM     84  F   UNL A   1      41.635  27.318  32.226  1.00  0.00    -0.203 F 
ATOM     85  C   UNL A   1      42.345  27.317  34.471  1.00  0.00     0.198 A 
ATOM     86  C   UNL A   1      42.075  29.285  35.820  1.00  0.00     0.198 A 
ATOM     87  F   UNL A   1      41.035  31.194  34.928  1.00  0.00    -0.203 F 
ATOM     88  F   UNL A   1      42.778  26.056  34.333  1.00  0.00    -0.200 F 
ATOM     89  C   UNL A   1      42.523  27.981  35.676  1.00  0.00     0.200 A 
ATOM     90  F   UNL A   1      42.264  29.936  36.977  1.00  0.00    -0.200 F 
ATOM     91  F   UNL A   1      43.141  27.369  36.696  1.00  0.00    -0.200 F 
ENDBRANCH  58  81
ENDBRANCH  32  33
ENDBRANCH  24  27
ENDBRANCH  22  23
ENDBRANCH  21  22
ENDBRANCH   1  21
TORSDOF 13
ENDMDL
MODEL 2
REMARK VINA RESULT:     -11.6      0.558      1.782
REMARK SMILES Cc1onc2c(=O)n(C)nc(C(=O)NCCCCCCNC(=O)c3ccc(-c4c5nc(c(-c6c(F)c(F)c(F)c(F)c6F)c6ccc([nH]6)c(-c6c(F)c(F)c(F)c(F)c6F)c6nc(c(-c7c(F)c(F)c(F)c(F)c7F)c7ccc4[nH]7)C=C6)C=C5)cc3)c12
REMARK SMILES IDX 18 1 17 2 16 3 15 4 14 5 12 6 13 7 11 9 1 10 2 11 3 12 87 13
REMARK SMILES IDX 4 14 5 15 6 16 10 17 7 18 8 19 9 20 19 21 20 22 21 23 22 24
REMARK SMILES IDX 23 26 24 27 25 28 86 29 26 30 85 31 27 32 28 33 29 34 79 35
REMARK SMILES IDX 30 36 84 37 78 38 80 39 31 40 83 41 77 42 76 43 32 45 64 46
REMARK SMILES IDX 44 47 63 48 45 49 48 50 62 51 81 52 46 53 47 54 61 56 82 57
REMARK SMILES IDX 49 58 33 59 34 60 42 61 35 62 36 63 40 64 43 65 37 66 38 67
REMARK SMILES IDX 41 68 39 69 65 70 66 71 74 72 67 73 68 74 72 75 75 76 69 77
REMARK SMILES IDX 70 78 73 79 71 80 50 81 51 82 59 83 52 84 53 85 57 86 60 87
REMARK SMILES IDX 54 88 55 89 58 90 56 91
REMARK H PARENT 14 8 21 25 80 44 48 55
REMARK Flexibility Score: inf
ROOT
ATOM      1  C   UNL A   1      35.787  22.837  25.184  1.00  0.00     0.002 C 
ENDROOT
BRANCH   1   2
ATOM      2  C   UNL A   1      35.495  21.369  24.856  1.00  0.00     0.002 C 
BRANCH   2   3
ATOM      3  C   UNL A   1      34.334  20.750  25.640  1.00  0.00     0.021 C 
BRANCH   3   4
ATOM      4  C   UNL A   1      33.792  21.629  26.767  1.00  0.00     0.116 C 
BRANCH   4   5
ATOM      5  N   UNL A   1      32.359  21.843  26.637  1.00  0.00    -0.351 N 
ATOM      6  C   UNL A   1      31.618  22.861  26.081  1.00  0.00     0.272 C 
ATOM      7  O   UNL A   1      30.395  22.770  26.135  1.00  0.00    -0.267 OA
ATOM      8  H   UNL A   1      31.814  21.119  27.021  1.00  0.00     0.163 HD
BRANCH   6   9
ATOM      9  C   UNL A   1      32.255  24.077  25.389  1.00  0.00     0.161 A 
ATOM     10  C   UNL A   1      32.227  21.804  22.744  1.00  0.00     0.091 C 
ATOM     11  C   UNL A   1      32.680  23.191  22.967  1.00  0.00     0.144 A 
ATOM     12  O   UNL A   1      33.252  23.783  21.876  1.00  0.00    -0.360 OA
ATOM     13  C   UNL A   1      32.688  24.090  24.010  1.00  0.00     0.083 A 
ATOM     14  N   UNL A   1      33.639  25.074  22.187  1.00  0.00    -0.074 NA
ATOM     15  C   UNL A   1      33.293  25.242  23.466  1.00  0.00     0.183 A 
ATOM     16  C   UNL A   1      33.495  26.442  24.246  1.00  0.00     0.296 A 
ATOM     17  N   UNL A   1      32.442  25.163  26.092  1.00  0.00    -0.164 NA
ATOM     18  O   UNL A   1      34.022  27.472  23.814  1.00  0.00    -0.265 OA
ATOM     19  N   UNL A   1      33.021  26.312  25.561  1.00  0.00    -0.230 N 
ATOM     20  C   UNL A   1      33.152  27.437  26.464  1.00  0.00     0.178 C 
ENDBRANCH   6   9
ENDBRANCH   4   5
ENDBRANCH   3   4
ENDBRANCH   2   3
ENDBRANCH   1   2
BRANCH   1  21
ATOM     21  C   UNL A   1      37.190  23.122  25.750  1.00  0.00     0.021 C 
BRANCH  21  22
ATOM     22  C   UNL A   1      38.275  22.119  25.333  1.00  0.00     0.116 C 
BRANCH  22  23
ATOM     23  N   UNL A   1      39.010  21.668  26.500  1.00  0.00    -0.352 N 
ATOM     24  C   UNL A   1      40.040  22.242  27.186  1.00  0.00     0.251 C 
ATOM     25  H   UNL A   1      38.715  20.800  26.857  1.00  0.00     0.163 HD
ATOM     26  O   UNL A   1      40.798  21.507  27.817  1.00  0.00    -0.269 OA
BRANCH  24  27
ATOM     27  C   UNL A   1      40.242  23.706  27.251  1.00  0.00     0.039 A 
ATOM     28  C   UNL A   1      41.322  24.233  26.531  1.00  0.00     0.014 A 
ATOM     29  C   UNL A   1      39.543  24.521  28.147  1.00  0.00     0.014 A 
ATOM     30  C   UNL A   1      41.710  25.558  26.710  1.00  0.00     0.010 A 
ATOM     31  C   UNL A   1      39.930  25.856  28.322  1.00  0.00     0.010 A 
ATOM     32  C   UNL A   1      41.020  26.378  27.611  1.00  0.00    -0.014 A 
BRANCH  32  33
ATOM     33  C   UNL A   1      41.441  27.791  27.706  1.00  0.00     0.031 A 
ATOM     34  C   UNL A   1      40.336  28.793  27.758  1.00  0.00     0.074 A 
ATOM     35  C   UNL A   1      42.650  28.143  28.195  1.00  0.00     0.049 A 
ATOM     36  N   UNL A   1      39.725  29.108  28.862  1.00  0.00    -0.248 NA
ATOM     37  C   UNL A   1      39.684  29.312  26.557  1.00  0.00     0.031 C 
ATOM     38  C   UNL A   1      43.361  27.387  29.233  1.00  0.00     0.029 A 
ATOM     39  N   UNL A   1      43.379  29.304  28.063  1.00  0.00    -0.354 N 
ATOM     40  C   UNL A   1      38.586  29.811  28.519  1.00  0.00     0.074 A 
ATOM     41  C   UNL A   1      38.612  29.932  27.078  1.00  0.00     0.031 C 
ATOM     42  C   UNL A   1      44.317  28.177  29.765  1.00  0.00     0.029 A 
ATOM     43  C   UNL A   1      44.392  29.429  29.013  1.00  0.00     0.049 A 
ATOM     44  H   UNL A   1      43.203  29.979  27.367  1.00  0.00     0.167 HD
ATOM     45  C   UNL A   1      37.684  30.234  29.442  1.00  0.00     0.037 A 
ATOM     46  C   UNL A   1      44.822  30.606  29.547  1.00  0.00     0.037 A 
ATOM     47  C   UNL A   1      37.991  29.903  30.802  1.00  0.00     0.049 A 
ATOM     48  C   UNL A   1      43.607  31.034  30.329  1.00  0.00     0.074 A 
ATOM     49  C   UNL A   1      37.671  28.904  31.694  1.00  0.00     0.029 A 
ATOM     50  N   UNL A   1      38.888  30.701  31.472  1.00  0.00    -0.354 N 
ATOM     51  N   UNL A   1      43.250  30.579  31.502  1.00  0.00    -0.248 NA
ATOM     52  C   UNL A   1      42.555  31.753  29.606  1.00  0.00     0.031 C 
ATOM     53  C   UNL A   1      38.735  28.898  32.651  1.00  0.00     0.029 A 
ATOM     54  C   UNL A   1      39.649  29.869  32.248  1.00  0.00     0.049 A 
ATOM     55  H   UNL A   1      38.967  31.680  31.405  1.00  0.00     0.167 HD
ATOM     56  C   UNL A   1      41.862  30.720  31.543  1.00  0.00     0.074 A 
ATOM     57  C   UNL A   1      41.502  31.472  30.360  1.00  0.00     0.031 C 
ATOM     58  C   UNL A   1      41.068  30.058  32.431  1.00  0.00     0.037 A 
BRANCH  45  59
ATOM     59  C   UNL A   1      36.511  31.088  29.182  1.00  0.00     0.064 A 
ATOM     60  C   UNL A   1      35.398  30.498  28.563  1.00  0.00     0.173 A 
ATOM     61  C   UNL A   1      36.558  32.482  29.269  1.00  0.00     0.173 A 
ATOM     62  F   UNL A   1      35.327  29.160  28.449  1.00  0.00    -0.203 F 
ATOM     63  C   UNL A   1      34.393  31.274  27.999  1.00  0.00     0.198 A 
ATOM     64  C   UNL A   1      35.543  33.259  28.713  1.00  0.00     0.198 A 
ATOM     65  F   UNL A   1      37.612  33.089  29.835  1.00  0.00    -0.203 F 
ATOM     66  F   UNL A   1      33.376  30.682  27.358  1.00  0.00    -0.200 F 
ATOM     67  C   UNL A   1      34.471  32.655  28.063  1.00  0.00     0.200 A 
ATOM     68  F   UNL A   1      35.617  34.596  28.767  1.00  0.00    -0.200 F 
ATOM     69  F   UNL A   1      33.526  33.406  27.481  1.00  0.00    -0.200 F 
ENDBRANCH  45  59
BRANCH  46  70
ATOM     70  C   UNL A   1      45.571  31.520  28.623  1.00  0.00     0.064 A 
ATOM     71  C   UNL A   1      46.908  31.850  28.932  1.00  0.00     0.173 A 
ATOM     72  C   UNL A   1      45.048  32.111  27.463  1.00  0.00     0.173 A 
ATOM     73  F   UNL A   1      47.456  31.438  30.086  1.00  0.00    -0.203 F 
ATOM     74  C   UNL A   1      47.705  32.606  28.069  1.00  0.00     0.198 A 
ATOM     75  C   UNL A   1      45.853  32.844  26.584  1.00  0.00     0.198 A 
ATOM     76  F   UNL A   1      43.753  31.986  27.145  1.00  0.00    -0.203 F 
ATOM     77  F   UNL A   1      48.981  32.861  28.388  1.00  0.00    -0.200 F 
ATOM     78  C   UNL A   1      47.185  33.073  26.878  1.00  0.00     0.200 A 
ATOM     79  F   UNL A   1      45.332  33.309  25.439  1.00  0.00    -0.200 F 
ATOM     80  F   UNL A   1      47.959  33.749  26.018  1.00  0.00    -0.200 F 
ENDBRANCH  46  70
BRANCH  58  81
ATOM     81  C   UNL A   1      41.778  29.302  33.495  1.00  0.00     0.064 A 
ATOM     82  C   UNL A   1      42.009  29.894  34.742  1.00  0.00     0.173 A 
ATOM     83  C   UNL A   1      42.181  27.971  33.306  1.00  0.00     0.173 A 
ATOM     84  F   UNL A   1      41.631  31.161  34.970  1.00  0.00    -0.203 F 
ATOM     85  C   UNL A   1      42.594  29.170  35.775  1.00  0.00     0.198 A 
ATOM     86  C   UNL A   1      42.743  27.243  34.350  1.00  0.00     0.198 A 
ATOM     87  F   UNL A   1      41.997  27.359  32.125  1.00  0.00    -0.203 F 
ATOM     88  F   UNL A   1      42.791  29.747  36.968  1.00  0.00    -0.200 F 
ATOM     89  C   UNL A   1      42.946  27.841  35.583  1.00  0.00     0.200 A 
ATOM     90  F   UNL A   1      43.064  25.953  34.169  1.00  0.00    -0.200 F 
ATOM     91  F   UNL A   1      43.467  27.132  36.594  1.00  0.00    -0.200 F 
ENDBRANCH  58  81
ENDBRANCH  32  33
ENDBRANCH  24  27
ENDBRANCH  22  23
ENDBRANCH  21  22
ENDBRANCH   1  21
TORSDOF 13
ENDMDL
MODEL 3
REMARK VINA RESULT:     -11.3      2.761      7.754
REMARK SMILES Cc1onc2c(=O)n(C)nc(C(=O)NCCCCCCNC(=O)c3ccc(-c4c5nc(c(-c6c(F)c(F)c(F)c(F)c6F)c6ccc([nH]6)c(-c6c(F)c(F)c(F)c(F)c6F)c6nc(c(-c7c(F)c(F)c(F)c(F)c7F)c7ccc4[nH]7)C=C6)C=C5)cc3)c12
REMARK SMILES IDX 18 1 17 2 16 3 15 4 14 5 12 6 13 7 11 9 1 10 2 11 3 12 87 13
REMARK SMILES IDX 4 14 5 15 6 16 10 17 7 18 8 19 9 20 19 21 20 22 21 23 22 24
REMARK SMILES IDX 23 26 24 27 25 28 86 29 26 30 85 31 27 32 28 33 29 34 79 35
REMARK SMILES IDX 30 36 84 37 78 38 80 39 31 40 83 41 77 42 76 43 32 45 64 46
REMARK SMILES IDX 44 47 63 48 45 49 48 50 62 51 81 52 46 53 47 54 61 56 82 57
REMARK SMILES IDX 49 58 33 59 34 60 42 61 35 62 36 63 40 64 43 65 37 66 38 67
REMARK SMILES IDX 41 68 39 69 65 70 66 71 74 72 67 73 68 74 72 75 75 76 69 77
REMARK SMILES IDX 70 78 73 79 71 80 50 81 51 82 59 83 52 84 53 85 57 86 60 87
REMARK SMILES IDX 54 88 55 89 58 90 56 91
REMARK H PARENT 14 8 21 25 80 44 48 55
REMARK Flexibility Score: inf
ROOT
ATOM      1  C   UNL A   1      32.889  28.637  25.926  1.00  0.00     0.002 C 
ENDROOT
BRANCH   1   2
ATOM      2  C   UNL A   1      32.594  29.214  24.538  1.00  0.00     0.002 C 
BRANCH   2   3
ATOM      3  C   UNL A   1      33.336  28.533  23.383  1.00  0.00     0.021 C 
BRANCH   3   4
ATOM      4  C   UNL A   1      33.945  27.176  23.736  1.00  0.00     0.116 C 
BRANCH   4   5
ATOM      5  N   UNL A   1      33.552  26.150  22.783  1.00  0.00    -0.351 N 
ATOM      6  C   UNL A   1      33.169  24.836  22.937  1.00  0.00     0.272 C 
ATOM      7  O   UNL A   1      32.904  24.198  21.922  1.00  0.00    -0.267 OA
ATOM      8  H   UNL A   1      33.562  26.453  21.847  1.00  0.00     0.163 HD
BRANCH   6   9
ATOM      9  C   UNL A   1      33.042  24.158  24.311  1.00  0.00     0.161 A 
ATOM     10  C   UNL A   1      30.177  26.147  24.336  1.00  0.00     0.091 C 
ATOM     11  C   UNL A   1      30.839  25.201  25.256  1.00  0.00     0.144 A 
ATOM     12  O   UNL A   1      30.198  25.030  26.451  1.00  0.00    -0.360 OA
ATOM     13  C   UNL A   1      31.968  24.414  25.244  1.00  0.00     0.083 A 
ATOM     14  N   UNL A   1      30.895  24.128  27.236  1.00  0.00    -0.074 NA
ATOM     15  C   UNL A   1      31.950  23.769  26.499  1.00  0.00     0.183 A 
ATOM     16  C   UNL A   1      32.979  22.834  26.895  1.00  0.00     0.296 A 
ATOM     17  N   UNL A   1      33.972  23.315  24.674  1.00  0.00    -0.164 NA
ATOM     18  O   UNL A   1      33.005  22.249  27.983  1.00  0.00    -0.265 OA
ATOM     19  N   UNL A   1      33.954  22.659  25.902  1.00  0.00    -0.230 N 
ATOM     20  C   UNL A   1      35.051  21.747  26.155  1.00  0.00     0.178 C 
ENDBRANCH   6   9
ENDBRANCH   4   5
ENDBRANCH   3   4
ENDBRANCH   2   3
ENDBRANCH   1   2
BRANCH   1  21
ATOM     21  C   UNL A   1      34.147  29.193  26.619  1.00  0.00     0.021 C 
BRANCH  21  22
ATOM     22  C   UNL A   1      33.883  30.284  27.666  1.00  0.00     0.116 C 
BRANCH  22  23
ATOM     23  N   UNL A   1      34.471  31.539  27.236  1.00  0.00    -0.352 N 
ATOM     24  C   UNL A   1      35.512  32.260  27.743  1.00  0.00     0.251 C 
ATOM     25  H   UNL A   1      34.045  31.938  26.444  1.00  0.00     0.163 HD
ATOM     26  O   UNL A   1      35.536  33.471  27.533  1.00  0.00    -0.269 OA
BRANCH  24  27
ATOM     27  C   UNL A   1      36.636  31.637  28.475  1.00  0.00     0.039 A 
ATOM     28  C   UNL A   1      37.266  30.545  27.867  1.00  0.00     0.014 A 
ATOM     29  C   UNL A   1      36.939  31.962  29.802  1.00  0.00     0.014 A 
ATOM     30  C   UNL A   1      38.181  29.773  28.578  1.00  0.00     0.010 A 
ATOM     31  C   UNL A   1      37.864  31.188  30.515  1.00  0.00     0.010 A 
ATOM     32  C   UNL A   1      38.483  30.085  29.909  1.00  0.00    -0.014 A 
BRANCH  32  33
ATOM     33  C   UNL A   1      39.510  29.266  30.585  1.00  0.00     0.031 A 
ATOM     34  C   UNL A   1      39.571  27.834  30.170  1.00  0.00     0.074 A 
ATOM     35  C   UNL A   1      40.607  29.820  31.146  1.00  0.00     0.049 A 
ATOM     36  N   UNL A   1      40.228  27.434  29.121  1.00  0.00    -0.248 NA
ATOM     37  C   UNL A   1      38.706  26.807  30.749  1.00  0.00     0.031 C 
ATOM     38  C   UNL A   1      41.258  31.034  30.639  1.00  0.00     0.029 A 
ATOM     39  N   UNL A   1      41.483  29.337  32.093  1.00  0.00    -0.354 N 
ATOM     40  C   UNL A   1      39.835  26.136  28.856  1.00  0.00     0.074 A 
ATOM     41  C   UNL A   1      38.904  25.780  29.905  1.00  0.00     0.031 C 
ATOM     42  C   UNL A   1      42.503  31.104  31.152  1.00  0.00     0.029 A 
ATOM     43  C   UNL A   1      42.688  30.036  32.135  1.00  0.00     0.049 A 
ATOM     44  H   UNL A   1      41.278  28.575  32.683  1.00  0.00     0.167 HD
ATOM     45  C   UNL A   1      40.288  25.442  27.780  1.00  0.00     0.037 A 
ATOM     46  C   UNL A   1      43.899  29.490  32.437  1.00  0.00     0.037 A 
ATOM     47  C   UNL A   1      41.204  26.146  26.934  1.00  0.00     0.049 A 
ATOM     48  C   UNL A   1      44.109  28.575  31.257  1.00  0.00     0.074 A 
ATOM     49  C   UNL A   1      41.139  26.897  25.780  1.00  0.00     0.029 A 
ATOM     50  N   UNL A   1      42.523  26.201  27.317  1.00  0.00    -0.354 N 
ATOM     51  N   UNL A   1      44.518  28.938  30.069  1.00  0.00    -0.248 NA
ATOM     52  C   UNL A   1      43.501  27.244  31.315  1.00  0.00     0.031 C 
ATOM     53  C   UNL A   1      42.302  27.729  25.806  1.00  0.00     0.029 A 
ATOM     54  C   UNL A   1      42.973  27.454  26.996  1.00  0.00     0.049 A 
ATOM     55  H   UNL A   1      43.042  25.479  27.739  1.00  0.00     0.167 HD
ATOM     56  C   UNL A   1      43.973  27.997  29.191  1.00  0.00     0.074 A 
ATOM     57  C   UNL A   1      43.384  26.970  30.024  1.00  0.00     0.031 C 
ATOM     58  C   UNL A   1      43.866  28.200  27.848  1.00  0.00     0.037 A 
BRANCH  45  59
ATOM     59  C   UNL A   1      40.019  24.022  27.487  1.00  0.00     0.064 A 
ATOM     60  C   UNL A   1      40.925  23.071  27.979  1.00  0.00     0.173 A 
ATOM     61  C   UNL A   1      39.081  23.613  26.536  1.00  0.00     0.173 A 
ATOM     62  F   UNL A   1      41.851  23.435  28.885  1.00  0.00    -0.203 F 
ATOM     63  C   UNL A   1      40.934  21.769  27.497  1.00  0.00     0.198 A 
ATOM     64  C   UNL A   1      39.083  22.302  26.061  1.00  0.00     0.198 A 
ATOM     65  F   UNL A   1      38.208  24.493  26.024  1.00  0.00    -0.203 F 
ATOM     66  F   UNL A   1      41.854  20.901  27.939  1.00  0.00    -0.200 F 
ATOM     67  C   UNL A   1      40.021  21.387  26.528  1.00  0.00     0.200 A 
ATOM     68  F   UNL A   1      38.205  21.930  25.120  1.00  0.00    -0.200 F 
ATOM     69  F   UNL A   1      40.056  20.144  26.029  1.00  0.00    -0.200 F 
ENDBRANCH  45  59
BRANCH  46  70
ATOM     70  C   UNL A   1      44.097  29.058  33.859  1.00  0.00     0.064 A 
ATOM     71  C   UNL A   1      43.453  29.784  34.885  1.00  0.00     0.173 A 
ATOM     72  C   UNL A   1      44.899  27.986  34.281  1.00  0.00     0.173 A 
ATOM     73  F   UNL A   1      42.768  30.901  34.593  1.00  0.00    -0.203 F 
ATOM     74  C   UNL A   1      43.500  29.381  36.222  1.00  0.00     0.198 A 
ATOM     75  C   UNL A   1      44.924  27.566  35.614  1.00  0.00     0.198 A 
ATOM     76  F   UNL A   1      45.668  27.314  33.414  1.00  0.00    -0.203 F 
ATOM     77  F   UNL A   1      42.842  30.082  37.154  1.00  0.00    -0.200 F 
ATOM     78  C   UNL A   1      44.209  28.251  36.580  1.00  0.00     0.200 A 
ATOM     79  F   UNL A   1      45.630  26.477  35.953  1.00  0.00    -0.200 F 
ATOM     80  F   UNL A   1      44.211  27.825  37.850  1.00  0.00    -0.200 F 
ENDBRANCH  46  70
BRANCH  58  81
ATOM     81  C   UNL A   1      44.534  29.419  27.323  1.00  0.00     0.064 A 
ATOM     82  C   UNL A   1      43.833  30.629  27.255  1.00  0.00     0.173 A 
ATOM     83  C   UNL A   1      45.883  29.410  26.939  1.00  0.00     0.173 A 
ATOM     84  F   UNL A   1      42.543  30.685  27.621  1.00  0.00    -0.203 F 
ATOM     85  C   UNL A   1      44.469  31.796  26.847  1.00  0.00     0.198 A 
ATOM     86  C   UNL A   1      46.522  30.585  26.556  1.00  0.00     0.198 A 
ATOM     87  F   UNL A   1      46.599  28.274  26.971  1.00  0.00    -0.203 F 
ATOM     88  F   UNL A   1      43.787  32.949  26.805  1.00  0.00    -0.200 F 
ATOM     89  C   UNL A   1      45.816  31.777  26.513  1.00  0.00     0.200 A 
ATOM     90  F   UNL A   1      47.829  30.569  26.254  1.00  0.00    -0.200 F 
ATOM     91  F   UNL A   1      46.438  32.913  26.166  1.00  0.00    -0.200 F 
ENDBRANCH  58  81
ENDBRANCH  32  33
ENDBRANCH  24  27
ENDBRANCH  22  23
ENDBRANCH  21  22
ENDBRANCH   1  21
TORSDOF 13
ENDMDL
