MODEL 1
REMARK VINA RESULT:     -12.8      0.000      0.000
REMARK SMILES C[N@H+]1CCO[C@H](c2noc(-c3ccccc3C(=O)NCCCCCCNC(=O)c3ccc(-c4c5nc(c(-c6c(F)c(F)c(F)c(F)c6F)c6ccc([nH]6)c(-c6c(F)c(F)c(F)c(F)c6F)c6nc(c(-c7c(F)c(F)c(F)c(F)c7F)c7ccc4[nH]7)C=C6)C=C5)cc3)n2)C1
REMARK SMILES IDX 22 1 21 2 20 3 19 4 17 5 18 6 16 8 11 9 12 10 13 11 15 12
REMARK SMILES IDX 14 13 10 14 7 15 8 16 92 17 9 18 6 19 1 20 2 21 3 22 93 23
REMARK SMILES IDX 4 25 5 26 23 27 24 28 25 29 26 30 27 31 28 33 29 34 30 35
REMARK SMILES IDX 91 36 31 37 90 38 32 39 33 40 34 41 84 42 35 43 89 44 83 45
REMARK SMILES IDX 85 46 36 47 88 48 82 49 81 50 37 52 69 53 49 54 68 55 50 56
REMARK SMILES IDX 53 57 67 58 86 59 51 60 52 61 66 63 87 64 54 65 38 66 39 67
REMARK SMILES IDX 47 68 40 69 41 70 45 71 48 72 42 73 43 74 46 75 44 76 70 77
REMARK SMILES IDX 71 78 79 79 72 80 73 81 77 82 80 83 74 84 75 85 78 86 76 87
REMARK SMILES IDX 55 88 56 89 64 90 57 91 58 92 62 93 65 94 59 95 60 96 63 97
REMARK SMILES IDX 61 98
REMARK H PARENT 19 7 2 24 26 32 85 51 53 62
REMARK Flexibility Score: inf
ROOT
ATOM      1  C   UNL A   1      31.784  29.796  26.702  1.00  0.00     0.002 C 
ENDROOT
BRANCH   1   2
ATOM      2  C   UNL A   1      31.835  28.380  26.108  1.00  0.00     0.021 C 
BRANCH   2   3
ATOM      3  C   UNL A   1      33.190  27.889  25.609  1.00  0.00     0.116 C 
BRANCH   3   4
ATOM      4  N   UNL A   1      33.557  28.286  24.265  1.00  0.00    -0.352 N 
ATOM      5  C   UNL A   1      33.354  27.615  23.075  1.00  0.00     0.252 C 
ATOM      6  O   UNL A   1      33.654  28.169  22.018  1.00  0.00    -0.269 OA
ATOM      7  H   UNL A   1      34.016  29.153  24.189  1.00  0.00     0.163 HD
BRANCH   5   8
ATOM      8  C   UNL A   1      32.918  26.189  23.030  1.00  0.00     0.052 A 
ATOM      9  C   UNL A   1      31.587  25.730  23.047  1.00  0.00     0.053 A 
ATOM     10  C   UNL A   1      31.352  24.342  23.109  1.00  0.00     0.015 A 
ATOM     11  C   UNL A   1      32.407  23.426  23.083  1.00  0.00     0.001 A 
ATOM     12  C   UNL A   1      33.970  25.253  22.958  1.00  0.00     0.014 A 
ATOM     13  C   UNL A   1      33.716  23.882  22.981  1.00  0.00     0.001 A 
BRANCH   9  14
ATOM     14  C   UNL A   1      30.446  26.627  22.969  1.00  0.00     0.258 A 
ATOM     15  C   UNL A   1      29.084  28.218  22.806  1.00  0.00     0.206 A 
ATOM     16  N   UNL A   1      28.453  27.357  23.621  1.00  0.00    -0.059 NA
ATOM     17  N   UNL A   1      30.313  27.781  22.362  1.00  0.00    -0.189 NA
ATOM     18  O   UNL A   1      29.358  26.296  23.731  1.00  0.00    -0.334 OA
BRANCH  15  19
ATOM     19  C   UNL A   1      28.544  29.585  22.482  1.00  0.00     0.245 C 
ATOM     20  C   UNL A   1      28.110  31.853  20.444  1.00  0.00     0.332 C 
ATOM     21  N   UNL A   1      29.189  31.813  21.429  1.00  0.00    -0.333 N 
ATOM     22  C   UNL A   1      28.793  32.446  22.702  1.00  0.00     0.290 C 
ATOM     23  C   UNL A   1      29.604  30.423  21.725  1.00  0.00     0.303 C 
ATOM     24  H   UNL A   1      29.965  32.329  21.014  1.00  0.00     0.348 HD
ATOM     25  C   UNL A   1      27.753  31.634  23.488  1.00  0.00     0.222 C 
ATOM     26  O   UNL A   1      28.157  30.276  23.687  1.00  0.00    -0.358 OA
ENDBRANCH  15  19
ENDBRANCH   9  14
ENDBRANCH   5   8
ENDBRANCH   3   4
ENDBRANCH   2   3
ENDBRANCH   1   2
BRANCH   1  27
ATOM     27  C   UNL A   1      31.167  30.896  25.829  1.00  0.00     0.002 C 
BRANCH  27  28
ATOM     28  C   UNL A   1      31.116  32.294  26.458  1.00  0.00     0.021 C 
BRANCH  28  29
ATOM     29  C   UNL A   1      32.426  32.782  27.067  1.00  0.00     0.116 C 
BRANCH  29  30
ATOM     30  N   UNL A   1      32.350  34.149  27.581  1.00  0.00    -0.352 N 
ATOM     31  C   UNL A   1      33.012  34.849  28.560  1.00  0.00     0.251 C 
ATOM     32  H   UNL A   1      31.670  34.690  27.120  1.00  0.00     0.163 HD
ATOM     33  O   UNL A   1      32.565  35.949  28.881  1.00  0.00    -0.269 OA
BRANCH  31  34
ATOM     34  C   UNL A   1      34.220  34.341  29.260  1.00  0.00     0.039 A 
ATOM     35  C   UNL A   1      34.052  33.583  30.431  1.00  0.00     0.014 A 
ATOM     36  C   UNL A   1      35.513  34.641  28.848  1.00  0.00     0.014 A 
ATOM     37  C   UNL A   1      35.160  33.076  31.123  1.00  0.00     0.010 A 
ATOM     38  C   UNL A   1      36.610  34.030  29.453  1.00  0.00     0.010 A 
ATOM     39  C   UNL A   1      36.453  33.252  30.608  1.00  0.00    -0.014 A 
BRANCH  39  40
ATOM     40  C   UNL A   1      37.662  32.669  31.252  1.00  0.00     0.031 A 
ATOM     41  C   UNL A   1      38.403  31.542  30.578  1.00  0.00     0.074 A 
ATOM     42  C   UNL A   1      38.028  33.068  32.485  1.00  0.00     0.049 A 
ATOM     43  N   UNL A   1      39.349  30.768  31.046  1.00  0.00    -0.248 NA
ATOM     44  C   UNL A   1      37.989  31.212  29.204  1.00  0.00     0.031 C 
ATOM     45  C   UNL A   1      37.375  34.119  33.267  1.00  0.00     0.029 A 
ATOM     46  N   UNL A   1      39.030  32.617  33.312  1.00  0.00    -0.354 N 
ATOM     47  C   UNL A   1      39.610  29.841  30.044  1.00  0.00     0.074 A 
ATOM     48  C   UNL A   1      38.681  30.108  28.968  1.00  0.00     0.031 C 
ATOM     49  C   UNL A   1      38.007  34.252  34.444  1.00  0.00     0.029 A 
ATOM     50  C   UNL A   1      39.071  33.257  34.527  1.00  0.00     0.049 A 
ATOM     51  H   UNL A   1      39.659  31.905  33.056  1.00  0.00     0.167 HD
ATOM     52  C   UNL A   1      40.555  28.869  30.011  1.00  0.00     0.037 A 
ATOM     53  C   UNL A   1      39.862  33.051  35.597  1.00  0.00     0.037 A 
ATOM     54  C   UNL A   1      41.506  28.638  31.066  1.00  0.00     0.049 A 
ATOM     55  C   UNL A   1      40.895  31.957  35.543  1.00  0.00     0.074 A 
ATOM     56  C   UNL A   1      42.550  27.731  31.104  1.00  0.00     0.029 A 
ATOM     57  N   UNL A   1      41.528  29.324  32.271  1.00  0.00    -0.354 N 
ATOM     58  N   UNL A   1      41.172  31.125  34.569  1.00  0.00    -0.248 NA
ATOM     59  C   UNL A   1      41.727  31.773  36.741  1.00  0.00     0.031 C 
ATOM     60  C   UNL A   1      43.172  27.833  32.352  1.00  0.00     0.029 A 
ATOM     61  C   UNL A   1      42.552  28.843  33.071  1.00  0.00     0.049 A 
ATOM     62  H   UNL A   1      40.907  30.046  32.521  1.00  0.00     0.167 HD
ATOM     63  C   UNL A   1      42.225  30.342  35.021  1.00  0.00     0.074 A 
ATOM     64  C   UNL A   1      42.548  30.808  36.353  1.00  0.00     0.031 C 
ATOM     65  C   UNL A   1      42.867  29.328  34.390  1.00  0.00     0.037 A 
BRANCH  52  66
ATOM     66  C   UNL A   1      40.607  27.989  28.793  1.00  0.00     0.064 A 
ATOM     67  C   UNL A   1      39.887  26.786  28.717  1.00  0.00     0.173 A 
ATOM     68  C   UNL A   1      41.371  28.362  27.676  1.00  0.00     0.173 A 
ATOM     69  F   UNL A   1      39.146  26.375  29.757  1.00  0.00    -0.203 F 
ATOM     70  C   UNL A   1      39.966  25.970  27.591  1.00  0.00     0.198 A 
ATOM     71  C   UNL A   1      41.417  27.561  26.536  1.00  0.00     0.198 A 
ATOM     72  F   UNL A   1      42.072  29.506  27.686  1.00  0.00    -0.203 F 
ATOM     73  F   UNL A   1      39.322  24.794  27.571  1.00  0.00    -0.200 F 
ATOM     74  C   UNL A   1      40.725  26.362  26.499  1.00  0.00     0.200 A 
ATOM     75  F   UNL A   1      42.138  27.951  25.475  1.00  0.00    -0.200 F 
ATOM     76  F   UNL A   1      40.797  25.577  25.415  1.00  0.00    -0.200 F 
ENDBRANCH  52  66
BRANCH  53  77
ATOM     77  C   UNL A   1      39.728  33.913  36.802  1.00  0.00     0.064 A 
ATOM     78  C   UNL A   1      38.915  33.519  37.874  1.00  0.00     0.173 A 
ATOM     79  C   UNL A   1      40.400  35.139  36.911  1.00  0.00     0.173 A 
ATOM     80  F   UNL A   1      38.236  32.365  37.809  1.00  0.00    -0.203 F 
ATOM     81  C   UNL A   1      38.764  34.326  38.999  1.00  0.00     0.198 A 
ATOM     82  C   UNL A   1      40.273  35.931  38.051  1.00  0.00     0.198 A 
ATOM     83  F   UNL A   1      41.195  35.562  35.917  1.00  0.00    -0.203 F 
ATOM     84  F   UNL A   1      37.944  33.945  39.989  1.00  0.00    -0.200 F 
ATOM     85  C   UNL A   1      39.448  35.528  39.090  1.00  0.00     0.200 A 
ATOM     86  F   UNL A   1      40.948  37.084  38.142  1.00  0.00    -0.200 F 
ATOM     87  F   UNL A   1      39.307  36.301  40.175  1.00  0.00    -0.200 F 
ENDBRANCH  53  77
BRANCH  65  88
ATOM     88  C   UNL A   1      44.012  28.681  35.113  1.00  0.00     0.064 A 
ATOM     89  C   UNL A   1      45.322  29.172  35.010  1.00  0.00     0.173 A 
ATOM     90  C   UNL A   1      43.786  27.587  35.962  1.00  0.00     0.173 A 
ATOM     91  F   UNL A   1      45.593  30.205  34.200  1.00  0.00    -0.203 F 
ATOM     92  C   UNL A   1      46.366  28.577  35.713  1.00  0.00     0.198 A 
ATOM     93  C   UNL A   1      44.826  27.016  36.689  1.00  0.00     0.198 A 
ATOM     94  F   UNL A   1      42.550  27.083  36.101  1.00  0.00    -0.203 F 
ATOM     95  F   UNL A   1      47.617  29.035  35.565  1.00  0.00    -0.200 F 
ATOM     96  C   UNL A   1      46.116  27.507  36.560  1.00  0.00     0.200 A 
ATOM     97  F   UNL A   1      44.579  25.992  37.518  1.00  0.00    -0.200 F 
ATOM     98  F   UNL A   1      47.120  26.945  37.247  1.00  0.00    -0.200 F 
ENDBRANCH  65  88
ENDBRANCH  39  40
ENDBRANCH  31  34
ENDBRANCH  29  30
ENDBRANCH  28  29
ENDBRANCH  27  28
ENDBRANCH   1  27
TORSDOF 15
ENDMDL
MODEL 2
REMARK VINA RESULT:     -12.7      6.351     11.668
REMARK SMILES C[N@H+]1CCO[C@H](c2noc(-c3ccccc3C(=O)NCCCCCCNC(=O)c3ccc(-c4c5nc(c(-c6c(F)c(F)c(F)c(F)c6F)c6ccc([nH]6)c(-c6c(F)c(F)c(F)c(F)c6F)c6nc(c(-c7c(F)c(F)c(F)c(F)c7F)c7ccc4[nH]7)C=C6)C=C5)cc3)n2)C1
REMARK SMILES IDX 22 1 21 2 20 3 19 4 17 5 18 6 16 8 11 9 12 10 13 11 15 12
REMARK SMILES IDX 14 13 10 14 7 15 8 16 92 17 9 18 6 19 1 20 2 21 3 22 93 23
REMARK SMILES IDX 4 25 5 26 23 27 24 28 25 29 26 30 27 31 28 33 29 34 30 35
REMARK SMILES IDX 91 36 31 37 90 38 32 39 33 40 34 41 84 42 35 43 89 44 83 45
REMARK SMILES IDX 85 46 36 47 88 48 82 49 81 50 37 52 69 53 49 54 68 55 50 56
REMARK SMILES IDX 53 57 67 58 86 59 51 60 52 61 66 63 87 64 54 65 38 66 39 67
REMARK SMILES IDX 47 68 40 69 41 70 45 71 48 72 42 73 43 74 46 75 44 76 70 77
REMARK SMILES IDX 71 78 79 79 72 80 73 81 77 82 80 83 74 84 75 85 78 86 76 87
REMARK SMILES IDX 55 88 56 89 64 90 57 91 58 92 62 93 65 94 59 95 60 96 63 97
REMARK SMILES IDX 61 98
REMARK H PARENT 19 7 2 24 26 32 85 51 53 62
REMARK Flexibility Score: inf
ROOT
ATOM      1  C   UNL A   1      38.534  23.486  25.827  1.00  0.00     0.002 C 
ENDROOT
BRANCH   1   2
ATOM      2  C   UNL A   1      37.021  23.698  25.659  1.00  0.00     0.021 C 
BRANCH   2   3
ATOM      3  C   UNL A   1      36.249  22.610  24.920  1.00  0.00     0.116 C 
BRANCH   3   4
ATOM      4  N   UNL A   1      35.646  22.996  23.661  1.00  0.00    -0.352 N 
ATOM      5  C   UNL A   1      34.486  23.711  23.437  1.00  0.00     0.252 C 
ATOM      6  O   UNL A   1      34.192  24.025  22.284  1.00  0.00    -0.269 OA
ATOM      7  H   UNL A   1      36.129  22.709  22.854  1.00  0.00     0.163 HD
BRANCH   5   8
ATOM      8  C   UNL A   1      33.503  23.994  24.523  1.00  0.00     0.052 A 
ATOM      9  C   UNL A   1      32.481  23.129  24.958  1.00  0.00     0.053 A 
ATOM     10  C   UNL A   1      31.567  23.597  25.925  1.00  0.00     0.015 A 
ATOM     11  C   UNL A   1      31.704  24.863  26.499  1.00  0.00     0.001 A 
ATOM     12  C   UNL A   1      33.656  25.251  25.144  1.00  0.00     0.014 A 
ATOM     13  C   UNL A   1      32.764  25.680  26.127  1.00  0.00     0.001 A 
BRANCH   9  14
ATOM     14  C   UNL A   1      32.350  21.764  24.478  1.00  0.00     0.258 A 
ATOM     15  C   UNL A   1      32.442  19.705  24.075  1.00  0.00     0.206 A 
ATOM     16  N   UNL A   1      32.151  20.239  22.877  1.00  0.00    -0.059 NA
ATOM     17  N   UNL A   1      32.544  20.624  25.095  1.00  0.00    -0.189 NA
ATOM     18  O   UNL A   1      32.087  21.610  23.143  1.00  0.00    -0.334 OA
BRANCH  15  19
ATOM     19  C   UNL A   1      32.729  18.240  24.270  1.00  0.00     0.245 C 
ATOM     20  C   UNL A   1      32.164  15.599  25.751  1.00  0.00     0.332 C 
ATOM     21  N   UNL A   1      33.264  16.510  26.062  1.00  0.00    -0.333 N 
ATOM     22  C   UNL A   1      34.478  16.189  25.286  1.00  0.00     0.290 C 
ATOM     23  C   UNL A   1      32.902  17.917  25.775  1.00  0.00     0.303 C 
ATOM     24  H   UNL A   1      33.450  16.393  27.058  1.00  0.00     0.348 HD
ATOM     25  C   UNL A   1      34.346  16.512  23.790  1.00  0.00     0.222 C 
ATOM     26  O   UNL A   1      33.922  17.858  23.557  1.00  0.00    -0.358 OA
ENDBRANCH  15  19
ENDBRANCH   9  14
ENDBRANCH   5   8
ENDBRANCH   3   4
ENDBRANCH   2   3
ENDBRANCH   1   2
BRANCH   1  27
ATOM     27  C   UNL A   1      38.985  22.167  26.468  1.00  0.00     0.002 C 
BRANCH  27  28
ATOM     28  C   UNL A   1      39.424  21.070  25.490  1.00  0.00     0.021 C 
BRANCH  28  29
ATOM     29  C   UNL A   1      39.210  19.640  25.976  1.00  0.00     0.116 C 
BRANCH  29  30
ATOM     30  N   UNL A   1      40.428  18.833  25.950  1.00  0.00    -0.352 N 
ATOM     31  C   UNL A   1      41.772  19.111  26.025  1.00  0.00     0.251 C 
ATOM     32  H   UNL A   1      40.244  17.871  25.857  1.00  0.00     0.163 HD
ATOM     33  O   UNL A   1      42.561  18.203  25.771  1.00  0.00    -0.269 OA
BRANCH  31  34
ATOM     34  C   UNL A   1      42.316  20.449  26.377  1.00  0.00     0.039 A 
ATOM     35  C   UNL A   1      42.963  21.196  25.379  1.00  0.00     0.014 A 
ATOM     36  C   UNL A   1      42.274  20.965  27.667  1.00  0.00     0.014 A 
ATOM     37  C   UNL A   1      43.486  22.466  25.660  1.00  0.00     0.010 A 
ATOM     38  C   UNL A   1      42.672  22.276  27.918  1.00  0.00     0.010 A 
ATOM     39  C   UNL A   1      43.298  23.041  26.925  1.00  0.00    -0.014 A 
BRANCH  39  40
ATOM     40  C   UNL A   1      43.759  24.417  27.260  1.00  0.00     0.031 A 
ATOM     41  C   UNL A   1      42.771  25.436  27.771  1.00  0.00     0.074 A 
ATOM     42  C   UNL A   1      45.028  24.785  27.001  1.00  0.00     0.049 A 
ATOM     43  N   UNL A   1      42.915  26.726  27.937  1.00  0.00    -0.248 NA
ATOM     44  C   UNL A   1      41.424  24.940  28.098  1.00  0.00     0.031 C 
ATOM     45  C   UNL A   1      46.074  23.912  26.469  1.00  0.00     0.029 A 
ATOM     46  N   UNL A   1      45.650  26.004  27.129  1.00  0.00    -0.354 N 
ATOM     47  C   UNL A   1      41.671  27.197  28.343  1.00  0.00     0.074 A 
ATOM     48  C   UNL A   1      40.770  26.065  28.339  1.00  0.00     0.031 C 
ATOM     49  C   UNL A   1      47.213  24.611  26.342  1.00  0.00     0.029 A 
ATOM     50  C   UNL A   1      46.963  25.997  26.725  1.00  0.00     0.049 A 
ATOM     51  H   UNL A   1      45.198  26.806  27.478  1.00  0.00     0.167 HD
ATOM     52  C   UNL A   1      41.317  28.452  28.710  1.00  0.00     0.037 A 
ATOM     53  C   UNL A   1      47.861  26.998  26.652  1.00  0.00     0.037 A 
ATOM     54  C   UNL A   1      42.230  29.564  28.756  1.00  0.00     0.049 A 
ATOM     55  C   UNL A   1      47.440  28.388  27.052  1.00  0.00     0.074 A 
ATOM     56  C   UNL A   1      41.994  30.858  29.182  1.00  0.00     0.029 A 
ATOM     57  N   UNL A   1      43.558  29.508  28.360  1.00  0.00    -0.354 N 
ATOM     58  N   UNL A   1      46.279  28.809  27.489  1.00  0.00    -0.248 NA
ATOM     59  C   UNL A   1      48.459  29.443  26.946  1.00  0.00     0.031 C 
ATOM     60  C   UNL A   1      43.166  31.599  28.997  1.00  0.00     0.029 A 
ATOM     61  C   UNL A   1      44.148  30.753  28.509  1.00  0.00     0.049 A 
ATOM     62  H   UNL A   1      44.015  28.703  28.023  1.00  0.00     0.167 HD
ATOM     63  C   UNL A   1      46.434  30.165  27.741  1.00  0.00     0.074 A 
ATOM     64  C   UNL A   1      47.807  30.495  27.419  1.00  0.00     0.031 C 
ATOM     65  C   UNL A   1      45.521  31.059  28.195  1.00  0.00     0.037 A 
BRANCH  52  66
ATOM     66  C   UNL A   1      39.883  28.686  29.097  1.00  0.00     0.064 A 
ATOM     67  C   UNL A   1      39.429  28.495  30.411  1.00  0.00     0.173 A 
ATOM     68  C   UNL A   1      38.951  29.128  28.143  1.00  0.00     0.173 A 
ATOM     69  F   UNL A   1      40.273  28.067  31.362  1.00  0.00    -0.203 F 
ATOM     70  C   UNL A   1      38.092  28.693  30.747  1.00  0.00     0.198 A 
ATOM     71  C   UNL A   1      37.622  29.361  28.492  1.00  0.00     0.198 A 
ATOM     72  F   UNL A   1      39.328  29.338  26.873  1.00  0.00    -0.203 F 
ATOM     73  F   UNL A   1      37.671  28.438  31.994  1.00  0.00    -0.200 F 
ATOM     74  C   UNL A   1      37.191  29.132  29.789  1.00  0.00     0.200 A 
ATOM     75  F   UNL A   1      36.757  29.802  27.568  1.00  0.00    -0.200 F 
ATOM     76  F   UNL A   1      35.905  29.324  30.114  1.00  0.00    -0.200 F 
ENDBRANCH  52  66
BRANCH  53  77
ATOM     77  C   UNL A   1      49.253  26.723  26.205  1.00  0.00     0.064 A 
ATOM     78  C   UNL A   1      49.627  26.932  24.870  1.00  0.00     0.173 A 
ATOM     79  C   UNL A   1      50.232  26.248  27.089  1.00  0.00     0.173 A 
ATOM     80  F   UNL A   1      48.722  27.366  23.981  1.00  0.00    -0.203 F 
ATOM     81  C   UNL A   1      50.921  26.658  24.433  1.00  0.00     0.198 A 
ATOM     82  C   UNL A   1      51.535  26.004  26.657  1.00  0.00     0.198 A 
ATOM     83  F   UNL A   1      49.928  26.035  28.378  1.00  0.00    -0.203 F 
ATOM     84  F   UNL A   1      51.239  26.824  23.142  1.00  0.00    -0.200 F 
ATOM     85  C   UNL A   1      51.876  26.201  25.328  1.00  0.00     0.200 A 
ATOM     86  F   UNL A   1      52.458  25.578  27.529  1.00  0.00    -0.200 F 
ATOM     87  F   UNL A   1      53.122  25.944  24.909  1.00  0.00    -0.200 F 
ENDBRANCH  53  77
BRANCH  65  88
ATOM     88  C   UNL A   1      45.986  32.470  28.416  1.00  0.00     0.064 A 
ATOM     89  C   UNL A   1      46.564  32.875  29.627  1.00  0.00     0.173 A 
ATOM     90  C   UNL A   1      45.899  33.413  27.381  1.00  0.00     0.173 A 
ATOM     91  F   UNL A   1      46.655  32.015  30.652  1.00  0.00    -0.203 F 
ATOM     92  C   UNL A   1      47.018  34.180  29.801  1.00  0.00     0.198 A 
ATOM     93  C   UNL A   1      46.384  34.707  27.547  1.00  0.00     0.198 A 
ATOM     94  F   UNL A   1      45.360  33.074  26.200  1.00  0.00    -0.203 F 
ATOM     95  F   UNL A   1      47.526  34.558  30.982  1.00  0.00    -0.200 F 
ATOM     96  C   UNL A   1      46.937  35.091  28.759  1.00  0.00     0.200 A 
ATOM     97  F   UNL A   1      46.319  35.581  26.533  1.00  0.00    -0.200 F 
ATOM     98  F   UNL A   1      47.388  36.342  28.924  1.00  0.00    -0.200 F 
ENDBRANCH  65  88
ENDBRANCH  39  40
ENDBRANCH  31  34
ENDBRANCH  29  30
ENDBRANCH  28  29
ENDBRANCH  27  28
ENDBRANCH   1  27
TORSDOF 15
ENDMDL
MODEL 3
REMARK VINA RESULT:     -12.7      3.204      5.515
REMARK SMILES C[N@H+]1CCO[C@H](c2noc(-c3ccccc3C(=O)NCCCCCCNC(=O)c3ccc(-c4c5nc(c(-c6c(F)c(F)c(F)c(F)c6F)c6ccc([nH]6)c(-c6c(F)c(F)c(F)c(F)c6F)c6nc(c(-c7c(F)c(F)c(F)c(F)c7F)c7ccc4[nH]7)C=C6)C=C5)cc3)n2)C1
REMARK SMILES IDX 22 1 21 2 20 3 19 4 17 5 18 6 16 8 11 9 12 10 13 11 15 12
REMARK SMILES IDX 14 13 10 14 7 15 8 16 92 17 9 18 6 19 1 20 2 21 3 22 93 23
REMARK SMILES IDX 4 25 5 26 23 27 24 28 25 29 26 30 27 31 28 33 29 34 30 35
REMARK SMILES IDX 91 36 31 37 90 38 32 39 33 40 34 41 84 42 35 43 89 44 83 45
REMARK SMILES IDX 85 46 36 47 88 48 82 49 81 50 37 52 69 53 49 54 68 55 50 56
REMARK SMILES IDX 53 57 67 58 86 59 51 60 52 61 66 63 87 64 54 65 38 66 39 67
REMARK SMILES IDX 47 68 40 69 41 70 45 71 48 72 42 73 43 74 46 75 44 76 70 77
REMARK SMILES IDX 71 78 79 79 72 80 73 81 77 82 80 83 74 84 75 85 78 86 76 87
REMARK SMILES IDX 55 88 56 89 64 90 57 91 58 92 62 93 65 94 59 95 60 96 63 97
REMARK SMILES IDX 61 98
REMARK H PARENT 19 7 2 24 26 32 85 51 53 62
REMARK Flexibility Score: inf
ROOT
ATOM      1  C   UNL A   1      30.516  26.344  25.049  1.00  0.00     0.002 C 
ENDROOT
BRANCH   1   2
ATOM      2  C   UNL A   1      29.766  25.689  23.878  1.00  0.00     0.021 C 
BRANCH   2   3
ATOM      3  C   UNL A   1      30.281  24.336  23.398  1.00  0.00     0.116 C 
BRANCH   3   4
ATOM      4  N   UNL A   1      31.277  24.367  22.347  1.00  0.00    -0.352 N 
ATOM      5  C   UNL A   1      32.645  24.204  22.441  1.00  0.00     0.252 C 
ATOM      6  O   UNL A   1      33.314  24.167  21.409  1.00  0.00    -0.269 OA
ATOM      7  H   UNL A   1      30.931  24.528  21.440  1.00  0.00     0.163 HD
BRANCH   5   8
ATOM      8  C   UNL A   1      33.360  24.216  23.751  1.00  0.00     0.052 A 
ATOM      9  C   UNL A   1      33.488  23.126  24.632  1.00  0.00     0.053 A 
ATOM     10  C   UNL A   1      34.104  23.338  25.882  1.00  0.00     0.015 A 
ATOM     11  C   UNL A   1      34.643  24.580  26.223  1.00  0.00     0.001 A 
ATOM     12  C   UNL A   1      33.949  25.451  24.089  1.00  0.00     0.014 A 
ATOM     13  C   UNL A   1      34.589  25.631  25.316  1.00  0.00     0.001 A 
BRANCH   9  14
ATOM     14  C   UNL A   1      33.043  21.785  24.293  1.00  0.00     0.258 A 
ATOM     15  C   UNL A   1      32.734  19.725  24.017  1.00  0.00     0.206 A 
ATOM     16  N   UNL A   1      32.219  20.265  22.900  1.00  0.00    -0.059 NA
ATOM     17  N   UNL A   1      33.228  20.646  24.915  1.00  0.00    -0.189 NA
ATOM     18  O   UNL A   1      32.423  21.636  23.081  1.00  0.00    -0.334 OA
BRANCH  15  19
ATOM     19  C   UNL A   1      32.852  18.240  24.230  1.00  0.00     0.245 C 
ATOM     20  C   UNL A   1      32.062  15.714  25.806  1.00  0.00     0.332 C 
ATOM     21  N   UNL A   1      33.284  16.487  26.027  1.00  0.00    -0.333 N 
ATOM     22  C   UNL A   1      34.396  16.005  25.186  1.00  0.00     0.290 C 
ATOM     23  C   UNL A   1      33.079  17.923  25.729  1.00  0.00     0.303 C 
ATOM     24  H   UNL A   1      33.517  16.364  27.012  1.00  0.00     0.348 HD
ATOM     25  C   UNL A   1      34.211  16.317  23.694  1.00  0.00     0.222 C 
ATOM     26  O   UNL A   1      33.940  17.701  23.454  1.00  0.00    -0.358 OA
ENDBRANCH  15  19
ENDBRANCH   9  14
ENDBRANCH   5   8
ENDBRANCH   3   4
ENDBRANCH   2   3
ENDBRANCH   1   2
BRANCH   1  27
ATOM     27  C   UNL A   1      31.025  27.775  24.836  1.00  0.00     0.002 C 
BRANCH  27  28
ATOM     28  C   UNL A   1      31.839  28.369  25.992  1.00  0.00     0.021 C 
BRANCH  28  29
ATOM     29  C   UNL A   1      32.928  29.355  25.584  1.00  0.00     0.116 C 
BRANCH  29  30
ATOM     30  N   UNL A   1      32.691  30.712  26.073  1.00  0.00    -0.352 N 
ATOM     31  C   UNL A   1      33.274  31.508  27.029  1.00  0.00     0.251 C 
ATOM     32  H   UNL A   1      31.944  31.157  25.612  1.00  0.00     0.163 HD
ATOM     33  O   UNL A   1      32.700  32.551  27.336  1.00  0.00    -0.269 OA
BRANCH  31  34
ATOM     34  C   UNL A   1      34.544  31.166  27.721  1.00  0.00     0.039 A 
ATOM     35  C   UNL A   1      35.532  32.157  27.844  1.00  0.00     0.014 A 
ATOM     36  C   UNL A   1      34.828  29.889  28.191  1.00  0.00     0.014 A 
ATOM     37  C   UNL A   1      36.744  31.885  28.493  1.00  0.00     0.010 A 
ATOM     38  C   UNL A   1      35.970  29.652  28.952  1.00  0.00     0.010 A 
ATOM     39  C   UNL A   1      36.953  30.640  29.102  1.00  0.00    -0.014 A 
BRANCH  39  40
ATOM     40  C   UNL A   1      38.184  30.318  29.875  1.00  0.00     0.031 A 
ATOM     41  C   UNL A   1      39.196  29.353  29.308  1.00  0.00     0.074 A 
ATOM     42  C   UNL A   1      38.341  30.796  31.124  1.00  0.00     0.049 A 
ATOM     43  N   UNL A   1      40.226  28.790  29.887  1.00  0.00    -0.248 NA
ATOM     44  C   UNL A   1      38.993  28.932  27.912  1.00  0.00     0.031 C 
ATOM     45  C   UNL A   1      37.420  31.704  31.808  1.00  0.00     0.029 A 
ATOM     46  N   UNL A   1      39.326  30.563  32.055  1.00  0.00    -0.354 N 
ATOM     47  C   UNL A   1      40.762  27.922  28.943  1.00  0.00     0.074 A 
ATOM     48  C   UNL A   1      39.909  27.986  27.777  1.00  0.00     0.031 C 
ATOM     49  C   UNL A   1      37.894  31.974  33.035  1.00  0.00     0.029 A 
ATOM     50  C   UNL A   1      39.119  31.212  33.249  1.00  0.00     0.049 A 
ATOM     51  H   UNL A   1      40.105  29.988  31.882  1.00  0.00     0.167 HD
ATOM     52  C   UNL A   1      41.879  27.158  29.029  1.00  0.00     0.037 A 
ATOM     53  C   UNL A   1      39.827  31.180  34.394  1.00  0.00     0.037 A 
ATOM     54  C   UNL A   1      42.748  27.133  30.175  1.00  0.00     0.049 A 
ATOM     55  C   UNL A   1      41.056  30.313  34.471  1.00  0.00     0.074 A 
ATOM     56  C   UNL A   1      43.942  26.453  30.339  1.00  0.00     0.029 A 
ATOM     57  N   UNL A   1      42.515  27.824  31.356  1.00  0.00    -0.354 N 
ATOM     58  N   UNL A   1      41.585  29.542  33.554  1.00  0.00    -0.248 NA
ATOM     59  C   UNL A   1      41.785  30.313  35.748  1.00  0.00     0.031 C 
ATOM     60  C   UNL A   1      44.405  26.692  31.637  1.00  0.00     0.029 A 
ATOM     61  C   UNL A   1      43.530  27.565  32.263  1.00  0.00     0.049 A 
ATOM     62  H   UNL A   1      41.742  28.410  31.524  1.00  0.00     0.167 HD
ATOM     63  C   UNL A   1      42.723  28.991  34.127  1.00  0.00     0.074 A 
ATOM     64  C   UNL A   1      42.815  29.527  35.469  1.00  0.00     0.031 C 
ATOM     65  C   UNL A   1      43.612  28.119  33.591  1.00  0.00     0.037 A 
BRANCH  52  66
ATOM     66  C   UNL A   1      42.223  26.292  27.849  1.00  0.00     0.064 A 
ATOM     67  C   UNL A   1      43.158  26.695  26.882  1.00  0.00     0.173 A 
ATOM     68  C   UNL A   1      41.626  25.031  27.692  1.00  0.00     0.173 A 
ATOM     69  F   UNL A   1      43.755  27.893  26.978  1.00  0.00    -0.203 F 
ATOM     70  C   UNL A   1      43.447  25.892  25.782  1.00  0.00     0.198 A 
ATOM     71  C   UNL A   1      41.946  24.214  26.609  1.00  0.00     0.198 A 
ATOM     72  F   UNL A   1      40.733  24.588  28.589  1.00  0.00    -0.203 F 
ATOM     73  F   UNL A   1      44.292  26.330  24.838  1.00  0.00    -0.200 F 
ATOM     74  C   UNL A   1      42.846  24.649  25.650  1.00  0.00     0.200 A 
ATOM     75  F   UNL A   1      41.377  23.007  26.493  1.00  0.00    -0.200 F 
ATOM     76  F   UNL A   1      43.128  23.876  24.591  1.00  0.00    -0.200 F 
ENDBRANCH  52  66
BRANCH  53  77
ATOM     77  C   UNL A   1      39.407  32.012  35.554  1.00  0.00     0.064 A 
ATOM     78  C   UNL A   1      38.532  31.497  36.521  1.00  0.00     0.173 A 
ATOM     79  C   UNL A   1      39.863  33.327  35.724  1.00  0.00     0.173 A 
ATOM     80  F   UNL A   1      38.052  30.251  36.394  1.00  0.00    -0.203 F 
ATOM     81  C   UNL A   1      38.114  32.271  37.601  1.00  0.00     0.198 A 
ATOM     82  C   UNL A   1      39.469  34.090  36.821  1.00  0.00     0.198 A 
ATOM     83  F   UNL A   1      40.705  33.867  34.830  1.00  0.00    -0.203 F 
ATOM     84  F   UNL A   1      37.242  31.768  38.485  1.00  0.00    -0.200 F 
ATOM     85  C   UNL A   1      38.588  33.565  37.754  1.00  0.00     0.200 A 
ATOM     86  F   UNL A   1      39.942  35.334  36.974  1.00  0.00    -0.200 F 
ATOM     87  F   UNL A   1      38.191  34.307  38.796  1.00  0.00    -0.200 F 
ENDBRANCH  53  77
BRANCH  65  88
ATOM     88  C   UNL A   1      44.785  27.721  34.438  1.00  0.00     0.064 A 
ATOM     89  C   UNL A   1      44.719  26.640  35.329  1.00  0.00     0.173 A 
ATOM     90  C   UNL A   1      46.008  28.399  34.317  1.00  0.00     0.173 A 
ATOM     91  F   UNL A   1      43.569  25.970  35.493  1.00  0.00    -0.203 F 
ATOM     92  C   UNL A   1      45.829  26.266  36.083  1.00  0.00     0.198 A 
ATOM     93  C   UNL A   1      47.124  28.002  35.047  1.00  0.00     0.198 A 
ATOM     94  F   UNL A   1      46.126  29.436  33.474  1.00  0.00    -0.203 F 
ATOM     95  F   UNL A   1      45.730  25.258  36.961  1.00  0.00    -0.200 F 
ATOM     96  C   UNL A   1      47.032  26.940  35.934  1.00  0.00     0.200 A 
ATOM     97  F   UNL A   1      48.290  28.644  34.891  1.00  0.00    -0.200 F 
ATOM     98  F   UNL A   1      48.102  26.569  36.650  1.00  0.00    -0.200 F 
ENDBRANCH  65  88
ENDBRANCH  39  40
ENDBRANCH  31  34
ENDBRANCH  29  30
ENDBRANCH  28  29
ENDBRANCH  27  28
ENDBRANCH   1  27
TORSDOF 15
ENDMDL
