MODEL 1
REMARK VINA RESULT:     -12.5      0.000      0.000
REMARK SMILES O=C(NCCCCCCNC(=O)[C@@H]1CN(Cc2ccccc2)c2ccccc2O1)c1ccc(-c2c3nc(c(-c4c(F)c(F)c(F)c(F)c4F)c4ccc([nH]4)c(-c4c(F)c(F)c(F)c(F)c4F)c4nc(c(-c5c(F)c(F)c(F)c(F)c5F)c5ccc2[nH]5)C=C4)C=C3)cc1
REMARK SMILES IDX 6 1 5 2 4 3 3 4 1 5 2 6 30 8 31 9 92 10 32 11 91 12 33 13
REMARK SMILES IDX 34 14 35 15 85 16 36 17 90 18 84 19 86 20 37 21 89 22 83 23
REMARK SMILES IDX 82 24 38 26 70 27 50 28 69 29 51 30 54 31 68 32 87 33 52 34
REMARK SMILES IDX 53 35 67 37 88 38 55 39 39 40 40 41 48 42 41 43 42 44 46 45
REMARK SMILES IDX 49 46 43 47 44 48 47 49 45 50 71 51 72 52 80 53 73 54 74 55
REMARK SMILES IDX 78 56 81 57 75 58 76 59 79 60 77 61 56 62 57 63 65 64 58 65
REMARK SMILES IDX 59 66 63 67 66 68 60 69 61 70 64 71 62 72 7 73 8 74 9 75
REMARK SMILES IDX 10 76 11 77 12 79 13 80 14 81 29 82 15 83 28 84 23 85 27 86
REMARK SMILES IDX 24 87 26 88 25 89 16 90 17 91 18 92 22 93 19 94 21 95 20 96
REMARK H PARENT 3 7 86 25 54 36 10 78
REMARK Flexibility Score: inf
ROOT
ATOM      1  C   UNL A   1      33.820  26.555  25.737  1.00  0.00     0.002 C 
ENDROOT
BRANCH   1   2
ATOM      2  C   UNL A   1      32.886  27.748  25.521  1.00  0.00     0.021 C 
BRANCH   2   3
ATOM      3  C   UNL A   1      33.583  29.036  25.092  1.00  0.00     0.116 C 
BRANCH   3   4
ATOM      4  N   UNL A   1      32.991  30.214  25.706  1.00  0.00    -0.352 N 
ATOM      5  O   UNL A   1      32.592  31.734  27.323  1.00  0.00    -0.269 OA
ATOM      6  C   UNL A   1      33.349  30.893  26.842  1.00  0.00     0.251 C 
ATOM      7  H   UNL A   1      32.211  30.582  25.230  1.00  0.00     0.163 HD
BRANCH   6   8
ATOM      8  C   UNL A   1      34.634  30.597  27.509  1.00  0.00     0.039 A 
ATOM      9  C   UNL A   1      34.900  29.322  28.007  1.00  0.00     0.014 A 
ATOM     10  C   UNL A   1      35.594  31.607  27.624  1.00  0.00     0.014 A 
ATOM     11  C   UNL A   1      36.036  29.105  28.775  1.00  0.00     0.010 A 
ATOM     12  C   UNL A   1      36.790  31.354  28.303  1.00  0.00     0.010 A 
ATOM     13  C   UNL A   1      37.002  30.113  28.924  1.00  0.00    -0.014 A 
BRANCH  13  14
ATOM     14  C   UNL A   1      38.236  29.823  29.702  1.00  0.00     0.031 A 
ATOM     15  C   UNL A   1      38.423  30.357  31.095  1.00  0.00     0.074 A 
ATOM     16  C   UNL A   1      39.176  29.030  29.151  1.00  0.00     0.049 A 
ATOM     17  N   UNL A   1      39.413  30.155  31.931  1.00  0.00    -0.248 NA
ATOM     18  C   UNL A   1      37.371  31.239  31.620  1.00  0.00     0.031 C 
ATOM     19  C   UNL A   1      39.113  28.463  27.802  1.00  0.00     0.029 A 
ATOM     20  N   UNL A   1      40.353  28.542  29.660  1.00  0.00    -0.354 N 
ATOM     21  C   UNL A   1      39.114  30.899  33.065  1.00  0.00     0.074 A 
ATOM     22  C   UNL A   1      37.866  31.584  32.801  1.00  0.00     0.031 C 
ATOM     23  C   UNL A   1      40.168  27.660  27.611  1.00  0.00     0.029 A 
ATOM     24  C   UNL A   1      41.019  27.708  28.795  1.00  0.00     0.049 A 
ATOM     25  H   UNL A   1      40.687  28.767  30.558  1.00  0.00     0.167 HD
ATOM     26  C   UNL A   1      39.813  30.995  34.223  1.00  0.00     0.037 A 
ATOM     27  C   UNL A   1      42.192  27.063  28.932  1.00  0.00     0.037 A 
ATOM     28  C   UNL A   1      41.049  30.298  34.483  1.00  0.00     0.049 A 
ATOM     29  C   UNL A   1      42.957  27.211  30.217  1.00  0.00     0.074 A 
ATOM     30  C   UNL A   1      41.811  30.293  35.639  1.00  0.00     0.029 A 
ATOM     31  N   UNL A   1      41.713  29.492  33.568  1.00  0.00    -0.354 N 
ATOM     32  N   UNL A   1      42.637  27.876  31.301  1.00  0.00    -0.248 NA
ATOM     33  C   UNL A   1      44.246  26.515  30.296  1.00  0.00     0.031 C 
ATOM     34  C   UNL A   1      42.964  29.539  35.403  1.00  0.00     0.029 A 
ATOM     35  C   UNL A   1      42.888  29.010  34.125  1.00  0.00     0.049 A 
ATOM     36  H   UNL A   1      41.395  29.291  32.658  1.00  0.00     0.167 HD
ATOM     37  C   UNL A   1      43.668  27.652  32.202  1.00  0.00     0.074 A 
ATOM     38  C   UNL A   1      44.614  26.774  31.542  1.00  0.00     0.031 C 
ATOM     39  C   UNL A   1      43.818  28.130  33.462  1.00  0.00     0.037 A 
BRANCH  26  40
ATOM     40  C   UNL A   1      39.277  31.906  35.292  1.00  0.00     0.064 A 
ATOM     41  C   UNL A   1      38.484  31.428  36.347  1.00  0.00     0.173 A 
ATOM     42  C   UNL A   1      39.599  33.272  35.285  1.00  0.00     0.173 A 
ATOM     43  F   UNL A   1      38.138  30.134  36.401  1.00  0.00    -0.203 F 
ATOM     44  C   UNL A   1      38.008  32.290  37.335  1.00  0.00     0.198 A 
ATOM     45  C   UNL A   1      39.150  34.123  36.291  1.00  0.00     0.198 A 
ATOM     46  F   UNL A   1      40.361  33.783  34.306  1.00  0.00    -0.203 F 
ATOM     47  F   UNL A   1      37.208  31.820  38.302  1.00  0.00    -0.200 F 
ATOM     48  C   UNL A   1      38.347  33.635  37.310  1.00  0.00     0.200 A 
ATOM     49  F   UNL A   1      39.493  35.419  36.274  1.00  0.00    -0.200 F 
ATOM     50  F   UNL A   1      37.895  34.459  38.265  1.00  0.00    -0.200 F 
ENDBRANCH  26  40
BRANCH  27  51
ATOM     51  C   UNL A   1      42.707  26.216  27.826  1.00  0.00     0.064 A 
ATOM     52  C   UNL A   1      42.368  24.858  27.738  1.00  0.00     0.173 A 
ATOM     53  C   UNL A   1      43.551  26.741  26.836  1.00  0.00     0.173 A 
ATOM     54  F   UNL A   1      41.575  24.304  28.669  1.00  0.00    -0.203 F 
ATOM     55  C   UNL A   1      42.873  24.055  26.719  1.00  0.00     0.198 A 
ATOM     56  C   UNL A   1      44.028  25.945  25.798  1.00  0.00     0.198 A 
ATOM     57  F   UNL A   1      43.900  28.036  26.869  1.00  0.00    -0.203 F 
ATOM     58  F   UNL A   1      42.574  22.748  26.689  1.00  0.00    -0.200 F 
ATOM     59  C   UNL A   1      43.697  24.600  25.746  1.00  0.00     0.200 A 
ATOM     60  F   UNL A   1      44.806  26.481  24.848  1.00  0.00    -0.200 F 
ATOM     61  F   UNL A   1      44.179  23.827  24.763  1.00  0.00    -0.200 F 
ENDBRANCH  27  51
BRANCH  39  62
ATOM     62  C   UNL A   1      45.023  27.665  34.231  1.00  0.00     0.064 A 
ATOM     63  C   UNL A   1      45.007  26.497  35.008  1.00  0.00     0.173 A 
ATOM     64  C   UNL A   1      46.218  28.399  34.178  1.00  0.00     0.173 A 
ATOM     65  F   UNL A   1      43.885  25.766  35.105  1.00  0.00    -0.203 F 
ATOM     66  C   UNL A   1      46.127  26.104  35.734  1.00  0.00     0.198 A 
ATOM     67  C   UNL A   1      47.348  27.983  34.875  1.00  0.00     0.198 A 
ATOM     68  F   UNL A   1      46.293  29.521  33.445  1.00  0.00    -0.203 F 
ATOM     69  F   UNL A   1      46.066  25.022  36.523  1.00  0.00    -0.200 F 
ATOM     70  C   UNL A   1      47.299  26.843  35.662  1.00  0.00     0.200 A 
ATOM     71  F   UNL A   1      48.485  28.688  34.790  1.00  0.00    -0.200 F 
ATOM     72  F   UNL A   1      48.377  26.461  36.360  1.00  0.00    -0.200 F 
ENDBRANCH  39  62
ENDBRANCH  13  14
ENDBRANCH   6   8
ENDBRANCH   3   4
ENDBRANCH   2   3
ENDBRANCH   1   2
BRANCH   1  73
ATOM     73  C   UNL A   1      33.327  25.223  25.166  1.00  0.00     0.002 C 
BRANCH  73  74
ATOM     74  C   UNL A   1      32.559  25.333  23.851  1.00  0.00     0.021 C 
BRANCH  74  75
ATOM     75  C   UNL A   1      31.214  24.604  23.807  1.00  0.00     0.116 C 
BRANCH  75  76
ATOM     76  N   UNL A   1      31.370  23.345  23.122  1.00  0.00    -0.353 N 
ATOM     77  C   UNL A   1      31.954  22.167  23.459  1.00  0.00     0.262 C 
ATOM     78  H   UNL A   1      30.969  23.337  22.224  1.00  0.00     0.163 HD
ATOM     79  O   UNL A   1      32.165  21.432  22.482  1.00  0.00    -0.271 OA
BRANCH  77  80
ATOM     80  C   UNL A   1      32.181  21.638  24.901  1.00  0.00     0.281 C 
ATOM     81  C   UNL A   1      33.451  21.808  25.739  1.00  0.00     0.172 C 
ATOM     82  O   UNL A   1      31.798  20.248  24.912  1.00  0.00    -0.477 OA
ATOM     83  N   UNL A   1      34.594  21.011  25.266  1.00  0.00    -0.360 N 
ATOM     84  C   UNL A   1      32.844  19.404  24.615  1.00  0.00     0.143 A 
ATOM     85  C   UNL A   1      34.201  19.733  24.830  1.00  0.00     0.080 A 
ATOM     86  C   UNL A   1      32.464  18.159  24.100  1.00  0.00     0.049 A 
ATOM     87  C   UNL A   1      35.132  18.713  24.604  1.00  0.00     0.030 A 
ATOM     88  C   UNL A   1      33.429  17.204  23.800  1.00  0.00     0.004 A 
ATOM     89  C   UNL A   1      34.763  17.474  24.072  1.00  0.00     0.002 A 
BRANCH  83  90
ATOM     90  C   UNL A   1      35.659  21.718  24.548  1.00  0.00     0.152 C 
BRANCH  90  91
ATOM     91  C   UNL A   1      36.850  22.238  25.321  1.00  0.00    -0.029 A 
ATOM     92  C   UNL A   1      36.907  23.570  25.759  1.00  0.00     0.005 A 
ATOM     93  C   UNL A   1      37.988  21.433  25.488  1.00  0.00     0.005 A 
ATOM     94  C   UNL A   1      38.066  24.070  26.363  1.00  0.00     0.000 A 
ATOM     95  C   UNL A   1      39.125  21.917  26.133  1.00  0.00     0.000 A 
ATOM     96  C   UNL A   1      39.167  23.239  26.566  1.00  0.00     0.000 A 
ENDBRANCH  90  91
ENDBRANCH  83  90
ENDBRANCH  77  80
ENDBRANCH  75  76
ENDBRANCH  74  75
ENDBRANCH  73  74
ENDBRANCH   1  73
TORSDOF 15
ENDMDL
MODEL 2
REMARK VINA RESULT:     -12.3      1.199      2.876
REMARK SMILES O=C(NCCCCCCNC(=O)[C@@H]1CN(Cc2ccccc2)c2ccccc2O1)c1ccc(-c2c3nc(c(-c4c(F)c(F)c(F)c(F)c4F)c4ccc([nH]4)c(-c4c(F)c(F)c(F)c(F)c4F)c4nc(c(-c5c(F)c(F)c(F)c(F)c5F)c5ccc2[nH]5)C=C4)C=C3)cc1
REMARK SMILES IDX 6 1 5 2 4 3 3 4 1 5 2 6 30 8 31 9 92 10 32 11 91 12 33 13
REMARK SMILES IDX 34 14 35 15 85 16 36 17 90 18 84 19 86 20 37 21 89 22 83 23
REMARK SMILES IDX 82 24 38 26 70 27 50 28 69 29 51 30 54 31 68 32 87 33 52 34
REMARK SMILES IDX 53 35 67 37 88 38 55 39 39 40 40 41 48 42 41 43 42 44 46 45
REMARK SMILES IDX 49 46 43 47 44 48 47 49 45 50 71 51 72 52 80 53 73 54 74 55
REMARK SMILES IDX 78 56 81 57 75 58 76 59 79 60 77 61 56 62 57 63 65 64 58 65
REMARK SMILES IDX 59 66 63 67 66 68 60 69 61 70 64 71 62 72 7 73 8 74 9 75
REMARK SMILES IDX 10 76 11 77 12 79 13 80 14 81 29 82 15 83 28 84 23 85 27 86
REMARK SMILES IDX 24 87 26 88 25 89 16 90 17 91 18 92 22 93 19 94 21 95 20 96
REMARK H PARENT 3 7 86 25 54 36 10 78
REMARK Flexibility Score: inf
ROOT
ATOM      1  C   UNL A   1      32.106  27.878  27.289  1.00  0.00     0.002 C 
ENDROOT
BRANCH   1   2
ATOM      2  C   UNL A   1      31.705  29.231  26.696  1.00  0.00     0.021 C 
BRANCH   2   3
ATOM      3  C   UNL A   1      32.870  30.079  26.195  1.00  0.00     0.116 C 
BRANCH   3   4
ATOM      4  N   UNL A   1      32.700  31.490  26.509  1.00  0.00    -0.352 N 
ATOM      5  O   UNL A   1      32.954  33.403  27.676  1.00  0.00    -0.269 OA
ATOM      6  C   UNL A   1      33.388  32.289  27.384  1.00  0.00     0.251 C 
ATOM      7  H   UNL A   1      31.977  31.941  26.015  1.00  0.00     0.163 HD
BRANCH   6   8
ATOM      8  C   UNL A   1      34.641  31.807  28.001  1.00  0.00     0.039 A 
ATOM      9  C   UNL A   1      34.748  30.494  28.459  1.00  0.00     0.014 A 
ATOM     10  C   UNL A   1      35.731  32.676  28.110  1.00  0.00     0.014 A 
ATOM     11  C   UNL A   1      35.867  30.105  29.184  1.00  0.00     0.010 A 
ATOM     12  C   UNL A   1      36.901  32.246  28.743  1.00  0.00     0.010 A 
ATOM     13  C   UNL A   1      36.963  30.971  29.326  1.00  0.00    -0.014 A 
BRANCH  13  14
ATOM     14  C   UNL A   1      38.169  30.497  30.055  1.00  0.00     0.031 A 
ATOM     15  C   UNL A   1      38.413  30.879  31.489  1.00  0.00     0.074 A 
ATOM     16  C   UNL A   1      39.028  29.676  29.420  1.00  0.00     0.049 A 
ATOM     17  N   UNL A   1      39.384  30.509  32.289  1.00  0.00    -0.248 NA
ATOM     18  C   UNL A   1      37.450  31.802  32.109  1.00  0.00     0.031 C 
ATOM     19  C   UNL A   1      38.905  29.246  28.025  1.00  0.00     0.029 A 
ATOM     20  N   UNL A   1      40.157  29.036  29.865  1.00  0.00    -0.354 N 
ATOM     21  C   UNL A   1      39.163  31.168  33.491  1.00  0.00     0.074 A 
ATOM     22  C   UNL A   1      37.983  31.987  33.310  1.00  0.00     0.031 C 
ATOM     23  C   UNL A   1      39.880  28.371  27.746  1.00  0.00     0.029 A 
ATOM     24  C   UNL A   1      40.739  28.230  28.917  1.00  0.00     0.049 A 
ATOM     25  H   UNL A   1      40.516  29.145  30.775  1.00  0.00     0.167 HD
ATOM     26  C   UNL A   1      39.875  31.091  34.642  1.00  0.00     0.037 A 
ATOM     27  C   UNL A   1      41.847  27.470  28.977  1.00  0.00     0.037 A 
ATOM     28  C   UNL A   1      41.042  30.262  34.819  1.00  0.00     0.049 A 
ATOM     29  C   UNL A   1      42.630  27.425  30.258  1.00  0.00     0.074 A 
ATOM     30  C   UNL A   1      41.806  30.079  35.959  1.00  0.00     0.029 A 
ATOM     31  N   UNL A   1      41.623  29.487  33.824  1.00  0.00    -0.354 N 
ATOM     32  N   UNL A   1      42.380  28.012  31.404  1.00  0.00    -0.248 NA
ATOM     33  C   UNL A   1      43.849  26.609  30.254  1.00  0.00     0.031 C 
ATOM     34  C   UNL A   1      42.883  29.248  35.637  1.00  0.00     0.029 A 
ATOM     35  C   UNL A   1      42.751  28.849  34.316  1.00  0.00     0.049 A 
ATOM     36  H   UNL A   1      41.282  29.403  32.904  1.00  0.00     0.167 HD
ATOM     37  C   UNL A   1      43.391  27.611  32.265  1.00  0.00     0.074 A 
ATOM     38  C   UNL A   1      44.246  26.716  31.513  1.00  0.00     0.031 C 
ATOM     39  C   UNL A   1      43.591  27.953  33.562  1.00  0.00     0.037 A 
BRANCH  26  40
ATOM     40  C   UNL A   1      39.432  31.943  35.799  1.00  0.00     0.064 A 
ATOM     41  C   UNL A   1      38.461  31.508  36.715  1.00  0.00     0.173 A 
ATOM     42  C   UNL A   1      40.020  33.199  36.020  1.00  0.00     0.173 A 
ATOM     43  F   UNL A   1      37.859  30.321  36.550  1.00  0.00    -0.203 F 
ATOM     44  C   UNL A   1      38.075  32.311  37.787  1.00  0.00     0.198 A 
ATOM     45  C   UNL A   1      39.656  33.983  37.111  1.00  0.00     0.198 A 
ATOM     46  F   UNL A   1      40.960  33.662  35.182  1.00  0.00    -0.203 F 
ATOM     47  F   UNL A   1      37.108  31.897  38.617  1.00  0.00    -0.200 F 
ATOM     48  C   UNL A   1      38.678  33.544  37.989  1.00  0.00     0.200 A 
ATOM     49  F   UNL A   1      40.253  35.166  37.312  1.00  0.00    -0.200 F 
ATOM     50  F   UNL A   1      38.311  34.311  39.025  1.00  0.00    -0.200 F 
ENDBRANCH  26  40
BRANCH  27  51
ATOM     51  C   UNL A   1      42.274  26.685  27.790  1.00  0.00     0.064 A 
ATOM     52  C   UNL A   1      41.755  25.407  27.543  1.00  0.00     0.173 A 
ATOM     53  C   UNL A   1      43.213  27.193  26.879  1.00  0.00     0.173 A 
ATOM     54  F   UNL A   1      40.866  24.870  28.393  1.00  0.00    -0.203 F 
ATOM     55  C   UNL A   1      42.176  24.657  26.447  1.00  0.00     0.198 A 
ATOM     56  C   UNL A   1      43.607  26.458  25.764  1.00  0.00     0.198 A 
ATOM     57  F   UNL A   1      43.736  28.414  27.064  1.00  0.00    -0.203 F 
ATOM     58  F   UNL A   1      41.702  23.417  26.265  1.00  0.00    -0.200 F 
ATOM     59  C   UNL A   1      43.097  25.186  25.555  1.00  0.00     0.200 A 
ATOM     60  F   UNL A   1      44.481  26.981  24.893  1.00  0.00    -0.200 F 
ATOM     61  F   UNL A   1      43.498  24.466  24.498  1.00  0.00    -0.200 F 
ENDBRANCH  27  51
BRANCH  39  62
ATOM     62  C   UNL A   1      44.752  27.310  34.268  1.00  0.00     0.064 A 
ATOM     63  C   UNL A   1      46.022  27.906  34.308  1.00  0.00     0.173 A 
ATOM     64  C   UNL A   1      44.585  26.081  34.924  1.00  0.00     0.173 A 
ATOM     65  F   UNL A   1      46.240  29.074  33.684  1.00  0.00    -0.203 F 
ATOM     66  C   UNL A   1      47.088  27.277  34.944  1.00  0.00     0.198 A 
ATOM     67  C   UNL A   1      45.644  25.473  35.591  1.00  0.00     0.198 A 
ATOM     68  F   UNL A   1      43.391  25.470  34.924  1.00  0.00    -0.203 F 
ATOM     69  F   UNL A   1      48.307  27.832  34.910  1.00  0.00    -0.200 F 
ATOM     70  C   UNL A   1      46.898  26.065  35.590  1.00  0.00     0.200 A 
ATOM     71  F   UNL A   1      45.453  24.310  36.231  1.00  0.00    -0.200 F 
ATOM     72  F   UNL A   1      47.925  25.461  36.203  1.00  0.00    -0.200 F 
ENDBRANCH  39  62
ENDBRANCH  13  14
ENDBRANCH   6   8
ENDBRANCH   3   4
ENDBRANCH   2   3
ENDBRANCH   1   2
BRANCH   1  73
ATOM     73  C   UNL A   1      32.024  26.689  26.328  1.00  0.00     0.002 C 
BRANCH  73  74
ATOM     74  C   UNL A   1      31.254  26.958  25.038  1.00  0.00     0.021 C 
BRANCH  74  75
ATOM     75  C   UNL A   1      30.198  25.914  24.668  1.00  0.00     0.116 C 
BRANCH  75  76
ATOM     76  N   UNL A   1      30.437  24.702  25.412  1.00  0.00    -0.353 N 
ATOM     77  C   UNL A   1      30.841  23.456  25.059  1.00  0.00     0.262 C 
ATOM     78  H   UNL A   1      30.275  24.799  26.378  1.00  0.00     0.163 HD
ATOM     79  O   UNL A   1      30.616  22.605  25.934  1.00  0.00    -0.271 OA
BRANCH  77  80
ATOM     80  C   UNL A   1      31.680  23.086  23.805  1.00  0.00     0.281 C 
ATOM     81  C   UNL A   1      32.084  21.676  23.369  1.00  0.00     0.172 C 
ATOM     82  O   UNL A   1      32.851  23.926  23.810  1.00  0.00    -0.477 OA
ATOM     83  N   UNL A   1      33.098  21.048  24.232  1.00  0.00    -0.360 N 
ATOM     84  C   UNL A   1      33.912  23.360  24.481  1.00  0.00     0.143 A 
ATOM     85  C   UNL A   1      34.077  21.967  24.649  1.00  0.00     0.080 A 
ATOM     86  C   UNL A   1      34.849  24.275  24.974  1.00  0.00     0.049 A 
ATOM     87  C   UNL A   1      35.277  21.549  25.234  1.00  0.00     0.030 A 
ATOM     88  C   UNL A   1      35.986  23.823  25.634  1.00  0.00     0.004 A 
ATOM     89  C   UNL A   1      36.211  22.457  25.746  1.00  0.00     0.002 A 
BRANCH  83  90
ATOM     90  C   UNL A   1      32.643  20.012  25.165  1.00  0.00     0.152 C 
BRANCH  90  91
ATOM     91  C   UNL A   1      32.959  18.564  24.869  1.00  0.00    -0.029 A 
ATOM     92  C   UNL A   1      32.614  17.545  25.769  1.00  0.00     0.005 A 
ATOM     93  C   UNL A   1      33.739  18.226  23.750  1.00  0.00     0.005 A 
ATOM     94  C   UNL A   1      33.021  16.226  25.542  1.00  0.00     0.000 A 
ATOM     95  C   UNL A   1      34.104  16.905  23.498  1.00  0.00     0.000 A 
ATOM     96  C   UNL A   1      33.751  15.905  24.397  1.00  0.00     0.000 A 
ENDBRANCH  90  91
ENDBRANCH  83  90
ENDBRANCH  77  80
ENDBRANCH  75  76
ENDBRANCH  74  75
ENDBRANCH  73  74
ENDBRANCH   1  73
TORSDOF 15
ENDMDL
MODEL 3
REMARK VINA RESULT:     -12.2      4.599     10.344
REMARK SMILES O=C(NCCCCCCNC(=O)[C@@H]1CN(Cc2ccccc2)c2ccccc2O1)c1ccc(-c2c3nc(c(-c4c(F)c(F)c(F)c(F)c4F)c4ccc([nH]4)c(-c4c(F)c(F)c(F)c(F)c4F)c4nc(c(-c5c(F)c(F)c(F)c(F)c5F)c5ccc2[nH]5)C=C4)C=C3)cc1
REMARK SMILES IDX 6 1 5 2 4 3 3 4 1 5 2 6 30 8 31 9 92 10 32 11 91 12 33 13
REMARK SMILES IDX 34 14 35 15 85 16 36 17 90 18 84 19 86 20 37 21 89 22 83 23
REMARK SMILES IDX 82 24 38 26 70 27 50 28 69 29 51 30 54 31 68 32 87 33 52 34
REMARK SMILES IDX 53 35 67 37 88 38 55 39 39 40 40 41 48 42 41 43 42 44 46 45
REMARK SMILES IDX 49 46 43 47 44 48 47 49 45 50 71 51 72 52 80 53 73 54 74 55
REMARK SMILES IDX 78 56 81 57 75 58 76 59 79 60 77 61 56 62 57 63 65 64 58 65
REMARK SMILES IDX 59 66 63 67 66 68 60 69 61 70 64 71 62 72 7 73 8 74 9 75
REMARK SMILES IDX 10 76 11 77 12 79 13 80 14 81 29 82 15 83 28 84 23 85 27 86
REMARK SMILES IDX 24 87 26 88 25 89 16 90 17 91 18 92 22 93 19 94 21 95 20 96
REMARK H PARENT 3 7 86 25 54 36 10 78
REMARK Flexibility Score: inf
ROOT
ATOM      1  C   UNL A   1      36.660  20.466  24.976  1.00  0.00     0.002 C 
ENDROOT
BRANCH   1   2
ATOM      2  C   UNL A   1      37.896  19.563  24.991  1.00  0.00     0.021 C 
BRANCH   2   3
ATOM      3  C   UNL A   1      39.105  20.147  25.715  1.00  0.00     0.116 C 
BRANCH   3   4
ATOM      4  N   UNL A   1      40.165  19.167  25.899  1.00  0.00    -0.352 N 
ATOM      5  O   UNL A   1      42.279  18.393  26.022  1.00  0.00    -0.269 OA
ATOM      6  C   UNL A   1      41.507  19.346  26.113  1.00  0.00     0.251 C 
ATOM      7  H   UNL A   1      39.871  18.227  25.863  1.00  0.00     0.163 HD
BRANCH   6   8
ATOM      8  C   UNL A   1      42.034  20.689  26.430  1.00  0.00     0.039 A 
ATOM      9  C   UNL A   1      42.260  21.071  27.752  1.00  0.00     0.014 A 
ATOM     10  C   UNL A   1      42.321  21.577  25.388  1.00  0.00     0.014 A 
ATOM     11  C   UNL A   1      42.594  22.387  28.044  1.00  0.00     0.010 A 
ATOM     12  C   UNL A   1      42.766  22.870  25.680  1.00  0.00     0.010 A 
ATOM     13  C   UNL A   1      42.863  23.301  27.012  1.00  0.00    -0.014 A 
BRANCH  13  14
ATOM     14  C   UNL A   1      43.280  24.685  27.363  1.00  0.00     0.031 A 
ATOM     15  C   UNL A   1      44.673  25.174  27.082  1.00  0.00     0.074 A 
ATOM     16  C   UNL A   1      42.368  25.517  27.903  1.00  0.00     0.049 A 
ATOM     17  N   UNL A   1      45.185  26.367  27.274  1.00  0.00    -0.248 NA
ATOM     18  C   UNL A   1      45.624  24.203  26.520  1.00  0.00     0.031 C 
ATOM     19  C   UNL A   1      40.989  25.152  28.234  1.00  0.00     0.029 A 
ATOM     20  N   UNL A   1      42.450  26.842  28.245  1.00  0.00    -0.354 N 
ATOM     21  C   UNL A   1      46.514  26.282  26.881  1.00  0.00     0.074 A 
ATOM     22  C   UNL A   1      46.742  24.914  26.467  1.00  0.00     0.031 C 
ATOM     23  C   UNL A   1      40.338  26.238  28.675  1.00  0.00     0.029 A 
ATOM     24  C   UNL A   1      41.271  27.359  28.725  1.00  0.00     0.049 A 
ATOM     25  H   UNL A   1      43.276  27.373  28.157  1.00  0.00     0.167 HD
ATOM     26  C   UNL A   1      47.454  27.259  26.859  1.00  0.00     0.037 A 
ATOM     27  C   UNL A   1      40.973  28.594  29.167  1.00  0.00     0.037 A 
ATOM     28  C   UNL A   1      47.214  28.623  27.261  1.00  0.00     0.049 A 
ATOM     29  C   UNL A   1      42.044  29.647  29.156  1.00  0.00     0.074 A 
ATOM     30  C   UNL A   1      48.087  29.697  27.233  1.00  0.00     0.029 A 
ATOM     31  N   UNL A   1      46.016  29.099  27.776  1.00  0.00    -0.354 N 
ATOM     32  N   UNL A   1      43.282  29.568  28.732  1.00  0.00    -0.248 NA
ATOM     33  C   UNL A   1      41.673  30.965  29.684  1.00  0.00     0.031 C 
ATOM     34  C   UNL A   1      47.440  30.804  27.790  1.00  0.00     0.029 A 
ATOM     35  C   UNL A   1      46.138  30.443  28.097  1.00  0.00     0.049 A 
ATOM     36  H   UNL A   1      45.199  28.562  27.895  1.00  0.00     0.167 HD
ATOM     37  C   UNL A   1      43.828  30.831  28.911  1.00  0.00     0.074 A 
ATOM     38  C   UNL A   1      42.778  31.662  29.465  1.00  0.00     0.031 C 
ATOM     39  C   UNL A   1      45.084  31.263  28.640  1.00  0.00     0.037 A 
BRANCH  26  40
ATOM     40  C   UNL A   1      48.840  26.887  26.412  1.00  0.00     0.064 A 
ATOM     41  C   UNL A   1      49.811  26.417  27.310  1.00  0.00     0.173 A 
ATOM     42  C   UNL A   1      49.191  26.963  25.054  1.00  0.00     0.173 A 
ATOM     43  F   UNL A   1      49.536  26.332  28.620  1.00  0.00    -0.203 F 
ATOM     44  C   UNL A   1      51.087  26.067  26.870  1.00  0.00     0.198 A 
ATOM     45  C   UNL A   1      50.455  26.580  24.614  1.00  0.00     0.198 A 
ATOM     46  F   UNL A   1      48.301  27.397  24.149  1.00  0.00    -0.203 F 
ATOM     47  F   UNL A   1      52.013  25.672  27.755  1.00  0.00    -0.200 F 
ATOM     48  C   UNL A   1      51.406  26.142  25.523  1.00  0.00     0.200 A 
ATOM     49  F   UNL A   1      50.754  26.638  23.309  1.00  0.00    -0.200 F 
ATOM     50  F   UNL A   1      52.630  25.798  25.101  1.00  0.00    -0.200 F 
ENDBRANCH  26  40
BRANCH  27  51
ATOM     51  C   UNL A   1      39.602  28.899  29.649  1.00  0.00     0.064 A 
ATOM     52  C   UNL A   1      39.235  28.663  30.981  1.00  0.00     0.173 A 
ATOM     53  C   UNL A   1      38.627  29.429  28.789  1.00  0.00     0.173 A 
ATOM     54  F   UNL A   1      40.126  28.143  31.839  1.00  0.00    -0.203 F 
ATOM     55  C   UNL A   1      37.941  28.922  31.428  1.00  0.00     0.198 A 
ATOM     56  C   UNL A   1      37.344  29.720  29.246  1.00  0.00     0.198 A 
ATOM     57  F   UNL A   1      38.929  29.681  27.507  1.00  0.00    -0.203 F 
ATOM     58  F   UNL A   1      37.603  28.637  32.694  1.00  0.00    -0.200 F 
ATOM     59  C   UNL A   1      36.999  29.456  30.562  1.00  0.00     0.200 A 
ATOM     60  F   UNL A   1      36.444  30.256  28.410  1.00  0.00    -0.200 F 
ATOM     61  F   UNL A   1      35.756  29.708  30.994  1.00  0.00    -0.200 F 
ENDBRANCH  27  51
BRANCH  39  62
ATOM     62  C   UNL A   1      45.376  32.717  28.887  1.00  0.00     0.064 A 
ATOM     63  C   UNL A   1      45.923  33.172  30.096  1.00  0.00     0.173 A 
ATOM     64  C   UNL A   1      45.113  33.667  27.889  1.00  0.00     0.173 A 
ATOM     65  F   UNL A   1      46.180  32.306  31.089  1.00  0.00    -0.203 F 
ATOM     66  C   UNL A   1      46.158  34.527  30.311  1.00  0.00     0.198 A 
ATOM     67  C   UNL A   1      45.384  35.017  28.093  1.00  0.00     0.198 A 
ATOM     68  F   UNL A   1      44.596  33.288  26.710  1.00  0.00    -0.203 F 
ATOM     69  F   UNL A   1      46.617  34.945  31.499  1.00  0.00    -0.200 F 
ATOM     70  C   UNL A   1      45.894  35.448  29.308  1.00  0.00     0.200 A 
ATOM     71  F   UNL A   1      45.145  35.903  27.116  1.00  0.00    -0.200 F 
ATOM     72  F   UNL A   1      46.123  36.752  29.516  1.00  0.00    -0.200 F 
ENDBRANCH  39  62
ENDBRANCH  13  14
ENDBRANCH   6   8
ENDBRANCH   3   4
ENDBRANCH   2   3
ENDBRANCH   1   2
BRANCH   1  73
ATOM     73  C   UNL A   1      36.945  21.969  24.917  1.00  0.00     0.002 C 
BRANCH  73  74
ATOM     74  C   UNL A   1      36.236  22.714  23.790  1.00  0.00     0.021 C 
BRANCH  74  75
ATOM     75  C   UNL A   1      34.757  23.025  24.029  1.00  0.00     0.116 C 
BRANCH  75  76
ATOM     76  N   UNL A   1      34.376  24.180  23.252  1.00  0.00    -0.353 N 
ATOM     77  C   UNL A   1      33.242  24.920  23.180  1.00  0.00     0.262 C 
ATOM     78  H   UNL A   1      35.087  24.496  22.650  1.00  0.00     0.163 HD
ATOM     79  O   UNL A   1      33.189  25.629  22.162  1.00  0.00    -0.271 OA
BRANCH  77  80
ATOM     80  C   UNL A   1      32.175  25.074  24.297  1.00  0.00     0.281 C 
ATOM     81  C   UNL A   1      30.803  25.735  24.155  1.00  0.00     0.172 C 
ATOM     82  O   UNL A   1      32.840  25.624  25.452  1.00  0.00    -0.477 OA
ATOM     83  N   UNL A   1      30.854  27.199  24.003  1.00  0.00    -0.360 N 
ATOM     84  C   UNL A   1      32.820  27.001  25.474  1.00  0.00     0.143 A 
ATOM     85  C   UNL A   1      31.836  27.779  24.824  1.00  0.00     0.080 A 
ATOM     86  C   UNL A   1      33.846  27.589  26.220  1.00  0.00     0.049 A 
ATOM     87  C   UNL A   1      31.880  29.158  25.058  1.00  0.00     0.030 A 
ATOM     88  C   UNL A   1      33.909  28.973  26.352  1.00  0.00     0.004 A 
ATOM     89  C   UNL A   1      32.912  29.757  25.788  1.00  0.00     0.002 A 
BRANCH  83  90
ATOM     90  C   UNL A   1      30.623  27.747  22.663  1.00  0.00     0.152 C 
BRANCH  90  91
ATOM     91  C   UNL A   1      29.593  28.838  22.480  1.00  0.00    -0.029 A 
ATOM     92  C   UNL A   1      29.928  30.063  21.885  1.00  0.00     0.005 A 
ATOM     93  C   UNL A   1      28.311  28.698  23.038  1.00  0.00     0.005 A 
ATOM     94  C   UNL A   1      28.998  31.107  21.834  1.00  0.00     0.000 A 
ATOM     95  C   UNL A   1      27.369  29.720  22.945  1.00  0.00     0.000 A 
ATOM     96  C   UNL A   1      27.713  30.929  22.348  1.00  0.00     0.000 A 
ENDBRANCH  90  91
ENDBRANCH  83  90
ENDBRANCH  77  80
ENDBRANCH  75  76
ENDBRANCH  74  75
ENDBRANCH  73  74
ENDBRANCH   1  73
TORSDOF 15
ENDMDL
