MODEL 1
REMARK VINA RESULT:     -11.7      0.000      0.000
REMARK SMILES Cc1onc(-c2ccccc2)c1C(=O)N1CCC[C@@H]1C(=O)NCCCCCCNC(=O)c1ccc(-c2c3nc(c(-c4c(F)c(F)c(F)c(F)c4F)c4ccc([nH]4)c(-c4c(F)c(F)c(F)c(F)c4F)c4nc(c(-c5c(F)c(F)c(F)c(F)c5F)c5ccc2[nH]5)C=C4)C=C3)cc1
REMARK SMILES IDX 25 1 24 2 23 3 22 4 20 5 21 6 19 8 15 9 16 10 17 11 18 12
REMARK SMILES IDX 13 13 14 14 12 15 1 16 2 17 3 18 4 19 5 20 6 21 7 22 11 23
REMARK SMILES IDX 8 24 10 25 9 26 26 27 27 28 28 29 29 30 30 31 31 33 32 34
REMARK SMILES IDX 33 35 94 36 34 37 93 38 35 39 36 40 37 41 87 42 38 43 92 44
REMARK SMILES IDX 86 45 88 46 39 47 91 48 85 49 84 50 40 52 72 53 52 54 71 55
REMARK SMILES IDX 53 56 56 57 70 58 89 59 54 60 55 61 69 63 90 64 57 65 41 66
REMARK SMILES IDX 42 67 50 68 43 69 44 70 48 71 51 72 45 73 46 74 49 75 47 76
REMARK SMILES IDX 73 77 74 78 82 79 75 80 76 81 80 82 83 83 77 84 78 85 81 86
REMARK SMILES IDX 79 87 58 88 59 89 67 90 60 91 61 92 65 93 68 94 62 95 63 96
REMARK SMILES IDX 66 97 64 98
REMARK H PARENT 22 7 29 32 88 51 56 62
REMARK Flexibility Score: inf
ROOT
ATOM      1  C   UNL A   1      34.331  22.290  23.846  1.00  0.00     0.002 C 
ENDROOT
BRANCH   1   2
ATOM      2  C   UNL A   1      33.280  22.755  22.837  1.00  0.00     0.021 C 
BRANCH   2   3
ATOM      3  C   UNL A   1      32.312  23.822  23.340  1.00  0.00     0.116 C 
BRANCH   3   4
ATOM      4  N   UNL A   1      31.744  24.603  22.270  1.00  0.00    -0.354 N 
ATOM      5  C   UNL A   1      31.886  25.933  22.000  1.00  0.00     0.242 C 
ATOM      6  O   UNL A   1      31.142  26.406  21.133  1.00  0.00    -0.273 OA
ATOM      7  H   UNL A   1      31.172  24.105  21.643  1.00  0.00     0.163 HD
BRANCH   5   8
ATOM      8  C   UNL A   1      32.765  26.866  22.864  1.00  0.00     0.174 C 
ATOM      9  N   UNL A   1      32.289  28.230  23.111  1.00  0.00    -0.326 N 
ATOM     10  C   UNL A   1      33.431  29.120  23.228  1.00  0.00     0.121 C 
ATOM     11  C   UNL A   1      34.423  28.554  22.230  1.00  0.00     0.024 C 
ATOM     12  C   UNL A   1      34.165  27.045  22.251  1.00  0.00     0.037 C 
BRANCH   9  13
ATOM     13  C   UNL A   1      31.082  28.395  23.779  1.00  0.00     0.260 C 
ATOM     14  O   UNL A   1      30.304  29.279  23.421  1.00  0.00    -0.269 OA
BRANCH  13  15
ATOM     15  C   UNL A   1      30.783  27.590  24.953  1.00  0.00     0.110 A 
ATOM     16  C   UNL A   1      29.029  25.697  24.277  1.00  0.00     0.092 C 
ATOM     17  C   UNL A   1      29.958  26.487  25.106  1.00  0.00     0.147 A 
ATOM     18  O   UNL A   1      30.097  25.988  26.363  1.00  0.00    -0.360 OA
ATOM     19  N   UNL A   1      31.022  26.718  27.059  1.00  0.00    -0.079 NA
ATOM     20  C   UNL A   1      31.443  27.680  26.227  1.00  0.00     0.126 A 
BRANCH  20  21
ATOM     21  C   UNL A   1      32.445  28.634  26.681  1.00  0.00     0.004 A 
ATOM     22  C   UNL A   1      32.094  29.970  26.907  1.00  0.00     0.010 A 
ATOM     23  C   UNL A   1      33.775  28.229  26.846  1.00  0.00     0.010 A 
ATOM     24  C   UNL A   1      33.066  30.894  27.303  1.00  0.00     0.001 A 
ATOM     25  C   UNL A   1      34.745  29.156  27.234  1.00  0.00     0.001 A 
ATOM     26  C   UNL A   1      34.390  30.486  27.463  1.00  0.00     0.000 A 
ENDBRANCH  20  21
ENDBRANCH  13  15
ENDBRANCH   9  13
ENDBRANCH   5   8
ENDBRANCH   3   4
ENDBRANCH   2   3
ENDBRANCH   1   2
BRANCH   1  27
ATOM     27  C   UNL A   1      35.751  22.827  23.638  1.00  0.00     0.002 C 
BRANCH  27  28
ATOM     28  C   UNL A   1      36.265  23.830  24.677  1.00  0.00     0.021 C 
BRANCH  28  29
ATOM     29  C   UNL A   1      36.654  23.258  26.040  1.00  0.00     0.116 C 
BRANCH  29  30
ATOM     30  N   UNL A   1      37.875  22.479  26.006  1.00  0.00    -0.352 N 
ATOM     31  C   UNL A   1      39.155  22.825  26.360  1.00  0.00     0.251 C 
ATOM     32  H   UNL A   1      37.770  21.557  25.677  1.00  0.00     0.163 HD
ATOM     33  O   UNL A   1      40.068  22.026  26.165  1.00  0.00    -0.269 OA
BRANCH  31  34
ATOM     34  C   UNL A   1      39.469  24.147  26.956  1.00  0.00     0.039 A 
ATOM     35  C   UNL A   1      40.079  25.106  26.137  1.00  0.00     0.014 A 
ATOM     36  C   UNL A   1      39.259  24.432  28.309  1.00  0.00     0.014 A 
ATOM     37  C   UNL A   1      40.453  26.348  26.659  1.00  0.00     0.010 A 
ATOM     38  C   UNL A   1      39.595  25.690  28.823  1.00  0.00     0.010 A 
ATOM     39  C   UNL A   1      40.208  26.652  28.005  1.00  0.00    -0.014 A 
BRANCH  39  40
ATOM     40  C   UNL A   1      40.638  27.954  28.574  1.00  0.00     0.031 A 
ATOM     41  C   UNL A   1      42.088  28.195  28.892  1.00  0.00     0.074 A 
ATOM     42  C   UNL A   1      39.730  28.915  28.822  1.00  0.00     0.049 A 
ATOM     43  N   UNL A   1      42.655  29.249  29.426  1.00  0.00    -0.248 NA
ATOM     44  C   UNL A   1      43.020  27.100  28.588  1.00  0.00     0.031 C 
ATOM     45  C   UNL A   1      38.292  28.801  28.586  1.00  0.00     0.029 A 
ATOM     46  N   UNL A   1      39.886  30.180  29.332  1.00  0.00    -0.354 N 
ATOM     47  C   UNL A   1      44.001  28.934  29.545  1.00  0.00     0.074 A 
ATOM     48  C   UNL A   1      44.166  27.585  29.042  1.00  0.00     0.031 C 
ATOM     49  C   UNL A   1      37.698  29.954  28.936  1.00  0.00     0.029 A 
ATOM     50  C   UNL A   1      38.711  30.882  29.431  1.00  0.00     0.049 A 
ATOM     51  H   UNL A   1      40.758  30.549  29.601  1.00  0.00     0.167 HD
ATOM     52  C   UNL A   1      45.010  29.699  30.023  1.00  0.00     0.037 A 
ATOM     53  C   UNL A   1      38.480  32.135  29.866  1.00  0.00     0.037 A 
ATOM     54  C   UNL A   1      44.863  31.053  30.486  1.00  0.00     0.049 A 
ATOM     55  C   UNL A   1      39.629  32.993  30.315  1.00  0.00     0.074 A 
ATOM     56  C   UNL A   1      45.833  31.912  30.978  1.00  0.00     0.029 A 
ATOM     57  N   UNL A   1      43.667  31.752  30.500  1.00  0.00    -0.354 N 
ATOM     58  N   UNL A   1      40.899  32.689  30.406  1.00  0.00    -0.248 NA
ATOM     59  C   UNL A   1      39.312  34.374  30.709  1.00  0.00     0.031 C 
ATOM     60  C   UNL A   1      45.221  33.131  31.293  1.00  0.00     0.029 A 
ATOM     61  C   UNL A   1      43.874  33.035  30.980  1.00  0.00     0.049 A 
ATOM     62  H   UNL A   1      42.797  31.390  30.211  1.00  0.00     0.167 HD
ATOM     63  C   UNL A   1      41.536  33.841  30.844  1.00  0.00     0.074 A 
ATOM     64  C   UNL A   1      40.514  34.855  30.996  1.00  0.00     0.031 C 
ATOM     65  C   UNL A   1      42.851  34.037  31.101  1.00  0.00     0.037 A 
BRANCH  52  66
ATOM     66  C   UNL A   1      46.374  29.083  30.072  1.00  0.00     0.064 A 
ATOM     67  C   UNL A   1      47.253  29.168  28.984  1.00  0.00     0.173 A 
ATOM     68  C   UNL A   1      46.812  28.421  31.229  1.00  0.00     0.173 A 
ATOM     69  F   UNL A   1      46.869  29.777  27.853  1.00  0.00    -0.203 F 
ATOM     70  C   UNL A   1      48.520  28.596  29.046  1.00  0.00     0.198 A 
ATOM     71  C   UNL A   1      48.087  27.865  31.292  1.00  0.00     0.198 A 
ATOM     72  F   UNL A   1      46.005  28.316  32.294  1.00  0.00    -0.203 F 
ATOM     73  F   UNL A   1      49.334  28.658  27.983  1.00  0.00    -0.200 F 
ATOM     74  C   UNL A   1      48.938  27.949  30.200  1.00  0.00     0.200 A 
ATOM     75  F   UNL A   1      48.490  27.244  32.410  1.00  0.00    -0.200 F 
ATOM     76  F   UNL A   1      50.159  27.398  30.257  1.00  0.00    -0.200 F 
ENDBRANCH  52  66
BRANCH  53  77
ATOM     77  C   UNL A   1      37.099  32.672  29.851  1.00  0.00     0.064 A 
ATOM     78  C   UNL A   1      36.264  32.532  30.967  1.00  0.00     0.173 A 
ATOM     79  C   UNL A   1      36.591  33.337  28.727  1.00  0.00     0.173 A 
ATOM     80  F   UNL A   1      36.706  31.882  32.054  1.00  0.00    -0.203 F 
ATOM     81  C   UNL A   1      34.963  33.027  30.956  1.00  0.00     0.198 A 
ATOM     82  C   UNL A   1      35.294  33.846  28.724  1.00  0.00     0.198 A 
ATOM     83  F   UNL A   1      37.355  33.494  27.637  1.00  0.00    -0.203 F 
ATOM     84  F   UNL A   1      34.174  32.855  32.025  1.00  0.00    -0.200 F 
ATOM     85  C   UNL A   1      34.481  33.688  29.836  1.00  0.00     0.200 A 
ATOM     86  F   UNL A   1      34.832  34.488  27.641  1.00  0.00    -0.200 F 
ATOM     87  F   UNL A   1      33.229  34.165  29.826  1.00  0.00    -0.200 F 
ENDBRANCH  53  77
BRANCH  65  88
ATOM     88  C   UNL A   1      43.266  35.408  31.534  1.00  0.00     0.064 A 
ATOM     89  C   UNL A   1      43.688  36.371  30.607  1.00  0.00     0.173 A 
ATOM     90  C   UNL A   1      43.207  35.772  32.888  1.00  0.00     0.173 A 
ATOM     91  F   UNL A   1      43.773  36.061  29.306  1.00  0.00    -0.203 F 
ATOM     92  C   UNL A   1      44.048  37.650  31.022  1.00  0.00     0.198 A 
ATOM     93  C   UNL A   1      43.555  37.055  33.297  1.00  0.00     0.198 A 
ATOM     94  F   UNL A   1      42.810  34.882  33.809  1.00  0.00    -0.203 F 
ATOM     95  F   UNL A   1      44.473  38.549  30.124  1.00  0.00    -0.200 F 
ATOM     96  C   UNL A   1      43.978  37.992  32.365  1.00  0.00     0.200 A 
ATOM     97  F   UNL A   1      43.487  37.386  34.594  1.00  0.00    -0.200 F 
ATOM     98  F   UNL A   1      44.325  39.224  32.762  1.00  0.00    -0.200 F 
ENDBRANCH  65  88
ENDBRANCH  39  40
ENDBRANCH  31  34
ENDBRANCH  29  30
ENDBRANCH  28  29
ENDBRANCH  27  28
ENDBRANCH   1  27
TORSDOF 16
ENDMDL
MODEL 2
REMARK VINA RESULT:     -11.5      3.891      8.930
REMARK SMILES Cc1onc(-c2ccccc2)c1C(=O)N1CCC[C@@H]1C(=O)NCCCCCCNC(=O)c1ccc(-c2c3nc(c(-c4c(F)c(F)c(F)c(F)c4F)c4ccc([nH]4)c(-c4c(F)c(F)c(F)c(F)c4F)c4nc(c(-c5c(F)c(F)c(F)c(F)c5F)c5ccc2[nH]5)C=C4)C=C3)cc1
REMARK SMILES IDX 25 1 24 2 23 3 22 4 20 5 21 6 19 8 15 9 16 10 17 11 18 12
REMARK SMILES IDX 13 13 14 14 12 15 1 16 2 17 3 18 4 19 5 20 6 21 7 22 11 23
REMARK SMILES IDX 8 24 10 25 9 26 26 27 27 28 28 29 29 30 30 31 31 33 32 34
REMARK SMILES IDX 33 35 94 36 34 37 93 38 35 39 36 40 37 41 87 42 38 43 92 44
REMARK SMILES IDX 86 45 88 46 39 47 91 48 85 49 84 50 40 52 72 53 52 54 71 55
REMARK SMILES IDX 53 56 56 57 70 58 89 59 54 60 55 61 69 63 90 64 57 65 41 66
REMARK SMILES IDX 42 67 50 68 43 69 44 70 48 71 51 72 45 73 46 74 49 75 47 76
REMARK SMILES IDX 73 77 74 78 82 79 75 80 76 81 80 82 83 83 77 84 78 85 81 86
REMARK SMILES IDX 79 87 58 88 59 89 67 90 60 91 61 92 65 93 68 94 62 95 63 96
REMARK SMILES IDX 66 97 64 98
REMARK H PARENT 22 7 29 32 88 51 56 62
REMARK Flexibility Score: inf
ROOT
ATOM      1  C   UNL A   1      31.831  29.169  26.480  1.00  0.00     0.002 C 
ENDROOT
BRANCH   1   2
ATOM      2  C   UNL A   1      31.500  27.825  25.828  1.00  0.00     0.021 C 
BRANCH   2   3
ATOM      3  C   UNL A   1      32.143  26.603  26.480  1.00  0.00     0.116 C 
BRANCH   3   4
ATOM      4  N   UNL A   1      31.173  25.609  26.865  1.00  0.00    -0.354 N 
ATOM      5  C   UNL A   1      31.314  24.255  26.964  1.00  0.00     0.242 C 
ATOM      6  O   UNL A   1      30.279  23.600  27.131  1.00  0.00    -0.273 OA
ATOM      7  H   UNL A   1      30.280  25.957  27.089  1.00  0.00     0.163 HD
BRANCH   5   8
ATOM      8  C   UNL A   1      32.652  23.537  26.673  1.00  0.00     0.174 C 
ATOM      9  N   UNL A   1      32.654  22.459  25.680  1.00  0.00    -0.326 N 
ATOM     10  C   UNL A   1      33.652  21.470  26.053  1.00  0.00     0.121 C 
ATOM     11  C   UNL A   1      33.588  21.458  27.568  1.00  0.00     0.024 C 
ATOM     12  C   UNL A   1      33.236  22.900  27.946  1.00  0.00     0.037 C 
BRANCH   9  13
ATOM     13  C   UNL A   1      32.286  22.763  24.376  1.00  0.00     0.260 C 
ATOM     14  O   UNL A   1      31.694  21.923  23.699  1.00  0.00    -0.269 OA
BRANCH  13  15
ATOM     15  C   UNL A   1      32.684  24.031  23.784  1.00  0.00     0.110 A 
ATOM     16  C   UNL A   1      30.493  25.363  23.047  1.00  0.00     0.092 C 
ATOM     17  C   UNL A   1      31.921  25.070  23.276  1.00  0.00     0.147 A 
ATOM     18  O   UNL A   1      32.732  26.110  22.948  1.00  0.00    -0.360 OA
ATOM     19  N   UNL A   1      34.032  25.806  23.249  1.00  0.00    -0.079 NA
ATOM     20  C   UNL A   1      34.019  24.565  23.752  1.00  0.00     0.126 A 
BRANCH  20  21
ATOM     21  C   UNL A   1      35.268  23.948  24.174  1.00  0.00     0.004 A 
ATOM     22  C   UNL A   1      35.849  22.933  23.403  1.00  0.00     0.010 A 
ATOM     23  C   UNL A   1      35.870  24.333  25.377  1.00  0.00     0.010 A 
ATOM     24  C   UNL A   1      37.026  22.313  23.830  1.00  0.00     0.001 A 
ATOM     25  C   UNL A   1      37.042  23.706  25.806  1.00  0.00     0.001 A 
ATOM     26  C   UNL A   1      37.620  22.699  25.032  1.00  0.00     0.000 A 
ENDBRANCH  20  21
ENDBRANCH  13  15
ENDBRANCH   9  13
ENDBRANCH   5   8
ENDBRANCH   3   4
ENDBRANCH   2   3
ENDBRANCH   1   2
BRANCH   1  27
ATOM     27  C   UNL A   1      31.402  30.420  25.705  1.00  0.00     0.002 C 
BRANCH  27  28
ATOM     28  C   UNL A   1      31.292  31.720  26.507  1.00  0.00     0.021 C 
BRANCH  28  29
ATOM     29  C   UNL A   1      32.606  32.411  26.868  1.00  0.00     0.116 C 
BRANCH  29  30
ATOM     30  N   UNL A   1      32.425  33.751  27.388  1.00  0.00    -0.352 N 
ATOM     31  C   UNL A   1      33.077  34.401  28.405  1.00  0.00     0.251 C 
ATOM     32  H   UNL A   1      31.723  34.278  26.942  1.00  0.00     0.163 HD
ATOM     33  O   UNL A   1      32.697  35.519  28.743  1.00  0.00    -0.269 OA
BRANCH  31  34
ATOM     34  C   UNL A   1      34.218  33.780  29.122  1.00  0.00     0.039 A 
ATOM     35  C   UNL A   1      35.511  34.197  28.780  1.00  0.00     0.014 A 
ATOM     36  C   UNL A   1      34.052  32.747  30.051  1.00  0.00     0.014 A 
ATOM     37  C   UNL A   1      36.627  33.605  29.379  1.00  0.00     0.010 A 
ATOM     38  C   UNL A   1      35.167  32.183  30.681  1.00  0.00     0.010 A 
ATOM     39  C   UNL A   1      36.464  32.597  30.339  1.00  0.00    -0.014 A 
BRANCH  39  40
ATOM     40  C   UNL A   1      37.646  31.938  30.948  1.00  0.00     0.031 A 
ATOM     41  C   UNL A   1      38.072  32.296  32.345  1.00  0.00     0.074 A 
ATOM     42  C   UNL A   1      38.349  31.031  30.246  1.00  0.00     0.049 A 
ATOM     43  N   UNL A   1      39.096  31.858  33.037  1.00  0.00    -0.248 NA
ATOM     44  C   UNL A   1      37.250  33.290  33.050  1.00  0.00     0.031 C 
ATOM     45  C   UNL A   1      38.060  30.615  28.874  1.00  0.00     0.029 A 
ATOM     46  N   UNL A   1      39.456  30.298  30.592  1.00  0.00    -0.354 N 
ATOM     47  C   UNL A   1      39.056  32.541  34.244  1.00  0.00     0.074 A 
ATOM     48  C   UNL A   1      37.916  33.434  34.187  1.00  0.00     0.031 C 
ATOM     49  C   UNL A   1      38.957  29.688  28.500  1.00  0.00     0.029 A 
ATOM     50  C   UNL A   1      39.890  29.455  29.599  1.00  0.00     0.049 A 
ATOM     51  H   UNL A   1      39.898  30.369  31.469  1.00  0.00     0.167 HD
ATOM     52  C   UNL A   1      39.888  32.431  35.306  1.00  0.00     0.037 A 
ATOM     53  C   UNL A   1      40.920  28.587  29.582  1.00  0.00     0.037 A 
ATOM     54  C   UNL A   1      40.997  31.519  35.388  1.00  0.00     0.049 A 
ATOM     55  C   UNL A   1      41.779  28.426  30.805  1.00  0.00     0.074 A 
ATOM     56  C   UNL A   1      41.889  31.329  36.430  1.00  0.00     0.029 A 
ATOM     57  N   UNL A   1      41.356  30.630  34.387  1.00  0.00    -0.354 N 
ATOM     58  N   UNL A   1      41.719  29.065  31.945  1.00  0.00    -0.248 NA
ATOM     59  C   UNL A   1      42.841  27.409  30.739  1.00  0.00     0.031 C 
ATOM     60  C   UNL A   1      42.792  30.326  36.058  1.00  0.00     0.029 A 
ATOM     61  C   UNL A   1      42.449  29.880  34.792  1.00  0.00     0.049 A 
ATOM     62  H   UNL A   1      40.902  30.543  33.518  1.00  0.00     0.167 HD
ATOM     63  C   UNL A   1      42.716  28.518  32.741  1.00  0.00     0.074 A 
ATOM     64  C   UNL A   1      43.364  27.488  31.955  1.00  0.00     0.031 C 
ATOM     65  C   UNL A   1      43.064  28.844  34.008  1.00  0.00     0.037 A 
BRANCH  52  66
ATOM     66  C   UNL A   1      39.629  33.331  36.475  1.00  0.00     0.064 A 
ATOM     67  C   UNL A   1      38.766  32.949  37.512  1.00  0.00     0.173 A 
ATOM     68  C   UNL A   1      40.269  34.575  36.568  1.00  0.00     0.173 A 
ATOM     69  F   UNL A   1      38.122  31.776  37.456  1.00  0.00    -0.203 F 
ATOM     70  C   UNL A   1      38.540  33.793  38.596  1.00  0.00     0.198 A 
ATOM     71  C   UNL A   1      40.052  35.408  37.663  1.00  0.00     0.198 A 
ATOM     72  F   UNL A   1      41.102  34.981  35.600  1.00  0.00    -0.203 F 
ATOM     73  F   UNL A   1      37.685  33.426  39.561  1.00  0.00    -0.200 F 
ATOM     74  C   UNL A   1      39.185  35.018  38.673  1.00  0.00     0.200 A 
ATOM     75  F   UNL A   1      40.680  36.590  37.737  1.00  0.00    -0.200 F 
ATOM     76  F   UNL A   1      38.965  35.829  39.718  1.00  0.00    -0.200 F 
ENDBRANCH  52  66
BRANCH  53  77
ATOM     77  C   UNL A   1      41.165  27.766  28.373  1.00  0.00     0.064 A 
ATOM     78  C   UNL A   1      40.500  26.546  28.190  1.00  0.00     0.173 A 
ATOM     79  C   UNL A   1      42.061  28.184  27.381  1.00  0.00     0.173 A 
ATOM     80  F   UNL A   1      39.651  26.101  29.128  1.00  0.00    -0.203 F 
ATOM     81  C   UNL A   1      40.732  25.766  27.060  1.00  0.00     0.198 A 
ATOM     82  C   UNL A   1      42.280  27.410  26.243  1.00  0.00     0.198 A 
ATOM     83  F   UNL A   1      42.719  29.344  27.516  1.00  0.00    -0.203 F 
ATOM     84  F   UNL A   1      40.106  24.590  26.921  1.00  0.00    -0.200 F 
ATOM     85  C   UNL A   1      41.618  26.201  26.086  1.00  0.00     0.200 A 
ATOM     86  F   UNL A   1      43.135  27.834  25.302  1.00  0.00    -0.200 F 
ATOM     87  F   UNL A   1      41.841  25.451  24.999  1.00  0.00    -0.200 F 
ENDBRANCH  53  77
BRANCH  65  88
ATOM     88  C   UNL A   1      44.168  28.055  34.639  1.00  0.00     0.064 A 
ATOM     89  C   UNL A   1      45.498  28.494  34.590  1.00  0.00     0.173 A 
ATOM     90  C   UNL A   1      43.886  26.868  35.330  1.00  0.00     0.173 A 
ATOM     91  F   UNL A   1      45.814  29.616  33.928  1.00  0.00    -0.203 F 
ATOM     92  C   UNL A   1      46.512  27.763  35.202  1.00  0.00     0.198 A 
ATOM     93  C   UNL A   1      44.900  26.147  35.952  1.00  0.00     0.198 A 
ATOM     94  F   UNL A   1      42.628  26.411  35.401  1.00  0.00    -0.203 F 
ATOM     95  F   UNL A   1      47.782  28.185  35.123  1.00  0.00    -0.200 F 
ATOM     96  C   UNL A   1      46.213  26.593  35.886  1.00  0.00     0.200 A 
ATOM     97  F   UNL A   1      44.611  25.018  36.613  1.00  0.00    -0.200 F 
ATOM     98  F   UNL A   1      47.190  25.891  36.474  1.00  0.00    -0.200 F 
ENDBRANCH  65  88
ENDBRANCH  39  40
ENDBRANCH  31  34
ENDBRANCH  29  30
ENDBRANCH  28  29
ENDBRANCH  27  28
ENDBRANCH   1  27
TORSDOF 16
ENDMDL
MODEL 3
REMARK VINA RESULT:     -11.5      3.941      8.900
REMARK SMILES Cc1onc(-c2ccccc2)c1C(=O)N1CCC[C@@H]1C(=O)NCCCCCCNC(=O)c1ccc(-c2c3nc(c(-c4c(F)c(F)c(F)c(F)c4F)c4ccc([nH]4)c(-c4c(F)c(F)c(F)c(F)c4F)c4nc(c(-c5c(F)c(F)c(F)c(F)c5F)c5ccc2[nH]5)C=C4)C=C3)cc1
REMARK SMILES IDX 25 1 24 2 23 3 22 4 20 5 21 6 19 8 15 9 16 10 17 11 18 12
REMARK SMILES IDX 13 13 14 14 12 15 1 16 2 17 3 18 4 19 5 20 6 21 7 22 11 23
REMARK SMILES IDX 8 24 10 25 9 26 26 27 27 28 28 29 29 30 30 31 31 33 32 34
REMARK SMILES IDX 33 35 94 36 34 37 93 38 35 39 36 40 37 41 87 42 38 43 92 44
REMARK SMILES IDX 86 45 88 46 39 47 91 48 85 49 84 50 40 52 72 53 52 54 71 55
REMARK SMILES IDX 53 56 56 57 70 58 89 59 54 60 55 61 69 63 90 64 57 65 41 66
REMARK SMILES IDX 42 67 50 68 43 69 44 70 48 71 51 72 45 73 46 74 49 75 47 76
REMARK SMILES IDX 73 77 74 78 82 79 75 80 76 81 80 82 83 83 77 84 78 85 81 86
REMARK SMILES IDX 79 87 58 88 59 89 67 90 60 91 61 92 65 93 68 94 62 95 63 96
REMARK SMILES IDX 66 97 64 98
REMARK H PARENT 22 7 29 32 88 51 56 62
REMARK Flexibility Score: inf
ROOT
ATOM      1  C   UNL A   1      32.222  29.917  27.095  1.00  0.00     0.002 C 
ENDROOT
BRANCH   1   2
ATOM      2  C   UNL A   1      33.585  29.435  26.592  1.00  0.00     0.021 C 
BRANCH   2   3
ATOM      3  C   UNL A   1      33.778  27.922  26.568  1.00  0.00     0.116 C 
BRANCH   3   4
ATOM      4  N   UNL A   1      34.048  27.420  25.244  1.00  0.00    -0.354 N 
ATOM      5  C   UNL A   1      33.221  26.754  24.386  1.00  0.00     0.242 C 
ATOM      6  O   UNL A   1      33.746  26.260  23.381  1.00  0.00    -0.273 OA
ATOM      7  H   UNL A   1      34.960  27.581  24.911  1.00  0.00     0.163 HD
BRANCH   5   8
ATOM      8  C   UNL A   1      31.749  26.435  24.733  1.00  0.00     0.174 C 
ATOM      9  N   UNL A   1      31.127  25.270  24.096  1.00  0.00    -0.326 N 
ATOM     10  C   UNL A   1      29.711  25.531  23.905  1.00  0.00     0.121 C 
ATOM     11  C   UNL A   1      29.666  27.012  23.582  1.00  0.00     0.024 C 
ATOM     12  C   UNL A   1      30.822  27.613  24.385  1.00  0.00     0.037 C 
BRANCH   9  13
ATOM     13  C   UNL A   1      31.679  24.018  24.333  1.00  0.00     0.260 C 
ATOM     14  O   UNL A   1      31.902  23.262  23.386  1.00  0.00    -0.269 OA
BRANCH  13  15
ATOM     15  C   UNL A   1      31.903  23.565  25.697  1.00  0.00     0.110 A 
ATOM     16  C   UNL A   1      29.567  23.524  26.986  1.00  0.00     0.092 C 
ATOM     17  C   UNL A   1      31.012  23.357  26.737  1.00  0.00     0.147 A 
ATOM     18  O   UNL A   1      31.667  22.804  27.792  1.00  0.00    -0.360 OA
ATOM     19  N   UNL A   1      32.984  22.608  27.477  1.00  0.00    -0.079 NA
ATOM     20  C   UNL A   1      33.140  23.057  26.224  1.00  0.00     0.126 A 
BRANCH  20  21
ATOM     21  C   UNL A   1      34.450  22.985  25.594  1.00  0.00     0.004 A 
ATOM     22  C   UNL A   1      34.816  21.853  24.854  1.00  0.00     0.010 A 
ATOM     23  C   UNL A   1      35.369  24.028  25.763  1.00  0.00     0.010 A 
ATOM     24  C   UNL A   1      36.089  21.768  24.285  1.00  0.00     0.001 A 
ATOM     25  C   UNL A   1      36.643  23.937  25.199  1.00  0.00     0.001 A 
ATOM     26  C   UNL A   1      37.002  22.809  24.460  1.00  0.00     0.000 A 
ENDBRANCH  20  21
ENDBRANCH  13  15
ENDBRANCH   9  13
ENDBRANCH   5   8
ENDBRANCH   3   4
ENDBRANCH   2   3
ENDBRANCH   1   2
BRANCH   1  27
ATOM     27  C   UNL A   1      31.444  30.844  26.154  1.00  0.00     0.002 C 
BRANCH  27  28
ATOM     28  C   UNL A   1      31.320  32.309  26.584  1.00  0.00     0.021 C 
BRANCH  28  29
ATOM     29  C   UNL A   1      32.611  33.006  27.010  1.00  0.00     0.116 C 
BRANCH  29  30
ATOM     30  N   UNL A   1      32.389  34.300  27.623  1.00  0.00    -0.352 N 
ATOM     31  C   UNL A   1      33.003  34.885  28.700  1.00  0.00     0.251 C 
ATOM     32  H   UNL A   1      31.686  34.844  27.200  1.00  0.00     0.163 HD
ATOM     33  O   UNL A   1      32.592  35.968  29.110  1.00  0.00    -0.269 OA
BRANCH  31  34
ATOM     34  C   UNL A   1      34.142  34.236  29.397  1.00  0.00     0.039 A 
ATOM     35  C   UNL A   1      35.438  34.562  28.976  1.00  0.00     0.014 A 
ATOM     36  C   UNL A   1      33.964  33.261  30.383  1.00  0.00     0.014 A 
ATOM     37  C   UNL A   1      36.547  33.938  29.555  1.00  0.00     0.010 A 
ATOM     38  C   UNL A   1      35.075  32.666  30.992  1.00  0.00     0.010 A 
ATOM     39  C   UNL A   1      36.375  32.989  30.572  1.00  0.00    -0.014 A 
BRANCH  39  40
ATOM     40  C   UNL A   1      37.547  32.294  31.161  1.00  0.00     0.031 A 
ATOM     41  C   UNL A   1      38.010  32.642  32.548  1.00  0.00     0.074 A 
ATOM     42  C   UNL A   1      38.208  31.364  30.448  1.00  0.00     0.049 A 
ATOM     43  N   UNL A   1      39.032  32.173  33.222  1.00  0.00    -0.248 NA
ATOM     44  C   UNL A   1      37.234  33.663  33.266  1.00  0.00     0.031 C 
ATOM     45  C   UNL A   1      37.880  30.953  29.083  1.00  0.00     0.029 A 
ATOM     46  N   UNL A   1      39.298  30.596  30.776  1.00  0.00    -0.354 N 
ATOM     47  C   UNL A   1      39.037  32.861  34.427  1.00  0.00     0.074 A 
ATOM     48  C   UNL A   1      37.925  33.789  34.389  1.00  0.00     0.031 C 
ATOM     49  C   UNL A   1      38.740  29.998  28.695  1.00  0.00     0.029 A 
ATOM     50  C   UNL A   1      39.686  29.738  29.777  1.00  0.00     0.049 A 
ATOM     51  H   UNL A   1      39.757  30.656  31.644  1.00  0.00     0.167 HD
ATOM     52  C   UNL A   1      39.884  32.727  35.474  1.00  0.00     0.037 A 
ATOM     53  C   UNL A   1      40.687  28.838  29.744  1.00  0.00     0.037 A 
ATOM     54  C   UNL A   1      40.966  31.781  35.538  1.00  0.00     0.049 A 
ATOM     55  C   UNL A   1      41.564  28.652  30.950  1.00  0.00     0.074 A 
ATOM     56  C   UNL A   1      41.871  31.565  36.564  1.00  0.00     0.029 A 
ATOM     57  N   UNL A   1      41.278  30.877  34.534  1.00  0.00    -0.354 N 
ATOM     58  N   UNL A   1      41.546  29.296  32.090  1.00  0.00    -0.248 NA
ATOM     59  C   UNL A   1      42.591  27.603  30.868  1.00  0.00     0.031 C 
ATOM     60  C   UNL A   1      42.734  30.532  36.179  1.00  0.00     0.029 A 
ATOM     61  C   UNL A   1      42.354  30.095  34.920  1.00  0.00     0.049 A 
ATOM     62  H   UNL A   1      40.805  30.803  33.673  1.00  0.00     0.167 HD
ATOM     63  C   UNL A   1      42.540  28.719  32.869  1.00  0.00     0.074 A 
ATOM     64  C   UNL A   1      43.139  27.668  32.074  1.00  0.00     0.031 C 
ATOM     65  C   UNL A   1      42.921  29.038  34.128  1.00  0.00     0.037 A 
BRANCH  52  66
ATOM     66  C   UNL A   1      39.676  33.637  36.645  1.00  0.00     0.064 A 
ATOM     67  C   UNL A   1      38.884  33.252  37.736  1.00  0.00     0.173 A 
ATOM     68  C   UNL A   1      40.294  34.895  36.684  1.00  0.00     0.173 A 
ATOM     69  F   UNL A   1      38.262  32.066  37.732  1.00  0.00    -0.203 F 
ATOM     70  C   UNL A   1      38.704  34.106  38.820  1.00  0.00     0.198 A 
ATOM     71  C   UNL A   1      40.126  35.738  37.780  1.00  0.00     0.198 A 
ATOM     72  F   UNL A   1      41.060  35.304  35.664  1.00  0.00    -0.203 F 
ATOM     73  F   UNL A   1      37.916  33.735  39.839  1.00  0.00    -0.200 F 
ATOM     74  C   UNL A   1      39.328  35.345  38.844  1.00  0.00     0.200 A 
ATOM     75  F   UNL A   1      40.731  36.934  37.802  1.00  0.00    -0.200 F 
ATOM     76  F   UNL A   1      39.153  36.166  39.890  1.00  0.00    -0.200 F 
ENDBRANCH  52  66
BRANCH  53  77
ATOM     77  C   UNL A   1      40.884  28.006  28.533  1.00  0.00     0.064 A 
ATOM     78  C   UNL A   1      40.222  26.780  28.393  1.00  0.00     0.173 A 
ATOM     79  C   UNL A   1      41.730  28.422  27.497  1.00  0.00     0.173 A 
ATOM     80  F   UNL A   1      39.420  26.337  29.373  1.00  0.00    -0.203 F 
ATOM     81  C   UNL A   1      40.408  25.990  27.261  1.00  0.00     0.198 A 
ATOM     82  C   UNL A   1      41.903  27.637  26.358  1.00  0.00     0.198 A 
ATOM     83  F   UNL A   1      42.383  29.588  27.590  1.00  0.00    -0.203 F 
ATOM     84  F   UNL A   1      39.786  24.807  27.163  1.00  0.00    -0.200 F 
ATOM     85  C   UNL A   1      41.245  26.422  26.243  1.00  0.00     0.200 A 
ATOM     86  F   UNL A   1      42.709  28.059  25.374  1.00  0.00    -0.200 F 
ATOM     87  F   UNL A   1      41.423  25.662  25.154  1.00  0.00    -0.200 F 
ENDBRANCH  53  77
BRANCH  65  88
ATOM     88  C   UNL A   1      44.012  28.216  34.741  1.00  0.00     0.064 A 
ATOM     89  C   UNL A   1      43.730  27.036  35.441  1.00  0.00     0.173 A 
ATOM     90  C   UNL A   1      45.353  28.596  34.593  1.00  0.00     0.173 A 
ATOM     91  F   UNL A   1      42.460  26.643  35.618  1.00  0.00    -0.203 F 
ATOM     92  C   UNL A   1      44.756  26.269  35.985  1.00  0.00     0.198 A 
ATOM     93  C   UNL A   1      46.378  27.820  35.127  1.00  0.00     0.198 A 
ATOM     94  F   UNL A   1      45.668  29.719  33.931  1.00  0.00    -0.203 F 
ATOM     95  F   UNL A   1      44.466  25.156  36.674  1.00  0.00    -0.200 F 
ATOM     96  C   UNL A   1      46.078  26.658  35.824  1.00  0.00     0.200 A 
ATOM     97  F   UNL A   1      47.654  28.196  34.970  1.00  0.00    -0.200 F 
ATOM     98  F   UNL A   1      47.065  25.919  36.348  1.00  0.00    -0.200 F 
ENDBRANCH  65  88
ENDBRANCH  39  40
ENDBRANCH  31  34
ENDBRANCH  29  30
ENDBRANCH  28  29
ENDBRANCH  27  28
ENDBRANCH   1  27
TORSDOF 16
ENDMDL
