MODEL 1
REMARK VINA RESULT:     -10.5      0.000      0.000
REMARK SMILES COC(=O)[C@@H](CC(=O)NCCCCCCNC(=O)c1ccc(-c2c3nc(c(-c4c(F)c(F)c(F)c(F)c4F)c4ccc([nH]4)c(-c4c(F)c(F)c(F)c(F)c4F)c4nc(c(-c5c(F)c(F)c(F)c(F)c5F)c5ccc2[nH]5)C=C4)C=C3)cc1)C1CCCCC1
REMARK SMILES IDX 12 1 11 2 10 3 9 4 7 5 8 6 6 8 5 9 3 10 4 11 2 12 1 13 82 14
REMARK SMILES IDX 83 15 87 16 84 17 86 18 85 19 13 20 14 21 15 22 16 23 17 24
REMARK SMILES IDX 18 26 19 27 20 28 81 29 21 30 80 31 22 32 23 33 24 34 74 35
REMARK SMILES IDX 25 36 79 37 73 38 75 39 26 40 78 41 72 42 71 43 27 45 59 46
REMARK SMILES IDX 39 47 58 48 40 49 43 50 57 51 76 52 41 53 42 54 56 56 77 57
REMARK SMILES IDX 44 58 28 59 29 60 37 61 30 62 31 63 35 64 38 65 32 66 33 67
REMARK SMILES IDX 36 68 34 69 60 70 61 71 69 72 62 73 63 74 67 75 70 76 64 77
REMARK SMILES IDX 65 78 68 79 66 80 45 81 46 82 54 83 47 84 48 85 52 86 55 87
REMARK SMILES IDX 49 88 50 89 53 90 51 91
REMARK H PARENT 9 7 16 25 75 44 43 55
REMARK Flexibility Score: inf
ROOT
ATOM      1  C   UNL A   1      37.219  22.107  25.435  1.00  0.00     0.002 C 
ENDROOT
BRANCH   1   2
ATOM      2  C   UNL A   1      36.467  23.347  24.949  1.00  0.00     0.021 C 
BRANCH   2   3
ATOM      3  C   UNL A   1      35.344  23.820  25.873  1.00  0.00     0.116 C 
BRANCH   3   4
ATOM      4  N   UNL A   1      34.983  22.777  26.812  1.00  0.00    -0.356 N 
ATOM      5  C   UNL A   1      33.888  21.969  26.841  1.00  0.00     0.220 C 
ATOM      6  O   UNL A   1      33.773  21.183  27.784  1.00  0.00    -0.275 OA
ATOM      7  H   UNL A   1      35.629  22.630  27.540  1.00  0.00     0.163 HD
BRANCH   5   8
ATOM      8  C   UNL A   1      32.843  22.020  25.740  1.00  0.00     0.115 C 
BRANCH   8   9
ATOM      9  C   UNL A   1      33.255  21.434  24.363  1.00  0.00     0.111 C 
BRANCH   9  10
ATOM     10  C   UNL A   1      32.937  22.454  23.267  1.00  0.00     0.309 C 
ATOM     11  O   UNL A   1      33.795  22.897  22.513  1.00  0.00    -0.252 OA
BRANCH  10  12
ATOM     12  O   UNL A   1      31.631  22.781  23.180  1.00  0.00    -0.469 OA
ATOM     13  C   UNL A   1      31.275  24.168  23.205  1.00  0.00     0.282 C 
ENDBRANCH  10  12
ENDBRANCH   9  10
BRANCH   9  14
ATOM     14  C   UNL A   1      32.939  19.899  24.226  1.00  0.00     0.004 C 
ATOM     15  C   UNL A   1      32.411  19.420  22.861  1.00  0.00     0.004 C 
ATOM     16  C   UNL A   1      34.222  19.107  24.598  1.00  0.00     0.004 C 
ATOM     17  C   UNL A   1      32.286  17.901  22.751  1.00  0.00     0.000 C 
ATOM     18  C   UNL A   1      34.082  17.594  24.452  1.00  0.00     0.000 C 
ATOM     19  C   UNL A   1      33.601  17.209  23.062  1.00  0.00     0.000 C 
ENDBRANCH   9  14
ENDBRANCH   8   9
ENDBRANCH   5   8
ENDBRANCH   3   4
ENDBRANCH   2   3
ENDBRANCH   1   2
BRANCH   1  20
ATOM     20  C   UNL A   1      37.276  20.958  24.421  1.00  0.00     0.002 C 
BRANCH  20  21
ATOM     21  C   UNL A   1      38.202  19.788  24.784  1.00  0.00     0.021 C 
BRANCH  21  22
ATOM     22  C   UNL A   1      39.068  19.996  26.025  1.00  0.00     0.116 C 
BRANCH  22  23
ATOM     23  N   UNL A   1      40.233  19.128  26.031  1.00  0.00    -0.352 N 
ATOM     24  C   UNL A   1      41.571  19.420  26.115  1.00  0.00     0.251 C 
ATOM     25  H   UNL A   1      40.028  18.166  25.965  1.00  0.00     0.163 HD
ATOM     26  O   UNL A   1      42.394  18.539  25.872  1.00  0.00    -0.269 OA
BRANCH  24  27
ATOM     27  C   UNL A   1      42.050  20.774  26.480  1.00  0.00     0.039 A 
ATOM     28  C   UNL A   1      42.337  21.674  25.449  1.00  0.00     0.014 A 
ATOM     29  C   UNL A   1      42.294  21.143  27.806  1.00  0.00     0.014 A 
ATOM     30  C   UNL A   1      42.819  22.951  25.747  1.00  0.00     0.010 A 
ATOM     31  C   UNL A   1      42.711  22.444  28.107  1.00  0.00     0.010 A 
ATOM     32  C   UNL A   1      42.984  23.360  27.080  1.00  0.00    -0.014 A 
BRANCH  32  33
ATOM     33  C   UNL A   1      43.418  24.749  27.393  1.00  0.00     0.031 A 
ATOM     34  C   UNL A   1      42.426  25.798  27.816  1.00  0.00     0.074 A 
ATOM     35  C   UNL A   1      44.720  25.074  27.272  1.00  0.00     0.049 A 
ATOM     36  N   UNL A   1      42.635  27.048  28.151  1.00  0.00    -0.248 NA
ATOM     37  C   UNL A   1      41.011  25.399  27.848  1.00  0.00     0.031 C 
ATOM     38  C   UNL A   1      45.775  24.169  26.814  1.00  0.00     0.029 A 
ATOM     39  N   UNL A   1      45.379  26.253  27.521  1.00  0.00    -0.354 N 
ATOM     40  C   UNL A   1      41.382  27.584  28.425  1.00  0.00     0.074 A 
ATOM     41  C   UNL A   1      40.415  26.539  28.166  1.00  0.00     0.031 C 
ATOM     42  C   UNL A   1      46.951  24.813  26.847  1.00  0.00     0.029 A 
ATOM     43  C   UNL A   1      46.731  26.185  27.293  1.00  0.00     0.049 A 
ATOM     44  H   UNL A   1      44.925  27.069  27.835  1.00  0.00     0.167 HD
ATOM     45  C   UNL A   1      41.071  28.824  28.872  1.00  0.00     0.037 A 
ATOM     46  C   UNL A   1      47.690  27.122  27.428  1.00  0.00     0.037 A 
ATOM     47  C   UNL A   1      42.037  29.860  29.145  1.00  0.00     0.049 A 
ATOM     48  C   UNL A   1      47.318  28.489  27.933  1.00  0.00     0.074 A 
ATOM     49  C   UNL A   1      41.825  31.124  29.666  1.00  0.00     0.029 A 
ATOM     50  N   UNL A   1      43.400  29.753  28.907  1.00  0.00    -0.354 N 
ATOM     51  N   UNL A   1      46.141  28.955  28.272  1.00  0.00    -0.248 NA
ATOM     52  C   UNL A   1      48.414  29.455  28.087  1.00  0.00     0.031 C 
ATOM     53  C   UNL A   1      43.049  31.802  29.689  1.00  0.00     0.029 A 
ATOM     54  C   UNL A   1      44.035  30.939  29.241  1.00  0.00     0.049 A 
ATOM     55  H   UNL A   1      43.850  28.951  28.553  1.00  0.00     0.167 HD
ATOM     56  C   UNL A   1      46.356  30.259  28.698  1.00  0.00     0.074 A 
ATOM     57  C   UNL A   1      47.780  30.500  28.600  1.00  0.00     0.031 C 
ATOM     58  C   UNL A   1      45.453  31.175  29.129  1.00  0.00     0.037 A 
BRANCH  45  59
ATOM     59  C   UNL A   1      39.618  29.139  29.096  1.00  0.00     0.064 A 
ATOM     60  C   UNL A   1      39.036  29.078  30.371  1.00  0.00     0.173 A 
ATOM     61  C   UNL A   1      38.804  29.546  28.026  1.00  0.00     0.173 A 
ATOM     62  F   UNL A   1      39.764  28.688  31.428  1.00  0.00    -0.203 F 
ATOM     63  C   UNL A   1      37.690  29.380  30.563  1.00  0.00     0.198 A 
ATOM     64  C   UNL A   1      37.467  29.879  28.227  1.00  0.00     0.198 A 
ATOM     65  F   UNL A   1      39.310  29.631  26.787  1.00  0.00    -0.203 F 
ATOM     66  F   UNL A   1      37.144  29.263  31.782  1.00  0.00    -0.200 F 
ATOM     67  C   UNL A   1      36.908  29.788  29.491  1.00  0.00     0.200 A 
ATOM     68  F   UNL A   1      36.718  30.288  27.193  1.00  0.00    -0.200 F 
ATOM     69  F   UNL A   1      35.615  30.085  29.679  1.00  0.00    -0.200 F 
ENDBRANCH  45  59
BRANCH  46  70
ATOM     70  C   UNL A   1      49.101  26.786  27.103  1.00  0.00     0.064 A 
ATOM     71  C   UNL A   1      49.588  26.905  25.793  1.00  0.00     0.173 A 
ATOM     72  C   UNL A   1      49.991  26.343  28.092  1.00  0.00     0.173 A 
ATOM     73  F   UNL A   1      48.771  27.304  24.808  1.00  0.00    -0.203 F 
ATOM     74  C   UNL A   1      50.906  26.573  25.482  1.00  0.00     0.198 A 
ATOM     75  C   UNL A   1      51.316  26.042  27.786  1.00  0.00     0.198 A 
ATOM     76  F   UNL A   1      49.576  26.219  29.361  1.00  0.00    -0.203 F 
ATOM     77  F   UNL A   1      51.333  26.650  24.215  1.00  0.00    -0.200 F 
ATOM     78  C   UNL A   1      51.770  26.149  26.480  1.00  0.00     0.200 A 
ATOM     79  F   UNL A   1      52.152  25.649  28.756  1.00  0.00    -0.200 F 
ATOM     80  F   UNL A   1      53.039  25.838  26.183  1.00  0.00    -0.200 F 
ENDBRANCH  46  70
BRANCH  58  81
ATOM     81  C   UNL A   1      45.987  32.518  29.543  1.00  0.00     0.064 A 
ATOM     82  C   UNL A   1      46.403  32.772  30.859  1.00  0.00     0.173 A 
ATOM     83  C   UNL A   1      46.093  33.561  28.610  1.00  0.00     0.173 A 
ATOM     84  F   UNL A   1      46.309  31.814  31.794  1.00  0.00    -0.203 F 
ATOM     85  C   UNL A   1      46.864  34.032  31.234  1.00  0.00     0.198 A 
ATOM     86  C   UNL A   1      46.589  34.809  28.981  1.00  0.00     0.198 A 
ATOM     87  F   UNL A   1      45.718  33.371  27.336  1.00  0.00    -0.203 F 
ATOM     88  F   UNL A   1      47.193  34.269  32.511  1.00  0.00    -0.200 F 
ATOM     89  C   UNL A   1      46.963  35.047  30.294  1.00  0.00     0.200 A 
ATOM     90  F   UNL A   1      46.697  35.783  28.067  1.00  0.00    -0.200 F 
ATOM     91  F   UNL A   1      47.406  36.257  30.657  1.00  0.00    -0.200 F 
ENDBRANCH  58  81
ENDBRANCH  32  33
ENDBRANCH  24  27
ENDBRANCH  22  23
ENDBRANCH  21  22
ENDBRANCH  20  21
ENDBRANCH   1  20
TORSDOF 17
ENDMDL
MODEL 2
REMARK VINA RESULT:     -10.5      1.729      7.846
REMARK SMILES COC(=O)[C@@H](CC(=O)NCCCCCCNC(=O)c1ccc(-c2c3nc(c(-c4c(F)c(F)c(F)c(F)c4F)c4ccc([nH]4)c(-c4c(F)c(F)c(F)c(F)c4F)c4nc(c(-c5c(F)c(F)c(F)c(F)c5F)c5ccc2[nH]5)C=C4)C=C3)cc1)C1CCCCC1
REMARK SMILES IDX 12 1 11 2 10 3 9 4 7 5 8 6 6 8 5 9 3 10 4 11 2 12 1 13 82 14
REMARK SMILES IDX 83 15 87 16 84 17 86 18 85 19 13 20 14 21 15 22 16 23 17 24
REMARK SMILES IDX 18 26 19 27 20 28 81 29 21 30 80 31 22 32 23 33 24 34 74 35
REMARK SMILES IDX 25 36 79 37 73 38 75 39 26 40 78 41 72 42 71 43 27 45 59 46
REMARK SMILES IDX 39 47 58 48 40 49 43 50 57 51 76 52 41 53 42 54 56 56 77 57
REMARK SMILES IDX 44 58 28 59 29 60 37 61 30 62 31 63 35 64 38 65 32 66 33 67
REMARK SMILES IDX 36 68 34 69 60 70 61 71 69 72 62 73 63 74 67 75 70 76 64 77
REMARK SMILES IDX 65 78 68 79 66 80 45 81 46 82 54 83 47 84 48 85 52 86 55 87
REMARK SMILES IDX 49 88 50 89 53 90 51 91
REMARK H PARENT 9 7 16 25 75 44 43 55
REMARK Flexibility Score: inf
ROOT
ATOM      1  C   UNL A   1      40.002  21.088  26.173  1.00  0.00     0.002 C 
ENDROOT
BRANCH   1   2
ATOM      2  C   UNL A   1      39.777  22.585  26.383  1.00  0.00     0.021 C 
BRANCH   2   3
ATOM      3  C   UNL A   1      38.312  23.024  26.364  1.00  0.00     0.116 C 
BRANCH   3   4
ATOM      4  N   UNL A   1      37.818  23.092  25.003  1.00  0.00    -0.356 N 
ATOM      5  C   UNL A   1      36.993  22.246  24.330  1.00  0.00     0.220 C 
ATOM      6  O   UNL A   1      36.755  22.489  23.145  1.00  0.00    -0.275 OA
ATOM      7  H   UNL A   1      38.128  23.872  24.487  1.00  0.00     0.163 HD
BRANCH   5   8
ATOM      8  C   UNL A   1      36.369  21.043  25.016  1.00  0.00     0.115 C 
BRANCH   8   9
ATOM      9  C   UNL A   1      34.845  21.119  25.302  1.00  0.00     0.111 C 
BRANCH   9  10
ATOM     10  C   UNL A   1      34.612  21.952  26.565  1.00  0.00     0.309 C 
ATOM     11  O   UNL A   1      34.246  21.454  27.623  1.00  0.00    -0.252 OA
BRANCH  10  12
ATOM     12  O   UNL A   1      34.888  23.265  26.418  1.00  0.00    -0.469 OA
ATOM     13  C   UNL A   1      33.976  24.070  25.664  1.00  0.00     0.282 C 
ENDBRANCH  10  12
ENDBRANCH   9  10
BRANCH   9  14
ATOM     14  C   UNL A   1      34.095  19.767  25.013  1.00  0.00     0.004 C 
ATOM     15  C   UNL A   1      32.953  19.816  23.979  1.00  0.00     0.004 C 
ATOM     16  C   UNL A   1      35.149  18.713  24.578  1.00  0.00     0.004 C 
ATOM     17  C   UNL A   1      32.385  18.442  23.630  1.00  0.00     0.000 C 
ATOM     18  C   UNL A   1      34.555  17.358  24.205  1.00  0.00     0.000 C 
ATOM     19  C   UNL A   1      33.470  17.495  23.148  1.00  0.00     0.000 C 
ENDBRANCH   9  14
ENDBRANCH   8   9
ENDBRANCH   5   8
ENDBRANCH   3   4
ENDBRANCH   2   3
ENDBRANCH   1   2
BRANCH   1  20
ATOM     20  C   UNL A   1      41.441  20.619  26.419  1.00  0.00     0.002 C 
BRANCH  20  21
ATOM     21  C   UNL A   1      41.827  19.275  25.783  1.00  0.00     0.021 C 
BRANCH  21  22
ATOM     22  C   UNL A   1      43.214  18.749  26.150  1.00  0.00     0.116 C 
BRANCH  22  23
ATOM     23  N   UNL A   1      44.070  18.603  24.985  1.00  0.00    -0.352 N 
ATOM     24  C   UNL A   1      44.734  19.539  24.235  1.00  0.00     0.251 C 
ATOM     25  H   UNL A   1      44.195  17.673  24.683  1.00  0.00     0.163 HD
ATOM     26  O   UNL A   1      45.218  19.209  23.154  1.00  0.00    -0.269 OA
BRANCH  24  27
ATOM     27  C   UNL A   1      44.874  20.943  24.690  1.00  0.00     0.039 A 
ATOM     28  C   UNL A   1      45.298  21.173  26.003  1.00  0.00     0.014 A 
ATOM     29  C   UNL A   1      44.523  22.026  23.879  1.00  0.00     0.014 A 
ATOM     30  C   UNL A   1      45.415  22.480  26.484  1.00  0.00     0.010 A 
ATOM     31  C   UNL A   1      44.707  23.334  24.337  1.00  0.00     0.010 A 
ATOM     32  C   UNL A   1      45.148  23.575  25.647  1.00  0.00    -0.014 A 
BRANCH  32  33
ATOM     33  C   UNL A   1      45.355  24.965  26.138  1.00  0.00     0.031 A 
ATOM     34  C   UNL A   1      46.709  25.619  26.077  1.00  0.00     0.074 A 
ATOM     35  C   UNL A   1      44.314  25.638  26.667  1.00  0.00     0.049 A 
ATOM     36  N   UNL A   1      47.060  26.830  26.437  1.00  0.00    -0.248 NA
ATOM     37  C   UNL A   1      47.818  24.801  25.566  1.00  0.00     0.031 C 
ATOM     38  C   UNL A   1      42.964  25.099  26.839  1.00  0.00     0.029 A 
ATOM     39  N   UNL A   1      44.227  26.917  27.158  1.00  0.00    -0.354 N 
ATOM     40  C   UNL A   1      48.427  26.915  26.202  1.00  0.00     0.074 A 
ATOM     41  C   UNL A   1      48.851  25.618  25.721  1.00  0.00     0.031 C 
ATOM     42  C   UNL A   1      42.176  26.049  27.365  1.00  0.00     0.029 A 
ATOM     43  C   UNL A   1      42.970  27.252  27.599  1.00  0.00     0.049 A 
ATOM     44  H   UNL A   1      44.992  27.536  27.190  1.00  0.00     0.167 HD
ATOM     45  C   UNL A   1      49.248  27.983  26.354  1.00  0.00     0.037 A 
ATOM     46  C   UNL A   1      42.506  28.398  28.133  1.00  0.00     0.037 A 
ATOM     47  C   UNL A   1      48.822  29.279  26.820  1.00  0.00     0.049 A 
ATOM     48  C   UNL A   1      43.436  29.569  28.284  1.00  0.00     0.074 A 
ATOM     49  C   UNL A   1      49.565  30.441  26.940  1.00  0.00     0.029 A 
ATOM     50  N   UNL A   1      47.539  29.583  27.252  1.00  0.00    -0.354 N 
ATOM     51  N   UNL A   1      44.706  29.664  27.976  1.00  0.00    -0.248 NA
ATOM     52  C   UNL A   1      42.860  30.800  28.845  1.00  0.00     0.031 C 
ATOM     53  C   UNL A   1      48.747  31.430  27.500  1.00  0.00     0.029 A 
ATOM     54  C   UNL A   1      47.478  30.904  27.670  1.00  0.00     0.049 A 
ATOM     55  H   UNL A   1      46.783  28.952  27.262  1.00  0.00     0.167 HD
ATOM     56  C   UNL A   1      45.078  30.966  28.285  1.00  0.00     0.074 A 
ATOM     57  C   UNL A   1      43.891  31.632  28.779  1.00  0.00     0.031 C 
ATOM     58  C   UNL A   1      46.294  31.555  28.172  1.00  0.00     0.037 A 
BRANCH  45  59
ATOM     59  C   UNL A   1      50.701  27.798  26.014  1.00  0.00     0.064 A 
ATOM     60  C   UNL A   1      51.176  27.933  24.701  1.00  0.00     0.173 A 
ATOM     61  C   UNL A   1      51.639  27.520  27.022  1.00  0.00     0.173 A 
ATOM     62  F   UNL A   1      50.324  28.190  23.697  1.00  0.00    -0.203 F 
ATOM     63  C   UNL A   1      52.527  27.765  24.404  1.00  0.00     0.198 A 
ATOM     64  C   UNL A   1      52.993  27.386  26.727  1.00  0.00     0.198 A 
ATOM     65  F   UNL A   1      51.242  27.389  28.297  1.00  0.00    -0.203 F 
ATOM     66  F   UNL A   1      52.949  27.847  23.135  1.00  0.00    -0.200 F 
ATOM     67  C   UNL A   1      53.435  27.499  25.419  1.00  0.00     0.200 A 
ATOM     68  F   UNL A   1      53.870  27.145  27.711  1.00  0.00    -0.200 F 
ATOM     69  F   UNL A   1      54.735  27.346  25.133  1.00  0.00    -0.200 F 
ENDBRANCH  45  59
BRANCH  46  70
ATOM     70  C   UNL A   1      41.079  28.498  28.541  1.00  0.00     0.064 A 
ATOM     71  C   UNL A   1      40.666  28.113  29.824  1.00  0.00     0.173 A 
ATOM     72  C   UNL A   1      40.103  28.982  27.659  1.00  0.00     0.173 A 
ATOM     73  F   UNL A   1      41.559  27.624  30.697  1.00  0.00    -0.203 F 
ATOM     74  C   UNL A   1      39.327  28.189  30.202  1.00  0.00     0.198 A 
ATOM     75  C   UNL A   1      38.770  29.087  28.047  1.00  0.00     0.198 A 
ATOM     76  F   UNL A   1      40.448  29.369  26.422  1.00  0.00    -0.203 F 
ATOM     77  F   UNL A   1      38.951  27.770  31.418  1.00  0.00    -0.200 F 
ATOM     78  C   UNL A   1      38.381  28.682  29.316  1.00  0.00     0.200 A 
ATOM     79  F   UNL A   1      37.861  29.580  27.194  1.00  0.00    -0.200 F 
ATOM     80  F   UNL A   1      37.095  28.762  29.682  1.00  0.00    -0.200 F 
ENDBRANCH  46  70
BRANCH  58  81
ATOM     81  C   UNL A   1      46.393  33.000  28.576  1.00  0.00     0.064 A 
ATOM     82  C   UNL A   1      46.733  33.379  29.883  1.00  0.00     0.173 A 
ATOM     83  C   UNL A   1      46.155  34.018  27.640  1.00  0.00     0.173 A 
ATOM     84  F   UNL A   1      46.957  32.445  30.821  1.00  0.00    -0.203 F 
ATOM     85  C   UNL A   1      46.788  34.722  30.250  1.00  0.00     0.198 A 
ATOM     86  C   UNL A   1      46.246  35.361  28.001  1.00  0.00     0.198 A 
ATOM     87  F   UNL A   1      45.835  33.714  26.373  1.00  0.00    -0.203 F 
ATOM     88  F   UNL A   1      47.049  35.058  31.520  1.00  0.00    -0.200 F 
ATOM     89  C   UNL A   1      46.551  35.712  29.307  1.00  0.00     0.200 A 
ATOM     90  F   UNL A   1      46.031  36.315  27.084  1.00  0.00    -0.200 F 
ATOM     91  F   UNL A   1      46.604  37.002  29.661  1.00  0.00    -0.200 F 
ENDBRANCH  58  81
ENDBRANCH  32  33
ENDBRANCH  24  27
ENDBRANCH  22  23
ENDBRANCH  21  22
ENDBRANCH  20  21
ENDBRANCH   1  20
TORSDOF 17
ENDMDL
MODEL 3
REMARK VINA RESULT:     -10.4      6.184     10.677
REMARK SMILES COC(=O)[C@@H](CC(=O)NCCCCCCNC(=O)c1ccc(-c2c3nc(c(-c4c(F)c(F)c(F)c(F)c4F)c4ccc([nH]4)c(-c4c(F)c(F)c(F)c(F)c4F)c4nc(c(-c5c(F)c(F)c(F)c(F)c5F)c5ccc2[nH]5)C=C4)C=C3)cc1)C1CCCCC1
REMARK SMILES IDX 12 1 11 2 10 3 9 4 7 5 8 6 6 8 5 9 3 10 4 11 2 12 1 13 82 14
REMARK SMILES IDX 83 15 87 16 84 17 86 18 85 19 13 20 14 21 15 22 16 23 17 24
REMARK SMILES IDX 18 26 19 27 20 28 81 29 21 30 80 31 22 32 23 33 24 34 74 35
REMARK SMILES IDX 25 36 79 37 73 38 75 39 26 40 78 41 72 42 71 43 27 45 59 46
REMARK SMILES IDX 39 47 58 48 40 49 43 50 57 51 76 52 41 53 42 54 56 56 77 57
REMARK SMILES IDX 44 58 28 59 29 60 37 61 30 62 31 63 35 64 38 65 32 66 33 67
REMARK SMILES IDX 36 68 34 69 60 70 61 71 69 72 62 73 63 74 67 75 70 76 64 77
REMARK SMILES IDX 65 78 68 79 66 80 45 81 46 82 54 83 47 84 48 85 52 86 55 87
REMARK SMILES IDX 49 88 50 89 53 90 51 91
REMARK H PARENT 9 7 16 25 75 44 43 55
REMARK Flexibility Score: inf
ROOT
ATOM      1  C   UNL A   1      34.360  32.206  28.622  1.00  0.00     0.002 C 
ENDROOT
BRANCH   1   2
ATOM      2  C   UNL A   1      35.441  31.413  27.889  1.00  0.00     0.021 C 
BRANCH   2   3
ATOM      3  C   UNL A   1      35.049  29.983  27.518  1.00  0.00     0.116 C 
BRANCH   3   4
ATOM      4  N   UNL A   1      34.335  29.960  26.257  1.00  0.00    -0.356 N 
ATOM      5  C   UNL A   1      33.638  28.953  25.666  1.00  0.00     0.220 C 
ATOM      6  O   UNL A   1      33.156  29.158  24.550  1.00  0.00    -0.275 OA
ATOM      7  H   UNL A   1      34.359  30.804  25.750  1.00  0.00     0.163 HD
BRANCH   5   8
ATOM      8  C   UNL A   1      33.442  27.617  26.362  1.00  0.00     0.115 C 
BRANCH   8   9
ATOM      9  C   UNL A   1      32.520  26.590  25.651  1.00  0.00     0.111 C 
BRANCH   9  10
ATOM     10  C   UNL A   1      31.094  26.741  26.186  1.00  0.00     0.309 C 
ATOM     11  O   UNL A   1      30.857  27.122  27.326  1.00  0.00    -0.252 OA
BRANCH  10  12
ATOM     12  O   UNL A   1      30.132  26.462  25.281  1.00  0.00    -0.469 OA
ATOM     13  C   UNL A   1      30.257  27.016  23.967  1.00  0.00     0.282 C 
ENDBRANCH  10  12
ENDBRANCH   9  10
BRANCH   9  14
ATOM     14  C   UNL A   1      33.210  25.196  25.422  1.00  0.00     0.004 C 
ATOM     15  C   UNL A   1      34.750  25.185  25.366  1.00  0.00     0.004 C 
ATOM     16  C   UNL A   1      32.720  24.226  26.532  1.00  0.00     0.004 C 
ATOM     17  C   UNL A   1      35.350  23.782  25.309  1.00  0.00     0.000 C 
ATOM     18  C   UNL A   1      33.356  22.841  26.472  1.00  0.00     0.000 C 
ATOM     19  C   UNL A   1      34.875  22.924  26.467  1.00  0.00     0.000 C 
ENDBRANCH   9  14
ENDBRANCH   8   9
ENDBRANCH   5   8
ENDBRANCH   3   4
ENDBRANCH   2   3
ENDBRANCH   1   2
BRANCH   1  20
ATOM     20  C   UNL A   1      34.442  33.725  28.430  1.00  0.00     0.002 C 
BRANCH  20  21
ATOM     21  C   UNL A   1      33.129  34.498  28.617  1.00  0.00     0.021 C 
BRANCH  21  22
ATOM     22  C   UNL A   1      33.271  35.910  29.184  1.00  0.00     0.116 C 
BRANCH  22  23
ATOM     23  N   UNL A   1      32.540  36.076  30.429  1.00  0.00    -0.352 N 
ATOM     24  C   UNL A   1      32.725  35.507  31.663  1.00  0.00     0.251 C 
ATOM     25  H   UNL A   1      31.783  36.705  30.378  1.00  0.00     0.163 HD
ATOM     26  O   UNL A   1      31.845  35.620  32.514  1.00  0.00    -0.269 OA
BRANCH  24  27
ATOM     27  C   UNL A   1      33.955  34.749  31.992  1.00  0.00     0.039 A 
ATOM     28  C   UNL A   1      35.177  35.429  31.967  1.00  0.00     0.014 A 
ATOM     29  C   UNL A   1      33.936  33.374  32.246  1.00  0.00     0.014 A 
ATOM     30  C   UNL A   1      36.366  34.747  32.242  1.00  0.00     0.010 A 
ATOM     31  C   UNL A   1      35.116  32.707  32.589  1.00  0.00     0.010 A 
ATOM     32  C   UNL A   1      36.345  33.385  32.584  1.00  0.00    -0.014 A 
BRANCH  32  33
ATOM     33  C   UNL A   1      37.604  32.684  32.957  1.00  0.00     0.031 A 
ATOM     34  C   UNL A   1      38.308  32.985  34.252  1.00  0.00     0.074 A 
ATOM     35  C   UNL A   1      38.131  31.781  32.107  1.00  0.00     0.049 A 
ATOM     36  N   UNL A   1      39.398  32.449  34.745  1.00  0.00    -0.248 NA
ATOM     37  C   UNL A   1      37.725  34.039  35.095  1.00  0.00     0.031 C 
ATOM     38  C   UNL A   1      37.580  31.439  30.794  1.00  0.00     0.029 A 
ATOM     39  N   UNL A   1      39.245  30.986  32.217  1.00  0.00    -0.354 N 
ATOM     40  C   UNL A   1      39.634  33.105  35.948  1.00  0.00     0.074 A 
ATOM     41  C   UNL A   1      38.605  34.113  36.083  1.00  0.00     0.031 C 
ATOM     42  C   UNL A   1      38.339  30.484  30.235  1.00  0.00     0.029 A 
ATOM     43  C   UNL A   1      39.447  30.169  31.132  1.00  0.00     0.049 A 
ATOM     44  H   UNL A   1      39.843  31.001  32.999  1.00  0.00     0.167 HD
ATOM     45  C   UNL A   1      40.606  32.872  36.863  1.00  0.00     0.037 A 
ATOM     46  C   UNL A   1      40.414  29.265  30.884  1.00  0.00     0.037 A 
ATOM     47  C   UNL A   1      41.623  31.857  36.733  1.00  0.00     0.049 A 
ATOM     48  C   UNL A   1      41.476  29.021  31.920  1.00  0.00     0.074 A 
ATOM     49  C   UNL A   1      42.607  31.500  37.639  1.00  0.00     0.029 A 
ATOM     50  N   UNL A   1      41.792  31.043  35.622  1.00  0.00    -0.354 N 
ATOM     51  N   UNL A   1      41.637  29.586  33.091  1.00  0.00    -0.248 NA
ATOM     52  C   UNL A   1      42.485  28.001  31.602  1.00  0.00     0.031 C 
ATOM     53  C   UNL A   1      43.406  30.511  37.053  1.00  0.00     0.029 A 
ATOM     54  C   UNL A   1      42.882  30.208  35.807  1.00  0.00     0.049 A 
ATOM     55  H   UNL A   1      41.220  31.058  34.820  1.00  0.00     0.167 HD
ATOM     56  C   UNL A   1      42.749  28.978  33.658  1.00  0.00     0.074 A 
ATOM     57  C   UNL A   1      43.207  27.982  32.714  1.00  0.00     0.031 C 
ATOM     58  C   UNL A   1      43.339  29.226  34.855  1.00  0.00     0.037 A 
BRANCH  45  59
ATOM     59  C   UNL A   1      40.624  33.735  38.094  1.00  0.00     0.064 A 
ATOM     60  C   UNL A   1      41.467  34.851  38.203  1.00  0.00     0.173 A 
ATOM     61  C   UNL A   1      39.756  33.467  39.165  1.00  0.00     0.173 A 
ATOM     62  F   UNL A   1      42.323  35.150  37.214  1.00  0.00    -0.203 F 
ATOM     63  C   UNL A   1      41.466  35.645  39.347  1.00  0.00     0.198 A 
ATOM     64  C   UNL A   1      39.733  34.282  40.294  1.00  0.00     0.198 A 
ATOM     65  F   UNL A   1      38.920  32.418  39.111  1.00  0.00    -0.203 F 
ATOM     66  F   UNL A   1      42.319  36.674  39.449  1.00  0.00    -0.200 F 
ATOM     67  C   UNL A   1      40.593  35.363  40.389  1.00  0.00     0.200 A 
ATOM     68  F   UNL A   1      38.878  34.018  41.292  1.00  0.00    -0.200 F 
ATOM     69  F   UNL A   1      40.588  36.133  41.486  1.00  0.00    -0.200 F 
ENDBRANCH  45  59
BRANCH  46  70
ATOM     70  C   UNL A   1      40.404  28.504  29.607  1.00  0.00     0.064 A 
ATOM     71  C   UNL A   1      39.659  27.323  29.476  1.00  0.00     0.173 A 
ATOM     72  C   UNL A   1      41.134  28.942  28.493  1.00  0.00     0.173 A 
ATOM     73  F   UNL A   1      38.961  26.852  30.519  1.00  0.00    -0.203 F 
ATOM     74  C   UNL A   1      39.662  26.599  28.285  1.00  0.00     0.198 A 
ATOM     75  C   UNL A   1      41.112  28.234  27.294  1.00  0.00     0.198 A 
ATOM     76  F   UNL A   1      41.857  30.069  28.565  1.00  0.00    -0.203 F 
ATOM     77  F   UNL A   1      38.980  25.449  28.201  1.00  0.00    -0.200 F 
ATOM     78  C   UNL A   1      40.383  27.058  27.193  1.00  0.00     0.200 A 
ATOM     79  F   UNL A   1      41.796  28.690  26.235  1.00  0.00    -0.200 F 
ATOM     80  F   UNL A   1      40.380  26.366  26.046  1.00  0.00    -0.200 F 
ENDBRANCH  46  70
BRANCH  58  81
ATOM     81  C   UNL A   1      44.536  28.390  35.212  1.00  0.00     0.064 A 
ATOM     82  C   UNL A   1      45.841  28.797  34.897  1.00  0.00     0.173 A 
ATOM     83  C   UNL A   1      44.376  27.170  35.887  1.00  0.00     0.173 A 
ATOM     84  F   UNL A   1      46.049  29.949  34.239  1.00  0.00    -0.203 F 
ATOM     85  C   UNL A   1      46.938  27.996  35.205  1.00  0.00     0.198 A 
ATOM     86  C   UNL A   1      45.478  26.388  36.227  1.00  0.00     0.198 A 
ATOM     87  F   UNL A   1      43.152  26.736  36.221  1.00  0.00    -0.203 F 
ATOM     88  F   UNL A   1      48.168  28.375  34.835  1.00  0.00    -0.200 F 
ATOM     89  C   UNL A   1      46.756  26.794  35.875  1.00  0.00     0.200 A 
ATOM     90  F   UNL A   1      45.300  25.235  36.886  1.00  0.00    -0.200 F 
ATOM     91  F   UNL A   1      47.811  26.024  36.171  1.00  0.00    -0.200 F 
ENDBRANCH  58  81
ENDBRANCH  32  33
ENDBRANCH  24  27
ENDBRANCH  22  23
ENDBRANCH  21  22
ENDBRANCH  20  21
ENDBRANCH   1  20
TORSDOF 17
ENDMDL
