MODEL 1
REMARK VINA RESULT:     -11.5      0.000      0.000
REMARK SMILES [NH3+][C@](CCC[P@TB4](=O)([O-])[O-])(Cc1ccccc1)C(=O)NCCCCCCNC(=O)c1ccc(-c2c3nc(c(-c4c(F)c(F)c(F)c(F)c4F)c4ccc([nH]4)c(-c4c(F)c(F)c(F)c(F)c4F)c4nc(c(-c5c(F)c(F)c(F)c(F)c5F)c5ccc2[nH]5)C=C4)C=C3)cc1
REMARK SMILES IDX 21 1 20 2 19 3 17 4 18 5 2 7 1 8 10 12 11 13 12 14 16 15
REMARK SMILES IDX 13 16 15 17 14 18 3 19 4 20 5 21 6 22 7 23 8 24 9 25 22 26
REMARK SMILES IDX 23 27 24 28 25 29 26 30 27 31 28 33 29 34 30 35 91 36 31 37
REMARK SMILES IDX 90 38 32 39 33 40 34 41 84 42 35 43 89 44 83 45 85 46 36 47
REMARK SMILES IDX 88 48 82 49 81 50 37 52 69 53 49 54 68 55 50 56 53 57 67 58
REMARK SMILES IDX 86 59 51 60 52 61 66 63 87 64 54 65 38 66 39 67 47 68 40 69
REMARK SMILES IDX 41 70 45 71 48 72 42 73 43 74 46 75 44 76 70 77 71 78 79 79
REMARK SMILES IDX 72 80 73 81 77 82 80 83 74 84 75 85 78 86 76 87 55 88 56 89
REMARK SMILES IDX 64 90 57 91 58 92 62 93 65 94 59 95 60 96 63 97 61 98
REMARK H PARENT 19 6 1 9 1 10 1 11 26 32 85 51 53 62
REMARK Flexibility Score: inf
ROOT
ATOM      1  C   UNL A   1      33.691  29.585  26.680  1.00  0.00       nan C 
ENDROOT
BRANCH   1   2
ATOM      2  C   UNL A   1      33.912  28.440  25.698  1.00  0.00       nan C 
BRANCH   2   3
ATOM      3  N   UNL A   1      33.762  28.944  24.356  1.00  0.00       nan N 
ATOM      4  C   UNL A   1      33.544  28.180  23.254  1.00  0.00       nan C 
ATOM      5  O   UNL A   1      34.161  28.498  22.233  1.00  0.00       nan OA
ATOM      6  H   UNL A   1      33.822  29.918  24.228  1.00  0.00       nan HD
BRANCH   4   7
ATOM      7  C   UNL A   1      32.468  27.060  23.263  1.00  0.00       nan C 
BRANCH   7   8
ATOM      8  N   UNL A   1      31.877  26.864  21.906  1.00  0.00       nan N 
ATOM      9  H   UNL A   1      30.958  27.305  21.869  1.00  0.00       nan HD
ATOM     10  H   UNL A   1      31.784  25.867  21.715  1.00  0.00       nan HD
ATOM     11  H   UNL A   1      32.485  27.290  21.205  1.00  0.00       nan HD
ENDBRANCH   7   8
BRANCH   7  12
ATOM     12  C   UNL A   1      31.331  27.441  24.247  1.00  0.00       nan C 
BRANCH  12  13
ATOM     13  C   UNL A   1      30.159  28.187  23.642  1.00  0.00       nan A 
ATOM     14  C   UNL A   1      28.910  27.569  23.509  1.00  0.00       nan A 
ATOM     15  C   UNL A   1      30.288  29.528  23.249  1.00  0.00       nan A 
ATOM     16  C   UNL A   1      27.815  28.286  23.019  1.00  0.00       nan A 
ATOM     17  C   UNL A   1      29.192  30.248  22.777  1.00  0.00       nan A 
ATOM     18  C   UNL A   1      27.954  29.626  22.662  1.00  0.00       nan A 
ENDBRANCH  12  13
ENDBRANCH   7  12
BRANCH   7  19
ATOM     19  C   UNL A   1      33.164  25.728  23.645  1.00  0.00       nan C 
BRANCH  19  20
ATOM     20  C   UNL A   1      32.209  24.582  24.018  1.00  0.00       nan C 
BRANCH  20  21
ATOM     21  C   UNL A   1      32.493  23.911  25.370  1.00  0.00       nan C 
BRANCH  21  22
ATOM     22  P   UNL A   1      31.015  23.688  26.424  1.00  0.00       nan P 
ATOM     23  O   UNL A   1      31.836  23.002  27.522  1.00  0.00       nan OA
ATOM     24  O   UNL A   1      31.055  25.265  26.871  1.00  0.00       nan OA
ATOM     25  O   UNL A   1      29.617  23.478  27.420  1.00  0.00       nan OA
ENDBRANCH  21  22
ENDBRANCH  20  21
ENDBRANCH  19  20
ENDBRANCH   7  19
ENDBRANCH   4   7
ENDBRANCH   2   3
ENDBRANCH   1   2
BRANCH   1  26
ATOM     26  C   UNL A   1      32.211  29.851  26.992  1.00  0.00       nan C 
BRANCH  26  27
ATOM     27  C   UNL A   1      31.580  30.956  26.140  1.00  0.00       nan C 
BRANCH  27  28
ATOM     28  C   UNL A   1      31.385  32.279  26.882  1.00  0.00       nan C 
BRANCH  28  29
ATOM     29  C   UNL A   1      32.688  32.981  27.230  1.00  0.00       inf C 
BRANCH  29  30
ATOM     30  N   UNL A   1      32.461  34.348  27.660  1.00  0.00    -0.352 N 
ATOM     31  C   UNL A   1      33.047  35.008  28.705  1.00  0.00     0.251 C 
ATOM     32  H   UNL A   1      31.805  34.863  27.134  1.00  0.00     0.163 HD
ATOM     33  O   UNL A   1      32.606  36.085  29.098  1.00  0.00    -0.269 OA
BRANCH  31  34
ATOM     34  C   UNL A   1      34.206  34.389  29.375  1.00  0.00     0.039 A 
ATOM     35  C   UNL A   1      33.985  33.539  30.457  1.00  0.00     0.014 A 
ATOM     36  C   UNL A   1      35.503  34.623  28.905  1.00  0.00     0.014 A 
ATOM     37  C   UNL A   1      35.067  32.887  31.048  1.00  0.00     0.010 A 
ATOM     38  C   UNL A   1      36.569  33.909  29.440  1.00  0.00     0.010 A 
ATOM     39  C   UNL A   1      36.363  33.044  30.526  1.00  0.00    -0.014 A 
BRANCH  39  40
ATOM     40  C   UNL A   1      37.516  32.323  31.117  1.00  0.00     0.031 A 
ATOM     41  C   UNL A   1      38.020  32.701  32.482  1.00  0.00     0.074 A 
ATOM     42  C   UNL A   1      38.135  31.361  30.407  1.00  0.00     0.049 A 
ATOM     43  N   UNL A   1      39.038  32.220  33.150  1.00  0.00    -0.248 NA
ATOM     44  C   UNL A   1      37.304  33.783  33.177  1.00  0.00     0.031 C 
ATOM     45  C   UNL A   1      37.765  30.939  29.054  1.00  0.00     0.029 A 
ATOM     46  N   UNL A   1      39.210  30.567  30.720  1.00  0.00    -0.354 N 
ATOM     47  C   UNL A   1      39.086  32.944  34.335  1.00  0.00     0.074 A 
ATOM     48  C   UNL A   1      38.038  33.938  34.268  1.00  0.00     0.031 C 
ATOM     49  C   UNL A   1      38.581  29.946  28.666  1.00  0.00     0.029 A 
ATOM     50  C   UNL A   1      39.556  29.690  29.721  1.00  0.00     0.049 A 
ATOM     51  H   UNL A   1      39.687  30.621  31.579  1.00  0.00     0.167 HD
ATOM     52  C   UNL A   1      39.915  32.776  35.393  1.00  0.00     0.037 A 
ATOM     53  C   UNL A   1      40.555  28.789  29.662  1.00  0.00     0.037 A 
ATOM     54  C   UNL A   1      40.945  31.773  35.460  1.00  0.00     0.049 A 
ATOM     55  C   UNL A   1      41.472  28.637  30.845  1.00  0.00     0.074 A 
ATOM     56  C   UNL A   1      41.799  31.484  36.508  1.00  0.00     0.029 A 
ATOM     57  N   UNL A   1      41.262  30.897  34.431  1.00  0.00    -0.354 N 
ATOM     58  N   UNL A   1      41.463  29.276  31.990  1.00  0.00    -0.248 NA
ATOM     59  C   UNL A   1      42.537  27.631  30.730  1.00  0.00     0.031 C 
ATOM     60  C   UNL A   1      42.674  30.474  36.093  1.00  0.00     0.029 A 
ATOM     61  C   UNL A   1      42.321  30.087  34.810  1.00  0.00     0.049 A 
ATOM     62  H   UNL A   1      40.803  30.858  33.561  1.00  0.00     0.167 HD
ATOM     63  C   UNL A   1      42.495  28.729  32.741  1.00  0.00     0.074 A 
ATOM     64  C   UNL A   1      43.099  27.694  31.928  1.00  0.00     0.031 C 
ATOM     65  C   UNL A   1      42.906  29.055  33.992  1.00  0.00     0.037 A 
BRANCH  52  66
ATOM     66  C   UNL A   1      39.743  33.700  36.566  1.00  0.00     0.064 A 
ATOM     67  C   UNL A   1      40.382  34.949  36.621  1.00  0.00     0.173 A 
ATOM     68  C   UNL A   1      38.897  33.351  37.629  1.00  0.00     0.173 A 
ATOM     69  F   UNL A   1      41.211  35.328  35.636  1.00  0.00    -0.203 F 
ATOM     70  C   UNL A   1      40.203  35.799  37.709  1.00  0.00     0.198 A 
ATOM     71  C   UNL A   1      38.694  34.219  38.699  1.00  0.00     0.198 A 
ATOM     72  F   UNL A   1      38.258  32.172  37.626  1.00  0.00    -0.203 F 
ATOM     73  F   UNL A   1      40.865  36.963  37.763  1.00  0.00    -0.200 F 
ATOM     74  C   UNL A   1      39.353  35.438  38.743  1.00  0.00     0.200 A 
ATOM     75  F   UNL A   1      37.860  33.874  39.689  1.00  0.00    -0.200 F 
ATOM     76  F   UNL A   1      39.173  36.261  39.784  1.00  0.00    -0.200 F 
ENDBRANCH  52  66
BRANCH  53  77
ATOM     77  C   UNL A   1      40.729  27.949  28.447  1.00  0.00     0.064 A 
ATOM     78  C   UNL A   1      41.499  28.398  27.364  1.00  0.00     0.173 A 
ATOM     79  C   UNL A   1      40.122  26.690  28.336  1.00  0.00     0.173 A 
ATOM     80  F   UNL A   1      42.086  29.603  27.413  1.00  0.00    -0.203 F 
ATOM     81  C   UNL A   1      41.631  27.633  26.207  1.00  0.00     0.198 A 
ATOM     82  C   UNL A   1      40.282  25.911  27.192  1.00  0.00     0.198 A 
ATOM     83  F   UNL A   1      39.381  26.210  29.345  1.00  0.00    -0.203 F 
ATOM     84  F   UNL A   1      42.326  28.111  25.166  1.00  0.00    -0.200 F 
ATOM     85  C   UNL A   1      41.027  26.387  26.123  1.00  0.00     0.200 A 
ATOM     86  F   UNL A   1      39.711  24.701  27.123  1.00  0.00    -0.200 F 
ATOM     87  F   UNL A   1      41.154  25.651  25.011  1.00  0.00    -0.200 F 
ENDBRANCH  53  77
BRANCH  65  88
ATOM     88  C   UNL A   1      44.036  28.257  34.576  1.00  0.00     0.064 A 
ATOM     89  C   UNL A   1      45.365  28.700  34.513  1.00  0.00     0.173 A 
ATOM     90  C   UNL A   1      43.778  27.050  35.243  1.00  0.00     0.173 A 
ATOM     91  F   UNL A   1      45.667  29.842  33.875  1.00  0.00    -0.203 F 
ATOM     92  C   UNL A   1      46.397  27.949  35.070  1.00  0.00     0.198 A 
ATOM     93  C   UNL A   1      44.808  26.319  35.830  1.00  0.00     0.198 A 
ATOM     94  F   UNL A   1      42.524  26.583  35.340  1.00  0.00    -0.203 F 
ATOM     95  F   UNL A   1      47.666  28.365  34.950  1.00  0.00    -0.200 F 
ATOM     96  C   UNL A   1      46.117  26.765  35.734  1.00  0.00     0.200 A 
ATOM     97  F   UNL A   1      44.533  25.184  36.487  1.00  0.00    -0.200 F 
ATOM     98  F   UNL A   1      47.111  26.048  36.277  1.00  0.00    -0.200 F 
ENDBRANCH  65  88
ENDBRANCH  39  40
ENDBRANCH  31  34
ENDBRANCH  29  30
ENDBRANCH  28  29
ENDBRANCH  27  28
ENDBRANCH  26  27
ENDBRANCH   1  26
TORSDOF 20
ENDMDL
MODEL 2
REMARK VINA RESULT:     -11.2      0.734      7.288
REMARK SMILES [NH3+][C@](CCC[P@TB4](=O)([O-])[O-])(Cc1ccccc1)C(=O)NCCCCCCNC(=O)c1ccc(-c2c3nc(c(-c4c(F)c(F)c(F)c(F)c4F)c4ccc([nH]4)c(-c4c(F)c(F)c(F)c(F)c4F)c4nc(c(-c5c(F)c(F)c(F)c(F)c5F)c5ccc2[nH]5)C=C4)C=C3)cc1
REMARK SMILES IDX 21 1 20 2 19 3 17 4 18 5 2 7 1 8 10 12 11 13 12 14 16 15
REMARK SMILES IDX 13 16 15 17 14 18 3 19 4 20 5 21 6 22 7 23 8 24 9 25 22 26
REMARK SMILES IDX 23 27 24 28 25 29 26 30 27 31 28 33 29 34 30 35 91 36 31 37
REMARK SMILES IDX 90 38 32 39 33 40 34 41 84 42 35 43 89 44 83 45 85 46 36 47
REMARK SMILES IDX 88 48 82 49 81 50 37 52 69 53 49 54 68 55 50 56 53 57 67 58
REMARK SMILES IDX 86 59 51 60 52 61 66 63 87 64 54 65 38 66 39 67 47 68 40 69
REMARK SMILES IDX 41 70 45 71 48 72 42 73 43 74 46 75 44 76 70 77 71 78 79 79
REMARK SMILES IDX 72 80 73 81 77 82 80 83 74 84 75 85 78 86 76 87 55 88 56 89
REMARK SMILES IDX 64 90 57 91 58 92 62 93 65 94 59 95 60 96 63 97 61 98
REMARK H PARENT 19 6 1 9 1 10 1 11 26 32 85 51 53 62
REMARK Flexibility Score: inf
ROOT
ATOM      1  C   UNL A   1      33.537  28.883  27.246  1.00  0.00       nan C 
ENDROOT
BRANCH   1   2
ATOM      2  C   UNL A   1      33.897  28.002  26.054  1.00  0.00       nan C 
BRANCH   2   3
ATOM      3  N   UNL A   1      33.979  28.828  24.875  1.00  0.00       nan N 
ATOM      4  C   UNL A   1      33.640  28.435  23.620  1.00  0.00       nan C 
ATOM      5  O   UNL A   1      34.388  28.799  22.707  1.00  0.00       nan OA
ATOM      6  H   UNL A   1      34.307  29.749  24.989  1.00  0.00       nan HD
BRANCH   4   7
ATOM      7  C   UNL A   1      32.306  27.686  23.355  1.00  0.00       nan C 
BRANCH   7   8
ATOM      8  N   UNL A   1      31.763  28.007  22.001  1.00  0.00       nan N 
ATOM      9  H   UNL A   1      30.745  28.052  22.045  1.00  0.00       nan HD
ATOM     10  H   UNL A   1      32.043  27.283  21.340  1.00  0.00       nan HD
ATOM     11  H   UNL A   1      32.129  28.909  21.693  1.00  0.00       nan HD
ENDBRANCH   7   8
BRANCH   7  12
ATOM     12  C   UNL A   1      31.257  28.103  24.419  1.00  0.00       nan C 
BRANCH  12  13
ATOM     13  C   UNL A   1      30.012  28.785  23.886  1.00  0.00       nan A 
ATOM     14  C   UNL A   1      29.916  30.181  23.864  1.00  0.00       nan A 
ATOM     15  C   UNL A   1      28.953  28.031  23.358  1.00  0.00       nan A 
ATOM     16  C   UNL A   1      28.797  30.803  23.303  1.00  0.00       nan A 
ATOM     17  C   UNL A   1      27.846  28.652  22.782  1.00  0.00       nan A 
ATOM     18  C   UNL A   1      27.768  30.039  22.755  1.00  0.00       nan A 
ENDBRANCH  12  13
ENDBRANCH   7  12
BRANCH   7  19
ATOM     19  C   UNL A   1      32.597  26.163  23.371  1.00  0.00       nan C 
BRANCH  19  20
ATOM     20  C   UNL A   1      32.235  25.448  24.684  1.00  0.00       nan C 
BRANCH  20  21
ATOM     21  C   UNL A   1      31.260  24.271  24.537  1.00  0.00       nan C 
BRANCH  21  22
ATOM     22  P   UNL A   1      30.654  23.594  26.125  1.00  0.00       nan P 
ATOM     23  O   UNL A   1      32.014  22.957  26.434  1.00  0.00       nan OA
ATOM     24  O   UNL A   1      30.771  25.067  26.835  1.00  0.00       nan OA
ATOM     25  O   UNL A   1      30.079  22.954  27.626  1.00  0.00       nan OA
ENDBRANCH  21  22
ENDBRANCH  20  21
ENDBRANCH  19  20
ENDBRANCH   7  19
ENDBRANCH   4   7
ENDBRANCH   2   3
ENDBRANCH   1   2
BRANCH   1  26
ATOM     26  C   UNL A   1      33.296  30.353  26.874  1.00  0.00       nan C 
BRANCH  26  27
ATOM     27  C   UNL A   1      31.821  30.766  26.873  1.00  0.00       nan C 
BRANCH  27  28
ATOM     28  C   UNL A   1      31.600  32.278  26.903  1.00  0.00       nan C 
BRANCH  28  29
ATOM     29  C   UNL A   1      32.849  33.072  27.251  1.00  0.00       inf C 
BRANCH  29  30
ATOM     30  N   UNL A   1      32.526  34.423  27.669  1.00  0.00    -0.352 N 
ATOM     31  C   UNL A   1      33.010  35.105  28.752  1.00  0.00     0.251 C 
ATOM     32  H   UNL A   1      31.881  34.908  27.104  1.00  0.00     0.163 HD
ATOM     33  O   UNL A   1      32.491  36.156  29.119  1.00  0.00    -0.269 OA
BRANCH  31  34
ATOM     34  C   UNL A   1      34.153  34.541  29.494  1.00  0.00     0.039 A 
ATOM     35  C   UNL A   1      33.922  33.922  30.721  1.00  0.00     0.014 A 
ATOM     36  C   UNL A   1      35.443  34.592  28.953  1.00  0.00     0.014 A 
ATOM     37  C   UNL A   1      34.984  33.317  31.393  1.00  0.00     0.010 A 
ATOM     38  C   UNL A   1      36.482  33.916  29.581  1.00  0.00     0.010 A 
ATOM     39  C   UNL A   1      36.264  33.283  30.815  1.00  0.00    -0.014 A 
BRANCH  39  40
ATOM     40  C   UNL A   1      37.392  32.605  31.499  1.00  0.00     0.031 A 
ATOM     41  C   UNL A   1      38.092  31.453  30.834  1.00  0.00     0.074 A 
ATOM     42  C   UNL A   1      37.754  32.997  32.736  1.00  0.00     0.049 A 
ATOM     43  N   UNL A   1      39.068  30.706  31.284  1.00  0.00    -0.248 NA
ATOM     44  C   UNL A   1      37.614  31.071  29.495  1.00  0.00     0.031 C 
ATOM     45  C   UNL A   1      37.119  34.072  33.501  1.00  0.00     0.029 A 
ATOM     46  N   UNL A   1      38.741  32.534  33.570  1.00  0.00    -0.354 N 
ATOM     47  C   UNL A   1      39.312  29.766  30.291  1.00  0.00     0.074 A 
ATOM     48  C   UNL A   1      38.344  29.995  29.243  1.00  0.00     0.031 C 
ATOM     49  C   UNL A   1      37.749  34.204  34.679  1.00  0.00     0.029 A 
ATOM     50  C   UNL A   1      38.803  33.197  34.771  1.00  0.00     0.049 A 
ATOM     51  H   UNL A   1      39.347  31.796  33.330  1.00  0.00     0.167 HD
ATOM     52  C   UNL A   1      40.276  28.815  30.249  1.00  0.00     0.037 A 
ATOM     53  C   UNL A   1      39.612  33.007  35.830  1.00  0.00     0.037 A 
ATOM     54  C   UNL A   1      41.248  28.605  31.289  1.00  0.00     0.049 A 
ATOM     55  C   UNL A   1      40.661  31.930  35.762  1.00  0.00     0.074 A 
ATOM     56  C   UNL A   1      42.299  27.706  31.317  1.00  0.00     0.029 A 
ATOM     57  N   UNL A   1      41.284  29.301  32.488  1.00  0.00    -0.354 N 
ATOM     58  N   UNL A   1      40.931  31.094  34.788  1.00  0.00    -0.248 NA
ATOM     59  C   UNL A   1      41.524  31.773  36.941  1.00  0.00     0.031 C 
ATOM     60  C   UNL A   1      42.935  27.816  32.557  1.00  0.00     0.029 A 
ATOM     61  C   UNL A   1      42.322  28.830  33.277  1.00  0.00     0.049 A 
ATOM     62  H   UNL A   1      40.664  30.022  32.743  1.00  0.00     0.167 HD
ATOM     63  C   UNL A   1      42.013  30.339  35.222  1.00  0.00     0.074 A 
ATOM     64  C   UNL A   1      42.359  30.825  36.541  1.00  0.00     0.031 C 
ATOM     65  C   UNL A   1      42.660  29.331  34.586  1.00  0.00     0.037 A 
BRANCH  52  66
ATOM     66  C   UNL A   1      40.324  27.926  29.038  1.00  0.00     0.064 A 
ATOM     67  C   UNL A   1      41.080  28.263  27.905  1.00  0.00     0.173 A 
ATOM     68  C   UNL A   1      39.639  26.702  29.027  1.00  0.00     0.173 A 
ATOM     69  F   UNL A   1      41.746  29.428  27.859  1.00  0.00    -0.203 F 
ATOM     70  C   UNL A   1      41.125  27.423  26.795  1.00  0.00     0.198 A 
ATOM     71  C   UNL A   1      39.713  25.848  27.929  1.00  0.00     0.198 A 
ATOM     72  F   UNL A   1      38.904  26.327  30.084  1.00  0.00    -0.203 F 
ATOM     73  F   UNL A   1      41.811  27.792  25.705  1.00  0.00    -0.200 F 
ATOM     74  C   UNL A   1      40.449  26.212  26.811  1.00  0.00     0.200 A 
ATOM     75  F   UNL A   1      39.072  24.672  27.953  1.00  0.00    -0.200 F 
ATOM     76  F   UNL A   1      40.500  25.400  25.748  1.00  0.00    -0.200 F 
ENDBRANCH  52  66
BRANCH  53  77
ATOM     77  C   UNL A   1      39.474  33.864  37.037  1.00  0.00     0.064 A 
ATOM     78  C   UNL A   1      38.733  33.434  38.147  1.00  0.00     0.173 A 
ATOM     79  C   UNL A   1      40.067  35.133  37.102  1.00  0.00     0.173 A 
ATOM     80  F   UNL A   1      38.131  32.235  38.127  1.00  0.00    -0.203 F 
ATOM     81  C   UNL A   1      38.566  34.252  39.263  1.00  0.00     0.198 A 
ATOM     82  C   UNL A   1      39.927  35.936  38.232  1.00  0.00     0.198 A 
ATOM     83  F   UNL A   1      40.792  35.590  36.071  1.00  0.00    -0.203 F 
ATOM     84  F   UNL A   1      37.807  33.838  40.286  1.00  0.00    -0.200 F 
ATOM     85  C   UNL A   1      39.168  35.500  39.308  1.00  0.00     0.200 A 
ATOM     86  F   UNL A   1      40.526  37.134  38.277  1.00  0.00    -0.200 F 
ATOM     87  F   UNL A   1      39.009  36.285  40.382  1.00  0.00    -0.200 F 
ENDBRANCH  53  77
BRANCH  65  88
ATOM     88  C   UNL A   1      43.835  28.714  35.288  1.00  0.00     0.064 A 
ATOM     89  C   UNL A   1      45.142  29.184  35.096  1.00  0.00     0.173 A 
ATOM     90  C   UNL A   1      43.644  27.661  36.196  1.00  0.00     0.173 A 
ATOM     91  F   UNL A   1      45.382  30.179  34.228  1.00  0.00    -0.203 F 
ATOM     92  C   UNL A   1      46.217  28.603  35.764  1.00  0.00     0.198 A 
ATOM     93  C   UNL A   1      44.716  27.107  36.890  1.00  0.00     0.198 A 
ATOM     94  F   UNL A   1      42.413  27.178  36.424  1.00  0.00    -0.203 F 
ATOM     95  F   UNL A   1      47.464  29.032  35.523  1.00  0.00    -0.200 F 
ATOM     96  C   UNL A   1      46.002  27.573  36.666  1.00  0.00     0.200 A 
ATOM     97  F   UNL A   1      44.503  26.123  37.775  1.00  0.00    -0.200 F 
ATOM     98  F   UNL A   1      47.037  27.021  37.315  1.00  0.00    -0.200 F 
ENDBRANCH  65  88
ENDBRANCH  39  40
ENDBRANCH  31  34
ENDBRANCH  29  30
ENDBRANCH  28  29
ENDBRANCH  27  28
ENDBRANCH  26  27
ENDBRANCH   1  26
TORSDOF 20
ENDMDL
MODEL 3
REMARK VINA RESULT:     -10.9      2.766      8.417
REMARK SMILES [NH3+][C@](CCC[P@TB4](=O)([O-])[O-])(Cc1ccccc1)C(=O)NCCCCCCNC(=O)c1ccc(-c2c3nc(c(-c4c(F)c(F)c(F)c(F)c4F)c4ccc([nH]4)c(-c4c(F)c(F)c(F)c(F)c4F)c4nc(c(-c5c(F)c(F)c(F)c(F)c5F)c5ccc2[nH]5)C=C4)C=C3)cc1
REMARK SMILES IDX 21 1 20 2 19 3 17 4 18 5 2 7 1 8 10 12 11 13 12 14 16 15
REMARK SMILES IDX 13 16 15 17 14 18 3 19 4 20 5 21 6 22 7 23 8 24 9 25 22 26
REMARK SMILES IDX 23 27 24 28 25 29 26 30 27 31 28 33 29 34 30 35 91 36 31 37
REMARK SMILES IDX 90 38 32 39 33 40 34 41 84 42 35 43 89 44 83 45 85 46 36 47
REMARK SMILES IDX 88 48 82 49 81 50 37 52 69 53 49 54 68 55 50 56 53 57 67 58
REMARK SMILES IDX 86 59 51 60 52 61 66 63 87 64 54 65 38 66 39 67 47 68 40 69
REMARK SMILES IDX 41 70 45 71 48 72 42 73 43 74 46 75 44 76 70 77 71 78 79 79
REMARK SMILES IDX 72 80 73 81 77 82 80 83 74 84 75 85 78 86 76 87 55 88 56 89
REMARK SMILES IDX 64 90 57 91 58 92 62 93 65 94 59 95 60 96 63 97 61 98
REMARK H PARENT 19 6 1 9 1 10 1 11 26 32 85 51 53 62
REMARK Flexibility Score: inf
ROOT
ATOM      1  C   UNL A   1      30.935  26.378  25.866  1.00  0.00       nan C 
ENDROOT
BRANCH   1   2
ATOM      2  C   UNL A   1      30.713  24.931  26.292  1.00  0.00       nan C 
BRANCH   2   3
ATOM      3  N   UNL A   1      30.280  24.171  25.146  1.00  0.00       nan N 
ATOM      4  C   UNL A   1      31.092  23.434  24.344  1.00  0.00       nan C 
ATOM      5  O   UNL A   1      30.872  23.497  23.131  1.00  0.00       nan OA
ATOM      6  H   UNL A   1      29.320  24.187  24.928  1.00  0.00       nan HD
BRANCH   4   7
ATOM      7  C   UNL A   1      32.143  22.467  24.952  1.00  0.00       nan C 
BRANCH   7   8
ATOM      8  N   UNL A   1      31.591  21.737  26.132  1.00  0.00       nan N 
ATOM      9  H   UNL A   1      32.334  21.196  26.575  1.00  0.00       nan HD
ATOM     10  H   UNL A   1      30.848  21.109  25.828  1.00  0.00       nan HD
ATOM     11  H   UNL A   1      31.216  22.409  26.802  1.00  0.00       nan HD
ENDBRANCH   7   8
BRANCH   7  12
ATOM     12  C   UNL A   1      33.388  23.272  25.407  1.00  0.00       nan C 
BRANCH  12  13
ATOM     13  C   UNL A   1      34.729  22.712  24.975  1.00  0.00       nan A 
ATOM     14  C   UNL A   1      35.347  23.161  23.802  1.00  0.00       nan A 
ATOM     15  C   UNL A   1      35.402  21.771  25.769  1.00  0.00       nan A 
ATOM     16  C   UNL A   1      36.616  22.696  23.449  1.00  0.00       nan A 
ATOM     17  C   UNL A   1      36.675  21.321  25.426  1.00  0.00       nan A 
ATOM     18  C   UNL A   1      37.283  21.784  24.265  1.00  0.00       nan A 
ENDBRANCH  12  13
ENDBRANCH   7  12
BRANCH   7  19
ATOM     19  C   UNL A   1      32.485  21.396  23.883  1.00  0.00       nan C 
BRANCH  19  20
ATOM     20  C   UNL A   1      32.633  19.964  24.426  1.00  0.00       nan C 
BRANCH  20  21
ATOM     21  C   UNL A   1      32.493  18.852  23.376  1.00  0.00       nan C 
BRANCH  21  22
ATOM     22  P   UNL A   1      33.265  17.264  23.854  1.00  0.00       nan P 
ATOM     23  O   UNL A   1      33.633  16.943  22.401  1.00  0.00       nan OA
ATOM     24  O   UNL A   1      34.600  18.041  24.406  1.00  0.00       nan OA
ATOM     25  O   UNL A   1      33.995  15.763  24.309  1.00  0.00       nan OA
ENDBRANCH  21  22
ENDBRANCH  20  21
ENDBRANCH  19  20
ENDBRANCH   7  19
ENDBRANCH   4   7
ENDBRANCH   2   3
ENDBRANCH   1   2
BRANCH   1  26
ATOM     26  C   UNL A   1      32.346  26.650  25.326  1.00  0.00       nan C 
BRANCH  26  27
ATOM     27  C   UNL A   1      32.372  27.380  23.980  1.00  0.00       nan C 
BRANCH  27  28
ATOM     28  C   UNL A   1      32.967  28.787  24.047  1.00  0.00       nan C 
BRANCH  28  29
ATOM     29  C   UNL A   1      33.466  29.173  25.431  1.00  0.00       inf C 
BRANCH  29  30
ATOM     30  N   UNL A   1      32.928  30.452  25.855  1.00  0.00    -0.352 N 
ATOM     31  C   UNL A   1      33.333  31.224  26.910  1.00  0.00     0.251 C 
ATOM     32  H   UNL A   1      32.182  30.807  25.319  1.00  0.00     0.163 HD
ATOM     33  O   UNL A   1      32.654  32.173  27.295  1.00  0.00    -0.269 OA
BRANCH  31  34
ATOM     34  C   UNL A   1      34.591  30.881  27.599  1.00  0.00     0.039 A 
ATOM     35  C   UNL A   1      35.565  31.867  27.755  1.00  0.00     0.014 A 
ATOM     36  C   UNL A   1      34.786  29.598  28.121  1.00  0.00     0.014 A 
ATOM     37  C   UNL A   1      36.724  31.576  28.473  1.00  0.00     0.010 A 
ATOM     38  C   UNL A   1      35.901  29.335  28.907  1.00  0.00     0.010 A 
ATOM     39  C   UNL A   1      36.888  30.318  29.079  1.00  0.00    -0.014 A 
BRANCH  39  40
ATOM     40  C   UNL A   1      38.097  30.010  29.882  1.00  0.00     0.031 A 
ATOM     41  C   UNL A   1      39.150  29.089  29.334  1.00  0.00     0.074 A 
ATOM     42  C   UNL A   1      38.222  30.525  31.121  1.00  0.00     0.049 A 
ATOM     43  N   UNL A   1      40.253  28.665  29.896  1.00  0.00    -0.248 NA
ATOM     44  C   UNL A   1      38.920  28.548  27.984  1.00  0.00     0.031 C 
ATOM     45  C   UNL A   1      37.245  31.394  31.778  1.00  0.00     0.029 A 
ATOM     46  N   UNL A   1      39.222  30.386  32.051  1.00  0.00    -0.354 N 
ATOM     47  C   UNL A   1      40.840  27.806  28.976  1.00  0.00     0.074 A 
ATOM     48  C   UNL A   1      39.943  27.719  27.845  1.00  0.00     0.031 C 
ATOM     49  C   UNL A   1      37.705  31.734  32.992  1.00  0.00     0.029 A 
ATOM     50  C   UNL A   1      38.987  31.073  33.217  1.00  0.00     0.049 A 
ATOM     51  H   UNL A   1      40.030  29.847  31.897  1.00  0.00     0.167 HD
ATOM     52  C   UNL A   1      42.033  27.170  29.057  1.00  0.00     0.037 A 
ATOM     53  C   UNL A   1      39.721  31.153  34.343  1.00  0.00     0.037 A 
ATOM     54  C   UNL A   1      42.929  27.276  30.178  1.00  0.00     0.049 A 
ATOM     55  C   UNL A   1      41.033  30.419  34.413  1.00  0.00     0.074 A 
ATOM     56  C   UNL A   1      44.185  26.717  30.333  1.00  0.00     0.029 A 
ATOM     57  N   UNL A   1      42.661  27.987  31.339  1.00  0.00    -0.354 N 
ATOM     58  N   UNL A   1      41.613  29.669  33.507  1.00  0.00    -0.248 NA
ATOM     59  C   UNL A   1      41.797  30.550  35.661  1.00  0.00     0.031 C 
ATOM     60  C   UNL A   1      44.651  27.039  31.612  1.00  0.00     0.029 A 
ATOM     61  C   UNL A   1      43.716  27.855  32.228  1.00  0.00     0.049 A 
ATOM     62  H   UNL A   1      41.842  28.507  31.506  1.00  0.00     0.167 HD
ATOM     63  C   UNL A   1      42.821  29.266  34.062  1.00  0.00     0.074 A 
ATOM     64  C   UNL A   1      42.898  29.869  35.376  1.00  0.00     0.031 C 
ATOM     65  C   UNL A   1      43.780  28.468  33.531  1.00  0.00     0.037 A 
BRANCH  52  66
ATOM     66  C   UNL A   1      42.437  26.298  27.901  1.00  0.00     0.064 A 
ATOM     67  C   UNL A   1      41.947  24.991  27.756  1.00  0.00     0.173 A 
ATOM     68  C   UNL A   1      43.293  26.791  26.905  1.00  0.00     0.173 A 
ATOM     69  F   UNL A   1      41.134  24.466  28.686  1.00  0.00    -0.203 F 
ATOM     70  C   UNL A   1      42.322  24.200  26.673  1.00  0.00     0.198 A 
ATOM     71  C   UNL A   1      43.638  26.009  25.805  1.00  0.00     0.198 A 
ATOM     72  F   UNL A   1      43.787  28.034  26.990  1.00  0.00    -0.203 F 
ATOM     73  F   UNL A   1      41.883  22.937  26.584  1.00  0.00    -0.200 F 
ATOM     74  C   UNL A   1      43.160  24.712  25.694  1.00  0.00     0.200 A 
ATOM     75  F   UNL A   1      44.435  26.511  24.852  1.00  0.00    -0.200 F 
ATOM     76  F   UNL A   1      43.511  23.954  24.647  1.00  0.00    -0.200 F 
ENDBRANCH  52  66
BRANCH  53  77
ATOM     77  C   UNL A   1      39.240  31.968  35.490  1.00  0.00     0.064 A 
ATOM     78  C   UNL A   1      39.608  33.316  35.622  1.00  0.00     0.173 A 
ATOM     79  C   UNL A   1      38.417  31.419  36.483  1.00  0.00     0.173 A 
ATOM     80  F   UNL A   1      40.409  33.883  34.708  1.00  0.00    -0.203 F 
ATOM     81  C   UNL A   1      39.195  34.072  36.717  1.00  0.00     0.198 A 
ATOM     82  C   UNL A   1      37.977  32.185  37.560  1.00  0.00     0.198 A 
ATOM     83  F   UNL A   1      38.030  30.137  36.402  1.00  0.00    -0.203 F 
ATOM     84  F   UNL A   1      39.607  35.340  36.846  1.00  0.00    -0.200 F 
ATOM     85  C   UNL A   1      38.374  33.508  37.682  1.00  0.00     0.200 A 
ATOM     86  F   UNL A   1      37.170  31.641  38.481  1.00  0.00    -0.200 F 
ATOM     87  F   UNL A   1      37.976  34.236  38.735  1.00  0.00    -0.200 F 
ENDBRANCH  53  77
BRANCH  65  88
ATOM     88  C   UNL A   1      45.016  28.234  34.353  1.00  0.00     0.064 A 
ATOM     89  C   UNL A   1      45.069  27.243  35.344  1.00  0.00     0.173 A 
ATOM     90  C   UNL A   1      46.176  28.987  34.116  1.00  0.00     0.173 A 
ATOM     91  F   UNL A   1      43.983  26.504  35.618  1.00  0.00    -0.203 F 
ATOM     92  C   UNL A   1      46.227  27.036  36.088  1.00  0.00     0.198 A 
ATOM     93  C   UNL A   1      47.344  28.754  34.837  1.00  0.00     0.198 A 
ATOM     94  F   UNL A   1      46.183  29.943  33.174  1.00  0.00    -0.203 F 
ATOM     95  F   UNL A   1      46.237  26.122  37.067  1.00  0.00    -0.200 F 
ATOM     96  C   UNL A   1      47.365  27.785  35.828  1.00  0.00     0.200 A 
ATOM     97  F   UNL A   1      48.447  29.466  34.572  1.00  0.00    -0.200 F 
ATOM     98  F   UNL A   1      48.482  27.578  36.540  1.00  0.00    -0.200 F 
ENDBRANCH  65  88
ENDBRANCH  39  40
ENDBRANCH  31  34
ENDBRANCH  29  30
ENDBRANCH  28  29
ENDBRANCH  27  28
ENDBRANCH  26  27
ENDBRANCH   1  26
TORSDOF 20
ENDMDL
