MODEL 1
REMARK VINA RESULT:     -12.9      0.000      0.000
REMARK SMILES O=C(NCCCCCCNC(=O)[C@@]1(Cl)C=CC=C(c2ccccc2)[C@H]1Cl)c1ccc(-c2c3nc(c(-c4c(F)c(F)c(F)c(F)c4F)c4ccc([nH]4)c(-c4c(F)c(F)c(F)c(F)c4F)c4nc(c(-c5c(F)c(F)c(F)c(F)c5F)c5ccc2[nH]5)C=C4)C=C3)cc1
REMARK SMILES IDX 6 1 5 2 4 3 3 4 1 5 2 6 27 8 28 9 89 10 29 11 88 12 30 13
REMARK SMILES IDX 31 14 32 15 82 16 33 17 87 18 81 19 83 20 34 21 86 22 80 23
REMARK SMILES IDX 79 24 35 26 67 27 47 28 66 29 48 30 51 31 65 32 84 33 49 34
REMARK SMILES IDX 50 35 64 37 85 38 52 39 36 40 37 41 45 42 38 43 39 44 43 45
REMARK SMILES IDX 46 46 40 47 41 48 44 49 42 50 68 51 69 52 77 53 70 54 71 55
REMARK SMILES IDX 75 56 78 57 72 58 73 59 76 60 74 61 53 62 54 63 62 64 55 65
REMARK SMILES IDX 56 66 60 67 63 68 57 69 58 70 61 71 59 72 7 73 8 74 9 75
REMARK SMILES IDX 10 76 11 77 12 79 13 80 14 81 15 82 25 83 16 84 18 85 26 86
REMARK SMILES IDX 17 87 19 88 20 89 24 90 21 91 23 92 22 93
REMARK H PARENT 3 7 83 25 51 36 10 78
REMARK Flexibility Score: inf
ROOT
ATOM      1  C   UNL A   1      31.522  30.810  26.153  1.00  0.00     0.002 C 
ENDROOT
BRANCH   1   2
ATOM      2  C   UNL A   1      31.383  32.273  26.575  1.00  0.00     0.021 C 
BRANCH   2   3
ATOM      3  C   UNL A   1      32.646  32.875  27.179  1.00  0.00     0.116 C 
BRANCH   3   4
ATOM      4  N   UNL A   1      32.430  34.234  27.649  1.00  0.00    -0.352 N 
ATOM      5  O   UNL A   1      32.578  35.964  29.091  1.00  0.00    -0.269 OA
ATOM      6  C   UNL A   1      33.019  34.887  28.699  1.00  0.00     0.251 C 
ATOM      7  H   UNL A   1      31.768  34.757  27.142  1.00  0.00     0.163 HD
BRANCH   6   8
ATOM      8  C   UNL A   1      34.187  34.281  29.367  1.00  0.00     0.039 A 
ATOM      9  C   UNL A   1      34.013  33.441  30.471  1.00  0.00     0.014 A 
ATOM     10  C   UNL A   1      35.466  34.543  28.870  1.00  0.00     0.014 A 
ATOM     11  C   UNL A   1      35.122  32.955  31.150  1.00  0.00     0.010 A 
ATOM     12  C   UNL A   1      36.577  33.985  29.504  1.00  0.00     0.010 A 
ATOM     13  C   UNL A   1      36.413  33.201  30.657  1.00  0.00    -0.014 A 
BRANCH  13  14
ATOM     14  C   UNL A   1      37.581  32.561  31.309  1.00  0.00     0.031 A 
ATOM     15  C   UNL A   1      38.292  31.410  30.667  1.00  0.00     0.074 A 
ATOM     16  C   UNL A   1      37.975  33.022  32.512  1.00  0.00     0.049 A 
ATOM     17  N   UNL A   1      39.292  30.699  31.123  1.00  0.00    -0.248 NA
ATOM     18  C   UNL A   1      37.811  30.991  29.342  1.00  0.00     0.031 C 
ATOM     19  C   UNL A   1      37.341  34.126  33.236  1.00  0.00     0.029 A 
ATOM     20  N   UNL A   1      38.990  32.618  33.339  1.00  0.00    -0.354 N 
ATOM     21  C   UNL A   1      39.546  29.738  30.154  1.00  0.00     0.074 A 
ATOM     22  C   UNL A   1      38.578  29.938  29.096  1.00  0.00     0.031 C 
ATOM     23  C   UNL A   1      37.988  34.320  34.394  1.00  0.00     0.029 A 
ATOM     24  C   UNL A   1      39.036  33.313  34.522  1.00  0.00     0.049 A 
ATOM     25  H   UNL A   1      39.623  31.900  33.108  1.00  0.00     0.167 HD
ATOM     26  C   UNL A   1      40.505  28.780  30.154  1.00  0.00     0.037 A 
ATOM     27  C   UNL A   1      39.807  33.136  35.609  1.00  0.00     0.037 A 
ATOM     28  C   UNL A   1      41.462  28.595  31.216  1.00  0.00     0.049 A 
ATOM     29  C   UNL A   1      40.839  32.047  35.599  1.00  0.00     0.074 A 
ATOM     30  C   UNL A   1      42.507  27.691  31.288  1.00  0.00     0.029 A 
ATOM     31  N   UNL A   1      41.476  29.316  32.403  1.00  0.00    -0.354 N 
ATOM     32  N   UNL A   1      41.113  31.180  34.655  1.00  0.00    -0.248 NA
ATOM     33  C   UNL A   1      41.671  31.911  36.800  1.00  0.00     0.031 C 
ATOM     34  C   UNL A   1      43.112  27.821  32.544  1.00  0.00     0.029 A 
ATOM     35  C   UNL A   1      42.489  28.851  33.229  1.00  0.00     0.049 A 
ATOM     36  H   UNL A   1      40.858  30.049  32.625  1.00  0.00     0.167 HD
ATOM     37  C   UNL A   1      42.158  30.407  35.138  1.00  0.00     0.074 A 
ATOM     38  C   UNL A   1      42.479  30.918  36.456  1.00  0.00     0.031 C 
ATOM     39  C   UNL A   1      42.794  29.369  34.540  1.00  0.00     0.037 A 
BRANCH  26  40
ATOM     40  C   UNL A   1      40.544  27.836  28.984  1.00  0.00     0.064 A 
ATOM     41  C   UNL A   1      41.371  28.060  27.873  1.00  0.00     0.173 A 
ATOM     42  C   UNL A   1      39.753  26.676  28.985  1.00  0.00     0.173 A 
ATOM     43  F   UNL A   1      42.142  29.157  27.815  1.00  0.00    -0.203 F 
ATOM     44  C   UNL A   1      41.374  27.183  26.791  1.00  0.00     0.198 A 
ATOM     45  C   UNL A   1      39.784  25.783  27.916  1.00  0.00     0.198 A 
ATOM     46  F   UNL A   1      38.951  26.404  30.025  1.00  0.00    -0.203 F 
ATOM     47  F   UNL A   1      42.126  27.453  25.714  1.00  0.00    -0.200 F 
ATOM     48  C   UNL A   1      40.585  26.044  26.815  1.00  0.00     0.200 A 
ATOM     49  F   UNL A   1      39.033  24.674  27.949  1.00  0.00    -0.200 F 
ATOM     50  F   UNL A   1      40.589  25.201  25.772  1.00  0.00    -0.200 F 
ENDBRANCH  26  40
BRANCH  27  51
ATOM     51  C   UNL A   1      39.601  34.009  36.793  1.00  0.00     0.064 A 
ATOM     52  C   UNL A   1      38.811  33.594  37.872  1.00  0.00     0.173 A 
ATOM     53  C   UNL A   1      40.240  35.256  36.890  1.00  0.00     0.173 A 
ATOM     54  F   UNL A   1      38.172  32.416  37.818  1.00  0.00    -0.203 F 
ATOM     55  C   UNL A   1      38.661  34.396  39.001  1.00  0.00     0.198 A 
ATOM     56  C   UNL A   1      40.114  36.041  38.032  1.00  0.00     0.198 A 
ATOM     57  F   UNL A   1      41.016  35.692  35.887  1.00  0.00    -0.203 F 
ATOM     58  F   UNL A   1      37.878  33.988  40.008  1.00  0.00    -0.200 F 
ATOM     59  C   UNL A   1      39.320  35.613  39.085  1.00  0.00     0.200 A 
ATOM     60  F   UNL A   1      40.770  37.206  38.117  1.00  0.00    -0.200 F 
ATOM     61  F   UNL A   1      39.191  36.373  40.181  1.00  0.00    -0.200 F 
ENDBRANCH  27  51
BRANCH  39  62
ATOM     62  C   UNL A   1      43.926  28.732  35.293  1.00  0.00     0.064 A 
ATOM     63  C   UNL A   1      45.252  29.159  35.131  1.00  0.00     0.173 A 
ATOM     64  C   UNL A   1      43.671  27.719  36.230  1.00  0.00     0.173 A 
ATOM     65  F   UNL A   1      45.551  30.111  34.234  1.00  0.00    -0.203 F 
ATOM     66  C   UNL A   1      46.284  28.583  35.870  1.00  0.00     0.198 A 
ATOM     67  C   UNL A   1      44.700  27.169  36.988  1.00  0.00     0.198 A 
ATOM     68  F   UNL A   1      42.419  27.277  36.424  1.00  0.00    -0.203 F 
ATOM     69  F   UNL A   1      47.549  28.978  35.670  1.00  0.00    -0.200 F 
ATOM     70  C   UNL A   1      46.005  27.598  36.805  1.00  0.00     0.200 A 
ATOM     71  F   UNL A   1      44.427  26.226  37.901  1.00  0.00    -0.200 F 
ATOM     72  F   UNL A   1      46.997  27.056  37.526  1.00  0.00    -0.200 F 
ENDBRANCH  39  62
ENDBRANCH  13  14
ENDBRANCH   6   8
ENDBRANCH   3   4
ENDBRANCH   2   3
ENDBRANCH   1   2
BRANCH   1  73
ATOM     73  C   UNL A   1      32.311  29.928  27.127  1.00  0.00     0.002 C 
BRANCH  73  74
ATOM     74  C   UNL A   1      31.771  28.504  27.288  1.00  0.00     0.021 C 
BRANCH  74  75
ATOM     75  C   UNL A   1      31.324  27.861  25.980  1.00  0.00     0.116 C 
BRANCH  75  76
ATOM     76  N   UNL A   1      32.428  27.234  25.291  1.00  0.00    -0.354 N 
ATOM     77  C   UNL A   1      32.513  26.681  24.044  1.00  0.00     0.247 C 
ATOM     78  H   UNL A   1      33.264  27.198  25.809  1.00  0.00     0.163 HD
ATOM     79  O   UNL A   1      33.619  26.195  23.776  1.00  0.00    -0.273 OA
BRANCH  77  80
ATOM     80  C   UNL A   1      31.300  26.631  23.053  1.00  0.00     0.161 C 
ATOM     81  Cl  UNL A   1      31.839  25.586  21.631  1.00  0.00    -0.102 Cl
ATOM     82  C   UNL A   1      30.183  25.822  23.694  1.00  0.00     0.008 C 
ATOM     83  C   UNL A   1      30.846  28.005  22.456  1.00  0.00     0.146 C 
ATOM     84  C   UNL A   1      28.953  26.311  23.900  1.00  0.00    -0.002 C 
ATOM     85  C   UNL A   1      29.478  28.496  22.936  1.00  0.00    -0.020 C 
ATOM     86  Cl  UNL A   1      32.106  29.288  22.608  1.00  0.00    -0.115 Cl
ATOM     87  C   UNL A   1      28.617  27.676  23.570  1.00  0.00     0.006 C 
BRANCH  85  88
ATOM     88  C   UNL A   1      29.050  29.877  22.634  1.00  0.00    -0.021 A 
ATOM     89  C   UNL A   1      29.057  30.860  23.636  1.00  0.00     0.008 A 
ATOM     90  C   UNL A   1      28.668  30.238  21.336  1.00  0.00     0.008 A 
ATOM     91  C   UNL A   1      28.697  32.177  23.342  1.00  0.00     0.001 A 
ATOM     92  C   UNL A   1      28.309  31.555  21.043  1.00  0.00     0.001 A 
ATOM     93  C   UNL A   1      28.326  32.523  22.045  1.00  0.00     0.000 A 
ENDBRANCH  85  88
ENDBRANCH  77  80
ENDBRANCH  75  76
ENDBRANCH  74  75
ENDBRANCH  73  74
ENDBRANCH   1  73
TORSDOF 14
ENDMDL
MODEL 2
REMARK VINA RESULT:     -12.8      6.382     11.733
REMARK SMILES O=C(NCCCCCCNC(=O)[C@@]1(Cl)C=CC=C(c2ccccc2)[C@H]1Cl)c1ccc(-c2c3nc(c(-c4c(F)c(F)c(F)c(F)c4F)c4ccc([nH]4)c(-c4c(F)c(F)c(F)c(F)c4F)c4nc(c(-c5c(F)c(F)c(F)c(F)c5F)c5ccc2[nH]5)C=C4)C=C3)cc1
REMARK SMILES IDX 6 1 5 2 4 3 3 4 1 5 2 6 27 8 28 9 89 10 29 11 88 12 30 13
REMARK SMILES IDX 31 14 32 15 82 16 33 17 87 18 81 19 83 20 34 21 86 22 80 23
REMARK SMILES IDX 79 24 35 26 67 27 47 28 66 29 48 30 51 31 65 32 84 33 49 34
REMARK SMILES IDX 50 35 64 37 85 38 52 39 36 40 37 41 45 42 38 43 39 44 43 45
REMARK SMILES IDX 46 46 40 47 41 48 44 49 42 50 68 51 69 52 77 53 70 54 71 55
REMARK SMILES IDX 75 56 78 57 72 58 73 59 76 60 74 61 53 62 54 63 62 64 55 65
REMARK SMILES IDX 56 66 60 67 63 68 57 69 58 70 61 71 59 72 7 73 8 74 9 75
REMARK SMILES IDX 10 76 11 77 12 79 13 80 14 81 15 82 25 83 16 84 18 85 26 86
REMARK SMILES IDX 17 87 19 88 20 89 24 90 21 91 23 92 22 93
REMARK H PARENT 3 7 83 25 51 36 10 78
REMARK Flexibility Score: inf
ROOT
ATOM      1  C   UNL A   1      36.885  20.510  24.845  1.00  0.00     0.002 C 
ENDROOT
BRANCH   1   2
ATOM      2  C   UNL A   1      38.067  19.551  25.001  1.00  0.00     0.021 C 
BRANCH   2   3
ATOM      3  C   UNL A   1      39.212  20.100  25.843  1.00  0.00     0.116 C 
BRANCH   3   4
ATOM      4  N   UNL A   1      40.310  19.153  25.951  1.00  0.00    -0.352 N 
ATOM      5  O   UNL A   1      42.469  18.493  25.968  1.00  0.00    -0.269 OA
ATOM      6  C   UNL A   1      41.649  19.398  26.098  1.00  0.00     0.251 C 
ATOM      7  H   UNL A   1      40.055  18.203  25.913  1.00  0.00     0.163 HD
BRANCH   6   8
ATOM      8  C   UNL A   1      42.106  20.767  26.407  1.00  0.00     0.039 A 
ATOM      9  C   UNL A   1      42.344  21.682  25.376  1.00  0.00     0.014 A 
ATOM     10  C   UNL A   1      42.280  21.142  27.741  1.00  0.00     0.014 A 
ATOM     11  C   UNL A   1      42.865  22.935  25.672  1.00  0.00     0.010 A 
ATOM     12  C   UNL A   1      42.724  22.430  28.041  1.00  0.00     0.010 A 
ATOM     13  C   UNL A   1      43.036  23.329  27.008  1.00  0.00    -0.014 A 
BRANCH  13  14
ATOM     14  C   UNL A   1      43.460  24.716  27.314  1.00  0.00     0.031 A 
ATOM     15  C   UNL A   1      42.489  25.722  27.853  1.00  0.00     0.074 A 
ATOM     16  C   UNL A   1      44.738  25.063  27.071  1.00  0.00     0.049 A 
ATOM     17  N   UNL A   1      42.677  26.989  28.122  1.00  0.00    -0.248 NA
ATOM     18  C   UNL A   1      41.122  25.248  28.114  1.00  0.00     0.031 C 
ATOM     19  C   UNL A   1      45.763  24.168  26.529  1.00  0.00     0.029 A 
ATOM     20  N   UNL A   1      45.391  26.257  27.237  1.00  0.00    -0.354 N 
ATOM     21  C   UNL A   1      41.451  27.469  28.562  1.00  0.00     0.074 A 
ATOM     22  C   UNL A   1      40.518  26.363  28.499  1.00  0.00     0.031 C 
ATOM     23  C   UNL A   1      46.917  24.838  26.418  1.00  0.00     0.029 A 
ATOM     24  C   UNL A   1      46.697  26.224  26.816  1.00  0.00     0.049 A 
ATOM     25  H   UNL A   1      44.965  27.058  27.619  1.00  0.00     0.167 HD
ATOM     26  C   UNL A   1      41.141  28.720  28.983  1.00  0.00     0.037 A 
ATOM     27  C   UNL A   1      47.609  27.209  26.721  1.00  0.00     0.037 A 
ATOM     28  C   UNL A   1      42.084  29.809  29.039  1.00  0.00     0.049 A 
ATOM     29  C   UNL A   1      47.232  28.593  27.161  1.00  0.00     0.074 A 
ATOM     30  C   UNL A   1      41.885  31.098  29.501  1.00  0.00     0.029 A 
ATOM     31  N   UNL A   1      43.400  29.740  28.600  1.00  0.00    -0.354 N 
ATOM     32  N   UNL A   1      46.088  29.025  27.631  1.00  0.00    -0.248 NA
ATOM     33  C   UNL A   1      48.270  29.625  27.060  1.00  0.00     0.031 C 
ATOM     34  C   UNL A   1      43.061  31.827  29.281  1.00  0.00     0.029 A 
ATOM     35  C   UNL A   1      44.014  30.976  28.747  1.00  0.00     0.049 A 
ATOM     36  H   UNL A   1      43.833  28.934  28.239  1.00  0.00     0.167 HD
ATOM     37  C   UNL A   1      46.271  30.373  27.899  1.00  0.00     0.074 A 
ATOM     38  C   UNL A   1      47.642  30.685  27.551  1.00  0.00     0.031 C 
ATOM     39  C   UNL A   1      45.381  31.270  28.392  1.00  0.00     0.037 A 
BRANCH  26  40
ATOM     40  C   UNL A   1      39.716  28.986  29.380  1.00  0.00     0.064 A 
ATOM     41  C   UNL A   1      38.762  29.452  28.462  1.00  0.00     0.173 A 
ATOM     42  C   UNL A   1      39.293  28.751  30.697  1.00  0.00     0.173 A 
ATOM     43  F   UNL A   1      39.112  29.702  27.191  1.00  0.00    -0.203 F 
ATOM     44  C   UNL A   1      37.452  29.713  28.858  1.00  0.00     0.198 A 
ATOM     45  C   UNL A   1      37.973  28.980  31.082  1.00  0.00     0.198 A 
ATOM     46  F   UNL A   1      40.158  28.294  31.615  1.00  0.00    -0.203 F 
ATOM     47  F   UNL A   1      36.576  30.218  27.978  1.00  0.00    -0.200 F 
ATOM     48  C   UNL A   1      37.058  29.472  30.165  1.00  0.00     0.200 A 
ATOM     49  F   UNL A   1      37.591  28.731  32.341  1.00  0.00    -0.200 F 
ATOM     50  F   UNL A   1      35.797  29.724  30.544  1.00  0.00    -0.200 F 
ENDBRANCH  26  40
BRANCH  27  51
ATOM     51  C   UNL A   1      48.951  26.900  26.166  1.00  0.00     0.064 A 
ATOM     52  C   UNL A   1      49.969  26.382  26.975  1.00  0.00     0.173 A 
ATOM     53  C   UNL A   1      49.223  27.067  24.799  1.00  0.00     0.173 A 
ATOM     54  F   UNL A   1      49.760  26.217  28.290  1.00  0.00    -0.203 F 
ATOM     55  C   UNL A   1      51.211  26.047  26.440  1.00  0.00     0.198 A 
ATOM     56  C   UNL A   1      50.454  26.703  24.260  1.00  0.00     0.198 A 
ATOM     57  F   UNL A   1      48.276  27.550  23.981  1.00  0.00    -0.203 F 
ATOM     58  F   UNL A   1      52.177  25.579  27.240  1.00  0.00    -0.200 F 
ATOM     59  C   UNL A   1      51.449  26.199  25.082  1.00  0.00     0.200 A 
ATOM     60  F   UNL A   1      50.670  26.831  22.944  1.00  0.00    -0.200 F 
ATOM     61  F   UNL A   1      52.637  25.857  24.566  1.00  0.00    -0.200 F 
ENDBRANCH  27  51
BRANCH  39  62
ATOM     62  C   UNL A   1      45.869  32.672  28.614  1.00  0.00     0.064 A 
ATOM     63  C   UNL A   1      46.447  33.068  29.830  1.00  0.00     0.173 A 
ATOM     64  C   UNL A   1      45.810  33.615  27.577  1.00  0.00     0.173 A 
ATOM     65  F   UNL A   1      46.510  32.209  30.859  1.00  0.00    -0.203 F 
ATOM     66  C   UNL A   1      46.932  34.362  30.003  1.00  0.00     0.198 A 
ATOM     67  C   UNL A   1      46.325  34.897  27.743  1.00  0.00     0.198 A 
ATOM     68  F   UNL A   1      45.270  33.285  26.394  1.00  0.00    -0.203 F 
ATOM     69  F   UNL A   1      47.443  34.731  31.185  1.00  0.00    -0.200 F 
ATOM     70  C   UNL A   1      46.882  35.271  28.957  1.00  0.00     0.200 A 
ATOM     71  F   UNL A   1      46.288  35.769  26.727  1.00  0.00    -0.200 F 
ATOM     72  F   UNL A   1      47.364  36.511  29.120  1.00  0.00    -0.200 F 
ENDBRANCH  39  62
ENDBRANCH  13  14
ENDBRANCH   6   8
ENDBRANCH   3   4
ENDBRANCH   2   3
ENDBRANCH   1   2
BRANCH   1  73
ATOM     73  C   UNL A   1      37.265  21.987  24.701  1.00  0.00     0.002 C 
BRANCH  73  74
ATOM     74  C   UNL A   1      36.634  22.700  23.501  1.00  0.00     0.021 C 
BRANCH  74  75
ATOM     75  C   UNL A   1      35.110  22.684  23.505  1.00  0.00     0.116 C 
BRANCH  75  76
ATOM     76  N   UNL A   1      34.572  23.486  24.579  1.00  0.00    -0.354 N 
ATOM     77  C   UNL A   1      33.365  23.441  25.220  1.00  0.00     0.247 C 
ATOM     78  H   UNL A   1      35.180  24.187  24.908  1.00  0.00     0.163 HD
ATOM     79  O   UNL A   1      33.216  24.308  26.089  1.00  0.00    -0.273 OA
BRANCH  77  80
ATOM     80  C   UNL A   1      32.249  22.404  24.854  1.00  0.00     0.161 C 
ATOM     81  Cl  UNL A   1      30.696  23.019  25.637  1.00  0.00    -0.102 Cl
ATOM     82  C   UNL A   1      31.965  22.502  23.362  1.00  0.00     0.008 C 
ATOM     83  C   UNL A   1      32.471  20.945  25.377  1.00  0.00     0.146 C 
ATOM     84  C   UNL A   1      32.075  21.460  22.528  1.00  0.00    -0.002 C 
ATOM     85  C   UNL A   1      32.755  19.906  24.289  1.00  0.00    -0.020 C 
ATOM     86  Cl  UNL A   1      33.677  20.855  26.716  1.00  0.00    -0.115 Cl
ATOM     87  C   UNL A   1      32.528  20.168  22.988  1.00  0.00     0.006 C 
BRANCH  85  88
ATOM     88  C   UNL A   1      33.213  18.555  24.671  1.00  0.00    -0.021 A 
ATOM     89  C   UNL A   1      32.386  17.710  25.428  1.00  0.00     0.008 A 
ATOM     90  C   UNL A   1      34.462  18.080  24.251  1.00  0.00     0.008 A 
ATOM     91  C   UNL A   1      32.799  16.415  25.751  1.00  0.00     0.001 A 
ATOM     92  C   UNL A   1      34.872  16.785  24.574  1.00  0.00     0.001 A 
ATOM     93  C   UNL A   1      34.040  15.954  25.321  1.00  0.00     0.000 A 
ENDBRANCH  85  88
ENDBRANCH  77  80
ENDBRANCH  75  76
ENDBRANCH  74  75
ENDBRANCH  73  74
ENDBRANCH   1  73
TORSDOF 14
ENDMDL
MODEL 3
REMARK VINA RESULT:     -12.8      6.392     11.802
REMARK SMILES O=C(NCCCCCCNC(=O)[C@@]1(Cl)C=CC=C(c2ccccc2)[C@H]1Cl)c1ccc(-c2c3nc(c(-c4c(F)c(F)c(F)c(F)c4F)c4ccc([nH]4)c(-c4c(F)c(F)c(F)c(F)c4F)c4nc(c(-c5c(F)c(F)c(F)c(F)c5F)c5ccc2[nH]5)C=C4)C=C3)cc1
REMARK SMILES IDX 6 1 5 2 4 3 3 4 1 5 2 6 27 8 28 9 89 10 29 11 88 12 30 13
REMARK SMILES IDX 31 14 32 15 82 16 33 17 87 18 81 19 83 20 34 21 86 22 80 23
REMARK SMILES IDX 79 24 35 26 67 27 47 28 66 29 48 30 51 31 65 32 84 33 49 34
REMARK SMILES IDX 50 35 64 37 85 38 52 39 36 40 37 41 45 42 38 43 39 44 43 45
REMARK SMILES IDX 46 46 40 47 41 48 44 49 42 50 68 51 69 52 77 53 70 54 71 55
REMARK SMILES IDX 75 56 78 57 72 58 73 59 76 60 74 61 53 62 54 63 62 64 55 65
REMARK SMILES IDX 56 66 60 67 63 68 57 69 58 70 61 71 59 72 7 73 8 74 9 75
REMARK SMILES IDX 10 76 11 77 12 79 13 80 14 81 15 82 25 83 16 84 18 85 26 86
REMARK SMILES IDX 17 87 19 88 20 89 24 90 21 91 23 92 22 93
REMARK H PARENT 3 7 83 25 51 36 10 78
REMARK Flexibility Score: inf
ROOT
ATOM      1  C   UNL A   1      36.898  20.538  24.763  1.00  0.00     0.002 C 
ENDROOT
BRANCH   1   2
ATOM      2  C   UNL A   1      38.024  19.531  25.001  1.00  0.00     0.021 C 
BRANCH   2   3
ATOM      3  C   UNL A   1      39.177  20.066  25.841  1.00  0.00     0.116 C 
BRANCH   3   4
ATOM      4  N   UNL A   1      40.259  19.102  25.958  1.00  0.00    -0.352 N 
ATOM      5  O   UNL A   1      42.406  18.405  25.985  1.00  0.00    -0.269 OA
ATOM      6  C   UNL A   1      41.601  19.325  26.108  1.00  0.00     0.251 C 
ATOM      7  H   UNL A   1      39.988  18.156  25.924  1.00  0.00     0.163 HD
BRANCH   6   8
ATOM      8  C   UNL A   1      42.081  20.688  26.410  1.00  0.00     0.039 A 
ATOM      9  C   UNL A   1      42.305  21.603  25.376  1.00  0.00     0.014 A 
ATOM     10  C   UNL A   1      42.288  21.057  27.740  1.00  0.00     0.014 A 
ATOM     11  C   UNL A   1      42.847  22.849  25.664  1.00  0.00     0.010 A 
ATOM     12  C   UNL A   1      42.753  22.339  28.034  1.00  0.00     0.010 A 
ATOM     13  C   UNL A   1      43.052  23.237  26.997  1.00  0.00    -0.014 A 
BRANCH  13  14
ATOM     14  C   UNL A   1      43.498  24.619  27.297  1.00  0.00     0.031 A 
ATOM     15  C   UNL A   1      42.546  25.638  27.845  1.00  0.00     0.074 A 
ATOM     16  C   UNL A   1      44.779  24.948  27.041  1.00  0.00     0.049 A 
ATOM     17  N   UNL A   1      42.755  26.903  28.110  1.00  0.00    -0.248 NA
ATOM     18  C   UNL A   1      41.176  25.183  28.120  1.00  0.00     0.031 C 
ATOM     19  C   UNL A   1      45.785  24.038  26.490  1.00  0.00     0.029 A 
ATOM     20  N   UNL A   1      45.450  26.133  27.199  1.00  0.00    -0.354 N 
ATOM     21  C   UNL A   1      41.541  27.400  28.563  1.00  0.00     0.074 A 
ATOM     22  C   UNL A   1      40.592  26.308  28.510  1.00  0.00     0.031 C 
ATOM     23  C   UNL A   1      46.948  24.692  26.366  1.00  0.00     0.029 A 
ATOM     24  C   UNL A   1      46.751  26.081  26.765  1.00  0.00     0.049 A 
ATOM     25  H   UNL A   1      45.039  26.940  27.584  1.00  0.00     0.167 HD
ATOM     26  C   UNL A   1      41.252  28.656  28.985  1.00  0.00     0.037 A 
ATOM     27  C   UNL A   1      47.675  27.053  26.660  1.00  0.00     0.037 A 
ATOM     28  C   UNL A   1      42.210  29.732  29.031  1.00  0.00     0.049 A 
ATOM     29  C   UNL A   1      47.322  28.443  27.102  1.00  0.00     0.074 A 
ATOM     30  C   UNL A   1      42.035  31.024  29.493  1.00  0.00     0.029 A 
ATOM     31  N   UNL A   1      43.521  29.644  28.579  1.00  0.00    -0.354 N 
ATOM     32  N   UNL A   1      46.189  28.891  27.584  1.00  0.00    -0.248 NA
ATOM     33  C   UNL A   1      48.373  29.461  26.989  1.00  0.00     0.031 C 
ATOM     34  C   UNL A   1      43.217  31.736  29.261  1.00  0.00     0.029 A 
ATOM     35  C   UNL A   1      44.153  30.871  28.718  1.00  0.00     0.049 A 
ATOM     36  H   UNL A   1      43.939  28.832  28.214  1.00  0.00     0.167 HD
ATOM     37  C   UNL A   1      46.393  30.237  27.848  1.00  0.00     0.074 A 
ATOM     38  C   UNL A   1      47.765  30.529  27.485  1.00  0.00     0.031 C 
ATOM     39  C   UNL A   1      45.520  31.146  28.348  1.00  0.00     0.037 A 
BRANCH  26  40
ATOM     40  C   UNL A   1      39.835  28.942  29.396  1.00  0.00     0.064 A 
ATOM     41  C   UNL A   1      39.387  28.742  30.711  1.00  0.00     0.173 A 
ATOM     42  C   UNL A   1      38.914  29.444  28.463  1.00  0.00     0.173 A 
ATOM     43  F   UNL A   1      40.221  28.256  31.644  1.00  0.00    -0.203 F 
ATOM     44  C   UNL A   1      38.063  28.993  31.065  1.00  0.00     0.198 A 
ATOM     45  C   UNL A   1      37.600  29.726  28.828  1.00  0.00     0.198 A 
ATOM     46  F   UNL A   1      39.289  29.665  27.194  1.00  0.00    -0.203 F 
ATOM     47  F   UNL A   1      37.644  28.734  32.312  1.00  0.00    -0.200 F 
ATOM     48  C   UNL A   1      37.173  29.489  30.125  1.00  0.00     0.200 A 
ATOM     49  F   UNL A   1      36.746  30.221  27.922  1.00  0.00    -0.200 F 
ATOM     50  F   UNL A   1      35.899  29.730  30.467  1.00  0.00    -0.200 F 
ENDBRANCH  26  40
BRANCH  27  51
ATOM     51  C   UNL A   1      49.008  26.726  26.092  1.00  0.00     0.064 A 
ATOM     52  C   UNL A   1      49.300  26.966  24.744  1.00  0.00     0.173 A 
ATOM     53  C   UNL A   1      50.034  26.218  26.904  1.00  0.00     0.173 A 
ATOM     54  F   UNL A   1      48.348  27.439  23.927  1.00  0.00    -0.203 F 
ATOM     55  C   UNL A   1      50.567  26.704  24.227  1.00  0.00     0.198 A 
ATOM     56  C   UNL A   1      51.308  25.986  26.394  1.00  0.00     0.198 A 
ATOM     57  F   UNL A   1      49.805  25.982  28.204  1.00  0.00    -0.203 F 
ATOM     58  F   UNL A   1      50.814  26.917  22.928  1.00  0.00    -0.200 F 
ATOM     59  C   UNL A   1      51.573  26.224  25.054  1.00  0.00     0.200 A 
ATOM     60  F   UNL A   1      52.281  25.544  27.202  1.00  0.00    -0.200 F 
ATOM     61  F   UNL A   1      52.796  25.993  24.560  1.00  0.00    -0.200 F 
ENDBRANCH  27  51
BRANCH  39  62
ATOM     62  C   UNL A   1      46.030  32.542  28.565  1.00  0.00     0.064 A 
ATOM     63  C   UNL A   1      45.903  33.535  27.582  1.00  0.00     0.173 A 
ATOM     64  C   UNL A   1      46.601  32.903  29.795  1.00  0.00     0.173 A 
ATOM     65  F   UNL A   1      45.381  33.235  26.383  1.00  0.00    -0.203 F 
ATOM     66  C   UNL A   1      46.345  34.835  27.818  1.00  0.00     0.198 A 
ATOM     67  C   UNL A   1      47.012  34.211  30.037  1.00  0.00     0.198 A 
ATOM     68  F   UNL A   1      46.742  31.992  30.769  1.00  0.00    -0.203 F 
ATOM     69  F   UNL A   1      46.251  35.758  26.851  1.00  0.00    -0.200 F 
ATOM     70  C   UNL A   1      46.888  35.174  29.048  1.00  0.00     0.200 A 
ATOM     71  F   UNL A   1      47.523  34.540  31.232  1.00  0.00    -0.200 F 
ATOM     72  F   UNL A   1      47.297  36.429  29.279  1.00  0.00    -0.200 F 
ENDBRANCH  39  62
ENDBRANCH  13  14
ENDBRANCH   6   8
ENDBRANCH   3   4
ENDBRANCH   2   3
ENDBRANCH   1   2
BRANCH   1  73
ATOM     73  C   UNL A   1      37.354  21.992  24.600  1.00  0.00     0.002 C 
BRANCH  73  74
ATOM     74  C   UNL A   1      36.625  22.776  23.505  1.00  0.00     0.021 C 
BRANCH  74  75
ATOM     75  C   UNL A   1      35.107  22.660  23.568  1.00  0.00     0.116 C 
BRANCH  75  76
ATOM     76  N   UNL A   1      34.558  23.443  24.650  1.00  0.00    -0.354 N 
ATOM     77  C   UNL A   1      33.344  23.387  25.277  1.00  0.00     0.247 C 
ATOM     78  H   UNL A   1      35.162  24.139  24.996  1.00  0.00     0.163 HD
ATOM     79  O   UNL A   1      33.186  24.240  26.159  1.00  0.00    -0.273 OA
BRANCH  77  80
ATOM     80  C   UNL A   1      32.233  22.355  24.882  1.00  0.00     0.161 C 
ATOM     81  Cl  UNL A   1      30.674  22.951  25.669  1.00  0.00    -0.102 Cl
ATOM     82  C   UNL A   1      31.958  22.484  23.392  1.00  0.00     0.008 C 
ATOM     83  C   UNL A   1      32.454  20.886  25.376  1.00  0.00     0.146 C 
ATOM     84  C   UNL A   1      32.075  21.460  22.536  1.00  0.00    -0.002 C 
ATOM     85  C   UNL A   1      32.748  19.871  24.268  1.00  0.00    -0.020 C 
ATOM     86  Cl  UNL A   1      33.653  20.771  26.720  1.00  0.00    -0.115 Cl
ATOM     87  C   UNL A   1      32.528  20.160  22.971  1.00  0.00     0.006 C 
BRANCH  85  88
ATOM     88  C   UNL A   1      33.207  18.513  24.624  1.00  0.00    -0.021 A 
ATOM     89  C   UNL A   1      34.486  18.074  24.251  1.00  0.00     0.008 A 
ATOM     90  C   UNL A   1      32.391  17.658  25.374  1.00  0.00     0.008 A 
ATOM     91  C   UNL A   1      34.941  16.808  24.626  1.00  0.00     0.001 A 
ATOM     92  C   UNL A   1      32.846  16.392  25.748  1.00  0.00     0.001 A 
ATOM     93  C   UNL A   1      34.120  15.969  25.377  1.00  0.00     0.000 A 
ENDBRANCH  85  88
ENDBRANCH  77  80
ENDBRANCH  75  76
ENDBRANCH  74  75
ENDBRANCH  73  74
ENDBRANCH   1  73
TORSDOF 14
ENDMDL
