MODEL 1
REMARK VINA RESULT:     -11.8      0.000      0.000
REMARK SMILES COc1ccc(CCN2C(=O)CC[C@@H](C(=O)NCCCCCCNC(=O)c3ccc(-c4c5nc(c(-c6c(F)c(F)c(F)c(F)c6F)c6ccc([nH]6)c(-c6c(F)c(F)c(F)c(F)c6F)c6nc(c(-c7c(F)c(F)c(F)c(F)c7F)c7ccc4[nH]7)C=C6)C=C5)cc3)[C@@H]2c2ccc(Cl)cc2)cc1OC
REMARK SMILES IDX 19 1 18 2 17 3 15 4 16 5 14 7 9 8 10 9 90 10 11 11 12 12
REMARK SMILES IDX 13 13 8 14 7 15 6 16 3 17 4 18 99 19 5 20 98 21 2 22 1 23
REMARK SMILES IDX 100 24 101 25 91 26 92 27 97 28 93 29 96 30 94 31 95 32
REMARK SMILES IDX 20 33 21 34 22 35 23 36 24 37 25 38 26 40 27 41 28 42 89 43
REMARK SMILES IDX 29 44 88 45 30 46 31 47 32 48 82 49 33 50 87 51 81 52 83 53
REMARK SMILES IDX 34 54 86 55 80 56 79 57 35 59 67 60 47 61 66 62 48 63 51 64
REMARK SMILES IDX 65 65 84 66 49 67 50 68 64 70 85 71 52 72 36 73 37 74 45 75
REMARK SMILES IDX 38 76 39 77 43 78 46 79 40 80 41 81 44 82 42 83 68 84 69 85
REMARK SMILES IDX 77 86 70 87 71 88 75 89 78 90 72 91 73 92 76 93 74 94 53 95
REMARK SMILES IDX 54 96 62 97 55 98 56 99 60 100 63 101 57 102 58 103 61 104
REMARK SMILES IDX 59 105
REMARK H PARENT 17 6 24 39 83 58 51 69
REMARK Flexibility Score: inf
ROOT
ATOM      1  C   UNL A   1      32.297  29.308  26.469  1.00  0.00     0.021 C 
ENDROOT
BRANCH   1   2
ATOM      2  C   UNL A   1      32.322  27.851  26.933  1.00  0.00     0.116 C 
BRANCH   2   3
ATOM      3  N   UNL A   1      31.513  27.012  26.079  1.00  0.00    -0.356 N 
ATOM      4  C   UNL A   1      31.876  26.080  25.159  1.00  0.00     0.225 C 
ATOM      5  O   UNL A   1      30.969  25.452  24.613  1.00  0.00    -0.275 OA
ATOM      6  H   UNL A   1      30.541  27.134  26.180  1.00  0.00     0.163 HD
BRANCH   4   7
ATOM      7  C   UNL A   1      33.355  25.821  24.865  1.00  0.00     0.106 C 
ATOM      8  N   UNL A   1      33.237  24.581  22.656  1.00  0.00    -0.335 N 
ATOM      9  C   UNL A   1      32.738  25.772  22.125  1.00  0.00     0.223 C 
ATOM     10  C   UNL A   1      33.522  24.462  24.122  1.00  0.00     0.128 C 
ATOM     11  O   UNL A   1      31.994  25.827  21.147  1.00  0.00    -0.275 OA
ATOM     12  C   UNL A   1      33.251  27.066  22.719  1.00  0.00     0.101 C 
ATOM     13  C   UNL A   1      34.020  26.890  24.006  1.00  0.00     0.026 C 
BRANCH   8  14
ATOM     14  C   UNL A   1      32.943  23.345  21.912  1.00  0.00     0.125 C 
BRANCH  14  15
ATOM     15  C   UNL A   1      31.800  22.442  22.453  1.00  0.00     0.057 C 
BRANCH  15  16
ATOM     16  C   UNL A   1      32.170  21.080  23.007  1.00  0.00    -0.042 A 
ATOM     17  C   UNL A   1      32.794  18.543  24.084  1.00  0.00     0.160 A 
ATOM     18  C   UNL A   1      32.432  18.673  22.743  1.00  0.00     0.051 A 
ATOM     19  C   UNL A   1      32.848  19.678  24.902  1.00  0.00     0.160 A 
ATOM     20  C   UNL A   1      32.085  19.921  22.226  1.00  0.00     0.008 A 
ATOM     21  C   UNL A   1      32.549  20.936  24.349  1.00  0.00     0.054 A 
BRANCH  17  22
ATOM     22  O   UNL A   1      33.160  17.311  24.555  1.00  0.00    -0.493 OA
ATOM     23  C   UNL A   1      33.844  16.535  23.569  1.00  0.00     0.278 C 
ENDBRANCH  17  22
BRANCH  19  24
ATOM     24  O   UNL A   1      33.170  19.737  26.233  1.00  0.00    -0.493 OA
ATOM     25  C   UNL A   1      33.697  20.963  26.723  1.00  0.00     0.278 C 
ENDBRANCH  19  24
ENDBRANCH  15  16
ENDBRANCH  14  15
ENDBRANCH   8  14
BRANCH  10  26
ATOM     26  C   UNL A   1      34.875  23.819  24.488  1.00  0.00    -0.025 A 
ATOM     27  C   UNL A   1      35.573  22.950  23.641  1.00  0.00     0.007 A 
ATOM     28  C   UNL A   1      35.451  24.092  25.748  1.00  0.00     0.007 A 
ATOM     29  C   UNL A   1      36.787  22.369  24.026  1.00  0.00     0.021 A 
ATOM     30  C   UNL A   1      36.683  23.546  26.122  1.00  0.00     0.021 A 
ATOM     31  C   UNL A   1      37.344  22.678  25.260  1.00  0.00     0.041 A 
ATOM     32  Cl  UNL A   1      38.846  21.985  25.726  1.00  0.00    -0.084 Cl
ENDBRANCH  10  26
ENDBRANCH   4   7
ENDBRANCH   2   3
ENDBRANCH   1   2
BRANCH   1  33
ATOM     33  C   UNL A   1      33.650  30.026  26.561  1.00  0.00     0.002 C 
BRANCH  33  34
ATOM     34  C   UNL A   1      33.750  31.083  27.665  1.00  0.00     0.002 C 
BRANCH  34  35
ATOM     35  C   UNL A   1      32.622  32.116  27.672  1.00  0.00     0.021 C 
BRANCH  35  36
ATOM     36  C   UNL A   1      33.016  33.484  27.131  1.00  0.00     0.116 C 
BRANCH  36  37
ATOM     37  N   UNL A   1      32.683  34.552  28.057  1.00  0.00    -0.352 N 
ATOM     38  C   UNL A   1      33.196  34.807  29.299  1.00  0.00     0.251 C 
ATOM     39  H   UNL A   1      31.992  35.181  27.748  1.00  0.00     0.163 HD
ATOM     40  O   UNL A   1      32.656  35.640  30.030  1.00  0.00    -0.269 OA
BRANCH  38  41
ATOM     41  C   UNL A   1      34.390  34.079  29.777  1.00  0.00     0.039 A 
ATOM     42  C   UNL A   1      34.231  33.087  30.748  1.00  0.00     0.014 A 
ATOM     43  C   UNL A   1      35.667  34.395  29.302  1.00  0.00     0.014 A 
ATOM     44  C   UNL A   1      35.347  32.402  31.228  1.00  0.00     0.010 A 
ATOM     45  C   UNL A   1      36.768  33.651  29.717  1.00  0.00     0.010 A 
ATOM     46  C   UNL A   1      36.624  32.669  30.707  1.00  0.00    -0.014 A 
BRANCH  46  47
ATOM     47  C   UNL A   1      37.824  31.975  31.240  1.00  0.00     0.031 A 
ATOM     48  C   UNL A   1      38.329  32.301  32.620  1.00  0.00     0.074 A 
ATOM     49  C   UNL A   1      38.472  31.076  30.476  1.00  0.00     0.049 A 
ATOM     50  N   UNL A   1      39.363  31.818  33.260  1.00  0.00    -0.248 NA
ATOM     51  C   UNL A   1      37.589  33.329  33.369  1.00  0.00     0.031 C 
ATOM     52  C   UNL A   1      38.110  30.710  29.106  1.00  0.00     0.029 A 
ATOM     53  N   UNL A   1      39.573  30.304  30.747  1.00  0.00    -0.354 N 
ATOM     54  C   UNL A   1      39.404  32.491  34.475  1.00  0.00     0.074 A 
ATOM     55  C   UNL A   1      38.333  33.462  34.456  1.00  0.00     0.031 C 
ATOM     56  C   UNL A   1      38.954  29.763  28.667  1.00  0.00     0.029 A 
ATOM     57  C   UNL A   1      39.932  29.475  29.712  1.00  0.00     0.049 A 
ATOM     58  H   UNL A   1      40.060  30.339  31.602  1.00  0.00     0.167 HD
ATOM     59  C   UNL A   1      40.236  32.296  35.526  1.00  0.00     0.037 A 
ATOM     60  C   UNL A   1      40.934  28.580  29.623  1.00  0.00     0.037 A 
ATOM     61  C   UNL A   1      41.283  31.309  35.551  1.00  0.00     0.049 A 
ATOM     62  C   UNL A   1      41.837  28.372  30.809  1.00  0.00     0.074 A 
ATOM     63  C   UNL A   1      42.154  30.998  36.580  1.00  0.00     0.029 A 
ATOM     64  N   UNL A   1      41.600  30.469  34.492  1.00  0.00    -0.354 N 
ATOM     65  N   UNL A   1      41.824  28.967  31.977  1.00  0.00    -0.248 NA
ATOM     66  C   UNL A   1      42.883  27.350  30.668  1.00  0.00     0.031 C 
ATOM     67  C   UNL A   1      43.027  30.001  36.130  1.00  0.00     0.029 A 
ATOM     68  C   UNL A   1      42.662  29.648  34.840  1.00  0.00     0.049 A 
ATOM     69  H   UNL A   1      41.138  30.457  33.624  1.00  0.00     0.167 HD
ATOM     70  C   UNL A   1      42.832  28.368  32.723  1.00  0.00     0.074 A 
ATOM     71  C   UNL A   1      43.424  27.351  31.878  1.00  0.00     0.031 C 
ATOM     72  C   UNL A   1      43.231  28.634  33.991  1.00  0.00     0.037 A 
BRANCH  59  73
ATOM     73  C   UNL A   1      40.042  33.167  36.735  1.00  0.00     0.064 A 
ATOM     74  C   UNL A   1      40.818  34.318  36.947  1.00  0.00     0.173 A 
ATOM     75  C   UNL A   1      39.057  32.859  37.685  1.00  0.00     0.173 A 
ATOM     76  F   UNL A   1      41.784  34.651  36.078  1.00  0.00    -0.203 F 
ATOM     77  C   UNL A   1      40.639  35.106  38.081  1.00  0.00     0.198 A 
ATOM     78  C   UNL A   1      38.857  33.669  38.800  1.00  0.00     0.198 A 
ATOM     79  F   UNL A   1      38.284  31.774  37.531  1.00  0.00    -0.203 F 
ATOM     80  F   UNL A   1      41.433  36.164  38.291  1.00  0.00    -0.200 F 
ATOM     81  C   UNL A   1      39.654  34.785  39.003  1.00  0.00     0.200 A 
ATOM     82  F   UNL A   1      37.895  33.365  39.684  1.00  0.00    -0.200 F 
ATOM     83  F   UNL A   1      39.479  35.547  40.092  1.00  0.00    -0.200 F 
ENDBRANCH  59  73
BRANCH  60  84
ATOM     84  C   UNL A   1      41.110  27.781  28.382  1.00  0.00     0.064 A 
ATOM     85  C   UNL A   1      40.451  26.554  28.215  1.00  0.00     0.173 A 
ATOM     86  C   UNL A   1      41.950  28.215  27.347  1.00  0.00     0.173 A 
ATOM     87  F   UNL A   1      39.650  26.087  29.184  1.00  0.00    -0.203 F 
ATOM     88  C   UNL A   1      40.647  25.781  27.073  1.00  0.00     0.198 A 
ATOM     89  C   UNL A   1      42.122  27.455  26.192  1.00  0.00     0.198 A 
ATOM     90  F   UNL A   1      42.598  29.385  27.453  1.00  0.00    -0.203 F 
ATOM     91  F   UNL A   1      40.047  24.588  26.964  1.00  0.00    -0.200 F 
ATOM     92  C   UNL A   1      41.479  26.233  26.060  1.00  0.00     0.200 A 
ATOM     93  F   UNL A   1      42.914  27.904  25.208  1.00  0.00    -0.200 F 
ATOM     94  F   UNL A   1      41.667  25.489  24.962  1.00  0.00    -0.200 F 
ENDBRANCH  60  84
BRANCH  72  95
ATOM     95  C   UNL A   1      44.325  27.773  34.559  1.00  0.00     0.064 A 
ATOM     96  C   UNL A   1      45.676  28.137  34.474  1.00  0.00     0.173 A 
ATOM     97  C   UNL A   1      44.011  26.568  35.206  1.00  0.00     0.173 A 
ATOM     98  F   UNL A   1      46.032  29.274  33.855  1.00  0.00    -0.203 F 
ATOM     99  C   UNL A   1      46.675  27.306  34.975  1.00  0.00     0.198 A 
ATOM    100  C   UNL A   1      45.009  25.757  35.738  1.00  0.00     0.198 A 
ATOM    101  F   UNL A   1      42.733  26.176  35.325  1.00  0.00    -0.203 F 
ATOM    102  F   UNL A   1      47.963  27.643  34.820  1.00  0.00    -0.200 F 
ATOM    103  C   UNL A   1      46.340  26.120  35.610  1.00  0.00     0.200 A 
ATOM    104  F   UNL A   1      44.682  24.619  36.367  1.00  0.00    -0.200 F 
ATOM    105  F   UNL A   1      47.303  25.321  36.090  1.00  0.00    -0.200 F 
ENDBRANCH  72  95
ENDBRANCH  46  47
ENDBRANCH  38  41
ENDBRANCH  36  37
ENDBRANCH  35  36
ENDBRANCH  34  35
ENDBRANCH  33  34
ENDBRANCH   1  33
TORSDOF 19
ENDMDL
MODEL 2
REMARK VINA RESULT:     -11.8      1.763      7.216
REMARK SMILES COc1ccc(CCN2C(=O)CC[C@@H](C(=O)NCCCCCCNC(=O)c3ccc(-c4c5nc(c(-c6c(F)c(F)c(F)c(F)c6F)c6ccc([nH]6)c(-c6c(F)c(F)c(F)c(F)c6F)c6nc(c(-c7c(F)c(F)c(F)c(F)c7F)c7ccc4[nH]7)C=C6)C=C5)cc3)[C@@H]2c2ccc(Cl)cc2)cc1OC
REMARK SMILES IDX 19 1 18 2 17 3 15 4 16 5 14 7 9 8 10 9 90 10 11 11 12 12
REMARK SMILES IDX 13 13 8 14 7 15 6 16 3 17 4 18 99 19 5 20 98 21 2 22 1 23
REMARK SMILES IDX 100 24 101 25 91 26 92 27 97 28 93 29 96 30 94 31 95 32
REMARK SMILES IDX 20 33 21 34 22 35 23 36 24 37 25 38 26 40 27 41 28 42 89 43
REMARK SMILES IDX 29 44 88 45 30 46 31 47 32 48 82 49 33 50 87 51 81 52 83 53
REMARK SMILES IDX 34 54 86 55 80 56 79 57 35 59 67 60 47 61 66 62 48 63 51 64
REMARK SMILES IDX 65 65 84 66 49 67 50 68 64 70 85 71 52 72 36 73 37 74 45 75
REMARK SMILES IDX 38 76 39 77 43 78 46 79 40 80 41 81 44 82 42 83 68 84 69 85
REMARK SMILES IDX 77 86 70 87 71 88 75 89 78 90 72 91 73 92 76 93 74 94 53 95
REMARK SMILES IDX 54 96 62 97 55 98 56 99 60 100 63 101 57 102 58 103 61 104
REMARK SMILES IDX 59 105
REMARK H PARENT 17 6 24 39 83 58 51 69
REMARK Flexibility Score: inf
ROOT
ATOM      1  C   UNL A   1      34.062  31.632  28.050  1.00  0.00     0.021 C 
ENDROOT
BRANCH   1   2
ATOM      2  C   UNL A   1      34.222  30.239  27.440  1.00  0.00     0.116 C 
BRANCH   2   3
ATOM      3  N   UNL A   1      33.057  29.419  27.683  1.00  0.00    -0.356 N 
ATOM      4  C   UNL A   1      32.643  28.273  27.081  1.00  0.00     0.225 C 
ATOM      5  O   UNL A   1      31.634  27.736  27.537  1.00  0.00    -0.275 OA
ATOM      6  H   UNL A   1      32.467  29.742  28.402  1.00  0.00     0.163 HD
BRANCH   4   7
ATOM      7  C   UNL A   1      33.440  27.683  25.916  1.00  0.00     0.106 C 
ATOM      8  N   UNL A   1      31.600  26.730  24.456  1.00  0.00    -0.335 N 
ATOM      9  C   UNL A   1      31.193  28.052  24.273  1.00  0.00     0.223 C 
ATOM     10  C   UNL A   1      32.734  26.403  25.379  1.00  0.00     0.128 C 
ATOM     11  O   UNL A   1      30.036  28.385  24.022  1.00  0.00    -0.275 OA
ATOM     12  C   UNL A   1      32.271  29.114  24.259  1.00  0.00     0.101 C 
ATOM     13  C   UNL A   1      33.619  28.630  24.735  1.00  0.00     0.026 C 
BRANCH   8  14
ATOM     14  C   UNL A   1      30.594  25.683  24.209  1.00  0.00     0.125 C 
BRANCH  14  15
ATOM     15  C   UNL A   1      30.533  24.501  25.214  1.00  0.00     0.057 C 
BRANCH  15  16
ATOM     16  C   UNL A   1      31.303  23.239  24.878  1.00  0.00    -0.042 A 
ATOM     17  C   UNL A   1      32.683  20.844  24.291  1.00  0.00     0.160 A 
ATOM     18  C   UNL A   1      32.049  21.562  23.277  1.00  0.00     0.051 A 
ATOM     19  C   UNL A   1      32.635  21.313  25.610  1.00  0.00     0.160 A 
ATOM     20  C   UNL A   1      31.335  22.721  23.578  1.00  0.00     0.008 A 
ATOM     21  C   UNL A   1      31.956  22.514  25.885  1.00  0.00     0.054 A 
BRANCH  17  22
ATOM     22  O   UNL A   1      33.404  19.728  23.962  1.00  0.00    -0.493 OA
ATOM     23  C   UNL A   1      32.585  18.562  23.865  1.00  0.00     0.278 C 
ENDBRANCH  17  22
BRANCH  19  24
ATOM     24  O   UNL A   1      33.186  20.738  26.724  1.00  0.00    -0.493 OA
ATOM     25  C   UNL A   1      34.133  21.506  27.455  1.00  0.00     0.278 C 
ENDBRANCH  19  24
ENDBRANCH  15  16
ENDBRANCH  14  15
ENDBRANCH   8  14
BRANCH  10  26
ATOM     26  C   UNL A   1      33.777  25.411  24.827  1.00  0.00    -0.025 A 
ATOM     27  C   UNL A   1      33.877  25.066  23.474  1.00  0.00     0.007 A 
ATOM     28  C   UNL A   1      34.679  24.789  25.719  1.00  0.00     0.007 A 
ATOM     29  C   UNL A   1      34.825  24.139  23.022  1.00  0.00     0.021 A 
ATOM     30  C   UNL A   1      35.653  23.894  25.268  1.00  0.00     0.021 A 
ATOM     31  C   UNL A   1      35.718  23.566  23.918  1.00  0.00     0.041 A 
ATOM     32  Cl  UNL A   1      36.897  22.447  23.362  1.00  0.00    -0.084 Cl
ENDBRANCH  10  26
ENDBRANCH   4   7
ENDBRANCH   2   3
ENDBRANCH   1   2
BRANCH   1  33
ATOM     33  C   UNL A   1      35.377  32.403  28.222  1.00  0.00     0.002 C 
BRANCH  33  34
ATOM     34  C   UNL A   1      35.225  33.837  28.738  1.00  0.00     0.002 C 
BRANCH  34  35
ATOM     35  C   UNL A   1      33.782  34.311  28.915  1.00  0.00     0.021 C 
BRANCH  35  36
ATOM     36  C   UNL A   1      33.643  35.770  29.327  1.00  0.00     0.116 C 
BRANCH  36  37
ATOM     37  N   UNL A   1      32.693  35.942  30.412  1.00  0.00    -0.352 N 
ATOM     38  C   UNL A   1      32.731  35.428  31.680  1.00  0.00     0.251 C 
ATOM     39  H   UNL A   1      31.913  36.506  30.208  1.00  0.00     0.163 HD
ATOM     40  O   UNL A   1      31.741  35.512  32.408  1.00  0.00    -0.269 OA
BRANCH  38  41
ATOM     41  C   UNL A   1      33.952  34.761  32.178  1.00  0.00     0.039 A 
ATOM     42  C   UNL A   1      35.123  35.511  32.310  1.00  0.00     0.014 A 
ATOM     43  C   UNL A   1      33.958  33.395  32.478  1.00  0.00     0.014 A 
ATOM     44  C   UNL A   1      36.292  34.897  32.759  1.00  0.00     0.010 A 
ATOM     45  C   UNL A   1      35.101  32.803  33.007  1.00  0.00     0.010 A 
ATOM     46  C   UNL A   1      36.288  33.540  33.123  1.00  0.00    -0.014 A 
BRANCH  46  47
ATOM     47  C   UNL A   1      37.536  32.866  33.563  1.00  0.00     0.031 A 
ATOM     48  C   UNL A   1      38.217  31.879  32.653  1.00  0.00     0.074 A 
ATOM     49  C   UNL A   1      38.040  33.119  34.785  1.00  0.00     0.049 A 
ATOM     50  N   UNL A   1      39.304  31.177  32.854  1.00  0.00    -0.248 NA
ATOM     51  C   UNL A   1      37.574  31.625  31.353  1.00  0.00     0.031 C 
ATOM     52  C   UNL A   1      37.447  34.018  35.776  1.00  0.00     0.029 A 
ATOM     53  N   UNL A   1      39.171  32.644  35.400  1.00  0.00    -0.354 N 
ATOM     54  C   UNL A   1      39.463  30.394  31.718  1.00  0.00     0.074 A 
ATOM     55  C   UNL A   1      38.329  30.655  30.861  1.00  0.00     0.031 C 
ATOM     56  C   UNL A   1      38.234  34.053  36.863  1.00  0.00     0.029 A 
ATOM     57  C   UNL A   1      39.370  33.160  36.658  1.00  0.00     0.049 A 
ATOM     58  H   UNL A   1      39.782  31.996  34.981  1.00  0.00     0.167 HD
ATOM     59  C   UNL A   1      40.480  29.556  31.401  1.00  0.00     0.037 A 
ATOM     60  C   UNL A   1      40.363  32.939  37.539  1.00  0.00     0.037 A 
ATOM     61  C   UNL A   1      41.621  29.319  32.245  1.00  0.00     0.049 A 
ATOM     62  C   UNL A   1      41.488  32.015  37.158  1.00  0.00     0.074 A 
ATOM     63  C   UNL A   1      42.728  28.526  32.001  1.00  0.00     0.029 A 
ATOM     64  N   UNL A   1      41.801  29.880  33.502  1.00  0.00    -0.354 N 
ATOM     65  N   UNL A   1      41.663  31.331  36.054  1.00  0.00    -0.248 NA
ATOM     66  C   UNL A   1      42.566  31.848  38.143  1.00  0.00     0.031 C 
ATOM     67  C   UNL A   1      43.557  28.571  33.128  1.00  0.00     0.029 A 
ATOM     68  C   UNL A   1      42.996  29.440  34.051  1.00  0.00     0.049 A 
ATOM     69  H   UNL A   1      41.174  30.500  33.939  1.00  0.00     0.167 HD
ATOM     70  C   UNL A   1      42.885  30.684  36.193  1.00  0.00     0.074 A 
ATOM     71  C   UNL A   1      43.414  31.072  37.485  1.00  0.00     0.031 C 
ATOM     72  C   UNL A   1      43.513  29.845  35.332  1.00  0.00     0.037 A 
BRANCH  59  73
ATOM     73  C   UNL A   1      40.402  28.839  30.083  1.00  0.00     0.064 A 
ATOM     74  C   UNL A   1      40.984  29.368  28.920  1.00  0.00     0.173 A 
ATOM     75  C   UNL A   1      39.754  27.599  29.982  1.00  0.00     0.173 A 
ATOM     76  F   UNL A   1      41.603  30.558  28.956  1.00  0.00    -0.203 F 
ATOM     77  C   UNL A   1      40.890  28.702  27.701  1.00  0.00     0.198 A 
ATOM     78  C   UNL A   1      39.692  26.917  28.769  1.00  0.00     0.198 A 
ATOM     79  F   UNL A   1      39.184  27.044  31.062  1.00  0.00    -0.203 F 
ATOM     80  F   UNL A   1      41.401  29.257  26.594  1.00  0.00    -0.200 F 
ATOM     81  C   UNL A   1      40.250  27.474  27.628  1.00  0.00     0.200 A 
ATOM     82  F   UNL A   1      39.085  25.724  28.703  1.00  0.00    -0.200 F 
ATOM     83  F   UNL A   1      40.164  26.830  26.456  1.00  0.00    -0.200 F 
ENDBRANCH  59  73
BRANCH  60  84
ATOM     84  C   UNL A   1      40.363  33.638  38.852  1.00  0.00     0.064 A 
ATOM     85  C   UNL A   1      39.633  33.132  39.938  1.00  0.00     0.173 A 
ATOM     86  C   UNL A   1      41.076  34.829  39.045  1.00  0.00     0.173 A 
ATOM     87  F   UNL A   1      38.920  32.004  39.798  1.00  0.00    -0.203 F 
ATOM     88  C   UNL A   1      39.594  33.806  41.156  1.00  0.00     0.198 A 
ATOM     89  C   UNL A   1      41.060  35.486  40.273  1.00  0.00     0.198 A 
ATOM     90  F   UNL A   1      41.797  35.351  38.041  1.00  0.00    -0.203 F 
ATOM     91  F   UNL A   1      38.844  33.329  42.159  1.00  0.00    -0.200 F 
ATOM     92  C   UNL A   1      40.311  34.981  41.324  1.00  0.00     0.200 A 
ATOM     93  F   UNL A   1      41.768  36.613  40.437  1.00  0.00    -0.200 F 
ATOM     94  F   UNL A   1      40.273  35.629  42.496  1.00  0.00    -0.200 F 
ENDBRANCH  60  84
BRANCH  72  95
ATOM     95  C   UNL A   1      44.868  29.338  35.738  1.00  0.00     0.064 A 
ATOM     96  C   UNL A   1      46.049  30.003  35.378  1.00  0.00     0.173 A 
ATOM     97  C   UNL A   1      44.983  28.170  36.508  1.00  0.00     0.173 A 
ATOM     98  F   UNL A   1      45.996  31.118  34.632  1.00  0.00    -0.203 F 
ATOM     99  C   UNL A   1      47.295  29.494  35.734  1.00  0.00     0.198 A 
ATOM    100  C   UNL A   1      46.229  27.683  36.894  1.00  0.00     0.198 A 
ATOM    101  F   UNL A   1      43.885  27.500  36.889  1.00  0.00    -0.203 F 
ATOM    102  F   UNL A   1      48.411  30.109  35.319  1.00  0.00    -0.200 F 
ATOM    103  C   UNL A   1      47.383  28.338  36.496  1.00  0.00     0.200 A 
ATOM    104  F   UNL A   1      46.311  26.576  37.644  1.00  0.00    -0.200 F 
ATOM    105  F   UNL A   1      48.584  27.849  36.836  1.00  0.00    -0.200 F 
ENDBRANCH  72  95
ENDBRANCH  46  47
ENDBRANCH  38  41
ENDBRANCH  36  37
ENDBRANCH  35  36
ENDBRANCH  34  35
ENDBRANCH  33  34
ENDBRANCH   1  33
TORSDOF 19
ENDMDL
MODEL 3
REMARK VINA RESULT:     -11.7      5.675     11.216
REMARK SMILES COc1ccc(CCN2C(=O)CC[C@@H](C(=O)NCCCCCCNC(=O)c3ccc(-c4c5nc(c(-c6c(F)c(F)c(F)c(F)c6F)c6ccc([nH]6)c(-c6c(F)c(F)c(F)c(F)c6F)c6nc(c(-c7c(F)c(F)c(F)c(F)c7F)c7ccc4[nH]7)C=C6)C=C5)cc3)[C@@H]2c2ccc(Cl)cc2)cc1OC
REMARK SMILES IDX 19 1 18 2 17 3 15 4 16 5 14 7 9 8 10 9 90 10 11 11 12 12
REMARK SMILES IDX 13 13 8 14 7 15 6 16 3 17 4 18 99 19 5 20 98 21 2 22 1 23
REMARK SMILES IDX 100 24 101 25 91 26 92 27 97 28 93 29 96 30 94 31 95 32
REMARK SMILES IDX 20 33 21 34 22 35 23 36 24 37 25 38 26 40 27 41 28 42 89 43
REMARK SMILES IDX 29 44 88 45 30 46 31 47 32 48 82 49 33 50 87 51 81 52 83 53
REMARK SMILES IDX 34 54 86 55 80 56 79 57 35 59 67 60 47 61 66 62 48 63 51 64
REMARK SMILES IDX 65 65 84 66 49 67 50 68 64 70 85 71 52 72 36 73 37 74 45 75
REMARK SMILES IDX 38 76 39 77 43 78 46 79 40 80 41 81 44 82 42 83 68 84 69 85
REMARK SMILES IDX 77 86 70 87 71 88 75 89 78 90 72 91 73 92 76 93 74 94 53 95
REMARK SMILES IDX 54 96 62 97 55 98 56 99 60 100 63 101 57 102 58 103 61 104
REMARK SMILES IDX 59 105
REMARK H PARENT 17 6 24 39 83 58 51 69
REMARK Flexibility Score: inf
ROOT
ATOM      1  C   UNL A   1      40.297  22.360  27.246  1.00  0.00     0.021 C 
ENDROOT
BRANCH   1   2
ATOM      2  C   UNL A   1      39.270  22.242  26.119  1.00  0.00     0.116 C 
BRANCH   2   3
ATOM      3  N   UNL A   1      38.091  23.032  26.394  1.00  0.00    -0.356 N 
ATOM      4  C   UNL A   1      36.788  22.812  26.078  1.00  0.00     0.225 C 
ATOM      5  O   UNL A   1      35.966  23.626  26.500  1.00  0.00    -0.275 OA
ATOM      6  H   UNL A   1      38.260  23.866  26.890  1.00  0.00     0.163 HD
BRANCH   4   7
ATOM      7  C   UNL A   1      36.389  21.578  25.266  1.00  0.00     0.106 C 
ATOM      8  N   UNL A   1      34.321  22.401  24.051  1.00  0.00    -0.335 N 
ATOM      9  C   UNL A   1      35.178  23.281  23.390  1.00  0.00     0.223 C 
ATOM     10  C   UNL A   1      34.839  21.504  25.134  1.00  0.00     0.128 C 
ATOM     11  O   UNL A   1      34.825  24.367  22.931  1.00  0.00    -0.275 OA
ATOM     12  C   UNL A   1      36.588  22.804  23.116  1.00  0.00     0.101 C 
ATOM     13  C   UNL A   1      36.965  21.543  23.855  1.00  0.00     0.026 C 
BRANCH   8  14
ATOM     14  C   UNL A   1      32.893  22.759  24.082  1.00  0.00     0.125 C 
BRANCH  14  15
ATOM     15  C   UNL A   1      32.382  23.551  25.317  1.00  0.00     0.057 C 
BRANCH  15  16
ATOM     16  C   UNL A   1      32.481  25.064  25.284  1.00  0.00    -0.042 A 
ATOM     17  C   UNL A   1      32.600  27.887  25.271  1.00  0.00     0.160 A 
ATOM     18  C   UNL A   1      33.615  27.138  25.867  1.00  0.00     0.051 A 
ATOM     19  C   UNL A   1      31.514  27.235  24.675  1.00  0.00     0.160 A 
ATOM     20  C   UNL A   1      33.531  25.747  25.907  1.00  0.00     0.008 A 
ATOM     21  C   UNL A   1      31.475  25.829  24.676  1.00  0.00     0.054 A 
BRANCH  17  22
ATOM     22  O   UNL A   1      32.726  29.249  25.218  1.00  0.00    -0.493 OA
ATOM     23  C   UNL A   1      32.010  29.901  26.269  1.00  0.00     0.278 C 
ENDBRANCH  17  22
BRANCH  19  24
ATOM     24  O   UNL A   1      30.431  27.803  24.058  1.00  0.00    -0.493 OA
ATOM     25  C   UNL A   1      30.324  27.644  22.650  1.00  0.00     0.278 C 
ENDBRANCH  19  24
ENDBRANCH  15  16
ENDBRANCH  14  15
ENDBRANCH   8  14
BRANCH  10  26
ATOM     26  C   UNL A   1      34.381  20.033  25.056  1.00  0.00    -0.025 A 
ATOM     27  C   UNL A   1      35.179  19.000  24.551  1.00  0.00     0.007 A 
ATOM     28  C   UNL A   1      33.083  19.690  25.494  1.00  0.00     0.007 A 
ATOM     29  C   UNL A   1      34.712  17.682  24.476  1.00  0.00     0.021 A 
ATOM     30  C   UNL A   1      32.625  18.369  25.458  1.00  0.00     0.021 A 
ATOM     31  C   UNL A   1      33.441  17.369  24.941  1.00  0.00     0.041 A 
ATOM     32  Cl  UNL A   1      32.874  15.749  24.872  1.00  0.00    -0.084 Cl
ENDBRANCH  10  26
ENDBRANCH   4   7
ENDBRANCH   2   3
ENDBRANCH   1   2
BRANCH   1  33
ATOM     33  C   UNL A   1      40.817  21.016  27.772  1.00  0.00     0.002 C 
BRANCH  33  34
ATOM     34  C   UNL A   1      42.288  20.724  27.462  1.00  0.00     0.002 C 
BRANCH  34  35
ATOM     35  C   UNL A   1      42.559  19.342  26.864  1.00  0.00     0.021 C 
BRANCH  35  36
ATOM     36  C   UNL A   1      42.447  19.280  25.347  1.00  0.00     0.116 C 
BRANCH  36  37
ATOM     37  N   UNL A   1      43.697  18.880  24.725  1.00  0.00    -0.352 N 
ATOM     38  C   UNL A   1      44.789  19.645  24.415  1.00  0.00     0.251 C 
ATOM     39  H   UNL A   1      43.770  17.926  24.494  1.00  0.00     0.163 HD
ATOM     40  O   UNL A   1      45.685  19.181  23.708  1.00  0.00    -0.269 OA
BRANCH  38  41
ATOM     41  C   UNL A   1      44.894  21.032  24.914  1.00  0.00     0.039 A 
ATOM     42  C   UNL A   1      44.406  22.072  24.119  1.00  0.00     0.014 A 
ATOM     43  C   UNL A   1      45.504  21.314  26.140  1.00  0.00     0.014 A 
ATOM     44  C   UNL A   1      44.514  23.390  24.562  1.00  0.00     0.010 A 
ATOM     45  C   UNL A   1      45.532  22.620  26.619  1.00  0.00     0.010 A 
ATOM     46  C   UNL A   1      45.067  23.675  25.822  1.00  0.00    -0.014 A 
BRANCH  46  47
ATOM     47  C   UNL A   1      45.224  25.077  26.285  1.00  0.00     0.031 A 
ATOM     48  C   UNL A   1      46.564  25.754  26.187  1.00  0.00     0.074 A 
ATOM     49  C   UNL A   1      44.173  25.730  26.816  1.00  0.00     0.049 A 
ATOM     50  N   UNL A   1      46.911  26.964  26.548  1.00  0.00    -0.248 NA
ATOM     51  C   UNL A   1      47.671  24.954  25.638  1.00  0.00     0.031 C 
ATOM     52  C   UNL A   1      42.836  25.166  27.009  1.00  0.00     0.029 A 
ATOM     53  N   UNL A   1      44.065  27.013  27.289  1.00  0.00    -0.354 N 
ATOM     54  C   UNL A   1      48.271  27.062  26.282  1.00  0.00     0.074 A 
ATOM     55  C   UNL A   1      48.701  25.771  25.794  1.00  0.00     0.031 C 
ATOM     56  C   UNL A   1      42.034  26.108  27.531  1.00  0.00     0.029 A 
ATOM     57  C   UNL A   1      42.805  27.330  27.736  1.00  0.00     0.049 A 
ATOM     58  H   UNL A   1      44.818  27.647  27.306  1.00  0.00     0.167 HD
ATOM     59  C   UNL A   1      49.083  28.140  26.402  1.00  0.00     0.037 A 
ATOM     60  C   UNL A   1      42.330  28.481  28.247  1.00  0.00     0.037 A 
ATOM     61  C   UNL A   1      48.645  29.431  26.862  1.00  0.00     0.049 A 
ATOM     62  C   UNL A   1      43.248  29.668  28.357  1.00  0.00     0.074 A 
ATOM     63  C   UNL A   1      49.375  30.602  26.979  1.00  0.00     0.029 A 
ATOM     64  N   UNL A   1      47.355  29.722  27.282  1.00  0.00    -0.354 N 
ATOM     65  N   UNL A   1      44.516  29.769  28.039  1.00  0.00    -0.248 NA
ATOM     66  C   UNL A   1      42.660  30.909  28.879  1.00  0.00     0.031 C 
ATOM     67  C   UNL A   1      48.538  31.589  27.511  1.00  0.00     0.029 A 
ATOM     68  C   UNL A   1      47.270  31.050  27.670  1.00  0.00     0.049 A 
ATOM     69  H   UNL A   1      46.609  29.080  27.300  1.00  0.00     0.167 HD
ATOM     70  C   UNL A   1      44.869  31.091  28.287  1.00  0.00     0.074 A 
ATOM     71  C   UNL A   1      43.674  31.755  28.765  1.00  0.00     0.031 C 
ATOM     72  C   UNL A   1      46.071  31.699  28.132  1.00  0.00     0.037 A 
BRANCH  59  73
ATOM     73  C   UNL A   1      50.527  27.965  26.024  1.00  0.00     0.064 A 
ATOM     74  C   UNL A   1      50.949  28.002  24.685  1.00  0.00     0.173 A 
ATOM     75  C   UNL A   1      51.506  27.777  27.012  1.00  0.00     0.173 A 
ATOM     76  F   UNL A   1      50.054  28.165  23.699  1.00  0.00    -0.203 F 
ATOM     77  C   UNL A   1      52.288  27.822  24.348  1.00  0.00     0.198 A 
ATOM     78  C   UNL A   1      52.849  27.632  26.674  1.00  0.00     0.198 A 
ATOM     79  F   UNL A   1      51.160  27.737  28.307  1.00  0.00    -0.203 F 
ATOM     80  F   UNL A   1      52.656  27.800  23.060  1.00  0.00    -0.200 F 
ATOM     81  C   UNL A   1      53.238  27.644  25.343  1.00  0.00     0.200 A 
ATOM     82  F   UNL A   1      53.768  27.474  27.637  1.00  0.00    -0.200 F 
ATOM     83  F   UNL A   1      54.527  27.475  25.018  1.00  0.00    -0.200 F 
ENDBRANCH  59  73
BRANCH  60  84
ATOM     84  C   UNL A   1      40.903  28.582  28.652  1.00  0.00     0.064 A 
ATOM     85  C   UNL A   1      39.927  29.033  27.750  1.00  0.00     0.173 A 
ATOM     86  C   UNL A   1      40.486  28.247  29.947  1.00  0.00     0.173 A 
ATOM     87  F   UNL A   1      40.279  29.383  26.503  1.00  0.00    -0.203 F 
ATOM     88  C   UNL A   1      38.597  29.172  28.137  1.00  0.00     0.198 A 
ATOM     89  C   UNL A   1      39.149  28.357  30.325  1.00  0.00     0.198 A 
ATOM     90  F   UNL A   1      41.377  27.803  30.846  1.00  0.00    -0.203 F 
ATOM     91  F   UNL A   1      37.697  29.657  27.272  1.00  0.00    -0.200 F 
ATOM     92  C   UNL A   1      38.207  28.830  29.423  1.00  0.00     0.200 A 
ATOM     93  F   UNL A   1      38.774  28.010  31.564  1.00  0.00    -0.200 F 
ATOM     94  F   UNL A   1      36.927  28.963  29.796  1.00  0.00    -0.200 F 
ENDBRANCH  60  84
BRANCH  72  95
ATOM     95  C   UNL A   1      46.136  33.170  28.431  1.00  0.00     0.064 A 
ATOM     96  C   UNL A   1      45.896  34.140  27.447  1.00  0.00     0.173 A 
ATOM     97  C   UNL A   1      46.434  33.615  29.729  1.00  0.00     0.173 A 
ATOM     98  F   UNL A   1      45.618  33.769  26.187  1.00  0.00    -0.203 F 
ATOM     99  C   UNL A   1      45.997  35.497  27.739  1.00  0.00     0.198 A 
ATOM    100  C   UNL A   1      46.499  34.973  30.026  1.00  0.00     0.198 A 
ATOM    101  F   UNL A   1      46.662  32.730  30.712  1.00  0.00    -0.203 F 
ATOM    102  F   UNL A   1      45.832  36.404  26.765  1.00  0.00    -0.200 F 
ATOM    103  C   UNL A   1      46.294  35.912  29.028  1.00  0.00     0.200 A 
ATOM    104  F   UNL A   1      46.769  35.372  31.277  1.00  0.00    -0.200 F 
ATOM    105  F   UNL A   1      46.393  37.220  29.306  1.00  0.00    -0.200 F 
ENDBRANCH  72  95
ENDBRANCH  46  47
ENDBRANCH  38  41
ENDBRANCH  36  37
ENDBRANCH  35  36
ENDBRANCH  34  35
ENDBRANCH  33  34
ENDBRANCH   1  33
TORSDOF 19
ENDMDL
