MODEL 1
REMARK VINA RESULT:     -11.8      0.000      0.000
REMARK SMILES CCc1ccc(C(=O)N[C@@H](CC(C)C)C(=O)NCCCCCCNC(=O)c2ccc(-c3c4nc(c(-c5c(F)c(F)c(F)c(F)c5F)c5ccc([nH]5)c(-c5c(F)c(F)c(F)c(F)c5F)c5nc(c(-c6c(F)c(F)c(F)c(F)c6F)c6ccc3[nH]6)C=C5)C=C4)cc2)cc1
REMARK SMILES IDX 20 1 19 2 18 3 17 4 15 5 16 6 10 8 9 9 7 10 8 11 6 13 3 14
REMARK SMILES IDX 4 15 91 16 5 17 90 18 2 19 1 20 11 21 12 22 13 23 14 24
REMARK SMILES IDX 21 25 22 26 23 27 24 28 25 29 26 31 27 32 28 33 89 34 29 35
REMARK SMILES IDX 88 36 30 37 31 38 32 39 82 40 33 41 87 42 81 43 83 44 34 45
REMARK SMILES IDX 86 46 80 47 79 48 35 50 67 51 47 52 66 53 48 54 51 55 65 56
REMARK SMILES IDX 84 57 49 58 50 59 64 61 85 62 52 63 36 64 37 65 45 66 38 67
REMARK SMILES IDX 39 68 43 69 46 70 40 71 41 72 44 73 42 74 68 75 69 76 77 77
REMARK SMILES IDX 70 78 71 79 75 80 78 81 72 82 73 83 76 84 74 85 53 86 54 87
REMARK SMILES IDX 62 88 55 89 56 90 60 91 63 92 57 93 58 94 61 95 59 96
REMARK H PARENT 17 7 9 12 24 30 83 49 51 60
REMARK Flexibility Score: inf
ROOT
ATOM      1  C   UNL A   1      32.042  29.811  27.016  1.00  0.00     0.002 C 
ENDROOT
BRANCH   1   2
ATOM      2  C   UNL A   1      31.773  28.333  26.716  1.00  0.00     0.021 C 
BRANCH   2   3
ATOM      3  C   UNL A   1      31.959  27.933  25.259  1.00  0.00     0.116 C 
BRANCH   3   4
ATOM      4  N   UNL A   1      30.716  27.612  24.597  1.00  0.00    -0.354 N 
ATOM      5  C   UNL A   1      30.096  26.421  24.391  1.00  0.00     0.242 C 
ATOM      6  O   UNL A   1      28.884  26.478  24.145  1.00  0.00    -0.273 OA
ATOM      7  H   UNL A   1      30.236  28.390  24.230  1.00  0.00     0.163 HD
BRANCH   5   8
ATOM      8  C   UNL A   1      30.770  25.042  24.586  1.00  0.00     0.171 C 
BRANCH   8   9
ATOM      9  N   UNL A   1      30.283  24.232  25.708  1.00  0.00    -0.340 N 
ATOM     10  C   UNL A   1      30.916  23.323  26.523  1.00  0.00     0.251 C 
ATOM     11  O   UNL A   1      30.320  22.970  27.542  1.00  0.00    -0.269 OA
ATOM     12  H   UNL A   1      29.329  24.361  25.914  1.00  0.00     0.164 HD
BRANCH  10  13
ATOM     13  C   UNL A   1      32.263  22.750  26.238  1.00  0.00     0.039 A 
ATOM     14  C   UNL A   1      34.874  21.781  25.736  1.00  0.00    -0.048 A 
ATOM     15  C   UNL A   1      34.684  23.023  26.351  1.00  0.00     0.004 A 
ATOM     16  C   UNL A   1      33.749  21.004  25.435  1.00  0.00     0.004 A 
ATOM     17  C   UNL A   1      33.391  23.506  26.592  1.00  0.00     0.014 A 
ATOM     18  C   UNL A   1      32.462  21.469  25.721  1.00  0.00     0.014 A 
BRANCH  14  19
ATOM     19  C   UNL A   1      36.258  21.261  25.436  1.00  0.00     0.032 C 
ATOM     20  C   UNL A   1      36.944  22.030  24.313  1.00  0.00     0.009 C 
ENDBRANCH  14  19
ENDBRANCH  10  13
ENDBRANCH   8   9
BRANCH   8  21
ATOM     21  C   UNL A   1      30.951  24.175  23.317  1.00  0.00     0.038 C 
BRANCH  21  22
ATOM     22  C   UNL A   1      32.308  24.227  22.590  1.00  0.00    -0.015 C 
ATOM     23  C   UNL A   1      33.333  25.066  23.361  1.00  0.00     0.007 C 
ATOM     24  C   UNL A   1      32.892  22.822  22.402  1.00  0.00     0.007 C 
ENDBRANCH  21  22
ENDBRANCH   8  21
ENDBRANCH   5   8
ENDBRANCH   3   4
ENDBRANCH   2   3
ENDBRANCH   1   2
BRANCH   1  25
ATOM     25  C   UNL A   1      31.480  30.820  26.008  1.00  0.00     0.002 C 
BRANCH  25  26
ATOM     26  C   UNL A   1      31.303  32.252  26.519  1.00  0.00     0.021 C 
BRANCH  26  27
ATOM     27  C   UNL A   1      32.532  32.866  27.173  1.00  0.00     0.116 C 
BRANCH  27  28
ATOM     28  N   UNL A   1      32.297  34.210  27.666  1.00  0.00    -0.352 N 
ATOM     29  C   UNL A   1      32.965  34.909  28.636  1.00  0.00     0.251 C 
ATOM     30  H   UNL A   1      31.548  34.690  27.241  1.00  0.00     0.163 HD
ATOM     31  O   UNL A   1      32.542  36.002  29.008  1.00  0.00    -0.269 OA
BRANCH  29  32
ATOM     32  C   UNL A   1      34.174  34.337  29.263  1.00  0.00     0.039 A 
ATOM     33  C   UNL A   1      34.013  33.519  30.384  1.00  0.00     0.014 A 
ATOM     34  C   UNL A   1      35.453  34.600  28.763  1.00  0.00     0.014 A 
ATOM     35  C   UNL A   1      35.130  32.932  30.975  1.00  0.00     0.010 A 
ATOM     36  C   UNL A   1      36.558  33.946  29.303  1.00  0.00     0.010 A 
ATOM     37  C   UNL A   1      36.408  33.114  30.421  1.00  0.00    -0.014 A 
BRANCH  37  38
ATOM     38  C   UNL A   1      37.585  32.430  31.012  1.00  0.00     0.031 A 
ATOM     39  C   UNL A   1      38.073  32.796  32.386  1.00  0.00     0.074 A 
ATOM     40  C   UNL A   1      38.223  31.484  30.297  1.00  0.00     0.049 A 
ATOM     41  N   UNL A   1      39.058  32.278  33.078  1.00  0.00    -0.248 NA
ATOM     42  C   UNL A   1      37.382  33.903  33.064  1.00  0.00     0.031 C 
ATOM     43  C   UNL A   1      37.879  31.085  28.930  1.00  0.00     0.029 A 
ATOM     44  N   UNL A   1      39.287  30.681  30.619  1.00  0.00    -0.354 N 
ATOM     45  C   UNL A   1      39.104  32.997  34.265  1.00  0.00     0.074 A 
ATOM     46  C   UNL A   1      38.095  34.029  34.174  1.00  0.00     0.031 C 
ATOM     47  C   UNL A   1      38.686  30.084  28.548  1.00  0.00     0.029 A 
ATOM     48  C   UNL A   1      39.627  29.794  29.626  1.00  0.00     0.049 A 
ATOM     49  H   UNL A   1      39.762  30.734  31.480  1.00  0.00     0.167 HD
ATOM     50  C   UNL A   1      39.895  32.795  35.346  1.00  0.00     0.037 A 
ATOM     51  C   UNL A   1      40.586  28.851  29.592  1.00  0.00     0.037 A 
ATOM     52  C   UNL A   1      40.895  31.760  35.433  1.00  0.00     0.049 A 
ATOM     53  C   UNL A   1      41.455  28.652  30.803  1.00  0.00     0.074 A 
ATOM     54  C   UNL A   1      41.716  31.439  36.499  1.00  0.00     0.029 A 
ATOM     55  N   UNL A   1      41.214  30.882  34.407  1.00  0.00    -0.354 N 
ATOM     56  N   UNL A   1      41.435  29.283  31.953  1.00  0.00    -0.248 NA
ATOM     57  C   UNL A   1      42.471  27.596  30.716  1.00  0.00     0.031 C 
ATOM     58  C   UNL A   1      42.572  30.408  36.099  1.00  0.00     0.029 A 
ATOM     59  C   UNL A   1      42.238  30.037  34.806  1.00  0.00     0.049 A 
ATOM     60  H   UNL A   1      40.776  30.862  33.525  1.00  0.00     0.167 HD
ATOM     61  C   UNL A   1      42.415  28.685  32.734  1.00  0.00     0.074 A 
ATOM     62  C   UNL A   1      42.989  27.621  31.935  1.00  0.00     0.031 C 
ATOM     63  C   UNL A   1      42.806  28.988  33.997  1.00  0.00     0.037 A 
BRANCH  50  64
ATOM     64  C   UNL A   1      39.714  33.715  36.521  1.00  0.00     0.064 A 
ATOM     65  C   UNL A   1      40.349  34.966  36.584  1.00  0.00     0.173 A 
ATOM     66  C   UNL A   1      38.873  33.356  37.586  1.00  0.00     0.173 A 
ATOM     67  F   UNL A   1      41.173  35.357  35.599  1.00  0.00    -0.203 F 
ATOM     68  C   UNL A   1      40.176  35.806  37.682  1.00  0.00     0.198 A 
ATOM     69  C   UNL A   1      38.675  34.214  38.666  1.00  0.00     0.198 A 
ATOM     70  F   UNL A   1      38.237  32.175  37.578  1.00  0.00    -0.203 F 
ATOM     71  F   UNL A   1      40.839  36.969  37.745  1.00  0.00    -0.200 F 
ATOM     72  C   UNL A   1      39.334  35.432  38.718  1.00  0.00     0.200 A 
ATOM     73  F   UNL A   1      37.848  33.857  39.659  1.00  0.00    -0.200 F 
ATOM     74  F   UNL A   1      39.163  36.244  39.770  1.00  0.00    -0.200 F 
ENDBRANCH  50  64
BRANCH  51  75
ATOM     75  C   UNL A   1      40.752  28.002  28.382  1.00  0.00     0.064 A 
ATOM     76  C   UNL A   1      40.118  26.756  28.282  1.00  0.00     0.173 A 
ATOM     77  C   UNL A   1      41.552  28.414  27.307  1.00  0.00     0.173 A 
ATOM     78  F   UNL A   1      39.355  26.309  29.291  1.00  0.00    -0.203 F 
ATOM     79  C   UNL A   1      40.299  25.943  27.165  1.00  0.00     0.198 A 
ATOM     80  C   UNL A   1      41.706  27.616  26.176  1.00  0.00     0.198 A 
ATOM     81  F   UNL A   1      42.175  29.601  27.348  1.00  0.00    -0.203 F 
ATOM     82  F   UNL A   1      39.724  24.734  27.119  1.00  0.00    -0.200 F 
ATOM     83  C   UNL A   1      41.088  26.377  26.110  1.00  0.00     0.200 A 
ATOM     84  F   UNL A   1      42.455  28.046  25.152  1.00  0.00    -0.200 F 
ATOM     85  F   UNL A   1      41.259  25.596  25.034  1.00  0.00    -0.200 F 
ENDBRANCH  51  75
BRANCH  63  86
ATOM     86  C   UNL A   1      43.887  28.133  34.598  1.00  0.00     0.064 A 
ATOM     87  C   UNL A   1      45.246  28.470  34.486  1.00  0.00     0.173 A 
ATOM     88  C   UNL A   1      43.560  26.958  35.293  1.00  0.00     0.173 A 
ATOM     89  F   UNL A   1      45.616  29.574  33.822  1.00  0.00    -0.203 F 
ATOM     90  C   UNL A   1      46.236  27.636  35.002  1.00  0.00     0.198 A 
ATOM     91  C   UNL A   1      44.550  26.149  35.842  1.00  0.00     0.198 A 
ATOM     92  F   UNL A   1      42.278  26.594  35.441  1.00  0.00    -0.203 F 
ATOM     93  F   UNL A   1      47.527  27.938  34.814  1.00  0.00    -0.200 F 
ATOM     94  C   UNL A   1      45.887  26.480  35.682  1.00  0.00     0.200 A 
ATOM     95  F   UNL A   1      44.211  25.042  36.516  1.00  0.00    -0.200 F 
ATOM     96  F   UNL A   1      46.840  25.676  36.174  1.00  0.00    -0.200 F 
ENDBRANCH  63  86
ENDBRANCH  37  38
ENDBRANCH  29  32
ENDBRANCH  27  28
ENDBRANCH  26  27
ENDBRANCH  25  26
ENDBRANCH   1  25
TORSDOF 18
ENDMDL
MODEL 2
REMARK VINA RESULT:     -11.7      1.056      2.095
REMARK SMILES CCc1ccc(C(=O)N[C@@H](CC(C)C)C(=O)NCCCCCCNC(=O)c2ccc(-c3c4nc(c(-c5c(F)c(F)c(F)c(F)c5F)c5ccc([nH]5)c(-c5c(F)c(F)c(F)c(F)c5F)c5nc(c(-c6c(F)c(F)c(F)c(F)c6F)c6ccc3[nH]6)C=C5)C=C4)cc2)cc1
REMARK SMILES IDX 20 1 19 2 18 3 17 4 15 5 16 6 10 8 9 9 7 10 8 11 6 13 3 14
REMARK SMILES IDX 4 15 91 16 5 17 90 18 2 19 1 20 11 21 12 22 13 23 14 24
REMARK SMILES IDX 21 25 22 26 23 27 24 28 25 29 26 31 27 32 28 33 89 34 29 35
REMARK SMILES IDX 88 36 30 37 31 38 32 39 82 40 33 41 87 42 81 43 83 44 34 45
REMARK SMILES IDX 86 46 80 47 79 48 35 50 67 51 47 52 66 53 48 54 51 55 65 56
REMARK SMILES IDX 84 57 49 58 50 59 64 61 85 62 52 63 36 64 37 65 45 66 38 67
REMARK SMILES IDX 39 68 43 69 46 70 40 71 41 72 44 73 42 74 68 75 69 76 77 77
REMARK SMILES IDX 70 78 71 79 75 80 78 81 72 82 73 83 76 84 74 85 53 86 54 87
REMARK SMILES IDX 62 88 55 89 56 90 60 91 63 92 57 93 58 94 61 95 59 96
REMARK H PARENT 17 7 9 12 24 30 83 49 51 60
REMARK Flexibility Score: inf
ROOT
ATOM      1  C   UNL A   1      31.964  29.543  27.007  1.00  0.00     0.002 C 
ENDROOT
BRANCH   1   2
ATOM      2  C   UNL A   1      32.728  28.397  26.335  1.00  0.00     0.021 C 
BRANCH   2   3
ATOM      3  C   UNL A   1      32.358  28.151  24.879  1.00  0.00     0.116 C 
BRANCH   3   4
ATOM      4  N   UNL A   1      31.067  27.525  24.720  1.00  0.00    -0.354 N 
ATOM      5  C   UNL A   1      30.695  26.220  24.778  1.00  0.00     0.242 C 
ATOM      6  O   UNL A   1      29.493  26.010  24.988  1.00  0.00    -0.273 OA
ATOM      7  H   UNL A   1      30.330  28.152  24.537  1.00  0.00     0.163 HD
BRANCH   5   8
ATOM      8  C   UNL A   1      31.681  25.029  24.743  1.00  0.00     0.171 C 
BRANCH   8   9
ATOM      9  N   UNL A   1      32.679  25.041  23.667  1.00  0.00    -0.340 N 
ATOM     10  C   UNL A   1      33.255  24.025  22.942  1.00  0.00     0.251 C 
ATOM     11  O   UNL A   1      33.887  24.341  21.933  1.00  0.00    -0.269 OA
ATOM     12  H   UNL A   1      32.993  25.940  23.420  1.00  0.00     0.164 HD
BRANCH  10  13
ATOM     13  C   UNL A   1      33.161  22.583  23.314  1.00  0.00     0.039 A 
ATOM     14  C   UNL A   1      32.875  19.839  23.938  1.00  0.00    -0.048 A 
ATOM     15  C   UNL A   1      32.089  20.425  22.940  1.00  0.00     0.004 A 
ATOM     16  C   UNL A   1      33.846  20.621  24.572  1.00  0.00     0.004 A 
ATOM     17  C   UNL A   1      32.226  21.786  22.637  1.00  0.00     0.014 A 
ATOM     18  C   UNL A   1      34.012  21.968  24.235  1.00  0.00     0.014 A 
BRANCH  14  19
ATOM     19  C   UNL A   1      32.716  18.383  24.303  1.00  0.00     0.032 C 
ATOM     20  C   UNL A   1      33.152  17.445  23.184  1.00  0.00     0.009 C 
ENDBRANCH  14  19
ENDBRANCH  10  13
ENDBRANCH   8   9
BRANCH   8  21
ATOM     21  C   UNL A   1      32.327  24.625  26.090  1.00  0.00     0.038 C 
BRANCH  21  22
ATOM     22  C   UNL A   1      31.654  23.510  26.912  1.00  0.00    -0.015 C 
ATOM     23  C   UNL A   1      30.782  22.605  26.034  1.00  0.00     0.007 C 
ATOM     24  C   UNL A   1      32.697  22.629  27.611  1.00  0.00     0.007 C 
ENDBRANCH  21  22
ENDBRANCH   8  21
ENDBRANCH   5   8
ENDBRANCH   3   4
ENDBRANCH   2   3
ENDBRANCH   1   2
BRANCH   1  25
ATOM     25  C   UNL A   1      31.607  30.735  26.113  1.00  0.00     0.002 C 
BRANCH  25  26
ATOM     26  C   UNL A   1      31.389  32.070  26.829  1.00  0.00     0.021 C 
BRANCH  26  27
ATOM     27  C   UNL A   1      32.651  32.873  27.107  1.00  0.00     0.116 C 
BRANCH  27  28
ATOM     28  N   UNL A   1      32.374  34.195  27.636  1.00  0.00    -0.352 N 
ATOM     29  C   UNL A   1      33.004  34.877  28.643  1.00  0.00     0.251 C 
ATOM     30  H   UNL A   1      31.625  34.672  27.208  1.00  0.00     0.163 HD
ATOM     31  O   UNL A   1      32.547  35.949  29.039  1.00  0.00    -0.269 OA
BRANCH  29  32
ATOM     32  C   UNL A   1      34.210  34.312  29.281  1.00  0.00     0.039 A 
ATOM     33  C   UNL A   1      34.042  33.460  30.374  1.00  0.00     0.014 A 
ATOM     34  C   UNL A   1      35.494  34.615  28.818  1.00  0.00     0.014 A 
ATOM     35  C   UNL A   1      35.157  32.878  30.974  1.00  0.00     0.010 A 
ATOM     36  C   UNL A   1      36.600  33.968  29.363  1.00  0.00     0.010 A 
ATOM     37  C   UNL A   1      36.443  33.102  30.454  1.00  0.00    -0.014 A 
BRANCH  37  38
ATOM     38  C   UNL A   1      37.620  32.425  31.052  1.00  0.00     0.031 A 
ATOM     39  C   UNL A   1      38.105  32.802  32.424  1.00  0.00     0.074 A 
ATOM     40  C   UNL A   1      38.262  31.475  30.345  1.00  0.00     0.049 A 
ATOM     41  N   UNL A   1      39.091  32.292  33.122  1.00  0.00    -0.248 NA
ATOM     42  C   UNL A   1      37.410  33.912  33.094  1.00  0.00     0.031 C 
ATOM     43  C   UNL A   1      37.922  31.067  28.980  1.00  0.00     0.029 A 
ATOM     44  N   UNL A   1      39.328  30.678  30.674  1.00  0.00    -0.354 N 
ATOM     45  C   UNL A   1      39.131  33.018  34.304  1.00  0.00     0.074 A 
ATOM     46  C   UNL A   1      38.120  34.047  34.204  1.00  0.00     0.031 C 
ATOM     47  C   UNL A   1      38.732  30.065  28.607  1.00  0.00     0.029 A 
ATOM     48  C   UNL A   1      39.672  29.785  29.688  1.00  0.00     0.049 A 
ATOM     49  H   UNL A   1      39.801  30.738  31.536  1.00  0.00     0.167 HD
ATOM     50  C   UNL A   1      39.922  32.826  35.388  1.00  0.00     0.037 A 
ATOM     51  C   UNL A   1      40.634  28.844  29.662  1.00  0.00     0.037 A 
ATOM     52  C   UNL A   1      40.923  31.794  35.484  1.00  0.00     0.049 A 
ATOM     53  C   UNL A   1      41.501  28.656  30.877  1.00  0.00     0.074 A 
ATOM     54  C   UNL A   1      41.743  31.483  36.554  1.00  0.00     0.029 A 
ATOM     55  N   UNL A   1      41.247  30.910  34.465  1.00  0.00    -0.354 N 
ATOM     56  N   UNL A   1      41.477  29.295  32.022  1.00  0.00    -0.248 NA
ATOM     57  C   UNL A   1      42.520  27.602  30.799  1.00  0.00     0.031 C 
ATOM     58  C   UNL A   1      42.603  30.451  36.162  1.00  0.00     0.029 A 
ATOM     59  C   UNL A   1      42.273  30.071  34.872  1.00  0.00     0.049 A 
ATOM     60  H   UNL A   1      40.811  30.882  33.582  1.00  0.00     0.167 HD
ATOM     61  C   UNL A   1      42.457  28.704  32.809  1.00  0.00     0.074 A 
ATOM     62  C   UNL A   1      43.035  27.637  32.018  1.00  0.00     0.031 C 
ATOM     63  C   UNL A   1      42.845  29.018  34.071  1.00  0.00     0.037 A 
BRANCH  50  64
ATOM     64  C   UNL A   1      39.736  33.754  36.556  1.00  0.00     0.064 A 
ATOM     65  C   UNL A   1      40.376  35.002  36.616  1.00  0.00     0.173 A 
ATOM     66  C   UNL A   1      38.884  33.405  37.616  1.00  0.00     0.173 A 
ATOM     67  F   UNL A   1      41.210  35.383  35.636  1.00  0.00    -0.203 F 
ATOM     68  C   UNL A   1      40.198  35.849  37.709  1.00  0.00     0.198 A 
ATOM     69  C   UNL A   1      38.682  34.270  38.690  1.00  0.00     0.198 A 
ATOM     70  F   UNL A   1      38.243  32.227  37.610  1.00  0.00    -0.203 F 
ATOM     71  F   UNL A   1      40.867  37.009  37.770  1.00  0.00    -0.200 F 
ATOM     72  C   UNL A   1      39.347  35.485  38.740  1.00  0.00     0.200 A 
ATOM     73  F   UNL A   1      37.847  33.923  39.679  1.00  0.00    -0.200 F 
ATOM     74  F   UNL A   1      39.171  36.304  39.786  1.00  0.00    -0.200 F 
ENDBRANCH  50  64
BRANCH  51  75
ATOM     75  C   UNL A   1      40.804  27.987  28.459  1.00  0.00     0.064 A 
ATOM     76  C   UNL A   1      41.603  28.401  27.384  1.00  0.00     0.173 A 
ATOM     77  C   UNL A   1      40.168  26.741  28.356  1.00  0.00     0.173 A 
ATOM     78  F   UNL A   1      42.219  29.592  27.427  1.00  0.00    -0.203 F 
ATOM     79  C   UNL A   1      41.738  27.615  26.242  1.00  0.00     0.198 A 
ATOM     80  C   UNL A   1      40.330  25.941  27.228  1.00  0.00     0.198 A 
ATOM     81  F   UNL A   1      39.399  26.294  29.360  1.00  0.00    -0.203 F 
ATOM     82  F   UNL A   1      42.464  28.060  25.207  1.00  0.00    -0.200 F 
ATOM     83  C   UNL A   1      41.106  26.383  26.167  1.00  0.00     0.200 A 
ATOM     84  F   UNL A   1      39.733  24.743  27.168  1.00  0.00    -0.200 F 
ATOM     85  F   UNL A   1      41.238  25.625  25.069  1.00  0.00    -0.200 F 
ENDBRANCH  51  75
BRANCH  63  86
ATOM     86  C   UNL A   1      43.927  28.170  34.680  1.00  0.00     0.064 A 
ATOM     87  C   UNL A   1      45.286  28.504  34.560  1.00  0.00     0.173 A 
ATOM     88  C   UNL A   1      43.601  27.004  35.390  1.00  0.00     0.173 A 
ATOM     89  F   UNL A   1      45.654  29.600  33.881  1.00  0.00    -0.203 F 
ATOM     90  C   UNL A   1      46.277  27.677  35.084  1.00  0.00     0.198 A 
ATOM     91  C   UNL A   1      44.592  26.201  35.947  1.00  0.00     0.198 A 
ATOM     92  F   UNL A   1      42.319  26.642  35.546  1.00  0.00    -0.203 F 
ATOM     93  F   UNL A   1      47.568  27.976  34.889  1.00  0.00    -0.200 F 
ATOM     94  C   UNL A   1      45.928  26.529  35.780  1.00  0.00     0.200 A 
ATOM     95  F   UNL A   1      44.254  25.102  36.635  1.00  0.00    -0.200 F 
ATOM     96  F   UNL A   1      46.883  25.731  36.279  1.00  0.00    -0.200 F 
ENDBRANCH  63  86
ENDBRANCH  37  38
ENDBRANCH  29  32
ENDBRANCH  27  28
ENDBRANCH  26  27
ENDBRANCH  25  26
ENDBRANCH   1  25
TORSDOF 18
ENDMDL
MODEL 3
REMARK VINA RESULT:     -11.5      5.494      9.972
REMARK SMILES CCc1ccc(C(=O)N[C@@H](CC(C)C)C(=O)NCCCCCCNC(=O)c2ccc(-c3c4nc(c(-c5c(F)c(F)c(F)c(F)c5F)c5ccc([nH]5)c(-c5c(F)c(F)c(F)c(F)c5F)c5nc(c(-c6c(F)c(F)c(F)c(F)c6F)c6ccc3[nH]6)C=C5)C=C4)cc2)cc1
REMARK SMILES IDX 20 1 19 2 18 3 17 4 15 5 16 6 10 8 9 9 7 10 8 11 6 13 3 14
REMARK SMILES IDX 4 15 91 16 5 17 90 18 2 19 1 20 11 21 12 22 13 23 14 24
REMARK SMILES IDX 21 25 22 26 23 27 24 28 25 29 26 31 27 32 28 33 89 34 29 35
REMARK SMILES IDX 88 36 30 37 31 38 32 39 82 40 33 41 87 42 81 43 83 44 34 45
REMARK SMILES IDX 86 46 80 47 79 48 35 50 67 51 47 52 66 53 48 54 51 55 65 56
REMARK SMILES IDX 84 57 49 58 50 59 64 61 85 62 52 63 36 64 37 65 45 66 38 67
REMARK SMILES IDX 39 68 43 69 46 70 40 71 41 72 44 73 42 74 68 75 69 76 77 77
REMARK SMILES IDX 70 78 71 79 75 80 78 81 72 82 73 83 76 84 74 85 53 86 54 87
REMARK SMILES IDX 62 88 55 89 56 90 60 91 63 92 57 93 58 94 61 95 59 96
REMARK H PARENT 17 7 9 12 24 30 83 49 51 60
REMARK Flexibility Score: inf
ROOT
ATOM      1  C   UNL A   1      35.867  20.415  24.988  1.00  0.00     0.002 C 
ENDROOT
BRANCH   1   2
ATOM      2  C   UNL A   1      34.934  21.627  25.079  1.00  0.00     0.021 C 
BRANCH   2   3
ATOM      3  C   UNL A   1      33.470  21.288  25.321  1.00  0.00     0.116 C 
BRANCH   3   4
ATOM      4  N   UNL A   1      32.756  20.961  24.108  1.00  0.00    -0.354 N 
ATOM      5  C   UNL A   1      32.283  21.752  23.110  1.00  0.00     0.242 C 
ATOM      6  O   UNL A   1      32.062  21.186  22.032  1.00  0.00    -0.273 OA
ATOM      7  H   UNL A   1      32.583  20.000  23.984  1.00  0.00     0.163 HD
BRANCH   5   8
ATOM      8  C   UNL A   1      32.149  23.289  23.205  1.00  0.00     0.171 C 
BRANCH   8   9
ATOM      9  N   UNL A   1      32.421  24.044  21.977  1.00  0.00    -0.340 N 
ATOM     10  C   UNL A   1      32.912  25.312  21.772  1.00  0.00     0.251 C 
ATOM     11  O   UNL A   1      33.266  25.601  20.627  1.00  0.00    -0.269 OA
ATOM     12  H   UNL A   1      32.214  23.555  21.149  1.00  0.00     0.164 HD
BRANCH  10  13
ATOM     13  C   UNL A   1      33.030  26.341  22.846  1.00  0.00     0.039 A 
ATOM     14  C   UNL A   1      33.167  28.369  24.813  1.00  0.00    -0.048 A 
ATOM     15  C   UNL A   1      32.247  28.459  23.764  1.00  0.00     0.004 A 
ATOM     16  C   UNL A   1      33.971  27.227  24.903  1.00  0.00     0.004 A 
ATOM     17  C   UNL A   1      32.184  27.459  22.786  1.00  0.00     0.014 A 
ATOM     18  C   UNL A   1      33.873  26.208  23.950  1.00  0.00     0.014 A 
BRANCH  14  19
ATOM     19  C   UNL A   1      33.273  29.455  25.855  1.00  0.00     0.032 C 
ATOM     20  C   UNL A   1      33.539  28.906  27.252  1.00  0.00     0.009 C 
ENDBRANCH  14  19
ENDBRANCH  10  13
ENDBRANCH   8   9
BRANCH   8  21
ATOM     21  C   UNL A   1      30.886  23.832  23.918  1.00  0.00     0.038 C 
BRANCH  21  22
ATOM     22  C   UNL A   1      31.038  24.374  25.351  1.00  0.00    -0.015 C 
ATOM     23  C   UNL A   1      30.154  25.604  25.589  1.00  0.00     0.007 C 
ATOM     24  C   UNL A   1      30.660  23.312  26.390  1.00  0.00     0.007 C 
ENDBRANCH  21  22
ENDBRANCH   8  21
ENDBRANCH   5   8
ENDBRANCH   3   4
ENDBRANCH   2   3
ENDBRANCH   1   2
BRANCH   1  25
ATOM     25  C   UNL A   1      37.348  20.718  24.731  1.00  0.00     0.002 C 
BRANCH  25  26
ATOM     26  C   UNL A   1      38.324  19.571  25.000  1.00  0.00     0.021 C 
BRANCH  26  27
ATOM     27  C   UNL A   1      39.386  19.853  26.053  1.00  0.00     0.116 C 
BRANCH  27  28
ATOM     28  N   UNL A   1      40.481  18.901  26.020  1.00  0.00    -0.352 N 
ATOM     29  C   UNL A   1      41.829  19.125  26.093  1.00  0.00     0.251 C 
ATOM     30  H   UNL A   1      40.215  17.956  25.933  1.00  0.00     0.163 HD
ATOM     31  O   UNL A   1      42.617  18.196  25.924  1.00  0.00    -0.269 OA
BRANCH  29  32
ATOM     32  C   UNL A   1      42.343  20.488  26.338  1.00  0.00     0.039 A 
ATOM     33  C   UNL A   1      42.693  21.271  25.236  1.00  0.00     0.014 A 
ATOM     34  C   UNL A   1      42.485  20.995  27.633  1.00  0.00     0.014 A 
ATOM     35  C   UNL A   1      43.143  22.575  25.430  1.00  0.00     0.010 A 
ATOM     36  C   UNL A   1      42.854  22.325  27.822  1.00  0.00     0.010 A 
ATOM     37  C   UNL A   1      43.197  23.125  26.723  1.00  0.00    -0.014 A 
BRANCH  37  38
ATOM     38  C   UNL A   1      43.609  24.536  26.919  1.00  0.00     0.031 A 
ATOM     39  C   UNL A   1      42.628  25.558  27.421  1.00  0.00     0.074 A 
ATOM     40  C   UNL A   1      44.873  24.899  26.625  1.00  0.00     0.049 A 
ATOM     41  N   UNL A   1      42.820  26.827  27.690  1.00  0.00    -0.248 NA
ATOM     42  C   UNL A   1      41.244  25.106  27.629  1.00  0.00     0.031 C 
ATOM     43  C   UNL A   1      45.897  24.010  26.074  1.00  0.00     0.029 A 
ATOM     44  N   UNL A   1      45.514  26.103  26.755  1.00  0.00    -0.354 N 
ATOM     45  C   UNL A   1      41.586  27.318  28.093  1.00  0.00     0.074 A 
ATOM     46  C   UNL A   1      40.637  26.233  27.970  1.00  0.00     0.031 C 
ATOM     47  C   UNL A   1      47.049  24.687  25.955  1.00  0.00     0.029 A 
ATOM     48  C   UNL A   1      46.836  26.065  26.387  1.00  0.00     0.049 A 
ATOM     49  H   UNL A   1      45.069  26.919  27.082  1.00  0.00     0.167 HD
ATOM     50  C   UNL A   1      41.277  28.555  28.553  1.00  0.00     0.037 A 
ATOM     51  C   UNL A   1      47.773  27.032  26.400  1.00  0.00     0.037 A 
ATOM     52  C   UNL A   1      42.229  29.630  28.679  1.00  0.00     0.049 A 
ATOM     53  C   UNL A   1      47.402  28.398  26.910  1.00  0.00     0.074 A 
ATOM     54  C   UNL A   1      42.031  30.905  29.178  1.00  0.00     0.029 A 
ATOM     55  N   UNL A   1      43.560  29.557  28.293  1.00  0.00    -0.354 N 
ATOM     56  N   UNL A   1      46.251  28.830  27.366  1.00  0.00    -0.248 NA
ATOM     57  C   UNL A   1      48.469  29.407  26.920  1.00  0.00     0.031 C 
ATOM     58  C   UNL A   1      43.225  31.622  29.039  1.00  0.00     0.029 A 
ATOM     59  C   UNL A   1      44.188  30.772  28.518  1.00  0.00     0.049 A 
ATOM     60  H   UNL A   1      43.994  28.758  27.915  1.00  0.00     0.167 HD
ATOM     61  C   UNL A   1      46.461  30.150  27.741  1.00  0.00     0.074 A 
ATOM     62  C   UNL A   1      47.857  30.436  27.486  1.00  0.00     0.031 C 
ATOM     63  C   UNL A   1      45.577  31.046  28.250  1.00  0.00     0.037 A 
BRANCH  50  64
ATOM     64  C   UNL A   1      39.850  28.812  28.950  1.00  0.00     0.064 A 
ATOM     65  C   UNL A   1      39.402  28.608  30.265  1.00  0.00     0.173 A 
ATOM     66  C   UNL A   1      38.925  29.297  28.012  1.00  0.00     0.173 A 
ATOM     67  F   UNL A   1      40.240  28.135  31.200  1.00  0.00    -0.203 F 
ATOM     68  C   UNL A   1      38.074  28.845  30.616  1.00  0.00     0.198 A 
ATOM     69  C   UNL A   1      37.607  29.567  28.376  1.00  0.00     0.198 A 
ATOM     70  F   UNL A   1      39.299  29.515  26.742  1.00  0.00    -0.203 F 
ATOM     71  F   UNL A   1      37.657  28.586  31.863  1.00  0.00    -0.200 F 
ATOM     72  C   UNL A   1      37.181  29.330  29.674  1.00  0.00     0.200 A 
ATOM     73  F   UNL A   1      36.749  30.050  27.468  1.00  0.00    -0.200 F 
ATOM     74  F   UNL A   1      35.907  29.565  30.015  1.00  0.00    -0.200 F 
ENDBRANCH  50  64
BRANCH  51  75
ATOM     75  C   UNL A   1      49.158  26.733  25.949  1.00  0.00     0.064 A 
ATOM     76  C   UNL A   1      49.567  27.015  24.638  1.00  0.00     0.173 A 
ATOM     77  C   UNL A   1      50.098  26.155  26.814  1.00  0.00     0.173 A 
ATOM     78  F   UNL A   1      48.700  27.552  23.766  1.00  0.00    -0.203 F 
ATOM     79  C   UNL A   1      50.854  26.705  24.202  1.00  0.00     0.198 A 
ATOM     80  C   UNL A   1      51.394  25.876  26.388  1.00  0.00     0.198 A 
ATOM     81  F   UNL A   1      49.760  25.873  28.082  1.00  0.00    -0.203 F 
ATOM     82  F   UNL A   1      51.201  26.935  22.929  1.00  0.00    -0.200 F 
ATOM     83  C   UNL A   1      51.768  26.141  25.080  1.00  0.00     0.200 A 
ATOM     84  F   UNL A   1      52.279  25.349  27.244  1.00  0.00    -0.200 F 
ATOM     85  F   UNL A   1      53.007  25.847  24.661  1.00  0.00    -0.200 F 
ENDBRANCH  51  75
BRANCH  63  86
ATOM     86  C   UNL A   1      46.112  32.409  28.591  1.00  0.00     0.064 A 
ATOM     87  C   UNL A   1      46.621  32.708  29.865  1.00  0.00     0.173 A 
ATOM     88  C   UNL A   1      46.111  33.433  27.631  1.00  0.00     0.173 A 
ATOM     89  F   UNL A   1      46.634  31.771  30.824  1.00  0.00    -0.203 F 
ATOM     90  C   UNL A   1      47.061  33.992  30.179  1.00  0.00     0.198 A 
ATOM     91  C   UNL A   1      46.589  34.705  27.936  1.00  0.00     0.198 A 
ATOM     92  F   UNL A   1      45.647  33.202  26.394  1.00  0.00    -0.203 F 
ATOM     93  F   UNL A   1      47.469  34.272  31.424  1.00  0.00    -0.200 F 
ATOM     94  C   UNL A   1      47.048  34.987  29.213  1.00  0.00     0.200 A 
ATOM     95  F   UNL A   1      46.593  35.660  26.997  1.00  0.00    -0.200 F 
ATOM     96  F   UNL A   1      47.467  36.223  29.517  1.00  0.00    -0.200 F 
ENDBRANCH  63  86
ENDBRANCH  37  38
ENDBRANCH  29  32
ENDBRANCH  27  28
ENDBRANCH  26  27
ENDBRANCH  25  26
ENDBRANCH   1  25
TORSDOF 18
ENDMDL
