MODEL 1
REMARK VINA RESULT:     -11.8      0.000      0.000
REMARK SMILES C[C@@H]1C[N@H+](Cc2ccccc2)CC[C@@H]1CC(=O)NCCCCCCNC(=O)c1ccc(-c2c3nc(c(-c4c(F)c(F)c(F)c(F)c4F)c4ccc([nH]4)c(-c4c(F)c(F)c(F)c(F)c4F)c4nc(c(-c5c(F)c(F)c(F)c(F)c5F)c5ccc2[nH]5)C=C4)C=C3)cc1
REMARK SMILES IDX 21 1 20 2 19 3 18 4 16 5 17 6 15 8 14 9 1 10 2 11 3 12 4 13
REMARK SMILES IDX 13 14 12 15 5 17 6 18 7 19 11 20 8 21 10 22 9 23 22 24 23 25
REMARK SMILES IDX 24 26 25 27 26 28 27 30 28 31 29 32 90 33 30 34 89 35 31 36
REMARK SMILES IDX 32 37 33 38 83 39 34 40 88 41 82 42 84 43 35 44 87 45 81 46
REMARK SMILES IDX 80 47 36 49 68 50 48 51 67 52 49 53 52 54 66 55 85 56 50 57
REMARK SMILES IDX 51 58 65 60 86 61 53 62 37 63 38 64 46 65 39 66 40 67 44 68
REMARK SMILES IDX 47 69 41 70 42 71 45 72 43 73 69 74 70 75 78 76 71 77 72 78
REMARK SMILES IDX 76 79 79 80 73 81 74 82 77 83 75 84 54 85 55 86 63 87 56 88
REMARK SMILES IDX 57 89 61 90 64 91 58 92 59 93 62 94 60 95
REMARK H PARENT 18 7 4 16 25 29 84 48 52 59
REMARK Flexibility Score: inf
ROOT
ATOM      1  C   UNL A   1      31.838  29.848  25.113  1.00  0.00     0.002 C 
ENDROOT
BRANCH   1   2
ATOM      2  C   UNL A   1      30.625  29.583  24.207  1.00  0.00     0.021 C 
BRANCH   2   3
ATOM      3  C   UNL A   1      30.929  29.164  22.768  1.00  0.00     0.116 C 
BRANCH   3   4
ATOM      4  N   UNL A   1      32.331  29.028  22.452  1.00  0.00    -0.356 N 
ATOM      5  C   UNL A   1      33.089  27.949  22.141  1.00  0.00     0.220 C 
ATOM      6  O   UNL A   1      34.241  28.168  21.753  1.00  0.00    -0.275 OA
ATOM      7  H   UNL A   1      32.829  29.877  22.465  1.00  0.00     0.163 HD
BRANCH   5   8
ATOM      8  C   UNL A   1      32.566  26.532  22.209  1.00  0.00     0.104 C 
BRANCH   8   9
ATOM      9  C   UNL A   1      31.827  25.981  23.451  1.00  0.00     0.012 C 
ATOM     10  C   UNL A   1      33.875  26.642  25.054  1.00  0.00     0.014 C 
ATOM     11  C   UNL A   1      32.435  26.163  24.880  1.00  0.00     0.045 C 
ATOM     12  C   UNL A   1      32.090  25.065  25.922  1.00  0.00     0.265 C 
ATOM     13  N   UNL A   1      31.745  23.737  25.453  1.00  0.00    -0.331 N 
ATOM     14  C   UNL A   1      31.412  24.531  23.124  1.00  0.00     0.066 C 
ATOM     15  C   UNL A   1      30.866  23.741  24.302  1.00  0.00     0.262 C 
ATOM     16  H   UNL A   1      31.153  23.371  26.199  1.00  0.00     0.348 HD
BRANCH  13  17
ATOM     17  C   UNL A   1      32.765  22.690  25.538  1.00  0.00     0.299 C 
BRANCH  17  18
ATOM     18  C   UNL A   1      34.178  23.086  25.182  1.00  0.00     0.006 A 
ATOM     19  C   UNL A   1      35.118  23.383  26.180  1.00  0.00     0.009 A 
ATOM     20  C   UNL A   1      34.599  23.100  23.849  1.00  0.00     0.009 A 
ATOM     21  C   UNL A   1      36.467  23.551  25.858  1.00  0.00     0.001 A 
ATOM     22  C   UNL A   1      35.950  23.229  23.527  1.00  0.00     0.001 A 
ATOM     23  C   UNL A   1      36.888  23.434  24.535  1.00  0.00     0.000 A 
ENDBRANCH  17  18
ENDBRANCH  13  17
ENDBRANCH   8   9
ENDBRANCH   5   8
ENDBRANCH   3   4
ENDBRANCH   2   3
ENDBRANCH   1   2
BRANCH   1  24
ATOM     24  C   UNL A   1      31.522  30.401  26.498  1.00  0.00     0.002 C 
BRANCH  24  25
ATOM     25  C   UNL A   1      31.455  31.925  26.577  1.00  0.00     0.021 C 
BRANCH  25  26
ATOM     26  C   UNL A   1      32.697  32.590  27.160  1.00  0.00     0.116 C 
BRANCH  26  27
ATOM     27  N   UNL A   1      32.445  33.960  27.576  1.00  0.00    -0.352 N 
ATOM     28  C   UNL A   1      33.050  34.661  28.592  1.00  0.00     0.251 C 
ATOM     29  H   UNL A   1      31.755  34.445  27.068  1.00  0.00     0.163 HD
ATOM     30  O   UNL A   1      32.604  35.736  28.972  1.00  0.00    -0.269 OA
BRANCH  28  31
ATOM     31  C   UNL A   1      34.247  34.085  29.237  1.00  0.00     0.039 A 
ATOM     32  C   UNL A   1      34.084  33.134  30.246  1.00  0.00     0.014 A 
ATOM     33  C   UNL A   1      35.526  34.465  28.817  1.00  0.00     0.014 A 
ATOM     34  C   UNL A   1      35.211  32.532  30.806  1.00  0.00     0.010 A 
ATOM     35  C   UNL A   1      36.643  33.806  29.322  1.00  0.00     0.010 A 
ATOM     36  C   UNL A   1      36.497  32.848  30.336  1.00  0.00    -0.014 A 
BRANCH  36  37
ATOM     37  C   UNL A   1      37.696  32.205  30.927  1.00  0.00     0.031 A 
ATOM     38  C   UNL A   1      38.151  32.588  32.308  1.00  0.00     0.074 A 
ATOM     39  C   UNL A   1      38.388  31.294  30.216  1.00  0.00     0.049 A 
ATOM     40  N   UNL A   1      39.144  32.110  33.015  1.00  0.00    -0.248 NA
ATOM     41  C   UNL A   1      37.409  33.670  32.973  1.00  0.00     0.031 C 
ATOM     42  C   UNL A   1      38.085  30.888  28.843  1.00  0.00     0.029 A 
ATOM     43  N   UNL A   1      39.484  30.540  30.552  1.00  0.00    -0.354 N 
ATOM     44  C   UNL A   1      39.146  32.835  34.199  1.00  0.00     0.074 A 
ATOM     45  C   UNL A   1      38.103  33.831  34.089  1.00  0.00     0.031 C 
ATOM     46  C   UNL A   1      38.946  29.928  28.471  1.00  0.00     0.029 A 
ATOM     47  C   UNL A   1      39.872  29.665  29.569  1.00  0.00     0.049 A 
ATOM     48  H   UNL A   1      39.948  30.621  31.417  1.00  0.00     0.167 HD
ATOM     49  C   UNL A   1      39.924  32.665  35.295  1.00  0.00     0.037 A 
ATOM     50  C   UNL A   1      40.849  28.740  29.564  1.00  0.00     0.037 A 
ATOM     51  C   UNL A   1      40.945  31.659  35.410  1.00  0.00     0.049 A 
ATOM     52  C   UNL A   1      41.687  28.552  30.801  1.00  0.00     0.074 A 
ATOM     53  C   UNL A   1      41.757  31.369  36.493  1.00  0.00     0.029 A 
ATOM     54  N   UNL A   1      41.296  30.775  34.399  1.00  0.00    -0.354 N 
ATOM     55  N   UNL A   1      41.625  29.186  31.946  1.00  0.00    -0.248 NA
ATOM     56  C   UNL A   1      42.717  27.506  30.748  1.00  0.00     0.031 C 
ATOM     57  C   UNL A   1      42.623  30.334  36.124  1.00  0.00     0.029 A 
ATOM     58  C   UNL A   1      42.320  29.948  34.828  1.00  0.00     0.049 A 
ATOM     59  H   UNL A   1      40.877  30.741  33.509  1.00  0.00     0.167 HD
ATOM     60  C   UNL A   1      42.582  28.598  32.761  1.00  0.00     0.074 A 
ATOM     61  C   UNL A   1      43.203  27.547  31.981  1.00  0.00     0.031 C 
ATOM     62  C   UNL A   1      42.916  28.898  34.041  1.00  0.00     0.037 A 
BRANCH  49  63
ATOM     63  C   UNL A   1      39.685  33.586  36.456  1.00  0.00     0.064 A 
ATOM     64  C   UNL A   1      40.313  34.840  36.541  1.00  0.00     0.173 A 
ATOM     65  C   UNL A   1      38.814  33.219  37.493  1.00  0.00     0.173 A 
ATOM     66  F   UNL A   1      41.166  35.233  35.583  1.00  0.00    -0.203 F 
ATOM     67  C   UNL A   1      40.109  35.673  37.638  1.00  0.00     0.198 A 
ATOM     68  C   UNL A   1      38.587  34.069  38.573  1.00  0.00     0.198 A 
ATOM     69  F   UNL A   1      38.185  32.035  37.461  1.00  0.00    -0.203 F 
ATOM     70  F   UNL A   1      40.766  36.837  37.724  1.00  0.00    -0.200 F 
ATOM     71  C   UNL A   1      39.242  35.289  38.650  1.00  0.00     0.200 A 
ATOM     72  F   UNL A   1      37.741  33.702  39.545  1.00  0.00    -0.200 F 
ATOM     73  F   UNL A   1      39.045  36.092  39.705  1.00  0.00    -0.200 F 
ENDBRANCH  49  63
BRANCH  50  74
ATOM     74  C   UNL A   1      41.039  27.871  28.375  1.00  0.00     0.064 A 
ATOM     75  C   UNL A   1      40.354  26.652  28.261  1.00  0.00     0.173 A 
ATOM     76  C   UNL A   1      41.892  28.241  27.326  1.00  0.00     0.173 A 
ATOM     77  F   UNL A   1      39.541  26.248  29.249  1.00  0.00    -0.203 F 
ATOM     78  C   UNL A   1      40.528  25.830  27.151  1.00  0.00     0.198 A 
ATOM     79  C   UNL A   1      42.046  27.428  26.205  1.00  0.00     0.198 A 
ATOM     80  F   UNL A   1      42.564  29.400  27.384  1.00  0.00    -0.203 F 
ATOM     81  F   UNL A   1      39.889  24.654  27.085  1.00  0.00    -0.200 F 
ATOM     82  C   UNL A   1      41.369  26.221  26.120  1.00  0.00     0.200 A 
ATOM     83  F   UNL A   1      42.849  27.816  25.203  1.00  0.00    -0.200 F 
ATOM     84  F   UNL A   1      41.530  25.433  25.049  1.00  0.00    -0.200 F 
ENDBRANCH  50  74
BRANCH  62  85
ATOM     85  C   UNL A   1      43.971  28.052  34.691  1.00  0.00     0.064 A 
ATOM     86  C   UNL A   1      45.324  28.415  34.669  1.00  0.00     0.173 A 
ATOM     87  C   UNL A   1      43.614  26.881  35.376  1.00  0.00     0.173 A 
ATOM     88  F   UNL A   1      45.716  29.520  34.015  1.00  0.00    -0.203 F 
ATOM     89  C   UNL A   1      46.288  27.620  35.284  1.00  0.00     0.198 A 
ATOM     90  C   UNL A   1      44.576  26.103  36.015  1.00  0.00     0.198 A 
ATOM     91  F   UNL A   1      42.331  26.494  35.433  1.00  0.00    -0.203 F 
ATOM     92  F   UNL A   1      47.582  27.960  35.208  1.00  0.00    -0.200 F 
ATOM     93  C   UNL A   1      45.913  26.469  35.961  1.00  0.00     0.200 A 
ATOM     94  F   UNL A   1      44.209  24.998  36.679  1.00  0.00    -0.200 F 
ATOM     95  F   UNL A   1      46.841  25.708  36.556  1.00  0.00    -0.200 F 
ENDBRANCH  62  85
ENDBRANCH  36  37
ENDBRANCH  28  31
ENDBRANCH  26  27
ENDBRANCH  25  26
ENDBRANCH  24  25
ENDBRANCH   1  24
TORSDOF 16
ENDMDL
MODEL 2
REMARK VINA RESULT:     -11.8      1.470      2.409
REMARK SMILES C[C@@H]1C[N@H+](Cc2ccccc2)CC[C@@H]1CC(=O)NCCCCCCNC(=O)c1ccc(-c2c3nc(c(-c4c(F)c(F)c(F)c(F)c4F)c4ccc([nH]4)c(-c4c(F)c(F)c(F)c(F)c4F)c4nc(c(-c5c(F)c(F)c(F)c(F)c5F)c5ccc2[nH]5)C=C4)C=C3)cc1
REMARK SMILES IDX 21 1 20 2 19 3 18 4 16 5 17 6 15 8 14 9 1 10 2 11 3 12 4 13
REMARK SMILES IDX 13 14 12 15 5 17 6 18 7 19 11 20 8 21 10 22 9 23 22 24 23 25
REMARK SMILES IDX 24 26 25 27 26 28 27 30 28 31 29 32 90 33 30 34 89 35 31 36
REMARK SMILES IDX 32 37 33 38 83 39 34 40 88 41 82 42 84 43 35 44 87 45 81 46
REMARK SMILES IDX 80 47 36 49 68 50 48 51 67 52 49 53 52 54 66 55 85 56 50 57
REMARK SMILES IDX 51 58 65 60 86 61 53 62 37 63 38 64 46 65 39 66 40 67 44 68
REMARK SMILES IDX 47 69 41 70 42 71 45 72 43 73 69 74 70 75 78 76 71 77 72 78
REMARK SMILES IDX 76 79 79 80 73 81 74 82 77 83 75 84 54 85 55 86 63 87 56 88
REMARK SMILES IDX 57 89 61 90 64 91 58 92 59 93 62 94 60 95
REMARK H PARENT 18 7 4 16 25 29 84 48 52 59
REMARK Flexibility Score: inf
ROOT
ATOM      1  C   UNL A   1      32.497  29.625  27.220  1.00  0.00     0.002 C 
ENDROOT
BRANCH   1   2
ATOM      2  C   UNL A   1      32.086  28.174  27.515  1.00  0.00     0.021 C 
BRANCH   2   3
ATOM      3  C   UNL A   1      31.730  27.308  26.306  1.00  0.00     0.116 C 
BRANCH   3   4
ATOM      4  N   UNL A   1      30.630  26.395  26.508  1.00  0.00    -0.356 N 
ATOM      5  C   UNL A   1      30.527  25.053  26.358  1.00  0.00     0.220 C 
ATOM      6  O   UNL A   1      29.490  24.522  26.769  1.00  0.00    -0.275 OA
ATOM      7  H   UNL A   1      29.799  26.829  26.810  1.00  0.00     0.163 HD
BRANCH   5   8
ATOM      8  C   UNL A   1      31.629  24.208  25.763  1.00  0.00     0.104 C 
BRANCH   8   9
ATOM      9  C   UNL A   1      32.922  23.866  26.541  1.00  0.00     0.012 C 
ATOM     10  C   UNL A   1      34.453  24.939  24.617  1.00  0.00     0.014 C 
ATOM     11  C   UNL A   1      34.313  24.355  26.021  1.00  0.00     0.045 C 
ATOM     12  C   UNL A   1      35.533  23.461  26.369  1.00  0.00     0.265 C 
ATOM     13  N   UNL A   1      35.319  22.050  26.625  1.00  0.00    -0.331 N 
ATOM     14  C   UNL A   1      32.867  22.358  26.868  1.00  0.00     0.066 C 
ATOM     15  C   UNL A   1      34.152  21.781  27.440  1.00  0.00     0.262 C 
ATOM     16  H   UNL A   1      36.096  21.802  27.238  1.00  0.00     0.348 HD
BRANCH  13  17
ATOM     17  C   UNL A   1      35.653  21.099  25.562  1.00  0.00     0.299 C 
BRANCH  17  18
ATOM     18  C   UNL A   1      34.513  20.624  24.692  1.00  0.00     0.006 A 
ATOM     19  C   UNL A   1      34.056  19.300  24.760  1.00  0.00     0.009 A 
ATOM     20  C   UNL A   1      33.844  21.514  23.847  1.00  0.00     0.009 A 
ATOM     21  C   UNL A   1      32.882  18.920  24.107  1.00  0.00     0.001 A 
ATOM     22  C   UNL A   1      32.650  21.150  23.225  1.00  0.00     0.001 A 
ATOM     23  C   UNL A   1      32.157  19.856  23.372  1.00  0.00     0.000 A 
ENDBRANCH  17  18
ENDBRANCH  13  17
ENDBRANCH   8   9
ENDBRANCH   5   8
ENDBRANCH   3   4
ENDBRANCH   2   3
ENDBRANCH   1   2
BRANCH   1  24
ATOM     24  C   UNL A   1      31.608  30.379  26.238  1.00  0.00     0.002 C 
BRANCH  24  25
ATOM     25  C   UNL A   1      31.450  31.869  26.533  1.00  0.00     0.021 C 
BRANCH  25  26
ATOM     26  C   UNL A   1      32.700  32.548  27.083  1.00  0.00     0.116 C 
BRANCH  26  27
ATOM     27  N   UNL A   1      32.445  33.917  27.501  1.00  0.00    -0.352 N 
ATOM     28  C   UNL A   1      33.043  34.615  28.522  1.00  0.00     0.251 C 
ATOM     29  H   UNL A   1      31.758  34.403  26.989  1.00  0.00     0.163 HD
ATOM     30  O   UNL A   1      32.595  35.689  28.902  1.00  0.00    -0.269 OA
BRANCH  28  31
ATOM     31  C   UNL A   1      34.236  34.037  29.173  1.00  0.00     0.039 A 
ATOM     32  C   UNL A   1      34.069  33.036  30.131  1.00  0.00     0.014 A 
ATOM     33  C   UNL A   1      35.517  34.467  28.809  1.00  0.00     0.014 A 
ATOM     34  C   UNL A   1      35.195  32.434  30.695  1.00  0.00     0.010 A 
ATOM     35  C   UNL A   1      36.635  33.812  29.315  1.00  0.00     0.010 A 
ATOM     36  C   UNL A   1      36.485  32.803  30.277  1.00  0.00    -0.014 A 
BRANCH  36  37
ATOM     37  C   UNL A   1      37.683  32.161  30.872  1.00  0.00     0.031 A 
ATOM     38  C   UNL A   1      38.131  32.539  32.257  1.00  0.00     0.074 A 
ATOM     39  C   UNL A   1      38.381  31.255  30.160  1.00  0.00     0.049 A 
ATOM     40  N   UNL A   1      39.121  32.061  32.967  1.00  0.00    -0.248 NA
ATOM     41  C   UNL A   1      37.382  33.617  32.922  1.00  0.00     0.031 C 
ATOM     42  C   UNL A   1      38.086  30.854  28.784  1.00  0.00     0.029 A 
ATOM     43  N   UNL A   1      39.477  30.503  30.500  1.00  0.00    -0.354 N 
ATOM     44  C   UNL A   1      39.115  32.782  34.154  1.00  0.00     0.074 A 
ATOM     45  C   UNL A   1      38.070  33.775  34.042  1.00  0.00     0.031 C 
ATOM     46  C   UNL A   1      38.951  29.897  28.412  1.00  0.00     0.029 A 
ATOM     47  C   UNL A   1      39.873  29.632  29.514  1.00  0.00     0.049 A 
ATOM     48  H   UNL A   1      39.937  30.581  31.366  1.00  0.00     0.167 HD
ATOM     49  C   UNL A   1      39.888  32.610  35.252  1.00  0.00     0.037 A 
ATOM     50  C   UNL A   1      40.853  28.710  29.511  1.00  0.00     0.037 A 
ATOM     51  C   UNL A   1      40.912  31.606  35.369  1.00  0.00     0.049 A 
ATOM     52  C   UNL A   1      41.685  28.520  30.751  1.00  0.00     0.074 A 
ATOM     53  C   UNL A   1      41.719  31.314  36.454  1.00  0.00     0.029 A 
ATOM     54  N   UNL A   1      41.270  30.728  34.356  1.00  0.00    -0.354 N 
ATOM     55  N   UNL A   1      41.616  29.149  31.899  1.00  0.00    -0.248 NA
ATOM     56  C   UNL A   1      42.718  27.477  30.699  1.00  0.00     0.031 C 
ATOM     57  C   UNL A   1      42.590  30.283  36.086  1.00  0.00     0.029 A 
ATOM     58  C   UNL A   1      42.294  29.901  34.787  1.00  0.00     0.049 A 
ATOM     59  H   UNL A   1      40.855  30.696  33.463  1.00  0.00     0.167 HD
ATOM     60  C   UNL A   1      42.570  28.561  32.716  1.00  0.00     0.074 A 
ATOM     61  C   UNL A   1      43.198  27.514  31.935  1.00  0.00     0.031 C 
ATOM     62  C   UNL A   1      42.897  28.856  33.998  1.00  0.00     0.037 A 
BRANCH  49  63
ATOM     63  C   UNL A   1      39.641  33.526  36.416  1.00  0.00     0.064 A 
ATOM     64  C   UNL A   1      38.808  33.150  37.482  1.00  0.00     0.173 A 
ATOM     65  C   UNL A   1      40.249  34.789  36.475  1.00  0.00     0.173 A 
ATOM     66  F   UNL A   1      38.191  31.958  37.469  1.00  0.00    -0.203 F 
ATOM     67  C   UNL A   1      38.561  34.018  38.542  1.00  0.00     0.198 A 
ATOM     68  C   UNL A   1      40.025  35.642  37.553  1.00  0.00     0.198 A 
ATOM     69  F   UNL A   1      41.058  35.197  35.486  1.00  0.00    -0.203 F 
ATOM     70  F   UNL A   1      37.714  33.659  39.517  1.00  0.00    -0.200 F 
ATOM     71  C   UNL A   1      39.174  35.261  38.580  1.00  0.00     0.200 A 
ATOM     72  F   UNL A   1      40.627  36.839  37.593  1.00  0.00    -0.200 F 
ATOM     73  F   UNL A   1      38.937  36.096  39.600  1.00  0.00    -0.200 F 
ENDBRANCH  49  63
BRANCH  50  74
ATOM     74  C   UNL A   1      41.051  27.846  28.319  1.00  0.00     0.064 A 
ATOM     75  C   UNL A   1      40.386  26.617  28.207  1.00  0.00     0.173 A 
ATOM     76  C   UNL A   1      41.892  28.232  27.266  1.00  0.00     0.173 A 
ATOM     77  F   UNL A   1      39.585  26.198  29.198  1.00  0.00    -0.203 F 
ATOM     78  C   UNL A   1      40.568  25.799  27.094  1.00  0.00     0.198 A 
ATOM     79  C   UNL A   1      42.054  27.424  26.143  1.00  0.00     0.198 A 
ATOM     80  F   UNL A   1      42.545  29.402  27.323  1.00  0.00    -0.203 F 
ATOM     81  F   UNL A   1      39.948  24.613  27.030  1.00  0.00    -0.200 F 
ATOM     82  C   UNL A   1      41.397  26.206  26.060  1.00  0.00     0.200 A 
ATOM     83  F   UNL A   1      42.845  27.827  25.138  1.00  0.00    -0.200 F 
ATOM     84  F   UNL A   1      41.566  25.422  24.986  1.00  0.00    -0.200 F 
ENDBRANCH  50  74
BRANCH  62  85
ATOM     85  C   UNL A   1      43.951  28.011  34.651  1.00  0.00     0.064 A 
ATOM     86  C   UNL A   1      45.299  28.393  34.661  1.00  0.00     0.173 A 
ATOM     87  C   UNL A   1      43.598  26.821  35.303  1.00  0.00     0.173 A 
ATOM     88  F   UNL A   1      45.689  29.516  34.039  1.00  0.00    -0.203 F 
ATOM     89  C   UNL A   1      46.263  27.597  35.278  1.00  0.00     0.198 A 
ATOM     90  C   UNL A   1      44.558  26.042  35.944  1.00  0.00     0.198 A 
ATOM     91  F   UNL A   1      42.319  26.415  35.327  1.00  0.00    -0.203 F 
ATOM     92  F   UNL A   1      47.553  27.956  35.234  1.00  0.00    -0.200 F 
ATOM     93  C   UNL A   1      45.890  26.427  35.923  1.00  0.00     0.200 A 
ATOM     94  F   UNL A   1      44.194  24.918  36.577  1.00  0.00    -0.200 F 
ATOM     95  F   UNL A   1      46.818  25.665  36.519  1.00  0.00    -0.200 F 
ENDBRANCH  62  85
ENDBRANCH  36  37
ENDBRANCH  28  31
ENDBRANCH  26  27
ENDBRANCH  25  26
ENDBRANCH  24  25
ENDBRANCH   1  24
TORSDOF 16
ENDMDL
MODEL 3
REMARK VINA RESULT:     -11.8      0.203      1.675
REMARK SMILES C[C@@H]1C[N@H+](Cc2ccccc2)CC[C@@H]1CC(=O)NCCCCCCNC(=O)c1ccc(-c2c3nc(c(-c4c(F)c(F)c(F)c(F)c4F)c4ccc([nH]4)c(-c4c(F)c(F)c(F)c(F)c4F)c4nc(c(-c5c(F)c(F)c(F)c(F)c5F)c5ccc2[nH]5)C=C4)C=C3)cc1
REMARK SMILES IDX 21 1 20 2 19 3 18 4 16 5 17 6 15 8 14 9 1 10 2 11 3 12 4 13
REMARK SMILES IDX 13 14 12 15 5 17 6 18 7 19 11 20 8 21 10 22 9 23 22 24 23 25
REMARK SMILES IDX 24 26 25 27 26 28 27 30 28 31 29 32 90 33 30 34 89 35 31 36
REMARK SMILES IDX 32 37 33 38 83 39 34 40 88 41 82 42 84 43 35 44 87 45 81 46
REMARK SMILES IDX 80 47 36 49 68 50 48 51 67 52 49 53 52 54 66 55 85 56 50 57
REMARK SMILES IDX 51 58 65 60 86 61 53 62 37 63 38 64 46 65 39 66 40 67 44 68
REMARK SMILES IDX 47 69 41 70 42 71 45 72 43 73 69 74 70 75 78 76 71 77 72 78
REMARK SMILES IDX 76 79 79 80 73 81 74 82 77 83 75 84 54 85 55 86 63 87 56 88
REMARK SMILES IDX 57 89 61 90 64 91 58 92 59 93 62 94 60 95
REMARK H PARENT 18 7 4 16 25 29 84 48 52 59
REMARK Flexibility Score: inf
ROOT
ATOM      1  C   UNL A   1      31.862  29.706  25.087  1.00  0.00     0.002 C 
ENDROOT
BRANCH   1   2
ATOM      2  C   UNL A   1      30.663  29.324  24.205  1.00  0.00     0.021 C 
BRANCH   2   3
ATOM      3  C   UNL A   1      30.988  28.788  22.811  1.00  0.00     0.116 C 
BRANCH   3   4
ATOM      4  N   UNL A   1      32.385  28.831  22.447  1.00  0.00    -0.356 N 
ATOM      5  C   UNL A   1      33.284  27.852  22.188  1.00  0.00     0.220 C 
ATOM      6  O   UNL A   1      34.379  28.203  21.736  1.00  0.00    -0.275 OA
ATOM      7  H   UNL A   1      32.752  29.741  22.374  1.00  0.00     0.163 HD
BRANCH   5   8
ATOM      8  C   UNL A   1      32.980  26.385  22.386  1.00  0.00     0.104 C 
BRANCH   8   9
ATOM      9  C   UNL A   1      32.083  25.875  23.540  1.00  0.00     0.012 C 
ATOM     10  C   UNL A   1      34.027  26.300  25.338  1.00  0.00     0.014 C 
ATOM     11  C   UNL A   1      32.571  25.963  25.022  1.00  0.00     0.045 C 
ATOM     12  C   UNL A   1      32.035  24.876  25.992  1.00  0.00     0.265 C 
ATOM     13  N   UNL A   1      31.615  23.598  25.449  1.00  0.00    -0.331 N 
ATOM     14  C   UNL A   1      31.570  24.478  23.128  1.00  0.00     0.066 C 
ATOM     15  C   UNL A   1      30.848  23.713  24.226  1.00  0.00     0.262 C 
ATOM     16  H   UNL A   1      30.926  23.271  26.128  1.00  0.00     0.348 HD
BRANCH  13  17
ATOM     17  C   UNL A   1      32.524  22.458  25.590  1.00  0.00     0.299 C 
BRANCH  17  18
ATOM     18  C   UNL A   1      33.984  22.713  25.302  1.00  0.00     0.006 A 
ATOM     19  C   UNL A   1      34.443  22.878  23.987  1.00  0.00     0.009 A 
ATOM     20  C   UNL A   1      34.901  22.858  26.348  1.00  0.00     0.009 A 
ATOM     21  C   UNL A   1      35.747  23.311  23.739  1.00  0.00     0.001 A 
ATOM     22  C   UNL A   1      36.192  23.328  26.107  1.00  0.00     0.001 A 
ATOM     23  C   UNL A   1      36.609  23.574  24.802  1.00  0.00     0.000 A 
ENDBRANCH  17  18
ENDBRANCH  13  17
ENDBRANCH   8   9
ENDBRANCH   5   8
ENDBRANCH   3   4
ENDBRANCH   2   3
ENDBRANCH   1   2
BRANCH   1  24
ATOM     24  C   UNL A   1      31.521  30.292  26.452  1.00  0.00     0.002 C 
BRANCH  24  25
ATOM     25  C   UNL A   1      31.468  31.818  26.497  1.00  0.00     0.021 C 
BRANCH  25  26
ATOM     26  C   UNL A   1      32.698  32.483  27.104  1.00  0.00     0.116 C 
BRANCH  26  27
ATOM     27  N   UNL A   1      32.431  33.844  27.541  1.00  0.00    -0.352 N 
ATOM     28  C   UNL A   1      33.023  34.534  28.571  1.00  0.00     0.251 C 
ATOM     29  H   UNL A   1      31.740  34.330  27.036  1.00  0.00     0.163 HD
ATOM     30  O   UNL A   1      32.565  35.598  28.966  1.00  0.00    -0.269 OA
BRANCH  28  31
ATOM     31  C   UNL A   1      34.222  33.957  29.215  1.00  0.00     0.039 A 
ATOM     32  C   UNL A   1      34.061  33.002  30.220  1.00  0.00     0.014 A 
ATOM     33  C   UNL A   1      35.500  34.342  28.797  1.00  0.00     0.014 A 
ATOM     34  C   UNL A   1      35.188  32.400  30.778  1.00  0.00     0.010 A 
ATOM     35  C   UNL A   1      36.619  33.684  29.301  1.00  0.00     0.010 A 
ATOM     36  C   UNL A   1      36.474  32.722  30.310  1.00  0.00    -0.014 A 
BRANCH  36  37
ATOM     37  C   UNL A   1      37.675  32.080  30.899  1.00  0.00     0.031 A 
ATOM     38  C   UNL A   1      38.130  32.460  32.280  1.00  0.00     0.074 A 
ATOM     39  C   UNL A   1      38.367  31.171  30.186  1.00  0.00     0.049 A 
ATOM     40  N   UNL A   1      39.124  31.982  32.986  1.00  0.00    -0.248 NA
ATOM     41  C   UNL A   1      37.387  33.540  32.948  1.00  0.00     0.031 C 
ATOM     42  C   UNL A   1      38.064  30.767  28.812  1.00  0.00     0.029 A 
ATOM     43  N   UNL A   1      39.464  30.418  30.520  1.00  0.00    -0.354 N 
ATOM     44  C   UNL A   1      39.126  32.705  34.171  1.00  0.00     0.074 A 
ATOM     45  C   UNL A   1      38.082  33.699  34.063  1.00  0.00     0.031 C 
ATOM     46  C   UNL A   1      38.926  29.808  28.437  1.00  0.00     0.029 A 
ATOM     47  C   UNL A   1      39.853  29.545  29.534  1.00  0.00     0.049 A 
ATOM     48  H   UNL A   1      39.929  30.498  31.384  1.00  0.00     0.167 HD
ATOM     49  C   UNL A   1      39.905  32.535  35.266  1.00  0.00     0.037 A 
ATOM     50  C   UNL A   1      40.832  28.621  29.528  1.00  0.00     0.037 A 
ATOM     51  C   UNL A   1      40.928  31.529  35.379  1.00  0.00     0.049 A 
ATOM     52  C   UNL A   1      41.670  28.432  30.763  1.00  0.00     0.074 A 
ATOM     53  C   UNL A   1      41.740  31.239  36.460  1.00  0.00     0.029 A 
ATOM     54  N   UNL A   1      41.279  30.648  34.366  1.00  0.00    -0.354 N 
ATOM     55  N   UNL A   1      41.609  29.064  31.910  1.00  0.00    -0.248 NA
ATOM     56  C   UNL A   1      42.702  27.388  30.708  1.00  0.00     0.031 C 
ATOM     57  C   UNL A   1      42.608  30.205  36.089  1.00  0.00     0.029 A 
ATOM     58  C   UNL A   1      42.304  29.821  34.792  1.00  0.00     0.049 A 
ATOM     59  H   UNL A   1      40.859  30.615  33.475  1.00  0.00     0.167 HD
ATOM     60  C   UNL A   1      42.567  28.476  32.723  1.00  0.00     0.074 A 
ATOM     61  C   UNL A   1      43.189  27.426  31.941  1.00  0.00     0.031 C 
ATOM     62  C   UNL A   1      42.901  28.774  34.003  1.00  0.00     0.037 A 
BRANCH  49  63
ATOM     63  C   UNL A   1      39.666  33.453  36.429  1.00  0.00     0.064 A 
ATOM     64  C   UNL A   1      38.790  33.106  37.471  1.00  0.00     0.173 A 
ATOM     65  C   UNL A   1      40.324  34.689  36.512  1.00  0.00     0.173 A 
ATOM     66  F   UNL A   1      38.126  31.940  37.434  1.00  0.00    -0.203 F 
ATOM     67  C   UNL A   1      38.552  33.977  38.530  1.00  0.00     0.198 A 
ATOM     68  C   UNL A   1      40.108  35.545  37.590  1.00  0.00     0.198 A 
ATOM     69  F   UNL A   1      41.174  35.069  35.547  1.00  0.00    -0.203 F 
ATOM     70  F   UNL A   1      37.666  33.649  39.481  1.00  0.00    -0.200 F 
ATOM     71  C   UNL A   1      39.215  35.194  38.592  1.00  0.00     0.200 A 
ATOM     72  F   UNL A   1      40.757  36.716  37.653  1.00  0.00    -0.200 F 
ATOM     73  F   UNL A   1      38.986  36.032  39.612  1.00  0.00    -0.200 F 
ENDBRANCH  49  63
BRANCH  50  74
ATOM     74  C   UNL A   1      41.022  27.754  28.336  1.00  0.00     0.064 A 
ATOM     75  C   UNL A   1      40.277  26.576  28.182  1.00  0.00     0.173 A 
ATOM     76  C   UNL A   1      41.935  28.087  27.326  1.00  0.00     0.173 A 
ATOM     77  F   UNL A   1      39.404  26.207  29.131  1.00  0.00    -0.203 F 
ATOM     78  C   UNL A   1      40.451  25.756  27.069  1.00  0.00     0.198 A 
ATOM     79  C   UNL A   1      42.089  27.278  26.203  1.00  0.00     0.198 A 
ATOM     80  F   UNL A   1      42.666  29.207  27.424  1.00  0.00    -0.203 F 
ATOM     81  F   UNL A   1      39.752  24.617  26.964  1.00  0.00    -0.200 F 
ATOM     82  C   UNL A   1      41.352  26.111  26.077  1.00  0.00     0.200 A 
ATOM     83  F   UNL A   1      42.952  27.632  25.239  1.00  0.00    -0.200 F 
ATOM     84  F   UNL A   1      41.514  25.325  25.004  1.00  0.00    -0.200 F 
ENDBRANCH  50  74
BRANCH  62  85
ATOM     85  C   UNL A   1      43.958  27.928  34.651  1.00  0.00     0.064 A 
ATOM     86  C   UNL A   1      43.643  26.733  35.312  1.00  0.00     0.173 A 
ATOM     87  C   UNL A   1      45.307  28.305  34.577  1.00  0.00     0.173 A 
ATOM     88  F   UNL A   1      42.365  26.337  35.420  1.00  0.00    -0.203 F 
ATOM     89  C   UNL A   1      44.640  25.958  35.901  1.00  0.00     0.198 A 
ATOM     90  C   UNL A   1      46.304  27.514  35.143  1.00  0.00     0.198 A 
ATOM     91  F   UNL A   1      45.661  29.437  33.950  1.00  0.00    -0.203 F 
ATOM     92  F   UNL A   1      44.311  24.844  36.570  1.00  0.00    -0.200 F 
ATOM     93  C   UNL A   1      45.968  26.346  35.811  1.00  0.00     0.200 A 
ATOM     94  F   UNL A   1      47.588  27.885  35.044  1.00  0.00    -0.200 F 
ATOM     95  F   UNL A   1      46.925  25.598  36.376  1.00  0.00    -0.200 F 
ENDBRANCH  62  85
ENDBRANCH  36  37
ENDBRANCH  28  31
ENDBRANCH  26  27
ENDBRANCH  25  26
ENDBRANCH  24  25
ENDBRANCH   1  24
TORSDOF 16
ENDMDL
