MODEL 1
REMARK VINA RESULT:     -11.5      0.000      0.000
REMARK SMILES COC(CNS(=O)(=O)c1ccc(Cl)c(C(=O)NCCCCCCNC(=O)c2ccc(-c3c4nc(c(-c5c(F)c(F)c(F)c(F)c5F)c5ccc([nH]5)c(-c5c(F)c(F)c(F)c(F)c5F)c5nc(c(-c6c(F)c(F)c(F)c(F)c6F)c6ccc3[nH]6)C=C5)C=C4)cc2)c1Cl)OC
REMARK SMILES IDX 19 1 18 2 17 3 15 4 16 5 14 7 9 8 10 9 90 10 11 11 91 12
REMARK SMILES IDX 12 13 13 14 6 15 7 16 8 17 5 18 4 20 3 21 2 22 1 23 92 24
REMARK SMILES IDX 93 25 20 26 21 27 22 28 23 29 24 30 25 31 26 33 27 34 28 35
REMARK SMILES IDX 89 36 29 37 88 38 30 39 31 40 32 41 82 42 33 43 87 44 81 45
REMARK SMILES IDX 83 46 34 47 86 48 80 49 79 50 35 52 67 53 47 54 66 55 48 56
REMARK SMILES IDX 51 57 65 58 84 59 49 60 50 61 64 63 85 64 52 65 36 66 37 67
REMARK SMILES IDX 45 68 38 69 39 70 43 71 46 72 40 73 41 74 44 75 42 76 68 77
REMARK SMILES IDX 69 78 77 79 70 80 71 81 75 82 78 83 72 84 73 85 76 86 74 87
REMARK SMILES IDX 53 88 54 89 62 90 55 91 56 92 60 93 63 94 57 95 58 96 61 97
REMARK SMILES IDX 59 98
REMARK H PARENT 17 6 5 19 24 32 83 51 51 62
REMARK Flexibility Score: inf
ROOT
ATOM      1  C   UNL A   1      36.424  23.023  24.708  1.00  0.00     0.021 C 
ENDROOT
BRANCH   1   2
ATOM      2  C   UNL A   1      36.167  23.705  26.059  1.00  0.00     0.116 C 
BRANCH   2   3
ATOM      3  N   UNL A   1      35.199  22.919  26.794  1.00  0.00    -0.352 N 
ATOM      4  C   UNL A   1      33.853  22.770  26.618  1.00  0.00     0.254 C 
ATOM      5  O   UNL A   1      33.173  22.395  27.574  1.00  0.00    -0.269 OA
ATOM      6  H   UNL A   1      35.574  22.406  27.545  1.00  0.00     0.163 HD
BRANCH   4   7
ATOM      7  C   UNL A   1      33.160  22.927  25.321  1.00  0.00     0.078 A 
ATOM      8  C   UNL A   1      32.816  24.556  23.551  1.00  0.00     0.101 A 
ATOM      9  C   UNL A   1      32.575  23.523  22.640  1.00  0.00     0.025 A 
ATOM     10  C   UNL A   1      32.954  24.266  24.912  1.00  0.00     0.075 A 
ATOM     11  C   UNL A   1      32.627  22.200  23.067  1.00  0.00     0.023 A 
ATOM     12  Cl  UNL A   1      32.747  25.500  26.124  1.00  0.00    -0.082 Cl
ATOM     13  C   UNL A   1      33.021  21.900  24.376  1.00  0.00     0.055 A 
ATOM     14  Cl  UNL A   1      33.418  20.249  24.658  1.00  0.00    -0.083 Cl
BRANCH   8  15
ATOM     15  S   UNL A   1      33.197  26.166  22.894  1.00  0.00     0.242 S 
ATOM     16  O   UNL A   1      33.651  26.054  21.529  1.00  0.00    -0.207 OA
ATOM     17  O   UNL A   1      34.003  26.848  23.886  1.00  0.00    -0.207 OA
BRANCH  15  18
ATOM     18  N   UNL A   1      31.715  26.976  22.954  1.00  0.00    -0.206 NA
ATOM     19  H   UNL A   1      31.166  26.650  22.157  1.00  0.00     0.141 HD
BRANCH  18  20
ATOM     20  C   UNL A   1      31.694  28.458  22.915  1.00  0.00     0.161 C 
BRANCH  20  21
ATOM     21  C   UNL A   1      30.707  29.177  23.879  1.00  0.00     0.263 C 
BRANCH  21  22
ATOM     22  O   UNL A   1      29.563  29.787  23.282  1.00  0.00    -0.355 OA
ATOM     23  C   UNL A   1      28.564  28.948  22.752  1.00  0.00     0.198 C 
ENDBRANCH  21  22
BRANCH  21  24
ATOM     24  O   UNL A   1      31.237  29.879  25.002  1.00  0.00    -0.355 OA
ATOM     25  C   UNL A   1      32.019  29.170  25.935  1.00  0.00     0.198 C 
ENDBRANCH  21  24
ENDBRANCH  20  21
ENDBRANCH  18  20
ENDBRANCH  15  18
ENDBRANCH   8  15
ENDBRANCH   4   7
ENDBRANCH   2   3
ENDBRANCH   1   2
BRANCH   1  26
ATOM     26  C   UNL A   1      37.536  21.969  24.734  1.00  0.00     0.002 C 
BRANCH  26  27
ATOM     27  C   UNL A   1      37.047  20.521  24.813  1.00  0.00     0.002 C 
BRANCH  27  28
ATOM     28  C   UNL A   1      38.151  19.478  25.001  1.00  0.00     0.021 C 
BRANCH  28  29
ATOM     29  C   UNL A   1      39.377  19.988  25.752  1.00  0.00     0.116 C 
BRANCH  29  30
ATOM     30  N   UNL A   1      40.376  18.946  25.923  1.00  0.00    -0.352 N 
ATOM     31  C   UNL A   1      41.732  19.078  26.091  1.00  0.00     0.251 C 
ATOM     32  H   UNL A   1      40.036  18.023  25.916  1.00  0.00     0.163 HD
ATOM     33  O   UNL A   1      42.475  18.108  25.993  1.00  0.00    -0.269 OA
BRANCH  31  34
ATOM     34  C   UNL A   1      42.294  20.412  26.386  1.00  0.00     0.039 A 
ATOM     35  C   UNL A   1      42.835  21.173  25.348  1.00  0.00     0.014 A 
ATOM     36  C   UNL A   1      42.278  20.904  27.695  1.00  0.00     0.014 A 
ATOM     37  C   UNL A   1      43.317  22.458  25.613  1.00  0.00     0.010 A 
ATOM     38  C   UNL A   1      42.694  22.207  27.944  1.00  0.00     0.010 A 
ATOM     39  C   UNL A   1      43.224  22.993  26.908  1.00  0.00    -0.014 A 
BRANCH  39  40
ATOM     40  C   UNL A   1      43.698  24.362  27.226  1.00  0.00     0.031 A 
ATOM     41  C   UNL A   1      42.723  25.379  27.749  1.00  0.00     0.074 A 
ATOM     42  C   UNL A   1      44.969  24.715  26.956  1.00  0.00     0.049 A 
ATOM     43  N   UNL A   1      42.883  26.664  27.937  1.00  0.00    -0.248 NA
ATOM     44  C   UNL A   1      41.373  24.887  28.072  1.00  0.00     0.031 C 
ATOM     45  C   UNL A   1      45.999  23.826  26.420  1.00  0.00     0.029 A 
ATOM     46  N   UNL A   1      45.603  25.927  27.075  1.00  0.00    -0.354 N 
ATOM     47  C   UNL A   1      41.650  27.136  28.372  1.00  0.00     0.074 A 
ATOM     48  C   UNL A   1      40.742  26.011  28.376  1.00  0.00     0.031 C 
ATOM     49  C   UNL A   1      47.138  24.519  26.262  1.00  0.00     0.029 A 
ATOM     50  C   UNL A   1      46.907  25.909  26.643  1.00  0.00     0.049 A 
ATOM     51  H   UNL A   1      45.165  26.732  27.434  1.00  0.00     0.167 HD
ATOM     52  C   UNL A   1      41.315  28.392  28.751  1.00  0.00     0.037 A 
ATOM     53  C   UNL A   1      47.806  26.908  26.548  1.00  0.00     0.037 A 
ATOM     54  C   UNL A   1      42.233  29.499  28.775  1.00  0.00     0.049 A 
ATOM     55  C   UNL A   1      47.407  28.296  26.972  1.00  0.00     0.074 A 
ATOM     56  C   UNL A   1      42.009  30.799  29.190  1.00  0.00     0.029 A 
ATOM     57  N   UNL A   1      43.558  29.433  28.366  1.00  0.00    -0.354 N 
ATOM     58  N   UNL A   1      46.254  28.724  27.426  1.00  0.00    -0.248 NA
ATOM     59  C   UNL A   1      48.437  29.340  26.875  1.00  0.00     0.031 C 
ATOM     60  C   UNL A   1      43.185  31.530  28.994  1.00  0.00     0.029 A 
ATOM     61  C   UNL A   1      44.158  30.673  28.506  1.00  0.00     0.049 A 
ATOM     62  H   UNL A   1      44.005  28.624  28.026  1.00  0.00     0.167 HD
ATOM     63  C   UNL A   1      46.429  30.073  27.703  1.00  0.00     0.074 A 
ATOM     64  C   UNL A   1      47.801  30.393  27.371  1.00  0.00     0.031 C 
ATOM     65  C   UNL A   1      45.534  30.965  28.192  1.00  0.00     0.037 A 
BRANCH  52  66
ATOM     66  C   UNL A   1      39.894  28.636  29.169  1.00  0.00     0.064 A 
ATOM     67  C   UNL A   1      39.468  28.430  30.490  1.00  0.00     0.173 A 
ATOM     68  C   UNL A   1      38.951  29.108  28.244  1.00  0.00     0.173 A 
ATOM     69  F   UNL A   1      40.326  27.967  31.411  1.00  0.00    -0.203 F 
ATOM     70  C   UNL A   1      38.146  28.658  30.861  1.00  0.00     0.198 A 
ATOM     71  C   UNL A   1      37.636  29.366  28.626  1.00  0.00     0.198 A 
ATOM     72  F   UNL A   1      39.305  29.327  26.967  1.00  0.00    -0.203 F 
ATOM     73  F   UNL A   1      37.750  28.403  32.116  1.00  0.00    -0.200 F 
ATOM     74  C   UNL A   1      37.233  29.133  29.931  1.00  0.00     0.200 A 
ATOM     75  F   UNL A   1      36.760  29.838  27.729  1.00  0.00    -0.200 F 
ATOM     76  F   UNL A   1      35.963  29.358  30.292  1.00  0.00    -0.200 F 
ENDBRANCH  52  66
BRANCH  53  77
ATOM     77  C   UNL A   1      49.178  26.628  26.049  1.00  0.00     0.064 A 
ATOM     78  C   UNL A   1      50.151  26.079  26.895  1.00  0.00     0.173 A 
ATOM     79  C   UNL A   1      49.547  26.907  24.725  1.00  0.00     0.173 A 
ATOM     80  F   UNL A   1      49.852  25.815  28.176  1.00  0.00    -0.203 F 
ATOM     81  C   UNL A   1      51.448  25.840  26.444  1.00  0.00     0.198 A 
ATOM     82  C   UNL A   1      50.835  26.640  24.266  1.00  0.00     0.198 A 
ATOM     83  F   UNL A   1      48.651  27.427  23.873  1.00  0.00    -0.203 F 
ATOM     84  F   UNL A   1      52.370  25.358  27.286  1.00  0.00    -0.200 F 
ATOM     85  C   UNL A   1      51.787  26.116  25.128  1.00  0.00     0.200 A 
ATOM     86  F   UNL A   1      51.155  26.894  22.989  1.00  0.00    -0.200 F 
ATOM     87  F   UNL A   1      53.032  25.882  24.692  1.00  0.00    -0.200 F 
ENDBRANCH  53  77
BRANCH  65  88
ATOM     88  C   UNL A   1      46.021  32.359  28.457  1.00  0.00     0.064 A 
ATOM     89  C   UNL A   1      46.603  32.720  29.681  1.00  0.00     0.173 A 
ATOM     90  C   UNL A   1      45.957  33.332  27.447  1.00  0.00     0.173 A 
ATOM     91  F   UNL A   1      46.674  31.831  30.683  1.00  0.00    -0.203 F 
ATOM     92  C   UNL A   1      47.084  34.010  29.890  1.00  0.00     0.198 A 
ATOM     93  C   UNL A   1      46.467  34.610  27.649  1.00  0.00     0.198 A 
ATOM     94  F   UNL A   1      45.417  33.034  26.255  1.00  0.00    -0.203 F 
ATOM     95  F   UNL A   1      47.599  34.345  31.081  1.00  0.00    -0.200 F 
ATOM     96  C   UNL A   1      47.025  34.950  28.871  1.00  0.00     0.200 A 
ATOM     97  F   UNL A   1      46.421  35.513  26.659  1.00  0.00    -0.200 F 
ATOM     98  F   UNL A   1      47.501  36.187  29.071  1.00  0.00    -0.200 F 
ENDBRANCH  65  88
ENDBRANCH  39  40
ENDBRANCH  31  34
ENDBRANCH  29  30
ENDBRANCH  28  29
ENDBRANCH  27  28
ENDBRANCH  26  27
ENDBRANCH   1  26
TORSDOF 19
ENDMDL
MODEL 2
REMARK VINA RESULT:     -11.4      1.163      2.012
REMARK SMILES COC(CNS(=O)(=O)c1ccc(Cl)c(C(=O)NCCCCCCNC(=O)c2ccc(-c3c4nc(c(-c5c(F)c(F)c(F)c(F)c5F)c5ccc([nH]5)c(-c5c(F)c(F)c(F)c(F)c5F)c5nc(c(-c6c(F)c(F)c(F)c(F)c6F)c6ccc3[nH]6)C=C5)C=C4)cc2)c1Cl)OC
REMARK SMILES IDX 19 1 18 2 17 3 15 4 16 5 14 7 9 8 10 9 90 10 11 11 91 12
REMARK SMILES IDX 12 13 13 14 6 15 7 16 8 17 5 18 4 20 3 21 2 22 1 23 92 24
REMARK SMILES IDX 93 25 20 26 21 27 22 28 23 29 24 30 25 31 26 33 27 34 28 35
REMARK SMILES IDX 89 36 29 37 88 38 30 39 31 40 32 41 82 42 33 43 87 44 81 45
REMARK SMILES IDX 83 46 34 47 86 48 80 49 79 50 35 52 67 53 47 54 66 55 48 56
REMARK SMILES IDX 51 57 65 58 84 59 49 60 50 61 64 63 85 64 52 65 36 66 37 67
REMARK SMILES IDX 45 68 38 69 39 70 43 71 46 72 40 73 41 74 44 75 42 76 68 77
REMARK SMILES IDX 69 78 77 79 70 80 71 81 75 82 78 83 72 84 73 85 76 86 74 87
REMARK SMILES IDX 53 88 54 89 62 90 55 91 56 92 60 93 63 94 57 95 58 96 61 97
REMARK SMILES IDX 59 98
REMARK H PARENT 17 6 5 19 24 32 83 51 51 62
REMARK Flexibility Score: inf
ROOT
ATOM      1  C   UNL A   1      36.701  23.604  25.124  1.00  0.00     0.021 C 
ENDROOT
BRANCH   1   2
ATOM      2  C   UNL A   1      35.577  24.011  26.087  1.00  0.00     0.116 C 
BRANCH   2   3
ATOM      3  N   UNL A   1      35.173  22.845  26.842  1.00  0.00    -0.352 N 
ATOM      4  C   UNL A   1      34.002  22.141  26.838  1.00  0.00     0.254 C 
ATOM      5  O   UNL A   1      33.725  21.456  27.823  1.00  0.00    -0.269 OA
ATOM      6  H   UNL A   1      35.855  22.501  27.462  1.00  0.00     0.163 HD
BRANCH   4   7
ATOM      7  C   UNL A   1      33.085  22.058  25.680  1.00  0.00     0.078 A 
ATOM      8  C   UNL A   1      31.765  23.476  24.214  1.00  0.00     0.101 A 
ATOM      9  C   UNL A   1      31.824  22.502  23.211  1.00  0.00     0.025 A 
ATOM     10  C   UNL A   1      32.258  23.190  25.490  1.00  0.00     0.075 A 
ATOM     11  C   UNL A   1      32.512  21.315  23.442  1.00  0.00     0.023 A 
ATOM     12  Cl  UNL A   1      31.771  24.125  26.877  1.00  0.00    -0.082 Cl
ATOM     13  C   UNL A   1      33.226  21.138  24.631  1.00  0.00     0.055 A 
ATOM     14  Cl  UNL A   1      34.332  19.818  24.628  1.00  0.00    -0.083 Cl
BRANCH   8  15
ATOM     15  S   UNL A   1      31.298  25.126  23.738  1.00  0.00     0.242 S 
ATOM     16  O   UNL A   1      30.064  25.502  24.382  1.00  0.00    -0.207 OA
ATOM     17  O   UNL A   1      31.432  25.204  22.297  1.00  0.00    -0.207 OA
BRANCH  15  18
ATOM     18  N   UNL A   1      32.572  26.077  24.312  1.00  0.00    -0.206 NA
ATOM     19  H   UNL A   1      33.193  25.457  24.833  1.00  0.00     0.141 HD
BRANCH  18  20
ATOM     20  C   UNL A   1      32.278  27.233  25.191  1.00  0.00     0.161 C 
BRANCH  20  21
ATOM     21  C   UNL A   1      31.636  28.483  24.525  1.00  0.00     0.263 C 
BRANCH  21  22
ATOM     22  O   UNL A   1      31.752  28.581  23.105  1.00  0.00    -0.355 OA
ATOM     23  C   UNL A   1      30.629  29.017  22.376  1.00  0.00     0.198 C 
ENDBRANCH  21  22
BRANCH  21  24
ATOM     24  O   UNL A   1      31.694  29.731  25.213  1.00  0.00    -0.355 OA
ATOM     25  C   UNL A   1      32.837  30.027  25.982  1.00  0.00     0.198 C 
ENDBRANCH  21  24
ENDBRANCH  20  21
ENDBRANCH  18  20
ENDBRANCH  15  18
ENDBRANCH   8  15
ENDBRANCH   4   7
ENDBRANCH   2   3
ENDBRANCH   1   2
BRANCH   1  26
ATOM     26  C   UNL A   1      37.474  22.351  25.553  1.00  0.00     0.002 C 
BRANCH  26  27
ATOM     27  C   UNL A   1      37.333  21.155  24.609  1.00  0.00     0.002 C 
BRANCH  27  28
ATOM     28  C   UNL A   1      38.155  19.925  25.001  1.00  0.00     0.021 C 
BRANCH  28  29
ATOM     29  C   UNL A   1      39.247  20.200  26.030  1.00  0.00     0.116 C 
BRANCH  29  30
ATOM     30  N   UNL A   1      40.287  19.184  25.997  1.00  0.00    -0.352 N 
ATOM     31  C   UNL A   1      41.648  19.348  26.067  1.00  0.00     0.251 C 
ATOM     32  H   UNL A   1      39.973  18.255  25.912  1.00  0.00     0.163 HD
ATOM     33  O   UNL A   1      42.407  18.423  25.798  1.00  0.00    -0.269 OA
BRANCH  31  34
ATOM     34  C   UNL A   1      42.195  20.660  26.466  1.00  0.00     0.039 A 
ATOM     35  C   UNL A   1      42.621  21.554  25.481  1.00  0.00     0.014 A 
ATOM     36  C   UNL A   1      42.279  21.002  27.819  1.00  0.00     0.014 A 
ATOM     37  C   UNL A   1      43.087  22.818  25.851  1.00  0.00     0.010 A 
ATOM     38  C   UNL A   1      42.679  22.283  28.181  1.00  0.00     0.010 A 
ATOM     39  C   UNL A   1      43.093  23.200  27.202  1.00  0.00    -0.014 A 
BRANCH  39  40
ATOM     40  C   UNL A   1      43.554  24.543  27.634  1.00  0.00     0.031 A 
ATOM     41  C   UNL A   1      42.540  25.589  28.000  1.00  0.00     0.074 A 
ATOM     42  C   UNL A   1      44.865  24.846  27.606  1.00  0.00     0.049 A 
ATOM     43  N   UNL A   1      42.712  26.863  28.247  1.00  0.00    -0.248 NA
ATOM     44  C   UNL A   1      41.136  25.149  28.063  1.00  0.00     0.031 C 
ATOM     45  C   UNL A   1      45.940  23.925  27.241  1.00  0.00     0.029 A 
ATOM     46  N   UNL A   1      45.513  26.028  27.867  1.00  0.00    -0.354 N 
ATOM     47  C   UNL A   1      41.440  27.378  28.465  1.00  0.00     0.074 A 
ATOM     48  C   UNL A   1      40.504  26.292  28.277  1.00  0.00     0.031 C 
ATOM     49  C   UNL A   1      47.115  24.571  27.308  1.00  0.00     0.029 A 
ATOM     50  C   UNL A   1      46.872  25.963  27.676  1.00  0.00     0.049 A 
ATOM     51  H   UNL A   1      45.049  26.844  28.163  1.00  0.00     0.167 HD
ATOM     52  C   UNL A   1      41.090  28.640  28.809  1.00  0.00     0.037 A 
ATOM     53  C   UNL A   1      47.811  26.925  27.770  1.00  0.00     0.037 A 
ATOM     54  C   UNL A   1      42.031  29.707  29.026  1.00  0.00     0.049 A 
ATOM     55  C   UNL A   1      47.395  28.321  28.151  1.00  0.00     0.074 A 
ATOM     56  C   UNL A   1      41.785  31.008  29.428  1.00  0.00     0.029 A 
ATOM     57  N   UNL A   1      43.404  29.592  28.860  1.00  0.00    -0.354 N 
ATOM     58  N   UNL A   1      46.196  28.788  28.401  1.00  0.00    -0.248 NA
ATOM     59  C   UNL A   1      48.465  29.322  28.266  1.00  0.00     0.031 C 
ATOM     60  C   UNL A   1      43.004  31.692  29.465  1.00  0.00     0.029 A 
ATOM     61  C   UNL A   1      44.016  30.803  29.137  1.00  0.00     0.049 A 
ATOM     62  H   UNL A   1      43.874  28.772  28.586  1.00  0.00     0.167 HD
ATOM     63  C   UNL A   1      46.369  30.123  28.739  1.00  0.00     0.074 A 
ATOM     64  C   UNL A   1      47.790  30.391  28.667  1.00  0.00     0.031 C 
ATOM     65  C   UNL A   1      45.435  31.043  29.083  1.00  0.00     0.037 A 
BRANCH  52  66
ATOM     66  C   UNL A   1      39.627  28.936  28.972  1.00  0.00     0.064 A 
ATOM     67  C   UNL A   1      38.988  28.834  30.218  1.00  0.00     0.173 A 
ATOM     68  C   UNL A   1      38.859  29.354  27.875  1.00  0.00     0.173 A 
ATOM     69  F   UNL A   1      39.673  28.427  31.296  1.00  0.00    -0.203 F 
ATOM     70  C   UNL A   1      37.630  29.109  30.351  1.00  0.00     0.198 A 
ATOM     71  C   UNL A   1      37.508  29.659  28.018  1.00  0.00     0.198 A 
ATOM     72  F   UNL A   1      39.421  29.473  26.661  1.00  0.00    -0.203 F 
ATOM     73  F   UNL A   1      37.030  28.952  31.539  1.00  0.00    -0.200 F 
ATOM     74  C   UNL A   1      36.893  29.528  29.253  1.00  0.00     0.200 A 
ATOM     75  F   UNL A   1      36.802  30.078  26.959  1.00  0.00    -0.200 F 
ATOM     76  F   UNL A   1      35.588  29.799  29.386  1.00  0.00    -0.200 F 
ENDBRANCH  52  66
BRANCH  53  77
ATOM     77  C   UNL A   1      49.239  26.597  27.518  1.00  0.00     0.064 A 
ATOM     78  C   UNL A   1      49.724  26.457  26.211  1.00  0.00     0.173 A 
ATOM     79  C   UNL A   1      50.144  26.410  28.573  1.00  0.00     0.173 A 
ATOM     80  F   UNL A   1      48.891  26.606  25.170  1.00  0.00    -0.203 F 
ATOM     81  C   UNL A   1      51.054  26.123  25.967  1.00  0.00     0.198 A 
ATOM     82  C   UNL A   1      51.481  26.104  28.328  1.00  0.00     0.198 A 
ATOM     83  F   UNL A   1      49.732  26.539  29.843  1.00  0.00    -0.203 F 
ATOM     84  F   UNL A   1      51.479  25.950  24.709  1.00  0.00    -0.200 F 
ATOM     85  C   UNL A   1      51.933  25.952  27.026  1.00  0.00     0.200 A 
ATOM     86  F   UNL A   1      52.331  25.954  29.354  1.00  0.00    -0.200 F 
ATOM     87  F   UNL A   1      53.213  25.633  26.792  1.00  0.00    -0.200 F 
ENDBRANCH  53  77
BRANCH  65  88
ATOM     88  C   UNL A   1      45.920  32.411  29.466  1.00  0.00     0.064 A 
ATOM     89  C   UNL A   1      46.049  33.441  28.524  1.00  0.00     0.173 A 
ATOM     90  C   UNL A   1      46.203  32.707  30.809  1.00  0.00     0.173 A 
ATOM     91  F   UNL A   1      45.805  33.204  27.226  1.00  0.00    -0.203 F 
ATOM     92  C   UNL A   1      46.463  34.713  28.909  1.00  0.00     0.198 A 
ATOM     93  C   UNL A   1      46.587  33.988  31.195  1.00  0.00     0.198 A 
ATOM     94  F   UNL A   1      46.086  31.758  31.750  1.00  0.00    -0.203 F 
ATOM     95  F   UNL A   1      46.620  35.673  27.987  1.00  0.00    -0.200 F 
ATOM     96  C   UNL A   1      46.722  34.988  30.245  1.00  0.00     0.200 A 
ATOM     97  F   UNL A   1      46.822  34.254  32.487  1.00  0.00    -0.200 F 
ATOM     98  F   UNL A   1      47.108  36.217  30.615  1.00  0.00    -0.200 F 
ENDBRANCH  65  88
ENDBRANCH  39  40
ENDBRANCH  31  34
ENDBRANCH  29  30
ENDBRANCH  28  29
ENDBRANCH  27  28
ENDBRANCH  26  27
ENDBRANCH   1  26
TORSDOF 19
ENDMDL
MODEL 3
REMARK VINA RESULT:     -11.3      5.434     11.115
REMARK SMILES COC(CNS(=O)(=O)c1ccc(Cl)c(C(=O)NCCCCCCNC(=O)c2ccc(-c3c4nc(c(-c5c(F)c(F)c(F)c(F)c5F)c5ccc([nH]5)c(-c5c(F)c(F)c(F)c(F)c5F)c5nc(c(-c6c(F)c(F)c(F)c(F)c6F)c6ccc3[nH]6)C=C5)C=C4)cc2)c1Cl)OC
REMARK SMILES IDX 19 1 18 2 17 3 15 4 16 5 14 7 9 8 10 9 90 10 11 11 91 12
REMARK SMILES IDX 12 13 13 14 6 15 7 16 8 17 5 18 4 20 3 21 2 22 1 23 92 24
REMARK SMILES IDX 93 25 20 26 21 27 22 28 23 29 24 30 25 31 26 33 27 34 28 35
REMARK SMILES IDX 89 36 29 37 88 38 30 39 31 40 32 41 82 42 33 43 87 44 81 45
REMARK SMILES IDX 83 46 34 47 86 48 80 49 79 50 35 52 67 53 47 54 66 55 48 56
REMARK SMILES IDX 51 57 65 58 84 59 49 60 50 61 64 63 85 64 52 65 36 66 37 67
REMARK SMILES IDX 45 68 38 69 39 70 43 71 46 72 40 73 41 74 44 75 42 76 68 77
REMARK SMILES IDX 69 78 77 79 70 80 71 81 75 82 78 83 72 84 73 85 76 86 74 87
REMARK SMILES IDX 53 88 54 89 62 90 55 91 56 92 60 93 63 94 57 95 58 96 61 97
REMARK SMILES IDX 59 98
REMARK H PARENT 17 6 5 19 24 32 83 51 51 62
REMARK Flexibility Score: inf
ROOT
ATOM      1  C   UNL A   1      30.129  29.730  23.887  1.00  0.00     0.021 C 
ENDROOT
BRANCH   1   2
ATOM      2  C   UNL A   1      30.783  29.568  22.507  1.00  0.00     0.116 C 
BRANCH   2   3
ATOM      3  N   UNL A   1      30.628  28.193  22.085  1.00  0.00    -0.352 N 
ATOM      4  C   UNL A   1      31.244  27.052  22.515  1.00  0.00     0.254 C 
ATOM      5  O   UNL A   1      31.268  26.077  21.763  1.00  0.00    -0.269 OA
ATOM      6  H   UNL A   1      29.969  28.056  21.367  1.00  0.00     0.163 HD
BRANCH   4   7
ATOM      7  C   UNL A   1      31.798  26.867  23.874  1.00  0.00     0.078 A 
ATOM      8  C   UNL A   1      31.626  25.390  25.796  1.00  0.00     0.101 A 
ATOM      9  C   UNL A   1      32.920  25.745  26.191  1.00  0.00     0.025 A 
ATOM     10  C   UNL A   1      31.013  26.063  24.735  1.00  0.00     0.075 A 
ATOM     11  C   UNL A   1      33.648  26.654  25.430  1.00  0.00     0.023 A 
ATOM     12  Cl  UNL A   1      29.284  26.036  24.526  1.00  0.00    -0.082 Cl
ATOM     13  C   UNL A   1      33.130  27.132  24.222  1.00  0.00     0.055 A 
ATOM     14  Cl  UNL A   1      34.269  27.927  23.204  1.00  0.00    -0.083 Cl
BRANCH   8  15
ATOM     15  S   UNL A   1      30.921  23.916  26.501  1.00  0.00     0.242 S 
ATOM     16  O   UNL A   1      29.657  24.216  27.128  1.00  0.00    -0.207 OA
ATOM     17  O   UNL A   1      31.976  23.258  27.246  1.00  0.00    -0.207 OA
BRANCH  15  18
ATOM     18  N   UNL A   1      30.687  22.911  25.162  1.00  0.00    -0.206 NA
ATOM     19  H   UNL A   1      30.450  21.987  25.523  1.00  0.00     0.141 HD
BRANCH  18  20
ATOM     20  C   UNL A   1      31.792  22.725  24.191  1.00  0.00     0.161 C 
BRANCH  20  21
ATOM     21  C   UNL A   1      32.574  21.383  24.257  1.00  0.00     0.263 C 
BRANCH  21  22
ATOM     22  O   UNL A   1      31.966  20.325  24.998  1.00  0.00    -0.355 OA
ATOM     23  C   UNL A   1      32.797  19.314  25.517  1.00  0.00     0.198 C 
ENDBRANCH  21  22
BRANCH  21  24
ATOM     24  O   UNL A   1      33.998  21.425  24.342  1.00  0.00    -0.355 OA
ATOM     25  C   UNL A   1      34.602  22.469  25.070  1.00  0.00     0.198 C 
ENDBRANCH  21  24
ENDBRANCH  20  21
ENDBRANCH  18  20
ENDBRANCH  15  18
ENDBRANCH   8  15
ENDBRANCH   4   7
ENDBRANCH   2   3
ENDBRANCH   1   2
BRANCH   1  26
ATOM     26  C   UNL A   1      31.104  30.116  25.005  1.00  0.00     0.002 C 
BRANCH  26  27
ATOM     27  C   UNL A   1      30.936  31.539  25.542  1.00  0.00     0.002 C 
BRANCH  27  28
ATOM     28  C   UNL A   1      31.408  31.745  26.983  1.00  0.00     0.021 C 
BRANCH  28  29
ATOM     29  C   UNL A   1      32.695  32.553  27.113  1.00  0.00     0.116 C 
BRANCH  29  30
ATOM     30  N   UNL A   1      32.426  33.941  27.456  1.00  0.00    -0.352 N 
ATOM     31  C   UNL A   1      32.974  34.696  28.463  1.00  0.00     0.251 C 
ATOM     32  H   UNL A   1      31.763  34.400  26.892  1.00  0.00     0.163 HD
ATOM     33  O   UNL A   1      32.486  35.777  28.774  1.00  0.00    -0.269 OA
BRANCH  31  34
ATOM     34  C   UNL A   1      34.161  34.188  29.179  1.00  0.00     0.039 A 
ATOM     35  C   UNL A   1      33.990  33.348  30.282  1.00  0.00     0.014 A 
ATOM     36  C   UNL A   1      35.443  34.545  28.750  1.00  0.00     0.014 A 
ATOM     37  C   UNL A   1      35.111  32.821  30.928  1.00  0.00     0.010 A 
ATOM     38  C   UNL A   1      36.555  33.966  29.351  1.00  0.00     0.010 A 
ATOM     39  C   UNL A   1      36.400  33.104  30.449  1.00  0.00    -0.014 A 
BRANCH  39  40
ATOM     40  C   UNL A   1      37.615  32.543  31.089  1.00  0.00     0.031 A 
ATOM     41  C   UNL A   1      38.362  31.431  30.408  1.00  0.00     0.074 A 
ATOM     42  C   UNL A   1      37.987  32.962  32.313  1.00  0.00     0.049 A 
ATOM     43  N   UNL A   1      39.343  30.690  30.858  1.00  0.00    -0.248 NA
ATOM     44  C   UNL A   1      37.920  31.082  29.047  1.00  0.00     0.031 C 
ATOM     45  C   UNL A   1      37.325  34.013  33.086  1.00  0.00     0.029 A 
ATOM     46  N   UNL A   1      39.002  32.534  33.133  1.00  0.00    -0.354 N 
ATOM     47  C   UNL A   1      39.615  29.774  29.850  1.00  0.00     0.074 A 
ATOM     48  C   UNL A   1      38.667  30.021  28.785  1.00  0.00     0.031 C 
ATOM     49  C   UNL A   1      37.954  34.154  34.264  1.00  0.00     0.029 A 
ATOM     50  C   UNL A   1      39.034  33.175  34.348  1.00  0.00     0.049 A 
ATOM     51  H   UNL A   1      39.645  31.835  32.875  1.00  0.00     0.167 HD
ATOM     52  C   UNL A   1      40.580  28.826  29.811  1.00  0.00     0.037 A 
ATOM     53  C   UNL A   1      39.833  32.978  35.414  1.00  0.00     0.037 A 
ATOM     54  C   UNL A   1      41.539  28.609  30.861  1.00  0.00     0.049 A 
ATOM     55  C   UNL A   1      40.897  31.915  35.347  1.00  0.00     0.074 A 
ATOM     56  C   UNL A   1      42.590  27.710  30.900  1.00  0.00     0.029 A 
ATOM     57  N   UNL A   1      41.563  29.304  32.062  1.00  0.00    -0.354 N 
ATOM     58  N   UNL A   1      41.177  31.084  34.372  1.00  0.00    -0.248 NA
ATOM     59  C   UNL A   1      41.758  31.764  36.528  1.00  0.00     0.031 C 
ATOM     60  C   UNL A   1      43.225  27.832  32.140  1.00  0.00     0.029 A 
ATOM     61  C   UNL A   1      42.603  28.844  32.854  1.00  0.00     0.049 A 
ATOM     62  H   UNL A   1      40.935  30.019  32.314  1.00  0.00     0.167 HD
ATOM     63  C   UNL A   1      42.267  30.341  34.805  1.00  0.00     0.074 A 
ATOM     64  C   UNL A   1      42.601  30.822  36.129  1.00  0.00     0.031 C 
ATOM     65  C   UNL A   1      42.933  29.353  34.160  1.00  0.00     0.037 A 
BRANCH  52  66
ATOM     66  C   UNL A   1      40.646  27.950  28.593  1.00  0.00     0.064 A 
ATOM     67  C   UNL A   1      41.418  28.301  27.474  1.00  0.00     0.173 A 
ATOM     68  C   UNL A   1      39.952  26.731  28.555  1.00  0.00     0.173 A 
ATOM     69  F   UNL A   1      42.090  29.461  27.455  1.00  0.00    -0.203 F 
ATOM     70  C   UNL A   1      41.466  27.479  26.352  1.00  0.00     0.198 A 
ATOM     71  C   UNL A   1      40.029  25.896  27.442  1.00  0.00     0.198 A 
ATOM     72  F   UNL A   1      39.204  26.345  29.600  1.00  0.00    -0.203 F 
ATOM     73  F   UNL A   1      42.166  27.860  25.274  1.00  0.00    -0.200 F 
ATOM     74  C   UNL A   1      40.778  26.274  26.339  1.00  0.00     0.200 A 
ATOM     75  F   UNL A   1      39.375  24.727  27.439  1.00  0.00    -0.200 F 
ATOM     76  F   UNL A   1      40.832  25.482  25.261  1.00  0.00    -0.200 F 
ENDBRANCH  52  66
BRANCH  53  77
ATOM     77  C   UNL A   1      39.672  33.819  36.629  1.00  0.00     0.064 A 
ATOM     78  C   UNL A   1      40.322  35.056  36.737  1.00  0.00     0.173 A 
ATOM     79  C   UNL A   1      38.873  33.406  37.705  1.00  0.00     0.173 A 
ATOM     80  F   UNL A   1      41.114  35.484  35.742  1.00  0.00    -0.203 F 
ATOM     81  C   UNL A   1      40.199  35.838  37.883  1.00  0.00     0.198 A 
ATOM     82  C   UNL A   1      38.727  34.202  38.840  1.00  0.00     0.198 A 
ATOM     83  F   UNL A   1      38.224  32.234  37.649  1.00  0.00    -0.203 F 
ATOM     84  F   UNL A   1      40.869  36.994  37.979  1.00  0.00    -0.200 F 
ATOM     85  C   UNL A   1      39.397  35.413  38.932  1.00  0.00     0.200 A 
ATOM     86  F   UNL A   1      37.939  33.794  39.845  1.00  0.00    -0.200 F 
ATOM     87  F   UNL A   1      39.275  36.166  40.033  1.00  0.00    -0.200 F 
ENDBRANCH  53  77
BRANCH  65  88
ATOM     88  C   UNL A   1      44.129  28.762  34.849  1.00  0.00     0.064 A 
ATOM     89  C   UNL A   1      45.417  29.288  34.678  1.00  0.00     0.173 A 
ATOM     90  C   UNL A   1      43.969  27.689  35.741  1.00  0.00     0.173 A 
ATOM     91  F   UNL A   1      45.624  30.303  33.825  1.00  0.00    -0.203 F 
ATOM     92  C   UNL A   1      46.505  28.748  35.358  1.00  0.00     0.198 A 
ATOM     93  C   UNL A   1      45.054  27.172  36.441  1.00  0.00     0.198 A 
ATOM     94  F   UNL A   1      42.755  27.155  35.946  1.00  0.00    -0.203 F 
ATOM     95  F   UNL A   1      47.734  29.239  35.148  1.00  0.00    -0.200 F 
ATOM     96  C   UNL A   1      46.321  27.697  36.246  1.00  0.00     0.200 A 
ATOM     97  F   UNL A   1      44.872  26.167  37.310  1.00  0.00    -0.200 F 
ATOM     98  F   UNL A   1      47.369  27.189  36.909  1.00  0.00    -0.200 F 
ENDBRANCH  65  88
ENDBRANCH  39  40
ENDBRANCH  31  34
ENDBRANCH  29  30
ENDBRANCH  28  29
ENDBRANCH  27  28
ENDBRANCH  26  27
ENDBRANCH   1  26
TORSDOF 19
ENDMDL
