MODEL 1
REMARK VINA RESULT:     -13.5      0.000      0.000
REMARK SMILES Cc1ccccc1/C=C1\SC(=S)N(CCC(=O)N[C@@H](C)C(=O)NCCCCCCNC(=O)c2ccc(-c3c4nc(c(-c5c(F)c(F)c(F)c(F)c5F)c5ccc([nH]5)c(-c5c(F)c(F)c(F)c(F)c5F)c5nc(c(-c6c(F)c(F)c(F)c(F)c6F)c6ccc3[nH]6)C=C5)C=C4)cc2)C1=O
REMARK SMILES IDX 25 1 24 2 23 3 21 4 22 5 19 7 20 8 18 9 16 10 17 11 15 13
REMARK SMILES IDX 14 14 13 15 8 16 9 17 10 18 96 19 11 20 97 21 12 22 7 23
REMARK SMILES IDX 1 24 2 25 3 26 4 27 6 28 5 29 26 30 27 31 28 32 29 33 30 34
REMARK SMILES IDX 31 35 32 37 33 38 34 39 95 40 35 41 94 42 36 43 37 44 38 45
REMARK SMILES IDX 88 46 39 47 93 48 87 49 89 50 40 51 92 52 86 53 85 54 41 56
REMARK SMILES IDX 73 57 53 58 72 59 54 60 57 61 71 62 90 63 55 64 56 65 70 67
REMARK SMILES IDX 91 68 58 69 42 70 43 71 51 72 44 73 45 74 49 75 52 76 46 77
REMARK SMILES IDX 47 78 50 79 48 80 74 81 75 82 83 83 76 84 77 85 81 86 84 87
REMARK SMILES IDX 78 88 79 89 82 90 80 91 59 92 60 93 68 94 61 95 62 96 66 97
REMARK SMILES IDX 69 98 63 99 64 100 67 101 65 102
REMARK H PARENT 23 6 18 12 30 36 89 55 57 66
REMARK Flexibility Score: inf
ROOT
ATOM      1  C   UNL A   1      31.099  26.296  26.196  1.00  0.00     0.021 C 
ENDROOT
BRANCH   1   2
ATOM      2  C   UNL A   1      30.392  26.148  24.853  1.00  0.00     0.116 C 
BRANCH   2   3
ATOM      3  N   UNL A   1      30.210  27.403  24.153  1.00  0.00    -0.354 N 
ATOM      4  C   UNL A   1      31.023  28.055  23.272  1.00  0.00     0.242 C 
ATOM      5  O   UNL A   1      30.563  29.062  22.725  1.00  0.00    -0.273 OA
ATOM      6  H   UNL A   1      29.360  27.862  24.345  1.00  0.00     0.163 HD
BRANCH   4   7
ATOM      7  C   UNL A   1      32.445  27.566  22.919  1.00  0.00     0.168 C 
ATOM      8  C   UNL A   1      33.451  28.689  23.022  1.00  0.00     0.041 C 
BRANCH   7   9
ATOM      9  N   UNL A   1      32.607  26.903  21.629  1.00  0.00    -0.345 N 
ATOM     10  C   UNL A   1      32.864  25.574  21.406  1.00  0.00     0.222 C 
ATOM     11  O   UNL A   1      33.277  25.236  20.296  1.00  0.00    -0.275 OA
ATOM     12  H   UNL A   1      32.522  27.473  20.830  1.00  0.00     0.164 HD
BRANCH  10  13
ATOM     13  C   UNL A   1      32.580  24.533  22.484  1.00  0.00     0.122 C 
BRANCH  13  14
ATOM     14  C   UNL A   1      33.539  24.534  23.691  1.00  0.00     0.137 C 
BRANCH  14  15
ATOM     15  N   UNL A   1      33.838  23.198  24.249  1.00  0.00    -0.292 N 
ATOM     16  C   UNL A   1      32.370  20.022  24.871  1.00  0.00     0.029 C 
ATOM     17  C   UNL A   1      33.258  21.025  24.948  1.00  0.00     0.081 C 
ATOM     18  S   UNL A   1      34.969  20.957  24.886  1.00  0.00    -0.054 SA
ATOM     19  C   UNL A   1      32.805  22.437  24.780  1.00  0.00     0.266 C 
ATOM     20  C   UNL A   1      35.097  22.630  24.332  1.00  0.00     0.148 C 
ATOM     21  O   UNL A   1      31.658  22.807  24.982  1.00  0.00    -0.268 OA
ATOM     22  S   UNL A   1      36.567  23.322  23.959  1.00  0.00    -0.052 S 
BRANCH  16  23
ATOM     23  C   UNL A   1      32.660  18.589  24.693  1.00  0.00    -0.021 A 
ATOM     24  C   UNL A   1      32.526  18.754  22.160  1.00  0.00     0.045 C 
ATOM     25  C   UNL A   1      32.765  17.988  23.430  1.00  0.00    -0.044 A 
ATOM     26  C   UNL A   1      33.066  16.615  23.350  1.00  0.00     0.004 A 
ATOM     27  C   UNL A   1      33.289  15.855  24.499  1.00  0.00     0.000 A 
ATOM     28  C   UNL A   1      32.901  17.812  25.840  1.00  0.00     0.008 A 
ATOM     29  C   UNL A   1      33.208  16.454  25.748  1.00  0.00     0.001 A 
ENDBRANCH  16  23
ENDBRANCH  14  15
ENDBRANCH  13  14
ENDBRANCH  10  13
ENDBRANCH   7   9
ENDBRANCH   4   7
ENDBRANCH   2   3
ENDBRANCH   1   2
BRANCH   1  30
ATOM     30  C   UNL A   1      31.338  27.738  26.671  1.00  0.00     0.002 C 
BRANCH  30  31
ATOM     31  C   UNL A   1      32.786  28.258  26.705  1.00  0.00     0.002 C 
BRANCH  31  32
ATOM     32  C   UNL A   1      33.023  29.680  27.225  1.00  0.00     0.021 C 
BRANCH  32  33
ATOM     33  C   UNL A   1      34.477  30.124  27.270  1.00  0.00     0.116 C 
BRANCH  33  34
ATOM     34  N   UNL A   1      34.838  31.014  28.364  1.00  0.00    -0.352 N 
ATOM     35  C   UNL A   1      35.900  30.888  29.247  1.00  0.00     0.251 C 
ATOM     36  H   UNL A   1      34.258  31.799  28.492  1.00  0.00     0.163 HD
ATOM     37  O   UNL A   1      36.052  31.673  30.168  1.00  0.00    -0.269 OA
BRANCH  35  38
ATOM     38  C   UNL A   1      36.917  29.838  28.983  1.00  0.00     0.039 A 
ATOM     39  C   UNL A   1      37.224  28.942  30.013  1.00  0.00     0.014 A 
ATOM     40  C   UNL A   1      37.694  29.879  27.826  1.00  0.00     0.014 A 
ATOM     41  C   UNL A   1      38.438  28.257  29.979  1.00  0.00     0.010 A 
ATOM     42  C   UNL A   1      38.937  29.272  27.834  1.00  0.00     0.010 A 
ATOM     43  C   UNL A   1      39.336  28.511  28.938  1.00  0.00    -0.014 A 
BRANCH  43  44
ATOM     44  C   UNL A   1      40.740  28.116  28.994  1.00  0.00     0.031 A 
ATOM     45  C   UNL A   1      41.194  26.831  28.426  1.00  0.00     0.074 A 
ATOM     46  C   UNL A   1      41.654  28.931  29.568  1.00  0.00     0.049 A 
ATOM     47  N   UNL A   1      42.172  26.140  28.914  1.00  0.00    -0.248 NA
ATOM     48  C   UNL A   1      40.563  26.209  27.267  1.00  0.00     0.031 C 
ATOM     49  C   UNL A   1      43.108  28.785  29.530  1.00  0.00     0.029 A 
ATOM     50  N   UNL A   1      41.431  29.966  30.490  1.00  0.00    -0.354 N 
ATOM     51  C   UNL A   1      42.464  25.146  28.012  1.00  0.00     0.074 A 
ATOM     52  C   UNL A   1      41.395  25.187  27.037  1.00  0.00     0.031 C 
ATOM     53  C   UNL A   1      43.635  29.445  30.572  1.00  0.00     0.029 A 
ATOM     54  C   UNL A   1      42.532  29.935  31.377  1.00  0.00     0.049 A 
ATOM     55  H   UNL A   1      40.666  30.587  30.513  1.00  0.00     0.167 HD
ATOM     56  C   UNL A   1      43.649  24.475  28.088  1.00  0.00     0.037 A 
ATOM     57  C   UNL A   1      42.381  29.732  32.717  1.00  0.00     0.037 A 
ATOM     58  C   UNL A   1      44.488  24.964  29.171  1.00  0.00     0.049 A 
ATOM     59  C   UNL A   1      43.155  28.556  33.259  1.00  0.00     0.074 A 
ATOM     60  C   UNL A   1      45.526  25.882  29.197  1.00  0.00     0.029 A 
ATOM     61  N   UNL A   1      44.121  24.748  30.494  1.00  0.00    -0.354 N 
ATOM     62  N   UNL A   1      43.625  27.598  32.513  1.00  0.00    -0.248 NA
ATOM     63  C   UNL A   1      43.405  28.332  34.680  1.00  0.00     0.031 C 
ATOM     64  C   UNL A   1      45.772  26.236  30.541  1.00  0.00     0.029 A 
ATOM     65  C   UNL A   1      44.891  25.527  31.337  1.00  0.00     0.049 A 
ATOM     66  H   UNL A   1      43.413  24.130  30.788  1.00  0.00     0.167 HD
ATOM     67  C   UNL A   1      44.190  26.635  33.309  1.00  0.00     0.074 A 
ATOM     68  C   UNL A   1      44.050  27.152  34.656  1.00  0.00     0.031 C 
ATOM     69  C   UNL A   1      44.707  25.489  32.777  1.00  0.00     0.037 A 
BRANCH  56  70
ATOM     70  C   UNL A   1      44.142  23.597  26.970  1.00  0.00     0.064 A 
ATOM     71  C   UNL A   1      43.650  22.288  26.785  1.00  0.00     0.173 A 
ATOM     72  C   UNL A   1      45.152  23.992  26.073  1.00  0.00     0.173 A 
ATOM     73  F   UNL A   1      42.630  21.813  27.507  1.00  0.00    -0.203 F 
ATOM     74  C   UNL A   1      44.208  21.406  25.857  1.00  0.00     0.198 A 
ATOM     75  C   UNL A   1      45.743  23.094  25.180  1.00  0.00     0.198 A 
ATOM     76  F   UNL A   1      45.581  25.262  26.042  1.00  0.00    -0.203 F 
ATOM     77  F   UNL A   1      43.714  20.165  25.740  1.00  0.00    -0.200 F 
ATOM     78  C   UNL A   1      45.280  21.796  25.082  1.00  0.00     0.200 A 
ATOM     79  F   UNL A   1      46.777  23.491  24.423  1.00  0.00    -0.200 F 
ATOM     80  F   UNL A   1      45.856  20.931  24.237  1.00  0.00    -0.200 F 
ENDBRANCH  56  70
BRANCH  57  81
ATOM     81  C   UNL A   1      41.066  30.191  33.232  1.00  0.00     0.064 A 
ATOM     82  C   UNL A   1      40.812  31.575  33.277  1.00  0.00     0.173 A 
ATOM     83  C   UNL A   1      39.968  29.325  33.299  1.00  0.00     0.173 A 
ATOM     84  F   UNL A   1      41.832  32.446  33.207  1.00  0.00    -0.203 F 
ATOM     85  C   UNL A   1      39.512  32.072  33.260  1.00  0.00     0.198 A 
ATOM     86  C   UNL A   1      38.666  29.829  33.300  1.00  0.00     0.198 A 
ATOM     87  F   UNL A   1      40.146  27.998  33.243  1.00  0.00    -0.203 F 
ATOM     88  F   UNL A   1      39.304  33.394  33.174  1.00  0.00    -0.200 F 
ATOM     89  C   UNL A   1      38.440  31.197  33.244  1.00  0.00     0.200 A 
ATOM     90  F   UNL A   1      37.628  28.983  33.257  1.00  0.00    -0.200 F 
ATOM     91  F   UNL A   1      37.192  31.669  33.130  1.00  0.00    -0.200 F 
ENDBRANCH  57  81
BRANCH  69  92
ATOM     92  C   UNL A   1      45.184  24.275  33.534  1.00  0.00     0.064 A 
ATOM     93  C   UNL A   1      44.415  23.117  33.729  1.00  0.00     0.173 A 
ATOM     94  C   UNL A   1      46.529  24.193  33.974  1.00  0.00     0.173 A 
ATOM     95  F   UNL A   1      43.163  23.024  33.261  1.00  0.00    -0.203 F 
ATOM     96  C   UNL A   1      44.934  21.984  34.367  1.00  0.00     0.198 A 
ATOM     97  C   UNL A   1      47.059  23.043  34.559  1.00  0.00     0.198 A 
ATOM     98  F   UNL A   1      47.379  25.219  33.827  1.00  0.00    -0.203 F 
ATOM     99  F   UNL A   1      44.148  20.916  34.562  1.00  0.00    -0.200 F 
ATOM    100  C   UNL A   1      46.256  21.942  34.769  1.00  0.00     0.200 A 
ATOM    101  F   UNL A   1      48.355  23.004  34.897  1.00  0.00    -0.200 F 
ATOM    102  F   UNL A   1      46.760  20.838  35.337  1.00  0.00    -0.200 F 
ENDBRANCH  69  92
ENDBRANCH  43  44
ENDBRANCH  35  38
ENDBRANCH  33  34
ENDBRANCH  32  33
ENDBRANCH  31  32
ENDBRANCH  30  31
ENDBRANCH   1  30
TORSDOF 18
ENDMDL
MODEL 2
REMARK VINA RESULT:     -13.2      1.945      2.874
REMARK SMILES Cc1ccccc1/C=C1\SC(=S)N(CCC(=O)N[C@@H](C)C(=O)NCCCCCCNC(=O)c2ccc(-c3c4nc(c(-c5c(F)c(F)c(F)c(F)c5F)c5ccc([nH]5)c(-c5c(F)c(F)c(F)c(F)c5F)c5nc(c(-c6c(F)c(F)c(F)c(F)c6F)c6ccc3[nH]6)C=C5)C=C4)cc2)C1=O
REMARK SMILES IDX 25 1 24 2 23 3 21 4 22 5 19 7 20 8 18 9 16 10 17 11 15 13
REMARK SMILES IDX 14 14 13 15 8 16 9 17 10 18 96 19 11 20 97 21 12 22 7 23
REMARK SMILES IDX 1 24 2 25 3 26 4 27 6 28 5 29 26 30 27 31 28 32 29 33 30 34
REMARK SMILES IDX 31 35 32 37 33 38 34 39 95 40 35 41 94 42 36 43 37 44 38 45
REMARK SMILES IDX 88 46 39 47 93 48 87 49 89 50 40 51 92 52 86 53 85 54 41 56
REMARK SMILES IDX 73 57 53 58 72 59 54 60 57 61 71 62 90 63 55 64 56 65 70 67
REMARK SMILES IDX 91 68 58 69 42 70 43 71 51 72 44 73 45 74 49 75 52 76 46 77
REMARK SMILES IDX 47 78 50 79 48 80 74 81 75 82 83 83 76 84 77 85 81 86 84 87
REMARK SMILES IDX 78 88 79 89 82 90 80 91 59 92 60 93 68 94 61 95 62 96 66 97
REMARK SMILES IDX 69 98 63 99 64 100 67 101 65 102
REMARK H PARENT 23 6 18 12 30 36 89 55 57 66
REMARK Flexibility Score: inf
ROOT
ATOM      1  C   UNL A   1      33.819  27.969  26.010  1.00  0.00     0.021 C 
ENDROOT
BRANCH   1   2
ATOM      2  C   UNL A   1      33.705  28.830  24.757  1.00  0.00     0.116 C 
BRANCH   2   3
ATOM      3  N   UNL A   1      33.979  28.106  23.531  1.00  0.00    -0.354 N 
ATOM      4  C   UNL A   1      33.140  27.690  22.539  1.00  0.00     0.242 C 
ATOM      5  O   UNL A   1      33.661  27.195  21.536  1.00  0.00    -0.273 OA
ATOM      6  H   UNL A   1      34.926  27.878  23.391  1.00  0.00     0.163 HD
BRANCH   4   7
ATOM      7  C   UNL A   1      31.605  27.846  22.614  1.00  0.00     0.168 C 
ATOM      8  C   UNL A   1      31.193  29.290  22.452  1.00  0.00     0.041 C 
BRANCH   7   9
ATOM      9  N   UNL A   1      30.949  27.296  23.796  1.00  0.00    -0.345 N 
ATOM     10  C   UNL A   1      30.469  26.022  23.961  1.00  0.00     0.222 C 
ATOM     11  O   UNL A   1      29.677  25.808  24.880  1.00  0.00    -0.275 OA
ATOM     12  H   UNL A   1      30.839  27.908  24.560  1.00  0.00     0.164 HD
BRANCH  10  13
ATOM     13  C   UNL A   1      30.956  24.883  23.070  1.00  0.00     0.122 C 
BRANCH  13  14
ATOM     14  C   UNL A   1      30.656  23.458  23.575  1.00  0.00     0.137 C 
BRANCH  14  15
ATOM     15  N   UNL A   1      31.784  22.791  24.261  1.00  0.00    -0.292 N 
ATOM     16  C   UNL A   1      35.239  22.037  23.905  1.00  0.00     0.029 C 
ATOM     17  C   UNL A   1      33.990  21.978  24.394  1.00  0.00     0.081 C 
ATOM     18  S   UNL A   1      33.473  21.934  26.027  1.00  0.00    -0.054 SA
ATOM     19  C   UNL A   1      32.827  22.271  23.507  1.00  0.00     0.266 C 
ATOM     20  C   UNL A   1      31.884  22.595  25.627  1.00  0.00     0.148 C 
ATOM     21  O   UNL A   1      32.861  22.163  22.290  1.00  0.00    -0.268 OA
ATOM     22  S   UNL A   1      30.749  22.928  26.803  1.00  0.00    -0.052 S 
BRANCH  16  23
ATOM     23  C   UNL A   1      36.493  22.098  24.674  1.00  0.00    -0.021 A 
ATOM     24  C   UNL A   1      36.056  24.485  25.429  1.00  0.00     0.045 C 
ATOM     25  C   UNL A   1      36.874  23.225  25.416  1.00  0.00    -0.044 A 
ATOM     26  C   UNL A   1      38.081  23.191  26.140  1.00  0.00     0.004 A 
ATOM     27  C   UNL A   1      38.883  22.049  26.155  1.00  0.00     0.000 A 
ATOM     28  C   UNL A   1      37.307  20.951  24.711  1.00  0.00     0.008 A 
ATOM     29  C   UNL A   1      38.495  20.925  25.440  1.00  0.00     0.001 A 
ENDBRANCH  16  23
ENDBRANCH  14  15
ENDBRANCH  13  14
ENDBRANCH  10  13
ENDBRANCH   7   9
ENDBRANCH   4   7
ENDBRANCH   2   3
ENDBRANCH   1   2
BRANCH   1  30
ATOM     30  C   UNL A   1      33.075  28.488  27.250  1.00  0.00     0.002 C 
BRANCH  30  31
ATOM     31  C   UNL A   1      32.048  29.617  27.058  1.00  0.00     0.002 C 
BRANCH  31  32
ATOM     32  C   UNL A   1      32.524  31.060  27.259  1.00  0.00     0.021 C 
BRANCH  32  33
ATOM     33  C   UNL A   1      34.005  31.222  27.564  1.00  0.00     0.116 C 
BRANCH  33  34
ATOM     34  N   UNL A   1      34.328  31.834  28.844  1.00  0.00    -0.352 N 
ATOM     35  C   UNL A   1      35.303  31.445  29.750  1.00  0.00     0.251 C 
ATOM     36  H   UNL A   1      33.789  32.619  29.097  1.00  0.00     0.163 HD
ATOM     37  O   UNL A   1      35.427  32.008  30.826  1.00  0.00    -0.269 OA
BRANCH  35  38
ATOM     38  C   UNL A   1      36.271  30.397  29.339  1.00  0.00     0.039 A 
ATOM     39  C   UNL A   1      36.669  29.454  30.292  1.00  0.00     0.014 A 
ATOM     40  C   UNL A   1      36.927  30.480  28.111  1.00  0.00     0.014 A 
ATOM     41  C   UNL A   1      37.863  28.758  30.104  1.00  0.00     0.010 A 
ATOM     42  C   UNL A   1      38.154  29.860  27.965  1.00  0.00     0.010 A 
ATOM     43  C   UNL A   1      38.653  29.047  28.988  1.00  0.00    -0.014 A 
BRANCH  43  44
ATOM     44  C   UNL A   1      40.049  28.635  28.883  1.00  0.00     0.031 A 
ATOM     45  C   UNL A   1      40.410  27.266  28.462  1.00  0.00     0.074 A 
ATOM     46  C   UNL A   1      41.040  29.510  29.166  1.00  0.00     0.049 A 
ATOM     47  N   UNL A   1      41.456  26.639  28.893  1.00  0.00    -0.248 NA
ATOM     48  C   UNL A   1      39.604  26.483  27.534  1.00  0.00     0.031 C 
ATOM     49  C   UNL A   1      42.469  29.328  28.920  1.00  0.00     0.029 A 
ATOM     50  N   UNL A   1      40.965  30.683  29.934  1.00  0.00    -0.354 N 
ATOM     51  C   UNL A   1      41.603  25.509  28.126  1.00  0.00     0.074 A 
ATOM     52  C   UNL A   1      40.392  25.419  27.340  1.00  0.00     0.031 C 
ATOM     53  C   UNL A   1      43.155  30.133  29.746  1.00  0.00     0.029 A 
ATOM     54  C   UNL A   1      42.194  30.768  30.627  1.00  0.00     0.049 A 
ATOM     55  H   UNL A   1      40.212  31.316  29.979  1.00  0.00     0.167 HD
ATOM     56  C   UNL A   1      42.787  24.832  28.119  1.00  0.00     0.037 A 
ATOM     57  C   UNL A   1      42.261  30.783  31.989  1.00  0.00     0.037 A 
ATOM     58  C   UNL A   1      43.788  25.468  28.962  1.00  0.00     0.049 A 
ATOM     59  C   UNL A   1      43.117  29.691  32.582  1.00  0.00     0.074 A 
ATOM     60  C   UNL A   1      44.814  26.355  28.675  1.00  0.00     0.029 A 
ATOM     61  N   UNL A   1      43.639  25.473  30.344  1.00  0.00    -0.354 N 
ATOM     62  N   UNL A   1      43.464  28.617  31.934  1.00  0.00    -0.248 NA
ATOM     63  C   UNL A   1      43.593  29.689  33.963  1.00  0.00     0.031 C 
ATOM     64  C   UNL A   1      45.271  26.912  29.889  1.00  0.00     0.029 A 
ATOM     65  C   UNL A   1      44.531  26.358  30.917  1.00  0.00     0.049 A 
ATOM     66  H   UNL A   1      42.990  24.925  30.842  1.00  0.00     0.167 HD
ATOM     67  C   UNL A   1      44.153  27.780  32.773  1.00  0.00     0.074 A 
ATOM     68  C   UNL A   1      44.229  28.507  34.026  1.00  0.00     0.031 C 
ATOM     69  C   UNL A   1      44.582  26.553  32.356  1.00  0.00     0.037 A 
BRANCH  56  70
ATOM     70  C   UNL A   1      43.098  23.777  27.091  1.00  0.00     0.064 A 
ATOM     71  C   UNL A   1      42.652  22.448  27.240  1.00  0.00     0.173 A 
ATOM     72  C   UNL A   1      43.886  24.025  25.952  1.00  0.00     0.173 A 
ATOM     73  F   UNL A   1      41.823  22.090  28.226  1.00  0.00    -0.203 F 
ATOM     74  C   UNL A   1      43.064  21.424  26.383  1.00  0.00     0.198 A 
ATOM     75  C   UNL A   1      44.338  22.993  25.125  1.00  0.00     0.198 A 
ATOM     76  F   UNL A   1      44.229  25.277  25.616  1.00  0.00    -0.203 F 
ATOM     77  F   UNL A   1      42.626  20.173  26.584  1.00  0.00    -0.200 F 
ATOM     78  C   UNL A   1      43.938  21.690  25.349  1.00  0.00     0.200 A 
ATOM     79  F   UNL A   1      45.178  23.268  24.116  1.00  0.00    -0.200 F 
ATOM     80  F   UNL A   1      44.382  20.698  24.566  1.00  0.00    -0.200 F 
ENDBRANCH  56  70
BRANCH  57  81
ATOM     81  C   UNL A   1      41.045  31.347  32.627  1.00  0.00     0.064 A 
ATOM     82  C   UNL A   1      40.911  32.747  32.689  1.00  0.00     0.173 A 
ATOM     83  C   UNL A   1      39.892  30.574  32.805  1.00  0.00     0.173 A 
ATOM     84  F   UNL A   1      41.987  33.532  32.516  1.00  0.00    -0.203 F 
ATOM     85  C   UNL A   1      39.660  33.349  32.796  1.00  0.00     0.198 A 
ATOM     86  C   UNL A   1      38.641  31.183  32.930  1.00  0.00     0.198 A 
ATOM     87  F   UNL A   1      39.953  29.238  32.739  1.00  0.00    -0.203 F 
ATOM     88  F   UNL A   1      39.554  34.684  32.723  1.00  0.00    -0.200 F 
ATOM     89  C   UNL A   1      38.524  32.565  32.889  1.00  0.00     0.200 A 
ATOM     90  F   UNL A   1      37.538  30.425  32.992  1.00  0.00    -0.200 F 
ATOM     91  F   UNL A   1      37.313  33.139  32.894  1.00  0.00    -0.200 F 
ENDBRANCH  57  81
BRANCH  69  92
ATOM     92  C   UNL A   1      45.179  25.463  33.212  1.00  0.00     0.064 A 
ATOM     93  C   UNL A   1      46.551  25.174  33.274  1.00  0.00     0.173 A 
ATOM     94  C   UNL A   1      44.365  24.755  34.131  1.00  0.00     0.173 A 
ATOM     95  F   UNL A   1      47.440  25.853  32.537  1.00  0.00    -0.203 F 
ATOM     96  C   UNL A   1      47.064  24.209  34.149  1.00  0.00     0.198 A 
ATOM     97  C   UNL A   1      44.887  23.834  35.040  1.00  0.00     0.198 A 
ATOM     98  F   UNL A   1      43.041  24.953  34.194  1.00  0.00    -0.203 F 
ATOM     99  F   UNL A   1      48.377  23.943  34.145  1.00  0.00    -0.200 F 
ATOM    100  C   UNL A   1      46.236  23.550  35.038  1.00  0.00     0.200 A 
ATOM    101  F   UNL A   1      44.076  23.241  35.927  1.00  0.00    -0.200 F 
ATOM    102  F   UNL A   1      46.739  22.661  35.905  1.00  0.00    -0.200 F 
ENDBRANCH  69  92
ENDBRANCH  43  44
ENDBRANCH  35  38
ENDBRANCH  33  34
ENDBRANCH  32  33
ENDBRANCH  31  32
ENDBRANCH  30  31
ENDBRANCH   1  30
TORSDOF 18
ENDMDL
MODEL 3
REMARK VINA RESULT:     -12.8      1.987      3.187
REMARK SMILES Cc1ccccc1/C=C1\SC(=S)N(CCC(=O)N[C@@H](C)C(=O)NCCCCCCNC(=O)c2ccc(-c3c4nc(c(-c5c(F)c(F)c(F)c(F)c5F)c5ccc([nH]5)c(-c5c(F)c(F)c(F)c(F)c5F)c5nc(c(-c6c(F)c(F)c(F)c(F)c6F)c6ccc3[nH]6)C=C5)C=C4)cc2)C1=O
REMARK SMILES IDX 25 1 24 2 23 3 21 4 22 5 19 7 20 8 18 9 16 10 17 11 15 13
REMARK SMILES IDX 14 14 13 15 8 16 9 17 10 18 96 19 11 20 97 21 12 22 7 23
REMARK SMILES IDX 1 24 2 25 3 26 4 27 6 28 5 29 26 30 27 31 28 32 29 33 30 34
REMARK SMILES IDX 31 35 32 37 33 38 34 39 95 40 35 41 94 42 36 43 37 44 38 45
REMARK SMILES IDX 88 46 39 47 93 48 87 49 89 50 40 51 92 52 86 53 85 54 41 56
REMARK SMILES IDX 73 57 53 58 72 59 54 60 57 61 71 62 90 63 55 64 56 65 70 67
REMARK SMILES IDX 91 68 58 69 42 70 43 71 51 72 44 73 45 74 49 75 52 76 46 77
REMARK SMILES IDX 47 78 50 79 48 80 74 81 75 82 83 83 76 84 77 85 81 86 84 87
REMARK SMILES IDX 78 88 79 89 82 90 80 91 59 92 60 93 68 94 61 95 62 96 66 97
REMARK SMILES IDX 69 98 63 99 64 100 67 101 65 102
REMARK H PARENT 23 6 18 12 30 36 89 55 57 66
REMARK Flexibility Score: inf
ROOT
ATOM      1  C   UNL A   1      33.853  28.092  26.019  1.00  0.00     0.021 C 
ENDROOT
BRANCH   1   2
ATOM      2  C   UNL A   1      33.699  28.883  24.725  1.00  0.00     0.116 C 
BRANCH   2   3
ATOM      3  N   UNL A   1      33.971  28.103  23.535  1.00  0.00    -0.354 N 
ATOM      4  C   UNL A   1      33.127  27.613  22.582  1.00  0.00     0.242 C 
ATOM      5  O   UNL A   1      33.644  27.079  21.596  1.00  0.00    -0.273 OA
ATOM      6  H   UNL A   1      34.921  27.892  23.390  1.00  0.00     0.163 HD
BRANCH   4   7
ATOM      7  C   UNL A   1      31.590  27.735  22.676  1.00  0.00     0.168 C 
ATOM      8  C   UNL A   1      31.142  29.168  22.510  1.00  0.00     0.041 C 
BRANCH   7   9
ATOM      9  N   UNL A   1      30.962  27.178  23.871  1.00  0.00    -0.345 N 
ATOM     10  C   UNL A   1      30.449  25.916  24.026  1.00  0.00     0.222 C 
ATOM     11  O   UNL A   1      29.686  25.706  24.970  1.00  0.00    -0.275 OA
ATOM     12  H   UNL A   1      30.901  27.776  24.652  1.00  0.00     0.164 HD
BRANCH  10  13
ATOM     13  C   UNL A   1      30.864  24.783  23.092  1.00  0.00     0.122 C 
BRANCH  13  14
ATOM     14  C   UNL A   1      30.645  23.355  23.627  1.00  0.00     0.137 C 
BRANCH  14  15
ATOM     15  N   UNL A   1      31.801  22.775  24.344  1.00  0.00    -0.292 N 
ATOM     16  C   UNL A   1      35.293  22.191  24.035  1.00  0.00     0.029 C 
ATOM     17  C   UNL A   1      34.045  22.085  24.520  1.00  0.00     0.081 C 
ATOM     18  S   UNL A   1      33.521  22.076  26.150  1.00  0.00    -0.054 SA
ATOM     19  C   UNL A   1      32.875  22.282  23.616  1.00  0.00     0.266 C 
ATOM     20  C   UNL A   1      31.901  22.637  25.717  1.00  0.00     0.148 C 
ATOM     21  O   UNL A   1      32.923  22.130  22.404  1.00  0.00    -0.268 OA
ATOM     22  S   UNL A   1      30.743  22.953  26.873  1.00  0.00    -0.052 S 
BRANCH  16  23
ATOM     23  C   UNL A   1      36.536  22.347  24.807  1.00  0.00    -0.021 A 
ATOM     24  C   UNL A   1      37.101  19.876  24.627  1.00  0.00     0.045 C 
ATOM     25  C   UNL A   1      37.407  21.279  25.067  1.00  0.00    -0.044 A 
ATOM     26  C   UNL A   1      38.587  21.520  25.796  1.00  0.00     0.004 A 
ATOM     27  C   UNL A   1      38.915  22.804  26.236  1.00  0.00     0.000 A 
ATOM     28  C   UNL A   1      36.889  23.637  25.247  1.00  0.00     0.008 A 
ATOM     29  C   UNL A   1      38.066  23.866  25.960  1.00  0.00     0.001 A 
ENDBRANCH  16  23
ENDBRANCH  14  15
ENDBRANCH  13  14
ENDBRANCH  10  13
ENDBRANCH   7   9
ENDBRANCH   4   7
ENDBRANCH   2   3
ENDBRANCH   1   2
BRANCH   1  30
ATOM     30  C   UNL A   1      32.859  28.439  27.139  1.00  0.00     0.002 C 
BRANCH  30  31
ATOM     31  C   UNL A   1      31.844  29.567  26.883  1.00  0.00     0.002 C 
BRANCH  31  32
ATOM     32  C   UNL A   1      32.285  31.006  27.170  1.00  0.00     0.021 C 
BRANCH  32  33
ATOM     33  C   UNL A   1      33.766  31.188  27.469  1.00  0.00     0.116 C 
BRANCH  33  34
ATOM     34  N   UNL A   1      34.084  31.945  28.670  1.00  0.00    -0.352 N 
ATOM     35  C   UNL A   1      35.100  31.703  29.583  1.00  0.00     0.251 C 
ATOM     36  H   UNL A   1      33.510  32.723  28.856  1.00  0.00     0.163 HD
ATOM     37  O   UNL A   1      35.217  32.380  30.592  1.00  0.00    -0.269 OA
BRANCH  35  38
ATOM     38  C   UNL A   1      36.113  30.668  29.254  1.00  0.00     0.039 A 
ATOM     39  C   UNL A   1      36.460  29.745  30.245  1.00  0.00     0.014 A 
ATOM     40  C   UNL A   1      36.851  30.750  28.074  1.00  0.00     0.014 A 
ATOM     41  C   UNL A   1      37.677  29.070  30.149  1.00  0.00     0.010 A 
ATOM     42  C   UNL A   1      38.097  30.152  28.021  1.00  0.00     0.010 A 
ATOM     43  C   UNL A   1      38.538  29.361  29.087  1.00  0.00    -0.014 A 
BRANCH  43  44
ATOM     44  C   UNL A   1      39.945  28.974  29.085  1.00  0.00     0.031 A 
ATOM     45  C   UNL A   1      40.364  27.621  28.668  1.00  0.00     0.074 A 
ATOM     46  C   UNL A   1      40.895  29.860  29.461  1.00  0.00     0.049 A 
ATOM     47  N   UNL A   1      41.384  27.003  29.168  1.00  0.00    -0.248 NA
ATOM     48  C   UNL A   1      39.647  26.842  27.665  1.00  0.00     0.031 C 
ATOM     49  C   UNL A   1      42.342  29.707  29.326  1.00  0.00     0.029 A 
ATOM     50  N   UNL A   1      40.738  31.016  30.243  1.00  0.00    -0.354 N 
ATOM     51  C   UNL A   1      41.611  25.891  28.395  1.00  0.00     0.074 A 
ATOM     52  C   UNL A   1      40.467  25.796  27.514  1.00  0.00     0.031 C 
ATOM     53  C   UNL A   1      42.946  30.506  30.218  1.00  0.00     0.029 A 
ATOM     54  C   UNL A   1      41.907  31.107  31.032  1.00  0.00     0.049 A 
ATOM     55  H   UNL A   1      39.972  31.636  30.240  1.00  0.00     0.167 HD
ATOM     56  C   UNL A   1      42.804  25.235  28.468  1.00  0.00     0.037 A 
ATOM     57  C   UNL A   1      41.867  31.097  32.395  1.00  0.00     0.037 A 
ATOM     58  C   UNL A   1      43.724  25.870  29.399  1.00  0.00     0.049 A 
ATOM     59  C   UNL A   1      42.693  30.008  33.034  1.00  0.00     0.074 A 
ATOM     60  C   UNL A   1      44.752  26.780  29.210  1.00  0.00     0.029 A 
ATOM     61  N   UNL A   1      43.467  25.845  30.765  1.00  0.00    -0.354 N 
ATOM     62  N   UNL A   1      43.110  28.952  32.394  1.00  0.00    -0.248 NA
ATOM     63  C   UNL A   1      43.060  29.986  34.447  1.00  0.00     0.031 C 
ATOM     64  C   UNL A   1      45.103  27.319  30.467  1.00  0.00     0.029 A 
ATOM     65  C   UNL A   1      44.295  26.733  31.423  1.00  0.00     0.049 A 
ATOM     66  H   UNL A   1      42.791  25.276  31.200  1.00  0.00     0.167 HD
ATOM     67  C   UNL A   1      43.747  28.111  33.270  1.00  0.00     0.074 A 
ATOM     68  C   UNL A   1      43.711  28.813  34.538  1.00  0.00     0.031 C 
ATOM     69  C   UNL A   1      44.229  26.899  32.865  1.00  0.00     0.037 A 
BRANCH  56  70
ATOM     70  C   UNL A   1      43.214  24.206  27.448  1.00  0.00     0.064 A 
ATOM     71  C   UNL A   1      43.987  24.550  26.321  1.00  0.00     0.173 A 
ATOM     72  C   UNL A   1      42.817  22.858  27.517  1.00  0.00     0.173 A 
ATOM     73  F   UNL A   1      44.507  25.774  26.172  1.00  0.00    -0.203 F 
ATOM     74  C   UNL A   1      44.240  23.646  25.287  1.00  0.00     0.198 A 
ATOM     75  C   UNL A   1      43.027  21.968  26.460  1.00  0.00     0.198 A 
ATOM     76  F   UNL A   1      42.222  22.375  28.618  1.00  0.00    -0.203 F 
ATOM     77  F   UNL A   1      44.964  24.035  24.227  1.00  0.00    -0.200 F 
ATOM     78  C   UNL A   1      43.727  22.367  25.338  1.00  0.00     0.200 A 
ATOM     79  F   UNL A   1      42.532  20.723  26.529  1.00  0.00    -0.200 F 
ATOM     80  F   UNL A   1      43.915  21.521  24.317  1.00  0.00    -0.200 F 
ENDBRANCH  56  70
BRANCH  57  81
ATOM     81  C   UNL A   1      40.594  31.627  32.946  1.00  0.00     0.064 A 
ATOM     82  C   UNL A   1      39.601  30.708  33.335  1.00  0.00     0.173 A 
ATOM     83  C   UNL A   1      40.503  32.933  33.440  1.00  0.00     0.173 A 
ATOM     84  F   UNL A   1      39.650  29.441  32.894  1.00  0.00    -0.203 F 
ATOM     85  C   UNL A   1      38.634  31.047  34.279  1.00  0.00     0.198 A 
ATOM     86  C   UNL A   1      39.520  33.272  34.372  1.00  0.00     0.198 A 
ATOM     87  F   UNL A   1      41.429  33.847  33.118  1.00  0.00    -0.203 F 
ATOM     88  F   UNL A   1      37.781  30.113  34.724  1.00  0.00    -0.200 F 
ATOM     89  C   UNL A   1      38.613  32.322  34.816  1.00  0.00     0.200 A 
ATOM     90  F   UNL A   1      39.515  34.498  34.914  1.00  0.00    -0.200 F 
ATOM     91  F   UNL A   1      37.746  32.621  35.793  1.00  0.00    -0.200 F 
ENDBRANCH  57  81
BRANCH  69  92
ATOM     92  C   UNL A   1      44.777  25.803  33.745  1.00  0.00     0.064 A 
ATOM     93  C   UNL A   1      44.001  25.054  34.643  1.00  0.00     0.173 A 
ATOM     94  C   UNL A   1      46.119  25.372  33.592  1.00  0.00     0.173 A 
ATOM     95  F   UNL A   1      42.691  25.289  34.796  1.00  0.00    -0.203 F 
ATOM     96  C   UNL A   1      44.540  23.990  35.376  1.00  0.00     0.198 A 
ATOM     97  C   UNL A   1      46.637  24.277  34.284  1.00  0.00     0.198 A 
ATOM     98  F   UNL A   1      46.961  25.984  32.749  1.00  0.00    -0.203 F 
ATOM     99  F   UNL A   1      43.767  23.329  36.249  1.00  0.00    -0.200 F 
ATOM    100  C   UNL A   1      45.851  23.594  35.187  1.00  0.00     0.200 A 
ATOM    101  F   UNL A   1      47.895  23.878  34.050  1.00  0.00    -0.200 F 
ATOM    102  F   UNL A   1      46.349  22.546  35.857  1.00  0.00    -0.200 F 
ENDBRANCH  69  92
ENDBRANCH  43  44
ENDBRANCH  35  38
ENDBRANCH  33  34
ENDBRANCH  32  33
ENDBRANCH  31  32
ENDBRANCH  30  31
ENDBRANCH   1  30
TORSDOF 18
ENDMDL
