MODEL 1
REMARK VINA RESULT:     -12.1      0.000      0.000
REMARK SMILES O=C(COc1ccc(Br)cc1/C=C1\C(=O)Nc2ccc(Br)cc21)NCCCCCCNC(=O)c1ccc(-c2c3nc(c(-c4c(F)c(F)c(F)c(F)c4F)c4ccc([nH]4)c(-c4c(F)c(F)c(F)c(F)c4F)c4nc(c(-c5c(F)c(F)c(F)c(F)c5F)c5ccc2[nH]5)C=C4)C=C3)cc1
REMARK SMILES IDX 27 1 26 2 25 3 24 4 1 5 2 6 3 8 4 9 5 10 6 11 11 12 7 13
REMARK SMILES IDX 10 14 8 15 9 16 12 17 13 18 14 19 23 20 15 21 16 22 17 23
REMARK SMILES IDX 22 24 18 26 20 27 19 28 21 29 28 30 29 31 30 32 31 33 32 34
REMARK SMILES IDX 33 36 34 37 35 38 96 39 36 40 95 41 37 42 38 43 39 44 89 45
REMARK SMILES IDX 40 46 94 47 88 48 90 49 41 50 93 51 87 52 86 53 42 55 74 56
REMARK SMILES IDX 54 57 73 58 55 59 58 60 72 61 91 62 56 63 57 64 71 66 92 67
REMARK SMILES IDX 59 68 43 69 44 70 52 71 45 72 46 73 50 74 53 75 47 76 48 77
REMARK SMILES IDX 51 78 49 79 75 80 76 81 84 82 77 83 78 84 82 85 85 86 79 87
REMARK SMILES IDX 80 88 83 89 81 90 60 91 61 92 69 93 62 94 63 95 67 96 70 97
REMARK SMILES IDX 64 98 65 99 68 100 66 101
REMARK H PARENT 24 7 16 25 31 35 90 54 58 65
REMARK Flexibility Score: inf
ROOT
ATOM      1  C   UNL A   1      35.293  32.708  29.175  1.00  0.00     0.002 C 
ENDROOT
BRANCH   1   2
ATOM      2  C   UNL A   1      35.238  31.734  27.995  1.00  0.00     0.021 C 
BRANCH   2   3
ATOM      3  C   UNL A   1      33.841  31.239  27.631  1.00  0.00     0.116 C 
BRANCH   3   4
ATOM      4  N   UNL A   1      33.790  30.456  26.403  1.00  0.00    -0.353 N 
ATOM      5  O   UNL A   1      33.754  28.405  27.432  1.00  0.00    -0.271 OA
ATOM      6  C   UNL A   1      33.627  29.083  26.414  1.00  0.00     0.257 C 
ATOM      7  H   UNL A   1      33.874  30.920  25.540  1.00  0.00     0.163 HD
BRANCH   6   8
ATOM      8  C   UNL A   1      33.232  28.451  25.055  1.00  0.00     0.329 C 
BRANCH   8   9
ATOM      9  O   UNL A   1      33.604  27.106  24.719  1.00  0.00    -0.483 OA
BRANCH   9  10
ATOM     10  C   UNL A   1      32.783  26.130  25.245  1.00  0.00     0.127 A 
ATOM     11  C   UNL A   1      31.386  26.280  25.115  1.00  0.00     0.048 A 
ATOM     12  C   UNL A   1      33.317  24.942  25.814  1.00  0.00     0.018 A 
ATOM     13  C   UNL A   1      30.490  25.351  25.626  1.00  0.00     0.019 A 
ATOM     14  C   UNL A   1      32.368  23.998  26.250  1.00  0.00     0.027 A 
ATOM     15  C   UNL A   1      30.990  24.212  26.206  1.00  0.00     0.018 A 
ATOM     16  Br  UNL A   1      29.809  22.928  26.933  1.00  0.00    -0.051 Br
BRANCH  12  17
ATOM     17  C   UNL A   1      34.796  24.685  25.992  1.00  0.00     0.026 C 
ATOM     18  C   UNL A   1      35.671  24.051  25.168  1.00  0.00     0.050 C 
ATOM     19  C   UNL A   1      35.371  23.382  23.845  1.00  0.00     0.256 C 
ATOM     20  C   UNL A   1      36.926  23.394  25.603  1.00  0.00     0.012 A 
ATOM     21  O   UNL A   1      34.938  23.858  22.818  1.00  0.00    -0.269 OA
ATOM     22  N   UNL A   1      35.938  22.129  23.960  1.00  0.00    -0.321 N 
ATOM     23  C   UNL A   1      36.905  22.142  24.957  1.00  0.00     0.049 A 
ATOM     24  C   UNL A   1      38.071  23.778  26.275  1.00  0.00     0.026 A 
ATOM     25  H   UNL A   1      35.695  21.344  23.417  1.00  0.00     0.170 HD
ATOM     26  C   UNL A   1      37.868  21.172  25.120  1.00  0.00     0.028 A 
ATOM     27  C   UNL A   1      39.119  22.840  26.358  1.00  0.00     0.018 A 
ATOM     28  C   UNL A   1      38.997  21.533  25.843  1.00  0.00     0.018 A 
ATOM     29  Br  UNL A   1      40.794  23.363  27.073  1.00  0.00    -0.051 Br
ENDBRANCH  12  17
ENDBRANCH   9  10
ENDBRANCH   8   9
ENDBRANCH   6   8
ENDBRANCH   3   4
ENDBRANCH   2   3
ENDBRANCH   1   2
BRANCH   1  30
ATOM     30  C   UNL A   1      35.634  34.161  28.826  1.00  0.00     0.002 C 
BRANCH  30  31
ATOM     31  C   UNL A   1      34.455  35.134  28.800  1.00  0.00     0.021 C 
BRANCH  31  32
ATOM     32  C   UNL A   1      33.150  34.600  29.383  1.00  0.00     0.116 C 
BRANCH  32  33
ATOM     33  N   UNL A   1      32.534  35.507  30.343  1.00  0.00    -0.352 N 
ATOM     34  C   UNL A   1      32.829  35.717  31.671  1.00  0.00     0.251 C 
ATOM     35  H   UNL A   1      31.795  36.052  29.989  1.00  0.00     0.163 HD
ATOM     36  O   UNL A   1      32.111  36.442  32.354  1.00  0.00    -0.269 OA
BRANCH  34  37
ATOM     37  C   UNL A   1      33.988  35.039  32.292  1.00  0.00     0.039 A 
ATOM     38  C   UNL A   1      35.241  35.652  32.333  1.00  0.00     0.014 A 
ATOM     39  C   UNL A   1      33.821  33.759  32.833  1.00  0.00     0.014 A 
ATOM     40  C   UNL A   1      36.354  34.921  32.736  1.00  0.00     0.010 A 
ATOM     41  C   UNL A   1      34.928  33.060  33.326  1.00  0.00     0.010 A 
ATOM     42  C   UNL A   1      36.213  33.614  33.233  1.00  0.00    -0.014 A 
BRANCH  42  43
ATOM     43  C   UNL A   1      37.426  32.854  33.638  1.00  0.00     0.031 A 
ATOM     44  C   UNL A   1      38.040  31.832  32.719  1.00  0.00     0.074 A 
ATOM     45  C   UNL A   1      38.014  33.135  34.817  1.00  0.00     0.049 A 
ATOM     46  N   UNL A   1      39.118  31.106  32.892  1.00  0.00    -0.248 NA
ATOM     47  C   UNL A   1      37.357  31.584  31.439  1.00  0.00     0.031 C 
ATOM     48  C   UNL A   1      37.521  34.110  35.789  1.00  0.00     0.029 A 
ATOM     49  N   UNL A   1      39.167  32.651  35.385  1.00  0.00    -0.354 N 
ATOM     50  C   UNL A   1      39.234  30.316  31.756  1.00  0.00     0.074 A 
ATOM     51  C   UNL A   1      38.098  30.619  30.913  1.00  0.00     0.031 C 
ATOM     52  C   UNL A   1      38.392  34.199  36.803  1.00  0.00     0.029 A 
ATOM     53  C   UNL A   1      39.471  33.240  36.589  1.00  0.00     0.049 A 
ATOM     54  H   UNL A   1      39.721  31.951  34.972  1.00  0.00     0.167 HD
ATOM     55  C   UNL A   1      40.211  29.431  31.438  1.00  0.00     0.037 A 
ATOM     56  C   UNL A   1      40.500  33.027  37.432  1.00  0.00     0.037 A 
ATOM     57  C   UNL A   1      41.352  29.146  32.269  1.00  0.00     0.049 A 
ATOM     58  C   UNL A   1      41.540  32.003  37.078  1.00  0.00     0.074 A 
ATOM     59  C   UNL A   1      42.405  28.282  32.020  1.00  0.00     0.029 A 
ATOM     60  N   UNL A   1      41.591  29.720  33.510  1.00  0.00    -0.354 N 
ATOM     61  N   UNL A   1      41.646  31.276  35.993  1.00  0.00    -0.248 NA
ATOM     62  C   UNL A   1      42.599  31.764  38.068  1.00  0.00     0.031 C 
ATOM     63  C   UNL A   1      43.254  28.294  33.130  1.00  0.00     0.029 A 
ATOM     64  C   UNL A   1      42.762  29.207  34.048  1.00  0.00     0.049 A 
ATOM     65  H   UNL A   1      41.016  30.390  33.944  1.00  0.00     0.167 HD
ATOM     66  C   UNL A   1      42.788  30.505  36.160  1.00  0.00     0.074 A 
ATOM     67  C   UNL A   1      43.352  30.868  37.445  1.00  0.00     0.031 C 
ATOM     68  C   UNL A   1      43.317  29.580  35.324  1.00  0.00     0.037 A 
BRANCH  55  69
ATOM     69  C   UNL A   1      40.098  28.696  30.133  1.00  0.00     0.064 A 
ATOM     70  C   UNL A   1      40.680  29.191  28.957  1.00  0.00     0.173 A 
ATOM     71  C   UNL A   1      39.466  27.444  30.073  1.00  0.00     0.173 A 
ATOM     72  F   UNL A   1      41.288  30.388  28.957  1.00  0.00    -0.203 F 
ATOM     73  C   UNL A   1      40.622  28.469  27.768  1.00  0.00     0.198 A 
ATOM     74  C   UNL A   1      39.435  26.711  28.890  1.00  0.00     0.198 A 
ATOM     75  F   UNL A   1      38.900  26.919  31.170  1.00  0.00    -0.203 F 
ATOM     76  F   UNL A   1      41.157  28.977  26.650  1.00  0.00    -0.200 F 
ATOM     77  C   UNL A   1      40.010  27.224  27.738  1.00  0.00     0.200 A 
ATOM     78  F   UNL A   1      38.857  25.502  28.867  1.00  0.00    -0.200 F 
ATOM     79  F   UNL A   1      39.971  26.522  26.597  1.00  0.00    -0.200 F 
ENDBRANCH  55  69
BRANCH  56  80
ATOM     80  C   UNL A   1      40.591  33.817  38.687  1.00  0.00     0.064 A 
ATOM     81  C   UNL A   1      41.375  34.978  38.751  1.00  0.00     0.173 A 
ATOM     82  C   UNL A   1      39.868  33.454  39.833  1.00  0.00     0.173 A 
ATOM     83  F   UNL A   1      42.100  35.356  37.688  1.00  0.00    -0.203 F 
ATOM     84  C   UNL A   1      41.434  35.741  39.915  1.00  0.00     0.198 A 
ATOM     85  C   UNL A   1      39.904  34.235  40.985  1.00  0.00     0.198 A 
ATOM     86  F   UNL A   1      39.099  32.354  39.821  1.00  0.00    -0.203 F 
ATOM     87  F   UNL A   1      42.213  36.831  39.960  1.00  0.00    -0.200 F 
ATOM     88  C   UNL A   1      40.690  35.376  41.027  1.00  0.00     0.200 A 
ATOM     89  F   UNL A   1      39.168  33.887  42.050  1.00  0.00    -0.200 F 
ATOM     90  F   UNL A   1      40.732  36.122  42.139  1.00  0.00    -0.200 F 
ENDBRANCH  56  80
BRANCH  68  91
ATOM     91  C   UNL A   1      44.584  28.898  35.753  1.00  0.00     0.064 A 
ATOM     92  C   UNL A   1      45.843  29.432  35.444  1.00  0.00     0.173 A 
ATOM     93  C   UNL A   1      44.536  27.746  36.552  1.00  0.00     0.173 A 
ATOM     94  F   UNL A   1      45.942  30.524  34.671  1.00  0.00    -0.203 F 
ATOM     95  C   UNL A   1      47.008  28.830  35.910  1.00  0.00     0.198 A 
ATOM     96  C   UNL A   1      45.701  27.164  37.041  1.00  0.00     0.198 A 
ATOM     97  F   UNL A   1      43.354  27.201  36.883  1.00  0.00    -0.203 F 
ATOM     98  F   UNL A   1      48.203  29.339  35.576  1.00  0.00    -0.200 F 
ATOM     99  C   UNL A   1      46.937  27.704  36.717  1.00  0.00     0.200 A 
ATOM    100  F   UNL A   1      45.629  26.085  37.833  1.00  0.00    -0.200 F 
ATOM    101  F   UNL A   1      48.059  27.139  37.181  1.00  0.00    -0.200 F 
ENDBRANCH  68  91
ENDBRANCH  42  43
ENDBRANCH  34  37
ENDBRANCH  32  33
ENDBRANCH  31  32
ENDBRANCH  30  31
ENDBRANCH   1  30
TORSDOF 16
ENDMDL
MODEL 2
REMARK VINA RESULT:     -11.9      2.884      8.550
REMARK SMILES O=C(COc1ccc(Br)cc1/C=C1\C(=O)Nc2ccc(Br)cc21)NCCCCCCNC(=O)c1ccc(-c2c3nc(c(-c4c(F)c(F)c(F)c(F)c4F)c4ccc([nH]4)c(-c4c(F)c(F)c(F)c(F)c4F)c4nc(c(-c5c(F)c(F)c(F)c(F)c5F)c5ccc2[nH]5)C=C4)C=C3)cc1
REMARK SMILES IDX 27 1 26 2 25 3 24 4 1 5 2 6 3 8 4 9 5 10 6 11 11 12 7 13
REMARK SMILES IDX 10 14 8 15 9 16 12 17 13 18 14 19 23 20 15 21 16 22 17 23
REMARK SMILES IDX 22 24 18 26 20 27 19 28 21 29 28 30 29 31 30 32 31 33 32 34
REMARK SMILES IDX 33 36 34 37 35 38 96 39 36 40 95 41 37 42 38 43 39 44 89 45
REMARK SMILES IDX 40 46 94 47 88 48 90 49 41 50 93 51 87 52 86 53 42 55 74 56
REMARK SMILES IDX 54 57 73 58 55 59 58 60 72 61 91 62 56 63 57 64 71 66 92 67
REMARK SMILES IDX 59 68 43 69 44 70 52 71 45 72 46 73 50 74 53 75 47 76 48 77
REMARK SMILES IDX 51 78 49 79 75 80 76 81 84 82 77 83 78 84 82 85 85 86 79 87
REMARK SMILES IDX 80 88 83 89 81 90 60 91 61 92 69 93 62 94 63 95 67 96 70 97
REMARK SMILES IDX 64 98 65 99 68 100 66 101
REMARK H PARENT 24 7 16 25 31 35 90 54 58 65
REMARK Flexibility Score: inf
ROOT
ATOM      1  C   UNL A   1      33.455  26.987  26.073  1.00  0.00     0.002 C 
ENDROOT
BRANCH   1   2
ATOM      2  C   UNL A   1      33.780  25.491  26.026  1.00  0.00     0.021 C 
BRANCH   2   3
ATOM      3  C   UNL A   1      34.833  25.090  24.998  1.00  0.00     0.116 C 
BRANCH   3   4
ATOM      4  N   UNL A   1      35.002  23.651  24.850  1.00  0.00    -0.353 N 
ATOM      5  O   UNL A   1      36.874  23.495  26.168  1.00  0.00    -0.271 OA
ATOM      6  C   UNL A   1      35.958  22.947  25.560  1.00  0.00     0.257 C 
ATOM      7  H   UNL A   1      34.417  23.165  24.225  1.00  0.00     0.163 HD
BRANCH   6   8
ATOM      8  C   UNL A   1      35.775  21.407  25.570  1.00  0.00     0.329 C 
BRANCH   8   9
ATOM      9  O   UNL A   1      35.335  20.698  24.403  1.00  0.00    -0.483 OA
BRANCH   9  10
ATOM     10  C   UNL A   1      34.621  19.546  24.661  1.00  0.00     0.127 A 
ATOM     11  C   UNL A   1      35.319  18.322  24.737  1.00  0.00     0.048 A 
ATOM     12  C   UNL A   1      33.230  19.588  24.953  1.00  0.00     0.018 A 
ATOM     13  C   UNL A   1      34.676  17.116  24.981  1.00  0.00     0.019 A 
ATOM     14  C   UNL A   1      32.640  18.350  25.267  1.00  0.00     0.027 A 
ATOM     15  C   UNL A   1      33.327  17.135  25.234  1.00  0.00     0.018 A 
ATOM     16  Br  UNL A   1      32.404  15.517  25.553  1.00  0.00    -0.051 Br
BRANCH  12  17
ATOM     17  C   UNL A   1      32.398  20.848  24.905  1.00  0.00     0.026 C 
ATOM     18  C   UNL A   1      31.957  21.555  23.832  1.00  0.00     0.050 C 
ATOM     19  C   UNL A   1      32.232  21.279  22.371  1.00  0.00     0.256 C 
ATOM     20  C   UNL A   1      31.616  22.997  23.846  1.00  0.00     0.012 A 
ATOM     21  O   UNL A   1      31.942  20.312  21.699  1.00  0.00    -0.269 OA
ATOM     22  N   UNL A   1      32.673  22.487  21.871  1.00  0.00    -0.321 N 
ATOM     23  C   UNL A   1      32.259  23.518  22.705  1.00  0.00     0.049 A 
ATOM     24  C   UNL A   1      30.744  23.809  24.548  1.00  0.00     0.026 A 
ATOM     25  H   UNL A   1      33.200  22.602  21.048  1.00  0.00     0.170 HD
ATOM     26  C   UNL A   1      32.250  24.848  22.352  1.00  0.00     0.028 A 
ATOM     27  C   UNL A   1      30.632  25.150  24.133  1.00  0.00     0.018 A 
ATOM     28  C   UNL A   1      31.420  25.681  23.091  1.00  0.00     0.018 A 
ATOM     29  Br  UNL A   1      29.307  26.265  24.904  1.00  0.00    -0.051 Br
ENDBRANCH  12  17
ENDBRANCH   9  10
ENDBRANCH   8   9
ENDBRANCH   6   8
ENDBRANCH   3   4
ENDBRANCH   2   3
ENDBRANCH   1   2
BRANCH   1  30
ATOM     30  C   UNL A   1      32.212  27.375  26.882  1.00  0.00     0.002 C 
BRANCH  30  31
ATOM     31  C   UNL A   1      31.705  28.803  26.678  1.00  0.00     0.021 C 
BRANCH  31  32
ATOM     32  C   UNL A   1      32.712  29.778  26.074  1.00  0.00     0.116 C 
BRANCH  32  33
ATOM     33  N   UNL A   1      32.477  31.162  26.463  1.00  0.00    -0.352 N 
ATOM     34  C   UNL A   1      33.227  31.993  27.264  1.00  0.00     0.251 C 
ATOM     35  H   UNL A   1      31.657  31.566  26.096  1.00  0.00     0.163 HD
ATOM     36  O   UNL A   1      32.798  33.100  27.577  1.00  0.00    -0.269 OA
BRANCH  34  37
ATOM     37  C   UNL A   1      34.536  31.539  27.786  1.00  0.00     0.039 A 
ATOM     38  C   UNL A   1      34.747  30.203  28.129  1.00  0.00     0.014 A 
ATOM     39  C   UNL A   1      35.567  32.471  27.948  1.00  0.00     0.014 A 
ATOM     40  C   UNL A   1      35.909  29.839  28.801  1.00  0.00     0.010 A 
ATOM     41  C   UNL A   1      36.772  32.082  28.540  1.00  0.00     0.010 A 
ATOM     42  C   UNL A   1      36.935  30.774  29.021  1.00  0.00    -0.014 A 
BRANCH  42  43
ATOM     43  C   UNL A   1      38.156  30.357  29.761  1.00  0.00     0.031 A 
ATOM     44  C   UNL A   1      38.390  30.802  31.180  1.00  0.00     0.074 A 
ATOM     45  C   UNL A   1      39.027  29.517  29.170  1.00  0.00     0.049 A 
ATOM     46  N   UNL A   1      39.377  30.502  31.988  1.00  0.00    -0.248 NA
ATOM     47  C   UNL A   1      37.391  31.706  31.773  1.00  0.00     0.031 C 
ATOM     48  C   UNL A   1      38.906  29.008  27.804  1.00  0.00     0.029 A 
ATOM     49  N   UNL A   1      40.168  28.921  29.647  1.00  0.00    -0.354 N 
ATOM     50  C   UNL A   1      39.124  31.183  33.171  1.00  0.00     0.074 A 
ATOM     51  C   UNL A   1      37.912  31.945  32.969  1.00  0.00     0.031 C 
ATOM     52  C   UNL A   1      39.893  28.132  27.571  1.00  0.00     0.029 A 
ATOM     53  C   UNL A   1      40.757  28.067  28.746  1.00  0.00     0.049 A 
ATOM     54  H   UNL A   1      40.530  29.090  30.547  1.00  0.00     0.167 HD
ATOM     55  C   UNL A   1      39.831  31.161  34.328  1.00  0.00     0.037 A 
ATOM     56  C   UNL A   1      41.873  27.320  28.849  1.00  0.00     0.037 A 
ATOM     57  C   UNL A   1      41.027  30.386  34.534  1.00  0.00     0.049 A 
ATOM     58  C   UNL A   1      42.666  27.354  30.124  1.00  0.00     0.074 A 
ATOM     59  C   UNL A   1      41.799  30.281  35.679  1.00  0.00     0.029 A 
ATOM     60  N   UNL A   1      41.625  29.580  33.575  1.00  0.00    -0.354 N 
ATOM     61  N   UNL A   1      42.405  27.990  31.240  1.00  0.00    -0.248 NA
ATOM     62  C   UNL A   1      43.910  26.574  30.152  1.00  0.00     0.031 C 
ATOM     63  C   UNL A   1      42.890  29.455  35.399  1.00  0.00     0.029 A 
ATOM     64  C   UNL A   1      42.770  28.997  34.097  1.00  0.00     0.049 A 
ATOM     65  H   UNL A   1      41.287  29.444  32.661  1.00  0.00     0.167 HD
ATOM     66  C   UNL A   1      43.441  27.676  32.108  1.00  0.00     0.074 A 
ATOM     67  C   UNL A   1      44.326  26.777  31.396  1.00  0.00     0.031 C 
ATOM     68  C   UNL A   1      43.640  28.099  33.380  1.00  0.00     0.037 A 
BRANCH  55  69
ATOM     69  C   UNL A   1      39.337  32.000  35.472  1.00  0.00     0.064 A 
ATOM     70  C   UNL A   1      38.475  31.479  36.447  1.00  0.00     0.173 A 
ATOM     71  C   UNL A   1      39.794  33.317  35.638  1.00  0.00     0.173 A 
ATOM     72  F   UNL A   1      38.001  30.228  36.331  1.00  0.00    -0.203 F 
ATOM     73  C   UNL A   1      38.075  32.249  37.537  1.00  0.00     0.198 A 
ATOM     74  C   UNL A   1      39.417  34.074  36.744  1.00  0.00     0.198 A 
ATOM     75  F   UNL A   1      40.628  33.862  34.740  1.00  0.00    -0.203 F 
ATOM     76  F   UNL A   1      37.224  31.740  38.438  1.00  0.00    -0.200 F 
ATOM     77  C   UNL A   1      38.555  33.541  37.690  1.00  0.00     0.200 A 
ATOM     78  F   UNL A   1      39.894  35.316  36.899  1.00  0.00    -0.200 F 
ATOM     79  F   UNL A   1      38.184  34.273  38.750  1.00  0.00    -0.200 F 
ENDBRANCH  55  69
BRANCH  56  80
ATOM     80  C   UNL A   1      42.290  26.469  27.704  1.00  0.00     0.064 A 
ATOM     81  C   UNL A   1      43.269  26.905  26.802  1.00  0.00     0.173 A 
ATOM     82  C   UNL A   1      41.749  25.189  27.511  1.00  0.00     0.173 A 
ATOM     83  F   UNL A   1      43.802  28.129  26.933  1.00  0.00    -0.203 F 
ATOM     84  C   UNL A   1      43.689  26.095  25.749  1.00  0.00     0.198 A 
ATOM     85  C   UNL A   1      42.191  24.368  26.476  1.00  0.00     0.198 A 
ATOM     86  F   UNL A   1      40.811  24.723  28.350  1.00  0.00    -0.203 F 
ATOM     87  F   UNL A   1      44.607  26.548  24.883  1.00  0.00    -0.200 F 
ATOM     88  C   UNL A   1      43.157  24.824  25.594  1.00  0.00     0.200 A 
ATOM     89  F   UNL A   1      41.688  23.133  26.343  1.00  0.00    -0.200 F 
ATOM     90  F   UNL A   1      43.576  24.038  24.593  1.00  0.00    -0.200 F 
ENDBRANCH  56  80
BRANCH  68  91
ATOM     91  C   UNL A   1      44.851  27.586  34.103  1.00  0.00     0.064 A 
ATOM     92  C   UNL A   1      46.050  28.311  34.130  1.00  0.00     0.173 A 
ATOM     93  C   UNL A   1      44.783  26.398  34.846  1.00  0.00     0.173 A 
ATOM     94  F   UNL A   1      46.169  29.446  33.424  1.00  0.00    -0.203 F 
ATOM     95  C   UNL A   1      47.143  27.859  34.865  1.00  0.00     0.198 A 
ATOM     96  C   UNL A   1      45.867  25.964  35.604  1.00  0.00     0.198 A 
ATOM     97  F   UNL A   1      43.655  25.671  34.860  1.00  0.00    -0.203 F 
ATOM     98  F   UNL A   1      48.290  28.552  34.851  1.00  0.00    -0.200 F 
ATOM     99  C   UNL A   1      47.047  26.693  35.610  1.00  0.00     0.200 A 
ATOM    100  F   UNL A   1      45.768  24.845  36.335  1.00  0.00    -0.200 F 
ATOM    101  F   UNL A   1      48.093  26.271  36.333  1.00  0.00    -0.200 F 
ENDBRANCH  68  91
ENDBRANCH  42  43
ENDBRANCH  34  37
ENDBRANCH  32  33
ENDBRANCH  31  32
ENDBRANCH  30  31
ENDBRANCH   1  30
TORSDOF 16
ENDMDL
MODEL 3
REMARK VINA RESULT:     -11.8      1.934      2.543
REMARK SMILES O=C(COc1ccc(Br)cc1/C=C1\C(=O)Nc2ccc(Br)cc21)NCCCCCCNC(=O)c1ccc(-c2c3nc(c(-c4c(F)c(F)c(F)c(F)c4F)c4ccc([nH]4)c(-c4c(F)c(F)c(F)c(F)c4F)c4nc(c(-c5c(F)c(F)c(F)c(F)c5F)c5ccc2[nH]5)C=C4)C=C3)cc1
REMARK SMILES IDX 27 1 26 2 25 3 24 4 1 5 2 6 3 8 4 9 5 10 6 11 11 12 7 13
REMARK SMILES IDX 10 14 8 15 9 16 12 17 13 18 14 19 23 20 15 21 16 22 17 23
REMARK SMILES IDX 22 24 18 26 20 27 19 28 21 29 28 30 29 31 30 32 31 33 32 34
REMARK SMILES IDX 33 36 34 37 35 38 96 39 36 40 95 41 37 42 38 43 39 44 89 45
REMARK SMILES IDX 40 46 94 47 88 48 90 49 41 50 93 51 87 52 86 53 42 55 74 56
REMARK SMILES IDX 54 57 73 58 55 59 58 60 72 61 91 62 56 63 57 64 71 66 92 67
REMARK SMILES IDX 59 68 43 69 44 70 52 71 45 72 46 73 50 74 53 75 47 76 48 77
REMARK SMILES IDX 51 78 49 79 75 80 76 81 84 82 77 83 78 84 82 85 85 86 79 87
REMARK SMILES IDX 80 88 83 89 81 90 60 91 61 92 69 93 62 94 63 95 67 96 70 97
REMARK SMILES IDX 64 98 65 99 68 100 66 101
REMARK H PARENT 24 7 16 25 31 35 90 54 58 65
REMARK Flexibility Score: inf
ROOT
ATOM      1  C   UNL A   1      35.151  32.489  29.370  1.00  0.00     0.002 C 
ENDROOT
BRANCH   1   2
ATOM      2  C   UNL A   1      35.339  31.431  28.279  1.00  0.00     0.021 C 
BRANCH   2   3
ATOM      3  C   UNL A   1      34.047  30.898  27.666  1.00  0.00     0.116 C 
BRANCH   3   4
ATOM      4  N   UNL A   1      34.220  30.281  26.359  1.00  0.00    -0.353 N 
ATOM      5  O   UNL A   1      33.856  28.127  27.063  1.00  0.00    -0.271 OA
ATOM      6  C   UNL A   1      33.987  28.935  26.145  1.00  0.00     0.257 C 
ATOM      7  H   UNL A   1      34.512  30.840  25.604  1.00  0.00     0.163 HD
BRANCH   6   8
ATOM      8  C   UNL A   1      33.861  28.510  24.659  1.00  0.00     0.329 C 
BRANCH   8   9
ATOM      9  O   UNL A   1      33.047  27.396  24.266  1.00  0.00    -0.483 OA
BRANCH   9  10
ATOM     10  C   UNL A   1      31.737  27.713  23.969  1.00  0.00     0.127 A 
ATOM     11  C   UNL A   1      31.381  29.073  23.855  1.00  0.00     0.048 A 
ATOM     12  C   UNL A   1      30.780  26.703  23.675  1.00  0.00     0.018 A 
ATOM     13  C   UNL A   1      30.084  29.478  23.571  1.00  0.00     0.019 A 
ATOM     14  C   UNL A   1      29.500  27.166  23.320  1.00  0.00     0.027 A 
ATOM     15  C   UNL A   1      29.140  28.515  23.315  1.00  0.00     0.018 A 
ATOM     16  Br  UNL A   1      27.357  29.017  22.942  1.00  0.00    -0.051 Br
BRANCH  12  17
ATOM     17  C   UNL A   1      31.067  25.222  23.762  1.00  0.00     0.026 C 
ATOM     18  C   UNL A   1      30.958  24.378  24.822  1.00  0.00     0.050 C 
ATOM     19  C   UNL A   1      30.553  24.725  26.237  1.00  0.00     0.256 C 
ATOM     20  C   UNL A   1      31.718  23.116  24.986  1.00  0.00     0.012 A 
ATOM     21  O   UNL A   1      29.512  25.186  26.652  1.00  0.00    -0.269 OA
ATOM     22  N   UNL A   1      31.541  24.165  27.022  1.00  0.00    -0.321 N 
ATOM     23  C   UNL A   1      32.195  23.168  26.311  1.00  0.00     0.049 A 
ATOM     24  C   UNL A   1      31.877  21.947  24.266  1.00  0.00     0.026 A 
ATOM     25  H   UNL A   1      31.749  24.432  27.947  1.00  0.00     0.170 HD
ATOM     26  C   UNL A   1      33.002  22.209  26.880  1.00  0.00     0.028 A 
ATOM     27  C   UNL A   1      32.604  20.906  24.874  1.00  0.00     0.018 A 
ATOM     28  C   UNL A   1      33.214  21.055  26.136  1.00  0.00     0.018 A 
ATOM     29  Br  UNL A   1      32.684  19.205  24.042  1.00  0.00    -0.051 Br
ENDBRANCH  12  17
ENDBRANCH   9  10
ENDBRANCH   8   9
ENDBRANCH   6   8
ENDBRANCH   3   4
ENDBRANCH   2   3
ENDBRANCH   1   2
BRANCH   1  30
ATOM     30  C   UNL A   1      35.612  33.906  29.014  1.00  0.00     0.002 C 
BRANCH  30  31
ATOM     31  C   UNL A   1      34.515  34.969  28.959  1.00  0.00     0.021 C 
BRANCH  31  32
ATOM     32  C   UNL A   1      33.149  34.531  29.479  1.00  0.00     0.116 C 
BRANCH  32  33
ATOM     33  N   UNL A   1      32.564  35.471  30.427  1.00  0.00    -0.352 N 
ATOM     34  C   UNL A   1      32.884  35.710  31.744  1.00  0.00     0.251 C 
ATOM     35  H   UNL A   1      31.827  36.019  30.071  1.00  0.00     0.163 HD
ATOM     36  O   UNL A   1      32.190  36.463  32.420  1.00  0.00    -0.269 OA
BRANCH  34  37
ATOM     37  C   UNL A   1      34.044  35.028  32.362  1.00  0.00     0.039 A 
ATOM     38  C   UNL A   1      35.291  35.650  32.427  1.00  0.00     0.014 A 
ATOM     39  C   UNL A   1      33.882  33.737  32.876  1.00  0.00     0.014 A 
ATOM     40  C   UNL A   1      36.405  34.921  32.826  1.00  0.00     0.010 A 
ATOM     41  C   UNL A   1      34.989  33.037  33.365  1.00  0.00     0.010 A 
ATOM     42  C   UNL A   1      36.271  33.603  33.296  1.00  0.00    -0.014 A 
BRANCH  42  43
ATOM     43  C   UNL A   1      37.486  32.844  33.697  1.00  0.00     0.031 A 
ATOM     44  C   UNL A   1      38.102  31.827  32.774  1.00  0.00     0.074 A 
ATOM     45  C   UNL A   1      38.074  33.122  34.877  1.00  0.00     0.049 A 
ATOM     46  N   UNL A   1      39.183  31.104  32.944  1.00  0.00    -0.248 NA
ATOM     47  C   UNL A   1      37.419  31.583  31.494  1.00  0.00     0.031 C 
ATOM     48  C   UNL A   1      37.579  34.093  35.853  1.00  0.00     0.029 A 
ATOM     49  N   UNL A   1      39.228  32.640  35.443  1.00  0.00    -0.354 N 
ATOM     50  C   UNL A   1      39.300  30.319  31.805  1.00  0.00     0.074 A 
ATOM     51  C   UNL A   1      38.163  30.621  30.964  1.00  0.00     0.031 C 
ATOM     52  C   UNL A   1      38.450  34.180  36.867  1.00  0.00     0.029 A 
ATOM     53  C   UNL A   1      39.532  33.225  36.649  1.00  0.00     0.049 A 
ATOM     54  H   UNL A   1      39.784  31.943  35.027  1.00  0.00     0.167 HD
ATOM     55  C   UNL A   1      40.278  29.437  31.483  1.00  0.00     0.037 A 
ATOM     56  C   UNL A   1      40.561  33.012  37.490  1.00  0.00     0.037 A 
ATOM     57  C   UNL A   1      41.421  29.153  32.312  1.00  0.00     0.049 A 
ATOM     58  C   UNL A   1      41.604  31.992  37.133  1.00  0.00     0.074 A 
ATOM     59  C   UNL A   1      42.476  28.292  32.060  1.00  0.00     0.029 A 
ATOM     60  N   UNL A   1      41.660  29.722  33.556  1.00  0.00    -0.354 N 
ATOM     61  N   UNL A   1      41.711  31.269  36.045  1.00  0.00    -0.248 NA
ATOM     62  C   UNL A   1      42.664  31.752  38.121  1.00  0.00     0.031 C 
ATOM     63  C   UNL A   1      43.326  28.302  33.169  1.00  0.00     0.029 A 
ATOM     64  C   UNL A   1      42.832  29.211  34.091  1.00  0.00     0.049 A 
ATOM     65  H   UNL A   1      41.082  30.389  33.992  1.00  0.00     0.167 HD
ATOM     66  C   UNL A   1      42.855  30.501  36.208  1.00  0.00     0.074 A 
ATOM     67  C   UNL A   1      43.420  30.860  37.494  1.00  0.00     0.031 C 
ATOM     68  C   UNL A   1      43.386  29.580  35.369  1.00  0.00     0.037 A 
BRANCH  55  69
ATOM     69  C   UNL A   1      40.167  28.707  30.175  1.00  0.00     0.064 A 
ATOM     70  C   UNL A   1      40.763  29.199  29.005  1.00  0.00     0.173 A 
ATOM     71  C   UNL A   1      39.522  27.462  30.108  1.00  0.00     0.173 A 
ATOM     72  F   UNL A   1      41.383  30.389  29.012  1.00  0.00    -0.203 F 
ATOM     73  C   UNL A   1      40.705  28.480  27.814  1.00  0.00     0.198 A 
ATOM     74  C   UNL A   1      39.492  26.732  28.923  1.00  0.00     0.198 A 
ATOM     75  F   UNL A   1      38.943  26.940  31.200  1.00  0.00    -0.203 F 
ATOM     76  F   UNL A   1      41.254  28.986  26.701  1.00  0.00    -0.200 F 
ATOM     77  C   UNL A   1      40.080  27.243  27.776  1.00  0.00     0.200 A 
ATOM     78  F   UNL A   1      38.901  25.530  28.892  1.00  0.00    -0.200 F 
ATOM     79  F   UNL A   1      40.042  26.544  26.632  1.00  0.00    -0.200 F 
ENDBRANCH  55  69
BRANCH  56  80
ATOM     80  C   UNL A   1      40.651  33.797  38.748  1.00  0.00     0.064 A 
ATOM     81  C   UNL A   1      41.447  34.949  38.822  1.00  0.00     0.173 A 
ATOM     82  C   UNL A   1      39.915  33.439  39.888  1.00  0.00     0.173 A 
ATOM     83  F   UNL A   1      42.185  35.322  37.766  1.00  0.00    -0.203 F 
ATOM     84  C   UNL A   1      41.505  35.709  39.989  1.00  0.00     0.198 A 
ATOM     85  C   UNL A   1      39.950  34.216  41.042  1.00  0.00     0.198 A 
ATOM     86  F   UNL A   1      39.134  32.348  39.866  1.00  0.00    -0.203 F 
ATOM     87  F   UNL A   1      42.296  36.789  40.043  1.00  0.00    -0.200 F 
ATOM     88  C   UNL A   1      40.748  35.348  41.093  1.00  0.00     0.200 A 
ATOM     89  F   UNL A   1      39.202  33.874  42.100  1.00  0.00    -0.200 F 
ATOM     90  F   UNL A   1      40.789  36.091  42.208  1.00  0.00    -0.200 F 
ENDBRANCH  56  80
BRANCH  68  91
ATOM     91  C   UNL A   1      44.655  28.900  35.794  1.00  0.00     0.064 A 
ATOM     92  C   UNL A   1      45.913  29.441  35.490  1.00  0.00     0.173 A 
ATOM     93  C   UNL A   1      44.611  27.743  36.585  1.00  0.00     0.173 A 
ATOM     94  F   UNL A   1      46.008  30.538  34.724  1.00  0.00    -0.203 F 
ATOM     95  C   UNL A   1      47.080  28.840  35.953  1.00  0.00     0.198 A 
ATOM     96  C   UNL A   1      45.777  27.161  37.071  1.00  0.00     0.198 A 
ATOM     97  F   UNL A   1      43.431  27.191  36.910  1.00  0.00    -0.203 F 
ATOM     98  F   UNL A   1      48.273  29.356  35.624  1.00  0.00    -0.200 F 
ATOM     99  C   UNL A   1      47.012  27.708  36.752  1.00  0.00     0.200 A 
ATOM    100  F   UNL A   1      45.709  26.077  37.856  1.00  0.00    -0.200 F 
ATOM    101  F   UNL A   1      48.136  27.144  37.214  1.00  0.00    -0.200 F 
ENDBRANCH  68  91
ENDBRANCH  42  43
ENDBRANCH  34  37
ENDBRANCH  32  33
ENDBRANCH  31  32
ENDBRANCH  30  31
ENDBRANCH   1  30
TORSDOF 16
ENDMDL
