MODEL 1
REMARK VINA RESULT:     -13.4      0.000      0.000
REMARK SMILES Cc1ccccc1/[NH+]=C1\S[C@@H](CC(=O)Nc2ccc(C(=O)NCCCCCCNC(=O)c3ccc(-c4c5nc(c(-c6c(F)c(F)c(F)c(F)c6F)c6ccc([nH]6)c(-c6c(F)c(F)c(F)c(F)c6F)c6nc(c(-c7c(F)c(F)c(F)c(F)c7F)c7ccc4[nH]7)C=C6)C=C5)cc3)cc2)C(=O)N1C
REMARK SMILES IDX 24 1 23 2 22 3 20 4 21 5 19 7 16 8 17 9 96 10 18 11 95 12
REMARK SMILES IDX 15 13 13 14 14 15 12 17 11 18 8 19 9 20 10 22 99 23 97 24
REMARK SMILES IDX 100 25 98 26 7 27 1 28 2 29 3 30 4 31 6 32 5 33 25 34 26 35
REMARK SMILES IDX 27 36 28 37 29 38 30 39 31 41 32 42 33 43 94 44 34 45 93 46
REMARK SMILES IDX 35 47 36 48 37 49 87 50 38 51 92 52 86 53 88 54 39 55 91 56
REMARK SMILES IDX 85 57 84 58 40 60 72 61 52 62 71 63 53 64 56 65 70 66 89 67
REMARK SMILES IDX 54 68 55 69 69 71 90 72 57 73 41 74 42 75 50 76 43 77 44 78
REMARK SMILES IDX 48 79 51 80 45 81 46 82 49 83 47 84 73 85 74 86 82 87 75 88
REMARK SMILES IDX 76 89 80 90 83 91 77 92 78 93 81 94 79 95 58 96 59 97 67 98
REMARK SMILES IDX 60 99 61 100 65 101 68 102 62 103 63 104 66 105 64 106
REMARK H PARENT 22 6 15 16 8 21 29 40 88 59 56 70
REMARK Flexibility Score: inf
ROOT
ATOM      1  C   UNL A   1      34.764  31.856  27.674  1.00  0.00     0.021 C 
ENDROOT
BRANCH   1   2
ATOM      2  C   UNL A   1      34.667  30.330  27.560  1.00  0.00     0.116 C 
BRANCH   2   3
ATOM      3  N   UNL A   1      33.316  29.853  27.819  1.00  0.00    -0.352 N 
ATOM      4  C   UNL A   1      32.483  29.015  27.115  1.00  0.00     0.251 C 
ATOM      5  O   UNL A   1      31.451  28.620  27.653  1.00  0.00    -0.269 OA
ATOM      6  H   UNL A   1      32.925  30.195  28.656  1.00  0.00     0.163 HD
BRANCH   4   7
ATOM      7  C   UNL A   1      32.798  28.540  25.743  1.00  0.00     0.039 A 
ATOM      8  C   UNL A   1      33.205  27.601  23.138  1.00  0.00     0.041 A 
ATOM      9  C   UNL A   1      33.936  27.083  24.206  1.00  0.00     0.027 A 
ATOM     10  C   UNL A   1      32.396  28.711  23.337  1.00  0.00     0.027 A 
ATOM     11  C   UNL A   1      33.742  27.546  25.504  1.00  0.00     0.016 A 
ATOM     12  C   UNL A   1      32.181  29.169  24.645  1.00  0.00     0.016 A 
BRANCH   8  13
ATOM     13  N   UNL A   1      33.262  26.976  21.886  1.00  0.00    -0.326 N 
ATOM     14  C   UNL A   1      32.800  25.706  21.608  1.00  0.00     0.226 C 
ATOM     15  O   UNL A   1      33.121  25.126  20.572  1.00  0.00    -0.275 OA
ATOM     16  H   UNL A   1      33.665  27.483  21.145  1.00  0.00     0.169 HD
BRANCH  14  17
ATOM     17  C   UNL A   1      31.718  25.141  22.519  1.00  0.00     0.128 C 
BRANCH  17  18
ATOM     18  C   UNL A   1      32.186  24.196  23.602  1.00  0.00     0.183 C 
ATOM     19  N   UNL A   1      32.185  20.882  25.278  1.00  0.00    -0.234 N 
ATOM     20  C   UNL A   1      31.793  21.936  24.659  1.00  0.00     0.319 C 
ATOM     21  H   UNL A   1      31.843  20.784  26.196  1.00  0.00     0.313 HD
ATOM     22  S   UNL A   1      32.020  22.459  23.026  1.00  0.00    -0.022 SA
ATOM     23  N   UNL A   1      31.122  22.916  25.326  1.00  0.00    -0.193 N 
ATOM     24  C   UNL A   1      31.420  24.197  24.913  1.00  0.00     0.324 C 
ATOM     25  C   UNL A   1      30.363  22.686  26.538  1.00  0.00     0.301 C 
ATOM     26  O   UNL A   1      31.205  25.201  25.582  1.00  0.00    -0.245 OA
BRANCH  19  27
ATOM     27  C   UNL A   1      33.028  19.850  24.839  1.00  0.00     0.128 A 
ATOM     28  C   UNL A   1      35.332  20.991  25.158  1.00  0.00     0.049 C 
ATOM     29  C   UNL A   1      34.440  19.823  24.845  1.00  0.00    -0.004 A 
ATOM     30  C   UNL A   1      35.111  18.615  24.559  1.00  0.00     0.008 A 
ATOM     31  C   UNL A   1      34.417  17.427  24.361  1.00  0.00     0.001 A 
ATOM     32  C   UNL A   1      32.353  18.633  24.621  1.00  0.00     0.052 A 
ATOM     33  C   UNL A   1      33.031  17.432  24.401  1.00  0.00     0.004 A 
ENDBRANCH  19  27
ENDBRANCH  17  18
ENDBRANCH  14  17
ENDBRANCH   8  13
ENDBRANCH   4   7
ENDBRANCH   2   3
ENDBRANCH   1   2
BRANCH   1  34
ATOM     34  C   UNL A   1      36.050  32.385  28.334  1.00  0.00     0.002 C 
BRANCH  34  35
ATOM     35  C   UNL A   1      35.901  33.036  29.721  1.00  0.00     0.002 C 
BRANCH  35  36
ATOM     36  C   UNL A   1      34.488  33.041  30.310  1.00  0.00     0.021 C 
BRANCH  36  37
ATOM     37  C   UNL A   1      34.439  32.846  31.822  1.00  0.00     0.116 C 
BRANCH  37  38
ATOM     38  N   UNL A   1      34.170  34.068  32.572  1.00  0.00    -0.352 N 
ATOM     39  C   UNL A   1      34.987  34.804  33.418  1.00  0.00     0.251 C 
ATOM     40  H   UNL A   1      33.261  34.430  32.461  1.00  0.00     0.163 HD
ATOM     41  O   UNL A   1      34.536  35.768  34.012  1.00  0.00    -0.269 OA
BRANCH  39  42
ATOM     42  C   UNL A   1      36.440  34.504  33.494  1.00  0.00     0.039 A 
ATOM     43  C   UNL A   1      37.264  34.942  32.444  1.00  0.00     0.014 A 
ATOM     44  C   UNL A   1      36.956  33.657  34.466  1.00  0.00     0.014 A 
ATOM     45  C   UNL A   1      38.499  34.330  32.233  1.00  0.00     0.010 A 
ATOM     46  C   UNL A   1      38.124  32.975  34.203  1.00  0.00     0.010 A 
ATOM     47  C   UNL A   1      38.859  33.261  33.047  1.00  0.00    -0.014 A 
BRANCH  47  48
ATOM     48  C   UNL A   1      39.907  32.299  32.737  1.00  0.00     0.031 A 
ATOM     49  C   UNL A   1      39.607  31.087  31.946  1.00  0.00     0.074 A 
ATOM     50  C   UNL A   1      41.194  32.631  32.989  1.00  0.00     0.049 A 
ATOM     51  N   UNL A   1      40.446  30.123  31.769  1.00  0.00    -0.248 NA
ATOM     52  C   UNL A   1      38.305  30.823  31.345  1.00  0.00     0.031 C 
ATOM     53  C   UNL A   1      42.389  32.068  32.365  1.00  0.00     0.029 A 
ATOM     54  N   UNL A   1      41.695  33.450  34.016  1.00  0.00    -0.354 N 
ATOM     55  C   UNL A   1      39.925  29.268  30.829  1.00  0.00     0.074 A 
ATOM     56  C   UNL A   1      38.546  29.675  30.702  1.00  0.00     0.031 C 
ATOM     57  C   UNL A   1      43.446  32.301  33.156  1.00  0.00     0.029 A 
ATOM     58  C   UNL A   1      42.936  32.869  34.388  1.00  0.00     0.049 A 
ATOM     59  H   UNL A   1      41.275  34.255  34.397  1.00  0.00     0.167 HD
ATOM     60  C   UNL A   1      40.774  28.398  30.207  1.00  0.00     0.037 A 
ATOM     61  C   UNL A   1      43.127  32.336  35.630  1.00  0.00     0.037 A 
ATOM     62  C   UNL A   1      42.088  28.389  30.862  1.00  0.00     0.049 A 
ATOM     63  C   UNL A   1      43.491  30.865  35.655  1.00  0.00     0.074 A 
ATOM     64  C   UNL A   1      43.352  28.855  30.548  1.00  0.00     0.029 A 
ATOM     65  N   UNL A   1      42.150  27.987  32.183  1.00  0.00    -0.354 N 
ATOM     66  N   UNL A   1      43.527  30.102  34.601  1.00  0.00    -0.248 NA
ATOM     67  C   UNL A   1      43.733  30.115  36.890  1.00  0.00     0.031 C 
ATOM     68  C   UNL A   1      44.179  28.703  31.703  1.00  0.00     0.029 A 
ATOM     69  C   UNL A   1      43.415  28.137  32.706  1.00  0.00     0.049 A 
ATOM     70  H   UNL A   1      41.381  27.637  32.690  1.00  0.00     0.167 HD
ATOM     71  C   UNL A   1      43.694  28.798  34.987  1.00  0.00     0.074 A 
ATOM     72  C   UNL A   1      43.835  28.855  36.428  1.00  0.00     0.031 C 
ATOM     73  C   UNL A   1      43.638  27.768  34.094  1.00  0.00     0.037 A 
BRANCH  60  74
ATOM     74  C   UNL A   1      40.520  27.628  28.921  1.00  0.00     0.064 A 
ATOM     75  C   UNL A   1      39.666  26.496  28.935  1.00  0.00     0.173 A 
ATOM     76  C   UNL A   1      41.133  27.865  27.675  1.00  0.00     0.173 A 
ATOM     77  F   UNL A   1      38.963  26.162  30.027  1.00  0.00    -0.203 F 
ATOM     78  C   UNL A   1      39.504  25.652  27.833  1.00  0.00     0.198 A 
ATOM     79  C   UNL A   1      40.949  27.037  26.563  1.00  0.00     0.198 A 
ATOM     80  F   UNL A   1      41.960  28.888  27.463  1.00  0.00    -0.203 F 
ATOM     81  F   UNL A   1      38.724  24.568  27.935  1.00  0.00    -0.200 F 
ATOM     82  C   UNL A   1      40.151  25.919  26.646  1.00  0.00     0.200 A 
ATOM     83  F   UNL A   1      41.574  27.329  25.414  1.00  0.00    -0.200 F 
ATOM     84  F   UNL A   1      40.009  25.106  25.591  1.00  0.00    -0.200 F 
ENDBRANCH  60  74
BRANCH  61  85
ATOM     85  C   UNL A   1      42.317  33.022  36.670  1.00  0.00     0.064 A 
ATOM     86  C   UNL A   1      42.771  34.262  37.158  1.00  0.00     0.173 A 
ATOM     87  C   UNL A   1      40.966  32.702  36.851  1.00  0.00     0.173 A 
ATOM     88  F   UNL A   1      44.055  34.616  36.999  1.00  0.00    -0.203 F 
ATOM     89  C   UNL A   1      41.882  35.194  37.688  1.00  0.00     0.198 A 
ATOM     90  C   UNL A   1      40.084  33.633  37.396  1.00  0.00     0.198 A 
ATOM     91  F   UNL A   1      40.476  31.543  36.388  1.00  0.00    -0.203 F 
ATOM     92  F   UNL A   1      42.320  36.414  38.033  1.00  0.00    -0.200 F 
ATOM     93  C   UNL A   1      40.535  34.889  37.778  1.00  0.00     0.200 A 
ATOM     94  F   UNL A   1      38.774  33.351  37.456  1.00  0.00    -0.200 F 
ATOM     95  F   UNL A   1      39.661  35.819  38.189  1.00  0.00    -0.200 F 
ENDBRANCH  61  85
BRANCH  73  96
ATOM     96  C   UNL A   1      43.754  26.316  34.462  1.00  0.00     0.064 A 
ATOM     97  C   UNL A   1      44.905  25.558  34.204  1.00  0.00     0.173 A 
ATOM     98  C   UNL A   1      42.647  25.605  34.978  1.00  0.00     0.173 A 
ATOM     99  F   UNL A   1      45.995  26.128  33.670  1.00  0.00    -0.203 F 
ATOM    100  C   UNL A   1      44.953  24.185  34.469  1.00  0.00     0.198 A 
ATOM    101  C   UNL A   1      42.678  24.229  35.190  1.00  0.00     0.198 A 
ATOM    102  F   UNL A   1      41.511  26.229  35.321  1.00  0.00    -0.203 F 
ATOM    103  F   UNL A   1      46.087  23.505  34.252  1.00  0.00    -0.200 F 
ATOM    104  C   UNL A   1      43.836  23.519  34.945  1.00  0.00     0.200 A 
ATOM    105  F   UNL A   1      41.583  23.600  35.639  1.00  0.00    -0.200 F 
ATOM    106  F   UNL A   1      43.876  22.200  35.173  1.00  0.00    -0.200 F 
ENDBRANCH  73  96
ENDBRANCH  47  48
ENDBRANCH  39  42
ENDBRANCH  37  38
ENDBRANCH  36  37
ENDBRANCH  35  36
ENDBRANCH  34  35
ENDBRANCH   1  34
TORSDOF 17
ENDMDL
MODEL 2
REMARK VINA RESULT:     -13.1      2.240      3.460
REMARK SMILES Cc1ccccc1/[NH+]=C1\S[C@@H](CC(=O)Nc2ccc(C(=O)NCCCCCCNC(=O)c3ccc(-c4c5nc(c(-c6c(F)c(F)c(F)c(F)c6F)c6ccc([nH]6)c(-c6c(F)c(F)c(F)c(F)c6F)c6nc(c(-c7c(F)c(F)c(F)c(F)c7F)c7ccc4[nH]7)C=C6)C=C5)cc3)cc2)C(=O)N1C
REMARK SMILES IDX 24 1 23 2 22 3 20 4 21 5 19 7 16 8 17 9 96 10 18 11 95 12
REMARK SMILES IDX 15 13 13 14 14 15 12 17 11 18 8 19 9 20 10 22 99 23 97 24
REMARK SMILES IDX 100 25 98 26 7 27 1 28 2 29 3 30 4 31 6 32 5 33 25 34 26 35
REMARK SMILES IDX 27 36 28 37 29 38 30 39 31 41 32 42 33 43 94 44 34 45 93 46
REMARK SMILES IDX 35 47 36 48 37 49 87 50 38 51 92 52 86 53 88 54 39 55 91 56
REMARK SMILES IDX 85 57 84 58 40 60 72 61 52 62 71 63 53 64 56 65 70 66 89 67
REMARK SMILES IDX 54 68 55 69 69 71 90 72 57 73 41 74 42 75 50 76 43 77 44 78
REMARK SMILES IDX 48 79 51 80 45 81 46 82 49 83 47 84 73 85 74 86 82 87 75 88
REMARK SMILES IDX 76 89 80 90 83 91 77 92 78 93 81 94 79 95 58 96 59 97 67 98
REMARK SMILES IDX 60 99 61 100 65 101 68 102 62 103 63 104 66 105 64 106
REMARK H PARENT 22 6 15 16 8 21 29 40 88 59 56 70
REMARK Flexibility Score: inf
ROOT
ATOM      1  C   UNL A   1      31.932  29.062  26.687  1.00  0.00     0.021 C 
ENDROOT
BRANCH   1   2
ATOM      2  C   UNL A   1      32.301  29.874  25.441  1.00  0.00     0.116 C 
BRANCH   2   3
ATOM      3  N   UNL A   1      31.123  30.245  24.669  1.00  0.00    -0.352 N 
ATOM      4  C   UNL A   1      30.279  29.514  23.865  1.00  0.00     0.251 C 
ATOM      5  O   UNL A   1      29.237  30.037  23.474  1.00  0.00    -0.269 OA
ATOM      6  H   UNL A   1      30.887  31.199  24.735  1.00  0.00     0.163 HD
BRANCH   4   7
ATOM      7  C   UNL A   1      30.560  28.108  23.478  1.00  0.00     0.039 A 
ATOM      8  C   UNL A   1      31.192  25.441  22.913  1.00  0.00     0.041 A 
ATOM      9  C   UNL A   1      31.489  26.454  22.001  1.00  0.00     0.027 A 
ATOM     10  C   UNL A   1      30.421  25.730  24.030  1.00  0.00     0.027 A 
ATOM     11  C   UNL A   1      31.176  27.782  22.274  1.00  0.00     0.016 A 
ATOM     12  C   UNL A   1      30.121  27.069  24.320  1.00  0.00     0.016 A 
BRANCH   8  13
ATOM     13  N   UNL A   1      31.705  24.154  22.714  1.00  0.00    -0.326 N 
ATOM     14  C   UNL A   1      33.036  23.848  22.512  1.00  0.00     0.226 C 
ATOM     15  O   UNL A   1      33.378  22.748  22.082  1.00  0.00    -0.275 OA
ATOM     16  H   UNL A   1      31.066  23.406  22.717  1.00  0.00     0.169 HD
BRANCH  14  17
ATOM     17  C   UNL A   1      34.067  24.837  23.040  1.00  0.00     0.128 C 
BRANCH  17  18
ATOM     18  C   UNL A   1      34.788  24.435  24.307  1.00  0.00     0.183 C 
ATOM     19  N   UNL A   1      36.987  22.149  26.236  1.00  0.00    -0.234 N 
ATOM     20  C   UNL A   1      36.098  22.586  25.421  1.00  0.00     0.319 C 
ATOM     21  H   UNL A   1      36.638  21.649  27.009  1.00  0.00     0.313 HD
ATOM     22  S   UNL A   1      36.236  23.385  23.892  1.00  0.00    -0.022 SA
ATOM     23  N   UNL A   1      34.776  22.516  25.741  1.00  0.00    -0.193 N 
ATOM     24  C   UNL A   1      34.024  23.588  25.309  1.00  0.00     0.324 C 
ATOM     25  C   UNL A   1      34.228  21.555  26.677  1.00  0.00     0.301 C 
ATOM     26  O   UNL A   1      32.930  23.889  25.770  1.00  0.00    -0.245 OA
BRANCH  19  27
ATOM     27  C   UNL A   1      38.383  22.280  26.190  1.00  0.00     0.128 A 
ATOM     28  C   UNL A   1      38.634  24.710  27.052  1.00  0.00     0.049 C 
ATOM     29  C   UNL A   1      39.166  23.373  26.621  1.00  0.00    -0.004 A 
ATOM     30  C   UNL A   1      40.570  23.237  26.687  1.00  0.00     0.008 A 
ATOM     31  C   UNL A   1      41.196  22.023  26.426  1.00  0.00     0.001 A 
ATOM     32  C   UNL A   1      39.049  21.068  25.918  1.00  0.00     0.052 A 
ATOM     33  C   UNL A   1      40.432  20.930  26.048  1.00  0.00     0.004 A 
ENDBRANCH  19  27
ENDBRANCH  17  18
ENDBRANCH  14  17
ENDBRANCH   8  13
ENDBRANCH   4   7
ENDBRANCH   2   3
ENDBRANCH   1   2
BRANCH   1  34
ATOM     34  C   UNL A   1      33.125  28.528  27.501  1.00  0.00     0.002 C 
BRANCH  34  35
ATOM     35  C   UNL A   1      34.504  29.136  27.190  1.00  0.00     0.002 C 
BRANCH  35  36
ATOM     36  C   UNL A   1      35.029  30.157  28.201  1.00  0.00     0.021 C 
BRANCH  36  37
ATOM     37  C   UNL A   1      35.202  31.564  27.639  1.00  0.00     0.116 C 
BRANCH  37  38
ATOM     38  N   UNL A   1      34.381  32.575  28.298  1.00  0.00    -0.352 N 
ATOM     39  C   UNL A   1      34.605  33.301  29.458  1.00  0.00     0.251 C 
ATOM     40  H   UNL A   1      33.528  32.773  27.847  1.00  0.00     0.163 HD
ATOM     41  O   UNL A   1      33.744  34.052  29.881  1.00  0.00    -0.269 OA
BRANCH  39  42
ATOM     42  C   UNL A   1      35.941  33.269  30.108  1.00  0.00     0.039 A 
ATOM     43  C   UNL A   1      37.021  33.861  29.432  1.00  0.00     0.014 A 
ATOM     44  C   UNL A   1      36.172  32.521  31.254  1.00  0.00     0.014 A 
ATOM     45  C   UNL A   1      38.325  33.487  29.753  1.00  0.00     0.010 A 
ATOM     46  C   UNL A   1      37.448  32.065  31.505  1.00  0.00     0.010 A 
ATOM     47  C   UNL A   1      38.516  32.492  30.708  1.00  0.00    -0.014 A 
BRANCH  47  48
ATOM     48  C   UNL A   1      39.750  31.740  30.886  1.00  0.00     0.031 A 
ATOM     49  C   UNL A   1      39.969  30.469  30.164  1.00  0.00     0.074 A 
ATOM     50  C   UNL A   1      40.780  32.322  31.543  1.00  0.00     0.049 A 
ATOM     51  N   UNL A   1      40.963  29.679  30.392  1.00  0.00    -0.248 NA
ATOM     52  C   UNL A   1      39.042  29.941  29.170  1.00  0.00     0.031 C 
ATOM     53  C   UNL A   1      42.196  31.979  31.442  1.00  0.00     0.029 A 
ATOM     54  N   UNL A   1      40.724  33.253  32.595  1.00  0.00    -0.354 N 
ATOM     55  C   UNL A   1      40.974  28.711  29.418  1.00  0.00     0.074 A 
ATOM     56  C   UNL A   1      39.691  28.841  28.772  1.00  0.00     0.031 C 
ATOM     57  C   UNL A   1      42.835  32.435  32.529  1.00  0.00     0.029 A 
ATOM     58  C   UNL A   1      41.821  32.934  33.438  1.00  0.00     0.049 A 
ATOM     59  H   UNL A   1      40.065  33.974  32.719  1.00  0.00     0.167 HD
ATOM     60  C   UNL A   1      42.125  28.001  29.227  1.00  0.00     0.037 A 
ATOM     61  C   UNL A   1      41.630  32.486  34.713  1.00  0.00     0.037 A 
ATOM     62  C   UNL A   1      43.089  28.265  30.302  1.00  0.00     0.049 A 
ATOM     63  C   UNL A   1      42.200  31.114  35.011  1.00  0.00     0.074 A 
ATOM     64  C   UNL A   1      44.282  28.956  30.413  1.00  0.00     0.029 A 
ATOM     65  N   UNL A   1      42.728  27.925  31.593  1.00  0.00    -0.354 N 
ATOM     66  N   UNL A   1      42.748  30.340  34.120  1.00  0.00    -0.248 NA
ATOM     67  C   UNL A   1      42.095  30.463  36.319  1.00  0.00     0.031 C 
ATOM     68  C   UNL A   1      44.641  29.001  31.794  1.00  0.00     0.029 A 
ATOM     69  C   UNL A   1      43.669  28.331  32.513  1.00  0.00     0.049 A 
ATOM     70  H   UNL A   1      41.898  27.449  31.827  1.00  0.00     0.167 HD
ATOM     71  C   UNL A   1      42.978  29.105  34.667  1.00  0.00     0.074 A 
ATOM     72  C   UNL A   1      42.568  29.234  36.051  1.00  0.00     0.031 C 
ATOM     73  C   UNL A   1      43.426  28.056  33.919  1.00  0.00     0.037 A 
BRANCH  60  74
ATOM     74  C   UNL A   1      42.493  27.157  28.018  1.00  0.00     0.064 A 
ATOM     75  C   UNL A   1      42.962  25.832  28.201  1.00  0.00     0.173 A 
ATOM     76  C   UNL A   1      42.508  27.587  26.677  1.00  0.00     0.173 A 
ATOM     77  F   UNL A   1      42.962  25.248  29.408  1.00  0.00    -0.203 F 
ATOM     78  C   UNL A   1      43.460  25.050  27.154  1.00  0.00     0.198 A 
ATOM     79  C   UNL A   1      42.979  26.795  25.625  1.00  0.00     0.198 A 
ATOM     80  F   UNL A   1      42.093  28.798  26.305  1.00  0.00    -0.203 F 
ATOM     81  F   UNL A   1      43.940  23.825  27.410  1.00  0.00    -0.200 F 
ATOM     82  C   UNL A   1      43.475  25.534  25.865  1.00  0.00     0.200 A 
ATOM     83  F   UNL A   1      42.965  27.282  24.376  1.00  0.00    -0.200 F 
ATOM     84  F   UNL A   1      43.963  24.794  24.861  1.00  0.00    -0.200 F 
ENDBRANCH  60  74
BRANCH  61  85
ATOM     85  C   UNL A   1      40.393  33.036  35.325  1.00  0.00     0.064 A 
ATOM     86  C   UNL A   1      39.269  32.194  35.431  1.00  0.00     0.173 A 
ATOM     87  C   UNL A   1      40.443  34.167  36.149  1.00  0.00     0.173 A 
ATOM     88  F   UNL A   1      39.182  31.094  34.668  1.00  0.00    -0.203 F 
ATOM     89  C   UNL A   1      38.304  32.405  36.412  1.00  0.00     0.198 A 
ATOM     90  C   UNL A   1      39.466  34.380  37.120  1.00  0.00     0.198 A 
ATOM     91  F   UNL A   1      41.499  34.993  36.103  1.00  0.00    -0.203 F 
ATOM     92  F   UNL A   1      37.310  31.520  36.572  1.00  0.00    -0.200 F 
ATOM     93  C   UNL A   1      38.421  33.481  37.275  1.00  0.00     0.200 A 
ATOM     94  F   UNL A   1      39.593  35.406  37.975  1.00  0.00    -0.200 F 
ATOM     95  F   UNL A   1      37.552  33.629  38.286  1.00  0.00    -0.200 F 
ENDBRANCH  61  85
BRANCH  73  96
ATOM     96  C   UNL A   1      43.641  26.665  34.446  1.00  0.00     0.064 A 
ATOM     97  C   UNL A   1      44.905  26.063  34.503  1.00  0.00     0.173 A 
ATOM     98  C   UNL A   1      42.546  25.842  34.796  1.00  0.00     0.173 A 
ATOM     99  F   UNL A   1      46.005  26.743  34.147  1.00  0.00    -0.203 F 
ATOM    100  C   UNL A   1      45.066  24.734  34.909  1.00  0.00     0.198 A 
ATOM    101  C   UNL A   1      42.703  24.504  35.147  1.00  0.00     0.198 A 
ATOM    102  F   UNL A   1      41.295  26.321  34.838  1.00  0.00    -0.203 F 
ATOM    103  F   UNL A   1      46.296  24.209  34.995  1.00  0.00    -0.200 F 
ATOM    104  C   UNL A   1      43.965  23.951  35.213  1.00  0.00     0.200 A 
ATOM    105  F   UNL A   1      41.624  23.759  35.425  1.00  0.00    -0.200 F 
ATOM    106  F   UNL A   1      44.120  22.670  35.575  1.00  0.00    -0.200 F 
ENDBRANCH  73  96
ENDBRANCH  47  48
ENDBRANCH  39  42
ENDBRANCH  37  38
ENDBRANCH  36  37
ENDBRANCH  35  36
ENDBRANCH  34  35
ENDBRANCH   1  34
TORSDOF 17
ENDMDL
MODEL 3
REMARK VINA RESULT:     -13.0      3.220      9.103
REMARK SMILES Cc1ccccc1/[NH+]=C1\S[C@@H](CC(=O)Nc2ccc(C(=O)NCCCCCCNC(=O)c3ccc(-c4c5nc(c(-c6c(F)c(F)c(F)c(F)c6F)c6ccc([nH]6)c(-c6c(F)c(F)c(F)c(F)c6F)c6nc(c(-c7c(F)c(F)c(F)c(F)c7F)c7ccc4[nH]7)C=C6)C=C5)cc3)cc2)C(=O)N1C
REMARK SMILES IDX 24 1 23 2 22 3 20 4 21 5 19 7 16 8 17 9 96 10 18 11 95 12
REMARK SMILES IDX 15 13 13 14 14 15 12 17 11 18 8 19 9 20 10 22 99 23 97 24
REMARK SMILES IDX 100 25 98 26 7 27 1 28 2 29 3 30 4 31 6 32 5 33 25 34 26 35
REMARK SMILES IDX 27 36 28 37 29 38 30 39 31 41 32 42 33 43 94 44 34 45 93 46
REMARK SMILES IDX 35 47 36 48 37 49 87 50 38 51 92 52 86 53 88 54 39 55 91 56
REMARK SMILES IDX 85 57 84 58 40 60 72 61 52 62 71 63 53 64 56 65 70 66 89 67
REMARK SMILES IDX 54 68 55 69 69 71 90 72 57 73 41 74 42 75 50 76 43 77 44 78
REMARK SMILES IDX 48 79 51 80 45 81 46 82 49 83 47 84 73 85 74 86 82 87 75 88
REMARK SMILES IDX 76 89 80 90 83 91 77 92 78 93 81 94 79 95 58 96 59 97 67 98
REMARK SMILES IDX 60 99 61 100 65 101 68 102 62 103 63 104 66 105 64 106
REMARK H PARENT 22 6 15 16 8 21 29 40 88 59 56 70
REMARK Flexibility Score: inf
ROOT
ATOM      1  C   UNL A   1      39.931  21.562  26.350  1.00  0.00     0.021 C 
ENDROOT
BRANCH   1   2
ATOM      2  C   UNL A   1      38.651  22.390  26.189  1.00  0.00     0.116 C 
BRANCH   2   3
ATOM      3  N   UNL A   1      38.144  22.341  24.825  1.00  0.00    -0.352 N 
ATOM      4  C   UNL A   1      36.874  22.454  24.309  1.00  0.00     0.251 C 
ATOM      5  O   UNL A   1      36.739  22.566  23.092  1.00  0.00    -0.269 OA
ATOM      6  H   UNL A   1      38.841  22.202  24.143  1.00  0.00     0.163 HD
BRANCH   4   7
ATOM      7  C   UNL A   1      35.661  22.479  25.165  1.00  0.00     0.039 A 
ATOM      8  C   UNL A   1      33.270  22.499  26.619  1.00  0.00     0.041 A 
ATOM      9  C   UNL A   1      34.159  23.570  26.694  1.00  0.00     0.027 A 
ATOM     10  C   UNL A   1      33.649  21.338  25.959  1.00  0.00     0.027 A 
ATOM     11  C   UNL A   1      35.351  23.566  25.977  1.00  0.00     0.016 A 
ATOM     12  C   UNL A   1      34.839  21.337  25.218  1.00  0.00     0.016 A 
BRANCH   8  13
ATOM     13  N   UNL A   1      31.990  22.617  27.176  1.00  0.00    -0.326 N 
ATOM     14  C   UNL A   1      30.928  23.283  26.598  1.00  0.00     0.226 C 
ATOM     15  O   UNL A   1      29.928  23.574  27.252  1.00  0.00    -0.275 OA
ATOM     16  H   UNL A   1      31.835  22.191  28.049  1.00  0.00     0.169 HD
BRANCH  14  17
ATOM     17  C   UNL A   1      30.950  23.452  25.085  1.00  0.00     0.128 C 
BRANCH  17  18
ATOM     18  C   UNL A   1      31.359  24.814  24.572  1.00  0.00     0.183 C 
ATOM     19  N   UNL A   1      30.778  27.841  22.501  1.00  0.00    -0.234 N 
ATOM     20  C   UNL A   1      30.814  26.620  22.892  1.00  0.00     0.319 C 
ATOM     21  H   UNL A   1      31.378  28.060  21.752  1.00  0.00     0.313 HD
ATOM     22  S   UNL A   1      29.869  25.758  24.058  1.00  0.00    -0.022 SA
ATOM     23  N   UNL A   1      31.768  25.772  22.414  1.00  0.00    -0.193 N 
ATOM     24  C   UNL A   1      32.240  24.862  23.336  1.00  0.00     0.324 C 
ATOM     25  C   UNL A   1      32.438  25.955  21.143  1.00  0.00     0.301 C 
ATOM     26  O   UNL A   1      33.303  24.263  23.226  1.00  0.00    -0.245 OA
BRANCH  19  27
ATOM     27  C   UNL A   1      30.010  28.911  22.986  1.00  0.00     0.128 A 
ATOM     28  C   UNL A   1      31.513  29.686  24.949  1.00  0.00     0.049 C 
ATOM     29  C   UNL A   1      30.337  29.813  24.022  1.00  0.00    -0.004 A 
ATOM     30  C   UNL A   1      29.531  30.953  24.228  1.00  0.00     0.008 A 
ATOM     31  C   UNL A   1      28.476  31.261  23.377  1.00  0.00     0.001 A 
ATOM     32  C   UNL A   1      28.926  29.244  22.149  1.00  0.00     0.052 A 
ATOM     33  C   UNL A   1      28.176  30.408  22.327  1.00  0.00     0.004 A 
ENDBRANCH  19  27
ENDBRANCH  17  18
ENDBRANCH  14  17
ENDBRANCH   8  13
ENDBRANCH   4   7
ENDBRANCH   2   3
ENDBRANCH   1   2
BRANCH   1  34
ATOM     34  C   UNL A   1      40.797  21.921  27.570  1.00  0.00     0.002 C 
BRANCH  34  35
ATOM     35  C   UNL A   1      41.930  22.937  27.342  1.00  0.00     0.002 C 
BRANCH  35  36
ATOM     36  C   UNL A   1      42.308  23.802  28.547  1.00  0.00     0.021 C 
BRANCH  36  37
ATOM     37  C   UNL A   1      42.315  25.301  28.265  1.00  0.00     0.116 C 
BRANCH  37  38
ATOM     38  N   UNL A   1      42.537  25.643  26.863  1.00  0.00    -0.352 N 
ATOM     39  C   UNL A   1      42.035  26.687  26.102  1.00  0.00     0.251 C 
ATOM     40  H   UNL A   1      43.140  25.033  26.379  1.00  0.00     0.163 HD
ATOM     41  O   UNL A   1      42.290  26.749  24.911  1.00  0.00    -0.269 OA
BRANCH  39  42
ATOM     42  C   UNL A   1      41.304  27.801  26.758  1.00  0.00     0.039 A 
ATOM     43  C   UNL A   1      42.049  28.888  27.243  1.00  0.00     0.014 A 
ATOM     44  C   UNL A   1      39.952  27.704  27.059  1.00  0.00     0.014 A 
ATOM     45  C   UNL A   1      41.506  29.714  28.228  1.00  0.00     0.010 A 
ATOM     46  C   UNL A   1      39.448  28.446  28.106  1.00  0.00     0.010 A 
ATOM     47  C   UNL A   1      40.250  29.402  28.739  1.00  0.00    -0.014 A 
BRANCH  47  48
ATOM     48  C   UNL A   1      39.713  29.916  29.991  1.00  0.00     0.031 A 
ATOM     49  C   UNL A   1      38.908  31.155  30.013  1.00  0.00     0.074 A 
ATOM     50  C   UNL A   1      39.771  29.136  31.095  1.00  0.00     0.049 A 
ATOM     51  N   UNL A   1      38.536  31.747  31.097  1.00  0.00    -0.248 NA
ATOM     52  C   UNL A   1      38.513  31.877  28.809  1.00  0.00     0.031 C 
ATOM     53  C   UNL A   1      38.925  29.227  32.283  1.00  0.00     0.029 A 
ATOM     54  N   UNL A   1      40.751  28.189  31.440  1.00  0.00    -0.354 N 
ATOM     55  C   UNL A   1      37.643  32.735  30.762  1.00  0.00     0.074 A 
ATOM     56  C   UNL A   1      37.770  32.859  29.330  1.00  0.00     0.031 C 
ATOM     57  C   UNL A   1      39.545  28.623  33.307  1.00  0.00     0.029 A 
ATOM     58  C   UNL A   1      40.877  28.277  32.852  1.00  0.00     0.049 A 
ATOM     59  H   UNL A   1      41.244  27.592  30.832  1.00  0.00     0.167 HD
ATOM     60  C   UNL A   1      36.837  33.237  31.744  1.00  0.00     0.037 A 
ATOM     61  C   UNL A   1      42.035  28.701  33.437  1.00  0.00     0.037 A 
ATOM     62  C   UNL A   1      37.266  32.765  33.066  1.00  0.00     0.049 A 
ATOM     63  C   UNL A   1      41.909  29.938  34.303  1.00  0.00     0.074 A 
ATOM     64  C   UNL A   1      36.779  31.870  34.002  1.00  0.00     0.029 A 
ATOM     65  N   UNL A   1      38.532  33.113  33.499  1.00  0.00    -0.354 N 
ATOM     66  N   UNL A   1      40.818  30.637  34.426  1.00  0.00    -0.248 NA
ATOM     67  C   UNL A   1      43.038  30.546  35.010  1.00  0.00     0.031 C 
ATOM     68  C   UNL A   1      37.770  31.708  35.017  1.00  0.00     0.029 A 
ATOM     69  C   UNL A   1      38.849  32.512  34.697  1.00  0.00     0.049 A 
ATOM     70  H   UNL A   1      39.135  33.719  33.009  1.00  0.00     0.167 HD
ATOM     71  C   UNL A   1      41.089  31.789  35.115  1.00  0.00     0.074 A 
ATOM     72  C   UNL A   1      42.488  31.682  35.476  1.00  0.00     0.031 C 
ATOM     73  C   UNL A   1      40.156  32.771  35.277  1.00  0.00     0.037 A 
BRANCH  60  74
ATOM     74  C   UNL A   1      35.565  34.049  31.562  1.00  0.00     0.064 A 
ATOM     75  C   UNL A   1      34.722  33.798  30.450  1.00  0.00     0.173 A 
ATOM     76  C   UNL A   1      35.152  35.135  32.358  1.00  0.00     0.173 A 
ATOM     77  F   UNL A   1      34.943  32.767  29.622  1.00  0.00    -0.203 F 
ATOM     78  C   UNL A   1      33.621  34.600  30.134  1.00  0.00     0.198 A 
ATOM     79  C   UNL A   1      34.034  35.921  32.058  1.00  0.00     0.198 A 
ATOM     80  F   UNL A   1      35.810  35.517  33.452  1.00  0.00    -0.203 F 
ATOM     81  F   UNL A   1      32.902  34.337  29.035  1.00  0.00    -0.200 F 
ATOM     82  C   UNL A   1      33.280  35.667  30.935  1.00  0.00     0.200 A 
ATOM     83  F   UNL A   1      33.711  36.942  32.865  1.00  0.00    -0.200 F 
ATOM     84  F   UNL A   1      32.234  36.446  30.629  1.00  0.00    -0.200 F 
ENDBRANCH  60  74
BRANCH  61  85
ATOM     85  C   UNL A   1      43.234  28.355  32.630  1.00  0.00     0.064 A 
ATOM     86  C   UNL A   1      43.730  27.040  32.702  1.00  0.00     0.173 A 
ATOM     87  C   UNL A   1      43.603  29.134  31.526  1.00  0.00     0.173 A 
ATOM     88  F   UNL A   1      43.395  26.253  33.736  1.00  0.00    -0.203 F 
ATOM     89  C   UNL A   1      44.457  26.487  31.650  1.00  0.00     0.198 A 
ATOM     90  C   UNL A   1      44.343  28.580  30.483  1.00  0.00     0.198 A 
ATOM     91  F   UNL A   1      43.144  30.388  31.397  1.00  0.00    -0.203 F 
ATOM     92  F   UNL A   1      44.812  25.195  31.690  1.00  0.00    -0.200 F 
ATOM     93  C   UNL A   1      44.735  27.250  30.528  1.00  0.00     0.200 A 
ATOM     94  F   UNL A   1      44.588  29.308  29.384  1.00  0.00    -0.200 F 
ATOM     95  F   UNL A   1      45.342  26.692  29.471  1.00  0.00    -0.200 F 
ENDBRANCH  61  85
BRANCH  73  96
ATOM     96  C   UNL A   1      40.408  34.081  35.969  1.00  0.00     0.064 A 
ATOM     97  C   UNL A   1      41.237  35.074  35.431  1.00  0.00     0.173 A 
ATOM     98  C   UNL A   1      39.915  34.323  37.271  1.00  0.00     0.173 A 
ATOM     99  F   UNL A   1      41.795  34.921  34.221  1.00  0.00    -0.203 F 
ATOM    100  C   UNL A   1      41.532  36.245  36.139  1.00  0.00     0.198 A 
ATOM    101  C   UNL A   1      40.254  35.463  37.996  1.00  0.00     0.198 A 
ATOM    102  F   UNL A   1      39.066  33.475  37.868  1.00  0.00    -0.203 F 
ATOM    103  F   UNL A   1      42.291  37.192  35.571  1.00  0.00    -0.200 F 
ATOM    104  C   UNL A   1      41.055  36.430  37.425  1.00  0.00     0.200 A 
ATOM    105  F   UNL A   1      39.793  35.618  39.245  1.00  0.00    -0.200 F 
ATOM    106  F   UNL A   1      41.361  37.540  38.111  1.00  0.00    -0.200 F 
ENDBRANCH  73  96
ENDBRANCH  47  48
ENDBRANCH  39  42
ENDBRANCH  37  38
ENDBRANCH  36  37
ENDBRANCH  35  36
ENDBRANCH  34  35
ENDBRANCH   1  34
TORSDOF 17
ENDMDL
