MODEL 1
REMARK VINA RESULT:     -10.4      0.000      0.000
REMARK SMILES C[C@H](C[NH3+])CS/C=C/C(=O)NCCCCCCNC(=O)c1ccc(-c2c3nc(c(-c4c(F)c(F)c(F)c(F)c4F)c4ccc([nH]4)c(-c4c(F)c(F)c(F)c(F)c4F)c4nc(c(-c5c(F)c(F)c(F)c(F)c5F)c5ccc2[nH]5)C=C4)C=C3)cc1
REMARK SMILES IDX 13 1 12 2 11 3 9 4 10 5 8 7 7 8 6 9 5 10 2 11 1 12 3 13 4 14
REMARK SMILES IDX 14 18 15 19 16 20 17 21 18 22 19 23 20 25 21 26 22 27 83 28
REMARK SMILES IDX 23 29 82 30 24 31 25 32 26 33 76 34 27 35 81 36 75 37 77 38
REMARK SMILES IDX 28 39 80 40 74 41 73 42 29 44 61 45 41 46 60 47 42 48 45 49
REMARK SMILES IDX 59 50 78 51 43 52 44 53 58 55 79 56 46 57 30 58 31 59 39 60
REMARK SMILES IDX 32 61 33 62 37 63 40 64 34 65 35 66 38 67 36 68 62 69 63 70
REMARK SMILES IDX 71 71 64 72 65 73 69 74 72 75 66 76 67 77 70 78 68 79 47 80
REMARK SMILES IDX 48 81 56 82 49 83 50 84 54 85 57 86 51 87 52 88 55 89 53 90
REMARK H PARENT 11 6 4 15 4 16 4 17 18 24 77 43 45 54
REMARK Flexibility Score: inf
ROOT
ATOM      1  C   UNL A   1      32.864  28.651  27.607  1.00  0.00     0.021 C 
ENDROOT
BRANCH   1   2
ATOM      2  C   UNL A   1      31.461  28.059  27.629  1.00  0.00     0.116 C 
BRANCH   2   3
ATOM      3  N   UNL A   1      31.451  26.713  27.092  1.00  0.00    -0.353 N 
ATOM      4  C   UNL A   1      31.043  26.289  25.868  1.00  0.00     0.244 C 
ATOM      5  O   UNL A   1      30.899  25.093  25.633  1.00  0.00    -0.270 OA
ATOM      6  H   UNL A   1      31.785  26.011  27.697  1.00  0.00     0.163 HD
BRANCH   4   7
ATOM      7  C   UNL A   1      30.766  27.277  24.807  1.00  0.00     0.078 C 
ATOM      8  C   UNL A   1      31.775  27.725  24.048  1.00  0.00     0.046 C 
BRANCH   8   9
ATOM      9  S   UNL A   1      31.559  28.652  22.615  1.00  0.00    -0.133 SA
BRANCH   9  10
ATOM     10  C   UNL A   1      29.751  28.553  22.382  1.00  0.00     0.083 C 
BRANCH  10  11
ATOM     11  C   UNL A   1      28.920  29.816  22.720  1.00  0.00     0.051 C 
ATOM     12  C   UNL A   1      27.490  29.357  23.039  1.00  0.00     0.014 C 
BRANCH  11  13
ATOM     13  C   UNL A   1      28.934  30.862  21.584  1.00  0.00     0.262 C 
BRANCH  13  14
ATOM     14  N   UNL A   1      29.307  32.212  22.001  1.00  0.00    -0.357 N 
ATOM     15  H   UNL A   1      29.368  32.816  21.182  1.00  0.00     0.344 HD
ATOM     16  H   UNL A   1      30.213  32.185  22.471  1.00  0.00     0.344 HD
ATOM     17  H   UNL A   1      28.603  32.577  22.642  1.00  0.00     0.344 HD
ENDBRANCH  13  14
ENDBRANCH  11  13
ENDBRANCH  10  11
ENDBRANCH   9  10
ENDBRANCH   8   9
ENDBRANCH   4   7
ENDBRANCH   2   3
ENDBRANCH   1   2
BRANCH   1  18
ATOM     18  C   UNL A   1      32.969  29.974  26.842  1.00  0.00     0.002 C 
BRANCH  18  19
ATOM     19  C   UNL A   1      31.633  30.574  26.393  1.00  0.00     0.002 C 
BRANCH  19  20
ATOM     20  C   UNL A   1      31.488  32.081  26.614  1.00  0.00     0.021 C 
BRANCH  20  21
ATOM     21  C   UNL A   1      32.630  32.713  27.398  1.00  0.00     0.116 C 
BRANCH  21  22
ATOM     22  N   UNL A   1      32.392  34.122  27.662  1.00  0.00    -0.352 N 
ATOM     23  C   UNL A   1      32.985  34.932  28.600  1.00  0.00     0.251 C 
ATOM     24  H   UNL A   1      31.715  34.554  27.093  1.00  0.00     0.163 HD
ATOM     25  O   UNL A   1      32.540  36.045  28.840  1.00  0.00    -0.269 OA
BRANCH  23  26
ATOM     26  C   UNL A   1      34.166  34.429  29.332  1.00  0.00     0.039 A 
ATOM     27  C   UNL A   1      33.985  33.775  30.551  1.00  0.00     0.014 A 
ATOM     28  C   UNL A   1      35.446  34.589  28.794  1.00  0.00     0.014 A 
ATOM     29  C   UNL A   1      35.089  33.226  31.209  1.00  0.00     0.010 A 
ATOM     30  C   UNL A   1      36.530  33.975  29.408  1.00  0.00     0.010 A 
ATOM     31  C   UNL A   1      36.364  33.295  30.626  1.00  0.00    -0.014 A 
BRANCH  31  32
ATOM     32  C   UNL A   1      37.557  32.696  31.274  1.00  0.00     0.031 A 
ATOM     33  C   UNL A   1      38.268  31.556  30.600  1.00  0.00     0.074 A 
ATOM     34  C   UNL A   1      37.942  33.110  32.495  1.00  0.00     0.049 A 
ATOM     35  N   UNL A   1      39.227  30.790  31.054  1.00  0.00    -0.248 NA
ATOM     36  C   UNL A   1      37.813  31.211  29.244  1.00  0.00     0.031 C 
ATOM     37  C   UNL A   1      37.318  34.191  33.259  1.00  0.00     0.029 A 
ATOM     38  N   UNL A   1      38.941  32.655  33.320  1.00  0.00    -0.354 N 
ATOM     39  C   UNL A   1      39.474  29.864  30.050  1.00  0.00     0.074 A 
ATOM     40  C   UNL A   1      38.528  30.125  28.988  1.00  0.00     0.031 C 
ATOM     41  C   UNL A   1      37.956  34.324  34.434  1.00  0.00     0.029 A 
ATOM     42  C   UNL A   1      38.999  33.307  34.527  1.00  0.00     0.049 A 
ATOM     43  H   UNL A   1      39.558  31.929  33.068  1.00  0.00     0.167 HD
ATOM     44  C   UNL A   1      40.420  28.896  30.010  1.00  0.00     0.037 A 
ATOM     45  C   UNL A   1      39.792  33.094  35.594  1.00  0.00     0.037 A 
ATOM     46  C   UNL A   1      41.371  28.656  31.063  1.00  0.00     0.049 A 
ATOM     47  C   UNL A   1      40.813  31.986  35.540  1.00  0.00     0.074 A 
ATOM     48  C   UNL A   1      42.397  27.729  31.104  1.00  0.00     0.029 A 
ATOM     49  N   UNL A   1      41.409  29.350  32.264  1.00  0.00    -0.354 N 
ATOM     50  N   UNL A   1      41.072  31.145  34.568  1.00  0.00    -0.248 NA
ATOM     51  C   UNL A   1      41.654  31.800  36.731  1.00  0.00     0.031 C 
ATOM     52  C   UNL A   1      43.022  27.825  32.350  1.00  0.00     0.029 A 
ATOM     53  C   UNL A   1      42.429  28.857  33.061  1.00  0.00     0.049 A 
ATOM     54  H   UNL A   1      40.802  30.084  32.513  1.00  0.00     0.167 HD
ATOM     55  C   UNL A   1      42.129  30.363  35.010  1.00  0.00     0.074 A 
ATOM     56  C   UNL A   1      42.467  30.828  36.339  1.00  0.00     0.031 C 
ATOM     57  C   UNL A   1      42.769  29.352  34.371  1.00  0.00     0.037 A 
BRANCH  44  58
ATOM     58  C   UNL A   1      40.466  28.021  28.789  1.00  0.00     0.064 A 
ATOM     59  C   UNL A   1      41.223  28.369  27.660  1.00  0.00     0.173 A 
ATOM     60  C   UNL A   1      39.766  26.806  28.757  1.00  0.00     0.173 A 
ATOM     61  F   UNL A   1      41.903  29.525  27.633  1.00  0.00    -0.203 F 
ATOM     62  C   UNL A   1      41.247  27.553  26.532  1.00  0.00     0.198 A 
ATOM     63  C   UNL A   1      39.820  25.975  27.641  1.00  0.00     0.198 A 
ATOM     64  F   UNL A   1      39.031  26.419  29.811  1.00  0.00    -0.203 F 
ATOM     65  F   UNL A   1      41.928  27.938  25.444  1.00  0.00    -0.200 F 
ATOM     66  C   UNL A   1      40.552  26.354  26.526  1.00  0.00     0.200 A 
ATOM     67  F   UNL A   1      39.161  24.808  27.644  1.00  0.00    -0.200 F 
ATOM     68  F   UNL A   1      40.580  25.567  25.441  1.00  0.00    -0.200 F 
ENDBRANCH  44  58
BRANCH  45  69
ATOM     69  C   UNL A   1      39.667  33.953  36.800  1.00  0.00     0.064 A 
ATOM     70  C   UNL A   1      38.905  33.537  37.902  1.00  0.00     0.173 A 
ATOM     71  C   UNL A   1      40.293  35.207  36.878  1.00  0.00     0.173 A 
ATOM     72  F   UNL A   1      38.271  32.356  37.869  1.00  0.00    -0.203 F 
ATOM     73  C   UNL A   1      38.756  34.351  39.024  1.00  0.00     0.198 A 
ATOM     74  C   UNL A   1      40.167  36.006  38.013  1.00  0.00     0.198 A 
ATOM     75  F   UNL A   1      41.038  35.650  35.855  1.00  0.00    -0.203 F 
ATOM     76  F   UNL A   1      37.980  33.949  40.041  1.00  0.00    -0.200 F 
ATOM     77  C   UNL A   1      39.391  35.582  39.080  1.00  0.00     0.200 A 
ATOM     78  F   UNL A   1      40.796  37.187  38.071  1.00  0.00    -0.200 F 
ATOM     79  F   UNL A   1      39.249  36.362  40.160  1.00  0.00    -0.200 F 
ENDBRANCH  45  69
BRANCH  57  80
ATOM     80  C   UNL A   1      43.941  28.720  35.061  1.00  0.00     0.064 A 
ATOM     81  C   UNL A   1      43.801  27.594  35.886  1.00  0.00     0.173 A 
ATOM     82  C   UNL A   1      45.238  29.210  34.833  1.00  0.00     0.173 A 
ATOM     83  F   UNL A   1      42.583  27.098  36.148  1.00  0.00    -0.203 F 
ATOM     84  C   UNL A   1      44.913  26.992  36.468  1.00  0.00     0.198 A 
ATOM     85  C   UNL A   1      46.349  28.585  35.390  1.00  0.00     0.198 A 
ATOM     86  F   UNL A   1      45.427  30.280  34.047  1.00  0.00    -0.203 F 
ATOM     87  F   UNL A   1      44.753  25.942  37.284  1.00  0.00    -0.200 F 
ATOM     88  C   UNL A   1      46.186  27.481  36.212  1.00  0.00     0.200 A 
ATOM     89  F   UNL A   1      47.579  29.049  35.126  1.00  0.00    -0.200 F 
ATOM     90  F   UNL A   1      47.257  26.887  36.758  1.00  0.00    -0.200 F 
ENDBRANCH  57  80
ENDBRANCH  31  32
ENDBRANCH  23  26
ENDBRANCH  21  22
ENDBRANCH  20  21
ENDBRANCH  19  20
ENDBRANCH  18  19
ENDBRANCH   1  18
TORSDOF 18
ENDMDL
MODEL 2
REMARK VINA RESULT:     -10.1      0.813      1.866
REMARK SMILES C[C@H](C[NH3+])CS/C=C/C(=O)NCCCCCCNC(=O)c1ccc(-c2c3nc(c(-c4c(F)c(F)c(F)c(F)c4F)c4ccc([nH]4)c(-c4c(F)c(F)c(F)c(F)c4F)c4nc(c(-c5c(F)c(F)c(F)c(F)c5F)c5ccc2[nH]5)C=C4)C=C3)cc1
REMARK SMILES IDX 13 1 12 2 11 3 9 4 10 5 8 7 7 8 6 9 5 10 2 11 1 12 3 13 4 14
REMARK SMILES IDX 14 18 15 19 16 20 17 21 18 22 19 23 20 25 21 26 22 27 83 28
REMARK SMILES IDX 23 29 82 30 24 31 25 32 26 33 76 34 27 35 81 36 75 37 77 38
REMARK SMILES IDX 28 39 80 40 74 41 73 42 29 44 61 45 41 46 60 47 42 48 45 49
REMARK SMILES IDX 59 50 78 51 43 52 44 53 58 55 79 56 46 57 30 58 31 59 39 60
REMARK SMILES IDX 32 61 33 62 37 63 40 64 34 65 35 66 38 67 36 68 62 69 63 70
REMARK SMILES IDX 71 71 64 72 65 73 69 74 72 75 66 76 67 77 70 78 68 79 47 80
REMARK SMILES IDX 48 81 56 82 49 83 50 84 54 85 57 86 51 87 52 88 55 89 53 90
REMARK H PARENT 11 6 4 15 4 16 4 17 18 24 77 43 45 54
REMARK Flexibility Score: inf
ROOT
ATOM      1  C   UNL A   1      33.720  28.967  26.956  1.00  0.00     0.021 C 
ENDROOT
BRANCH   1   2
ATOM      2  C   UNL A   1      32.999  27.625  26.917  1.00  0.00     0.116 C 
BRANCH   2   3
ATOM      3  N   UNL A   1      33.666  26.698  26.026  1.00  0.00    -0.353 N 
ATOM      4  C   UNL A   1      33.193  26.118  24.892  1.00  0.00     0.244 C 
ATOM      5  O   UNL A   1      33.799  25.194  24.359  1.00  0.00    -0.270 OA
ATOM      6  H   UNL A   1      34.587  26.454  26.277  1.00  0.00     0.163 HD
BRANCH   4   7
ATOM      7  C   UNL A   1      31.934  26.603  24.294  1.00  0.00     0.078 C 
ATOM      8  C   UNL A   1      31.974  27.599  23.399  1.00  0.00     0.046 C 
BRANCH   8   9
ATOM      9  S   UNL A   1      30.633  28.070  22.429  1.00  0.00    -0.133 SA
BRANCH   9  10
ATOM     10  C   UNL A   1      29.804  29.285  23.512  1.00  0.00     0.083 C 
BRANCH  10  11
ATOM     11  C   UNL A   1      28.977  30.400  22.825  1.00  0.00     0.051 C 
ATOM     12  C   UNL A   1      28.902  31.586  23.798  1.00  0.00     0.014 C 
BRANCH  11  13
ATOM     13  C   UNL A   1      27.568  29.928  22.406  1.00  0.00     0.262 C 
BRANCH  13  14
ATOM     14  N   UNL A   1      27.134  28.677  23.024  1.00  0.00    -0.357 N 
ATOM     15  H   UNL A   1      27.935  28.055  23.132  1.00  0.00     0.344 HD
ATOM     16  H   UNL A   1      26.434  28.229  22.431  1.00  0.00     0.344 HD
ATOM     17  H   UNL A   1      26.728  28.872  23.940  1.00  0.00     0.344 HD
ENDBRANCH  13  14
ENDBRANCH  11  13
ENDBRANCH  10  11
ENDBRANCH   9  10
ENDBRANCH   8   9
ENDBRANCH   4   7
ENDBRANCH   2   3
ENDBRANCH   1   2
BRANCH   1  18
ATOM     18  C   UNL A   1      33.045  30.061  26.124  1.00  0.00     0.002 C 
BRANCH  18  19
ATOM     19  C   UNL A   1      31.693  30.545  26.660  1.00  0.00     0.002 C 
BRANCH  19  20
ATOM     20  C   UNL A   1      31.530  32.064  26.738  1.00  0.00     0.021 C 
BRANCH  20  21
ATOM     21  C   UNL A   1      32.752  32.800  27.270  1.00  0.00     0.116 C 
BRANCH  21  22
ATOM     22  N   UNL A   1      32.451  34.181  27.605  1.00  0.00    -0.352 N 
ATOM     23  C   UNL A   1      32.985  34.959  28.605  1.00  0.00     0.251 C 
ATOM     24  H   UNL A   1      31.772  34.619  27.042  1.00  0.00     0.163 HD
ATOM     25  O   UNL A   1      32.489  36.038  28.892  1.00  0.00    -0.269 OA
BRANCH  23  26
ATOM     26  C   UNL A   1      34.165  34.461  29.341  1.00  0.00     0.039 A 
ATOM     27  C   UNL A   1      33.982  33.820  30.567  1.00  0.00     0.014 A 
ATOM     28  C   UNL A   1      35.445  34.614  28.803  1.00  0.00     0.014 A 
ATOM     29  C   UNL A   1      35.084  33.276  31.231  1.00  0.00     0.010 A 
ATOM     30  C   UNL A   1      36.527  34.004  29.424  1.00  0.00     0.010 A 
ATOM     31  C   UNL A   1      36.360  33.336  30.648  1.00  0.00    -0.014 A 
BRANCH  31  32
ATOM     32  C   UNL A   1      37.551  32.742  31.303  1.00  0.00     0.031 A 
ATOM     33  C   UNL A   1      38.275  31.610  30.628  1.00  0.00     0.074 A 
ATOM     34  C   UNL A   1      37.923  33.152  32.530  1.00  0.00     0.049 A 
ATOM     35  N   UNL A   1      39.236  30.849  31.086  1.00  0.00    -0.248 NA
ATOM     36  C   UNL A   1      37.834  31.269  29.266  1.00  0.00     0.031 C 
ATOM     37  C   UNL A   1      37.286  34.224  33.294  1.00  0.00     0.029 A 
ATOM     38  N   UNL A   1      38.919  32.698  33.360  1.00  0.00    -0.354 N 
ATOM     39  C   UNL A   1      39.497  29.929  30.079  1.00  0.00     0.074 A 
ATOM     40  C   UNL A   1      38.558  30.190  29.011  1.00  0.00     0.031 C 
ATOM     41  C   UNL A   1      37.913  34.355  34.475  1.00  0.00     0.029 A 
ATOM     42  C   UNL A   1      38.962  33.344  34.572  1.00  0.00     0.049 A 
ATOM     43  H   UNL A   1      39.542  31.978  33.110  1.00  0.00     0.167 HD
ATOM     44  C   UNL A   1      40.450  28.968  30.042  1.00  0.00     0.037 A 
ATOM     45  C   UNL A   1      39.748  33.130  35.644  1.00  0.00     0.037 A 
ATOM     46  C   UNL A   1      41.393  28.728  31.101  1.00  0.00     0.049 A 
ATOM     47  C   UNL A   1      40.776  32.030  35.592  1.00  0.00     0.074 A 
ATOM     48  C   UNL A   1      42.426  27.808  31.145  1.00  0.00     0.029 A 
ATOM     49  N   UNL A   1      41.417  29.416  32.306  1.00  0.00    -0.354 N 
ATOM     50  N   UNL A   1      41.049  31.196  34.618  1.00  0.00    -0.248 NA
ATOM     51  C   UNL A   1      41.609  31.843  36.789  1.00  0.00     0.031 C 
ATOM     52  C   UNL A   1      43.040  27.902  32.397  1.00  0.00     0.029 A 
ATOM     53  C   UNL A   1      42.434  28.925  33.109  1.00  0.00     0.049 A 
ATOM     54  H   UNL A   1      40.803  30.144  32.554  1.00  0.00     0.167 HD
ATOM     55  C   UNL A   1      42.108  30.418  35.064  1.00  0.00     0.074 A 
ATOM     56  C   UNL A   1      42.431  30.878  36.398  1.00  0.00     0.031 C 
ATOM     57  C   UNL A   1      42.759  29.415  34.424  1.00  0.00     0.037 A 
BRANCH  44  58
ATOM     58  C   UNL A   1      40.512  28.100  28.816  1.00  0.00     0.064 A 
ATOM     59  C   UNL A   1      41.276  28.460  27.696  1.00  0.00     0.173 A 
ATOM     60  C   UNL A   1      39.820  26.881  28.771  1.00  0.00     0.173 A 
ATOM     61  F   UNL A   1      41.950  29.620  27.681  1.00  0.00    -0.203 F 
ATOM     62  C   UNL A   1      41.315  27.650  26.563  1.00  0.00     0.198 A 
ATOM     63  C   UNL A   1      39.889  26.056  27.651  1.00  0.00     0.198 A 
ATOM     64  F   UNL A   1      39.078  26.483  29.817  1.00  0.00    -0.203 F 
ATOM     65  F   UNL A   1      42.003  28.045  25.483  1.00  0.00    -0.200 F 
ATOM     66  C   UNL A   1      40.627  26.447  26.545  1.00  0.00     0.200 A 
ATOM     67  F   UNL A   1      39.237  24.885  27.642  1.00  0.00    -0.200 F 
ATOM     68  F   UNL A   1      40.670  25.666  25.456  1.00  0.00    -0.200 F 
ENDBRANCH  44  58
BRANCH  45  69
ATOM     69  C   UNL A   1      39.607  33.982  36.853  1.00  0.00     0.064 A 
ATOM     70  C   UNL A   1      40.277  35.210  36.948  1.00  0.00     0.173 A 
ATOM     71  C   UNL A   1      38.812  33.589  37.942  1.00  0.00     0.173 A 
ATOM     72  F   UNL A   1      41.064  35.622  35.943  1.00  0.00    -0.203 F 
ATOM     73  C   UNL A   1      40.176  36.001  38.091  1.00  0.00     0.198 A 
ATOM     74  C   UNL A   1      38.689  34.395  39.071  1.00  0.00     0.198 A 
ATOM     75  F   UNL A   1      38.146  32.426  37.900  1.00  0.00    -0.203 F 
ATOM     76  F   UNL A   1      40.868  37.146  38.174  1.00  0.00    -0.200 F 
ATOM     77  C   UNL A   1      39.378  35.595  39.150  1.00  0.00     0.200 A 
ATOM     78  F   UNL A   1      37.903  34.007  40.085  1.00  0.00    -0.200 F 
ATOM     79  F   UNL A   1      39.280  36.356  40.248  1.00  0.00    -0.200 F 
ENDBRANCH  45  69
BRANCH  57  80
ATOM     80  C   UNL A   1      43.931  28.787  35.121  1.00  0.00     0.064 A 
ATOM     81  C   UNL A   1      45.229  29.304  35.004  1.00  0.00     0.173 A 
ATOM     82  C   UNL A   1      43.734  27.691  35.977  1.00  0.00     0.173 A 
ATOM     83  F   UNL A   1      45.473  30.339  34.188  1.00  0.00    -0.203 F 
ATOM     84  C   UNL A   1      46.289  28.737  35.708  1.00  0.00     0.198 A 
ATOM     85  C   UNL A   1      44.789  27.150  36.704  1.00  0.00     0.198 A 
ATOM     86  F   UNL A   1      42.510  27.164  36.129  1.00  0.00    -0.203 F 
ATOM     87  F   UNL A   1      47.528  29.222  35.552  1.00  0.00    -0.200 F 
ATOM     88  C   UNL A   1      46.067  27.668  36.564  1.00  0.00     0.200 A 
ATOM     89  F   UNL A   1      44.568  26.129  37.544  1.00  0.00    -0.200 F 
ATOM     90  F   UNL A   1      47.086  27.138  37.255  1.00  0.00    -0.200 F 
ENDBRANCH  57  80
ENDBRANCH  31  32
ENDBRANCH  23  26
ENDBRANCH  21  22
ENDBRANCH  20  21
ENDBRANCH  19  20
ENDBRANCH  18  19
ENDBRANCH   1  18
TORSDOF 18
ENDMDL
MODEL 3
REMARK VINA RESULT:     -10.1      4.338     10.432
REMARK SMILES C[C@H](C[NH3+])CS/C=C/C(=O)NCCCCCCNC(=O)c1ccc(-c2c3nc(c(-c4c(F)c(F)c(F)c(F)c4F)c4ccc([nH]4)c(-c4c(F)c(F)c(F)c(F)c4F)c4nc(c(-c5c(F)c(F)c(F)c(F)c5F)c5ccc2[nH]5)C=C4)C=C3)cc1
REMARK SMILES IDX 13 1 12 2 11 3 9 4 10 5 8 7 7 8 6 9 5 10 2 11 1 12 3 13 4 14
REMARK SMILES IDX 14 18 15 19 16 20 17 21 18 22 19 23 20 25 21 26 22 27 83 28
REMARK SMILES IDX 23 29 82 30 24 31 25 32 26 33 76 34 27 35 81 36 75 37 77 38
REMARK SMILES IDX 28 39 80 40 74 41 73 42 29 44 61 45 41 46 60 47 42 48 45 49
REMARK SMILES IDX 59 50 78 51 43 52 44 53 58 55 79 56 46 57 30 58 31 59 39 60
REMARK SMILES IDX 32 61 33 62 37 63 40 64 34 65 35 66 38 67 36 68 62 69 63 70
REMARK SMILES IDX 71 71 64 72 65 73 69 74 72 75 66 76 67 77 70 78 68 79 47 80
REMARK SMILES IDX 48 81 56 82 49 83 50 84 54 85 57 86 51 87 52 88 55 89 53 90
REMARK H PARENT 11 6 4 15 4 16 4 17 18 24 77 43 45 54
REMARK Flexibility Score: inf
ROOT
ATOM      1  C   UNL A   1      33.244  36.505  29.151  1.00  0.00     0.021 C 
ENDROOT
BRANCH   1   2
ATOM      2  C   UNL A   1      32.672  36.372  30.556  1.00  0.00     0.116 C 
BRANCH   2   3
ATOM      3  N   UNL A   1      33.297  37.309  31.468  1.00  0.00    -0.353 N 
ATOM      4  C   UNL A   1      33.850  37.071  32.685  1.00  0.00     0.244 C 
ATOM      5  O   UNL A   1      34.153  37.998  33.429  1.00  0.00    -0.270 OA
ATOM      6  H   UNL A   1      33.323  38.245  31.164  1.00  0.00     0.163 HD
BRANCH   4   7
ATOM      7  C   UNL A   1      34.089  35.681  33.119  1.00  0.00     0.078 C 
ATOM      8  C   UNL A   1      35.346  35.264  33.326  1.00  0.00     0.046 C 
BRANCH   8   9
ATOM      9  S   UNL A   1      35.749  33.777  34.091  1.00  0.00    -0.133 SA
BRANCH   9  10
ATOM     10  C   UNL A   1      37.264  33.299  33.189  1.00  0.00     0.083 C 
BRANCH  10  11
ATOM     11  C   UNL A   1      37.387  31.820  32.742  1.00  0.00     0.051 C 
ATOM     12  C   UNL A   1      35.973  31.314  32.422  1.00  0.00     0.014 C 
BRANCH  11  13
ATOM     13  C   UNL A   1      38.076  30.932  33.800  1.00  0.00     0.262 C 
BRANCH  13  14
ATOM     14  N   UNL A   1      37.702  29.520  33.749  1.00  0.00    -0.357 N 
ATOM     15  H   UNL A   1      37.012  29.324  34.473  1.00  0.00     0.344 HD
ATOM     16  H   UNL A   1      38.530  28.943  33.903  1.00  0.00     0.344 HD
ATOM     17  H   UNL A   1      37.305  29.305  32.833  1.00  0.00     0.344 HD
ENDBRANCH  13  14
ENDBRANCH  11  13
ENDBRANCH  10  11
ENDBRANCH   9  10
ENDBRANCH   8   9
ENDBRANCH   4   7
ENDBRANCH   2   3
ENDBRANCH   1   2
BRANCH   1  18
ATOM     18  C   UNL A   1      34.178  35.360  28.748  1.00  0.00     0.002 C 
BRANCH  18  19
ATOM     19  C   UNL A   1      34.207  34.172  29.716  1.00  0.00     0.002 C 
BRANCH  19  20
ATOM     20  C   UNL A   1      35.198  33.064  29.357  1.00  0.00     0.021 C 
BRANCH  20  21
ATOM     21  C   UNL A   1      35.134  32.610  27.906  1.00  0.00     0.116 C 
BRANCH  21  22
ATOM     22  N   UNL A   1      34.356  31.393  27.751  1.00  0.00    -0.352 N 
ATOM     23  C   UNL A   1      34.788  30.088  27.769  1.00  0.00     0.251 C 
ATOM     24  H   UNL A   1      33.389  31.519  27.614  1.00  0.00     0.163 HD
ATOM     25  O   UNL A   1      34.049  29.178  27.425  1.00  0.00    -0.269 OA
BRANCH  23  26
ATOM     26  C   UNL A   1      36.172  29.802  28.198  1.00  0.00     0.039 A 
ATOM     27  C   UNL A   1      36.403  29.345  29.496  1.00  0.00     0.014 A 
ATOM     28  C   UNL A   1      37.233  29.968  27.303  1.00  0.00     0.014 A 
ATOM     29  C   UNL A   1      37.700  28.995  29.883  1.00  0.00     0.010 A 
ATOM     30  C   UNL A   1      38.507  29.547  27.663  1.00  0.00     0.010 A 
ATOM     31  C   UNL A   1      38.754  29.064  28.959  1.00  0.00    -0.014 A 
BRANCH  31  32
ATOM     32  C   UNL A   1      40.139  28.671  29.319  1.00  0.00     0.031 A 
ATOM     33  C   UNL A   1      40.993  29.621  30.111  1.00  0.00     0.074 A 
ATOM     34  C   UNL A   1      40.653  27.515  28.861  1.00  0.00     0.049 A 
ATOM     35  N   UNL A   1      42.267  29.549  30.402  1.00  0.00    -0.248 NA
ATOM     36  C   UNL A   1      40.329  30.833  30.617  1.00  0.00     0.031 C 
ATOM     37  C   UNL A   1      39.931  26.522  28.065  1.00  0.00     0.029 A 
ATOM     38  N   UNL A   1      41.916  26.987  28.985  1.00  0.00    -0.354 N 
ATOM     39  C   UNL A   1      42.559  30.711  31.102  1.00  0.00     0.074 A 
ATOM     40  C   UNL A   1      41.346  31.498  31.145  1.00  0.00     0.031 C 
ATOM     41  C   UNL A   1      40.757  25.501  27.781  1.00  0.00     0.029 A 
ATOM     42  C   UNL A   1      42.078  25.789  28.332  1.00  0.00     0.049 A 
ATOM     43  H   UNL A   1      42.635  27.427  29.493  1.00  0.00     0.167 HD
ATOM     44  C   UNL A   1      43.728  31.078  31.677  1.00  0.00     0.037 A 
ATOM     45  C   UNL A   1      43.175  25.023  28.180  1.00  0.00     0.037 A 
ATOM     46  C   UNL A   1      44.925  30.280  31.647  1.00  0.00     0.049 A 
ATOM     47  C   UNL A   1      44.474  25.471  28.798  1.00  0.00     0.074 A 
ATOM     48  C   UNL A   1      46.151  30.541  32.233  1.00  0.00     0.029 A 
ATOM     49  N   UNL A   1      45.045  29.064  30.990  1.00  0.00    -0.354 N 
ATOM     50  N   UNL A   1      44.730  26.549  29.499  1.00  0.00    -0.248 NA
ATOM     51  C   UNL A   1      45.638  24.594  28.604  1.00  0.00     0.031 C 
ATOM     52  C   UNL A   1      47.028  29.509  31.887  1.00  0.00     0.029 A 
ATOM     53  C   UNL A   1      46.331  28.571  31.140  1.00  0.00     0.049 A 
ATOM     54  H   UNL A   1      44.323  28.616  30.492  1.00  0.00     0.167 HD
ATOM     55  C   UNL A   1      46.065  26.459  29.867  1.00  0.00     0.074 A 
ATOM     56  C   UNL A   1      46.569  25.220  29.312  1.00  0.00     0.031 C 
ATOM     57  C   UNL A   1      46.808  27.322  30.604  1.00  0.00     0.037 A 
BRANCH  44  58
ATOM     58  C   UNL A   1      43.769  32.405  32.381  1.00  0.00     0.064 A 
ATOM     59  C   UNL A   1      43.472  32.525  33.747  1.00  0.00     0.173 A 
ATOM     60  C   UNL A   1      44.135  33.569  31.687  1.00  0.00     0.173 A 
ATOM     61  F   UNL A   1      43.106  31.446  34.456  1.00  0.00    -0.203 F 
ATOM     62  C   UNL A   1      43.503  33.763  34.383  1.00  0.00     0.198 A 
ATOM     63  C   UNL A   1      44.200  34.800  32.334  1.00  0.00     0.198 A 
ATOM     64  F   UNL A   1      44.436  33.512  30.381  1.00  0.00    -0.203 F 
ATOM     65  F   UNL A   1      43.156  33.861  35.673  1.00  0.00    -0.200 F 
ATOM     66  C   UNL A   1      43.874  34.898  33.678  1.00  0.00     0.200 A 
ATOM     67  F   UNL A   1      44.575  35.893  31.654  1.00  0.00    -0.200 F 
ATOM     68  F   UNL A   1      43.909  36.089  34.292  1.00  0.00    -0.200 F 
ENDBRANCH  44  58
BRANCH  45  69
ATOM     69  C   UNL A   1      43.093  23.745  27.425  1.00  0.00     0.064 A 
ATOM     70  C   UNL A   1      43.498  23.676  26.085  1.00  0.00     0.173 A 
ATOM     71  C   UNL A   1      42.602  22.571  28.018  1.00  0.00     0.173 A 
ATOM     72  F   UNL A   1      43.956  24.775  25.467  1.00  0.00    -0.203 F 
ATOM     73  C   UNL A   1      43.394  22.490  25.360  1.00  0.00     0.198 A 
ATOM     74  C   UNL A   1      42.527  21.379  27.300  1.00  0.00     0.198 A 
ATOM     75  F   UNL A   1      42.206  22.581  29.299  1.00  0.00    -0.203 F 
ATOM     76  F   UNL A   1      43.742  22.467  24.065  1.00  0.00    -0.200 F 
ATOM     77  C   UNL A   1      42.914  21.341  25.970  1.00  0.00     0.200 A 
ATOM     78  F   UNL A   1      42.078  20.267  27.898  1.00  0.00    -0.200 F 
ATOM     79  F   UNL A   1      42.817  20.201  25.273  1.00  0.00    -0.200 F 
ENDBRANCH  45  69
BRANCH  57  80
ATOM     80  C   UNL A   1      48.223  26.935  30.916  1.00  0.00     0.064 A 
ATOM     81  C   UNL A   1      49.302  27.365  30.129  1.00  0.00     0.173 A 
ATOM     82  C   UNL A   1      48.508  26.180  32.065  1.00  0.00     0.173 A 
ATOM     83  F   UNL A   1      49.083  28.075  29.013  1.00  0.00    -0.203 F 
ATOM     84  C   UNL A   1      50.611  27.040  30.474  1.00  0.00     0.198 A 
ATOM     85  C   UNL A   1      49.819  25.886  32.425  1.00  0.00     0.198 A 
ATOM     86  F   UNL A   1      47.512  25.751  32.855  1.00  0.00    -0.203 F 
ATOM     87  F   UNL A   1      51.624  27.427  29.688  1.00  0.00    -0.200 F 
ATOM     88  C   UNL A   1      50.870  26.310  31.626  1.00  0.00     0.200 A 
ATOM     89  F   UNL A   1      50.067  25.197  33.547  1.00  0.00    -0.200 F 
ATOM     90  F   UNL A   1      52.132  26.016  31.966  1.00  0.00    -0.200 F 
ENDBRANCH  57  80
ENDBRANCH  31  32
ENDBRANCH  23  26
ENDBRANCH  21  22
ENDBRANCH  20  21
ENDBRANCH  19  20
ENDBRANCH  18  19
ENDBRANCH   1  18
TORSDOF 18
ENDMDL
