MODEL 1
REMARK VINA RESULT:     -12.4      0.000      0.000
REMARK SMILES COc1cc(NC(=O)/C=C/c2cccc([N+](=O)[O-])c2)c(C(=O)NCCCCCCNC(=O)c2ccc(-c3c4nc(c(-c5c(F)c(F)c(F)c(F)c5F)c5ccc([nH]5)c(-c5c(F)c(F)c(F)c(F)c5F)c5nc(c(-c6c(F)c(F)c(F)c(F)c6F)c6ccc3[nH]6)C=C5)C=C4)cc2)cc1OC
REMARK SMILES IDX 25 1 24 2 23 3 21 4 22 5 20 7 3 8 4 9 97 10 5 11 96 12 2 13
REMARK SMILES IDX 1 14 98 15 99 16 6 17 7 18 8 20 9 21 10 22 11 23 12 24 19 25
REMARK SMILES IDX 13 26 15 27 14 28 16 29 17 30 18 31 26 32 27 33 28 34 29 35
REMARK SMILES IDX 30 36 31 37 32 39 33 40 34 41 95 42 35 43 94 44 36 45 37 46
REMARK SMILES IDX 38 47 88 48 39 49 93 50 87 51 89 52 40 53 92 54 86 55 85 56
REMARK SMILES IDX 41 58 73 59 53 60 72 61 54 62 57 63 71 64 90 65 55 66 56 67
REMARK SMILES IDX 70 69 91 70 58 71 42 72 43 73 51 74 44 75 45 76 49 77 52 78
REMARK SMILES IDX 46 79 47 80 50 81 48 82 74 83 75 84 83 85 76 86 77 87 81 88
REMARK SMILES IDX 84 89 78 90 79 91 82 92 80 93 59 94 60 95 68 96 61 97 62 98
REMARK SMILES IDX 66 99 69 100 63 101 64 102 67 103 65 104
REMARK H PARENT 23 6 6 19 30 38 89 57 57 68
REMARK Flexibility Score: inf
ROOT
ATOM      1  C   UNL A   1      36.579  22.476  23.463  1.00  0.00     0.021 C 
ENDROOT
BRANCH   1   2
ATOM      2  C   UNL A   1      35.181  23.096  23.491  1.00  0.00     0.116 C 
BRANCH   2   3
ATOM      3  N   UNL A   1      34.807  23.372  24.866  1.00  0.00    -0.352 N 
ATOM      4  C   UNL A   1      33.972  24.315  25.407  1.00  0.00     0.253 C 
ATOM      5  O   UNL A   1      33.865  24.362  26.633  1.00  0.00    -0.269 OA
ATOM      6  H   UNL A   1      35.228  22.775  25.527  1.00  0.00     0.163 HD
BRANCH   4   7
ATOM      7  C   UNL A   1      33.112  25.184  24.557  1.00  0.00     0.067 A 
ATOM      8  C   UNL A   1      31.565  26.562  22.674  1.00  0.00     0.162 A 
ATOM      9  C   UNL A   1      30.990  25.607  23.527  1.00  0.00     0.077 A 
ATOM     10  C   UNL A   1      32.911  26.886  22.815  1.00  0.00     0.161 A 
ATOM     11  C   UNL A   1      31.715  24.998  24.553  1.00  0.00     0.058 A 
ATOM     12  C   UNL A   1      33.671  26.192  23.759  1.00  0.00     0.066 A 
BRANCH   8  13
ATOM     13  O   UNL A   1      30.746  27.317  21.877  1.00  0.00    -0.493 OA
ATOM     14  C   UNL A   1      29.929  28.246  22.583  1.00  0.00     0.278 C 
ENDBRANCH   8  13
BRANCH  10  15
ATOM     15  O   UNL A   1      33.618  27.840  22.135  1.00  0.00    -0.493 OA
ATOM     16  C   UNL A   1      33.746  29.109  22.762  1.00  0.00     0.278 C 
ENDBRANCH  10  15
BRANCH  11  17
ATOM     17  N   UNL A   1      31.116  24.284  25.626  1.00  0.00    -0.322 N 
ATOM     18  C   UNL A   1      30.864  22.968  25.895  1.00  0.00     0.248 C 
ATOM     19  H   UNL A   1      30.808  24.880  26.346  1.00  0.00     0.170 HD
ATOM     20  O   UNL A   1      30.279  22.649  26.929  1.00  0.00    -0.270 OA
BRANCH  18  21
ATOM     21  C   UNL A   1      31.332  21.894  25.001  1.00  0.00     0.072 C 
ATOM     22  C   UNL A   1      32.264  20.999  25.369  1.00  0.00     0.014 C 
BRANCH  22  23
ATOM     23  C   UNL A   1      32.547  19.790  24.580  1.00  0.00    -0.019 A 
ATOM     24  C   UNL A   1      32.382  19.787  23.182  1.00  0.00     0.008 A 
ATOM     25  C   UNL A   1      32.841  18.587  25.226  1.00  0.00     0.093 A 
ATOM     26  C   UNL A   1      32.490  18.610  22.438  1.00  0.00     0.008 A 
ATOM     27  C   UNL A   1      32.972  17.410  24.471  1.00  0.00     0.270 A 
ATOM     28  C   UNL A   1      32.783  17.414  23.083  1.00  0.00     0.085 A 
BRANCH  27  29
ATOM     29  N   UNL A   1      33.304  16.152  25.144  1.00  0.00     0.062 N 
ATOM     30  O   UNL A   1      34.354  15.583  24.815  1.00  0.00    -0.258 OA
ATOM     31  O   UNL A   1      32.517  15.735  26.007  1.00  0.00    -0.258 OA
ENDBRANCH  27  29
ENDBRANCH  22  23
ENDBRANCH  18  21
ENDBRANCH  11  17
ENDBRANCH   4   7
ENDBRANCH   2   3
ENDBRANCH   1   2
BRANCH   1  32
ATOM     32  C   UNL A   1      36.986  21.874  24.813  1.00  0.00     0.002 C 
BRANCH  32  33
ATOM     33  C   UNL A   1      36.709  20.372  24.945  1.00  0.00     0.002 C 
BRANCH  33  34
ATOM     34  C   UNL A   1      37.959  19.489  24.948  1.00  0.00     0.021 C 
BRANCH  34  35
ATOM     35  C   UNL A   1      39.127  20.075  25.731  1.00  0.00     0.116 C 
BRANCH  35  36
ATOM     36  N   UNL A   1      40.187  19.094  25.918  1.00  0.00    -0.352 N 
ATOM     37  C   UNL A   1      41.525  19.305  26.094  1.00  0.00     0.251 C 
ATOM     38  H   UNL A   1      39.902  18.152  25.916  1.00  0.00     0.163 HD
ATOM     39  O   UNL A   1      42.324  18.368  25.995  1.00  0.00    -0.269 OA
BRANCH  37  40
ATOM     40  C   UNL A   1      42.020  20.660  26.403  1.00  0.00     0.039 A 
ATOM     41  C   UNL A   1      42.333  20.987  27.724  1.00  0.00     0.014 A 
ATOM     42  C   UNL A   1      42.148  21.614  25.387  1.00  0.00     0.014 A 
ATOM     43  C   UNL A   1      42.801  22.267  28.026  1.00  0.00     0.010 A 
ATOM     44  C   UNL A   1      42.686  22.863  25.677  1.00  0.00     0.010 A 
ATOM     45  C   UNL A   1      42.992  23.209  27.001  1.00  0.00    -0.014 A 
BRANCH  45  46
ATOM     46  C   UNL A   1      43.456  24.584  27.302  1.00  0.00     0.031 A 
ATOM     47  C   UNL A   1      42.484  25.596  27.843  1.00  0.00     0.074 A 
ATOM     48  C   UNL A   1      44.729  24.933  27.045  1.00  0.00     0.049 A 
ATOM     49  N   UNL A   1      42.674  26.859  28.129  1.00  0.00    -0.248 NA
ATOM     50  C   UNL A   1      41.105  25.131  28.060  1.00  0.00     0.031 C 
ATOM     51  C   UNL A   1      45.751  24.049  26.487  1.00  0.00     0.029 A 
ATOM     52  N   UNL A   1      45.377  26.129  27.218  1.00  0.00    -0.354 N 
ATOM     53  C   UNL A   1      41.438  27.341  28.541  1.00  0.00     0.074 A 
ATOM     54  C   UNL A   1      40.493  26.253  28.405  1.00  0.00     0.031 C 
ATOM     55  C   UNL A   1      46.910  24.721  26.400  1.00  0.00     0.029 A 
ATOM     56  C   UNL A   1      46.703  26.090  26.863  1.00  0.00     0.049 A 
ATOM     57  H   UNL A   1      44.935  26.937  27.565  1.00  0.00     0.167 HD
ATOM     58  C   UNL A   1      41.123  28.569  29.015  1.00  0.00     0.037 A 
ATOM     59  C   UNL A   1      47.642  27.052  26.916  1.00  0.00     0.037 A 
ATOM     60  C   UNL A   1      42.075  29.638  29.171  1.00  0.00     0.049 A 
ATOM     61  C   UNL A   1      47.269  28.414  27.435  1.00  0.00     0.074 A 
ATOM     62  C   UNL A   1      41.876  30.905  29.691  1.00  0.00     0.029 A 
ATOM     63  N   UNL A   1      43.410  29.562  28.801  1.00  0.00    -0.354 N 
ATOM     64  N   UNL A   1      46.113  28.842  27.882  1.00  0.00    -0.248 NA
ATOM     65  C   UNL A   1      48.336  29.422  27.465  1.00  0.00     0.031 C 
ATOM     66  C   UNL A   1      43.081  31.609  29.596  1.00  0.00     0.029 A 
ATOM     67  C   UNL A   1      44.044  30.765  29.064  1.00  0.00     0.049 A 
ATOM     68  H   UNL A   1      43.844  28.769  28.410  1.00  0.00     0.167 HD
ATOM     69  C   UNL A   1      46.321  30.155  28.282  1.00  0.00     0.074 A 
ATOM     70  C   UNL A   1      47.718  30.451  28.027  1.00  0.00     0.031 C 
ATOM     71  C   UNL A   1      45.438  31.036  28.815  1.00  0.00     0.037 A 
BRANCH  58  72
ATOM     72  C   UNL A   1      39.689  28.813  29.388  1.00  0.00     0.064 A 
ATOM     73  C   UNL A   1      38.758  29.310  28.461  1.00  0.00     0.173 A 
ATOM     74  C   UNL A   1      39.239  28.562  30.693  1.00  0.00     0.173 A 
ATOM     75  F   UNL A   1      39.138  29.579  27.203  1.00  0.00    -0.203 F 
ATOM     76  C   UNL A   1      37.449  29.594  28.839  1.00  0.00     0.198 A 
ATOM     77  C   UNL A   1      37.919  28.814  31.059  1.00  0.00     0.198 A 
ATOM     78  F   UNL A   1      40.082  28.082  31.620  1.00  0.00    -0.203 F 
ATOM     79  F   UNL A   1      36.601  30.139  27.954  1.00  0.00    -0.200 F 
ATOM     80  C   UNL A   1      37.029  29.343  30.136  1.00  0.00     0.200 A 
ATOM     81  F   UNL A   1      37.511  28.560  32.310  1.00  0.00    -0.200 F 
ATOM     82  F   UNL A   1      35.771  29.624  30.501  1.00  0.00    -0.200 F 
ENDBRANCH  58  72
BRANCH  59  83
ATOM     83  C   UNL A   1      49.039  26.739  26.523  1.00  0.00     0.064 A 
ATOM     84  C   UNL A   1      49.455  26.891  25.192  1.00  0.00     0.173 A 
ATOM     85  C   UNL A   1      49.989  26.307  27.459  1.00  0.00     0.173 A 
ATOM     86  F   UNL A   1      48.576  27.285  24.259  1.00  0.00    -0.203 F 
ATOM     87  C   UNL A   1      50.763  26.608  24.810  1.00  0.00     0.198 A 
ATOM     88  C   UNL A   1      51.304  26.048  27.080  1.00  0.00     0.198 A 
ATOM     89  F   UNL A   1      49.643  26.154  28.746  1.00  0.00    -0.203 F 
ATOM     90  F   UNL A   1      51.124  26.727  23.525  1.00  0.00    -0.200 F 
ATOM     91  C   UNL A   1      51.689  26.193  25.755  1.00  0.00     0.200 A 
ATOM     92  F   UNL A   1      52.200  25.661  27.998  1.00  0.00    -0.200 F 
ATOM     93  F   UNL A   1      52.951  25.929  25.389  1.00  0.00    -0.200 F 
ENDBRANCH  59  83
BRANCH  71  94
ATOM     94  C   UNL A   1      45.967  32.384  29.208  1.00  0.00     0.064 A 
ATOM     95  C   UNL A   1      45.936  33.476  28.328  1.00  0.00     0.173 A 
ATOM     96  C   UNL A   1      46.480  32.592  30.498  1.00  0.00     0.173 A 
ATOM     97  F   UNL A   1      45.470  33.323  27.080  1.00  0.00    -0.203 F 
ATOM     98  C   UNL A   1      46.425  34.721  28.716  1.00  0.00     0.198 A 
ATOM     99  C   UNL A   1      46.940  33.846  30.891  1.00  0.00     0.198 A 
ATOM    100  F   UNL A   1      46.527  31.582  31.379  1.00  0.00    -0.203 F 
ATOM    101  F   UNL A   1      46.433  35.737  27.843  1.00  0.00    -0.200 F 
ATOM    102  C   UNL A   1      46.920  34.906  29.999  1.00  0.00     0.200 A 
ATOM    103  F   UNL A   1      47.405  34.026  32.135  1.00  0.00    -0.200 F 
ATOM    104  F   UNL A   1      47.384  36.107  30.372  1.00  0.00    -0.200 F 
ENDBRANCH  71  94
ENDBRANCH  45  46
ENDBRANCH  37  40
ENDBRANCH  35  36
ENDBRANCH  34  35
ENDBRANCH  33  34
ENDBRANCH  32  33
ENDBRANCH   1  32
TORSDOF 19
ENDMDL
MODEL 2
REMARK VINA RESULT:     -12.4      0.470      7.110
REMARK SMILES COc1cc(NC(=O)/C=C/c2cccc([N+](=O)[O-])c2)c(C(=O)NCCCCCCNC(=O)c2ccc(-c3c4nc(c(-c5c(F)c(F)c(F)c(F)c5F)c5ccc([nH]5)c(-c5c(F)c(F)c(F)c(F)c5F)c5nc(c(-c6c(F)c(F)c(F)c(F)c6F)c6ccc3[nH]6)C=C5)C=C4)cc2)cc1OC
REMARK SMILES IDX 25 1 24 2 23 3 21 4 22 5 20 7 3 8 4 9 97 10 5 11 96 12 2 13
REMARK SMILES IDX 1 14 98 15 99 16 6 17 7 18 8 20 9 21 10 22 11 23 12 24 19 25
REMARK SMILES IDX 13 26 15 27 14 28 16 29 17 30 18 31 26 32 27 33 28 34 29 35
REMARK SMILES IDX 30 36 31 37 32 39 33 40 34 41 95 42 35 43 94 44 36 45 37 46
REMARK SMILES IDX 38 47 88 48 39 49 93 50 87 51 89 52 40 53 92 54 86 55 85 56
REMARK SMILES IDX 41 58 73 59 53 60 72 61 54 62 57 63 71 64 90 65 55 66 56 67
REMARK SMILES IDX 70 69 91 70 58 71 42 72 43 73 51 74 44 75 45 76 49 77 52 78
REMARK SMILES IDX 46 79 47 80 50 81 48 82 74 83 75 84 83 85 76 86 77 87 81 88
REMARK SMILES IDX 84 89 78 90 79 91 82 92 80 93 59 94 60 95 68 96 61 97 62 98
REMARK SMILES IDX 66 99 69 100 63 101 64 102 67 103 65 104
REMARK H PARENT 23 6 6 19 30 38 89 57 57 68
REMARK Flexibility Score: inf
ROOT
ATOM      1  C   UNL A   1      36.523  22.448  23.486  1.00  0.00     0.021 C 
ENDROOT
BRANCH   1   2
ATOM      2  C   UNL A   1      35.130  23.081  23.506  1.00  0.00     0.116 C 
BRANCH   2   3
ATOM      3  N   UNL A   1      34.742  23.338  24.881  1.00  0.00    -0.352 N 
ATOM      4  C   UNL A   1      33.907  24.278  25.427  1.00  0.00     0.253 C 
ATOM      5  O   UNL A   1      33.786  24.307  26.652  1.00  0.00    -0.269 OA
ATOM      6  H   UNL A   1      35.150  22.728  25.537  1.00  0.00     0.163 HD
BRANCH   4   7
ATOM      7  C   UNL A   1      33.065  25.168  24.580  1.00  0.00     0.067 A 
ATOM      8  C   UNL A   1      31.553  26.589  22.700  1.00  0.00     0.162 A 
ATOM      9  C   UNL A   1      30.960  25.621  23.526  1.00  0.00     0.077 A 
ATOM     10  C   UNL A   1      32.898  26.904  22.868  1.00  0.00     0.161 A 
ATOM     11  C   UNL A   1      31.667  24.989  24.552  1.00  0.00     0.058 A 
ATOM     12  C   UNL A   1      33.641  26.189  23.811  1.00  0.00     0.066 A 
BRANCH   8  13
ATOM     13  O   UNL A   1      30.750  27.363  21.906  1.00  0.00    -0.493 OA
ATOM     14  C   UNL A   1      29.902  28.260  22.619  1.00  0.00     0.278 C 
ENDBRANCH   8  13
BRANCH  10  15
ATOM     15  O   UNL A   1      33.620  27.866  22.218  1.00  0.00    -0.493 OA
ATOM     16  C   UNL A   1      33.724  29.131  22.860  1.00  0.00     0.278 C 
ENDBRANCH  10  15
BRANCH  11  17
ATOM     17  N   UNL A   1      31.048  24.258  25.601  1.00  0.00    -0.322 N 
ATOM     18  C   UNL A   1      30.794  22.938  25.846  1.00  0.00     0.248 C 
ATOM     19  H   UNL A   1      30.725  24.843  26.325  1.00  0.00     0.170 HD
ATOM     20  O   UNL A   1      30.189  22.602  26.863  1.00  0.00    -0.270 OA
BRANCH  18  21
ATOM     21  C   UNL A   1      31.281  21.879  24.945  1.00  0.00     0.072 C 
ATOM     22  C   UNL A   1      32.224  20.994  25.310  1.00  0.00     0.014 C 
BRANCH  22  23
ATOM     23  C   UNL A   1      32.529  19.796  24.512  1.00  0.00    -0.019 A 
ATOM     24  C   UNL A   1      32.314  19.782  23.121  1.00  0.00     0.008 A 
ATOM     25  C   UNL A   1      32.895  18.608  25.148  1.00  0.00     0.093 A 
ATOM     26  C   UNL A   1      32.443  18.610  22.375  1.00  0.00     0.008 A 
ATOM     27  C   UNL A   1      33.047  17.436  24.390  1.00  0.00     0.270 A 
ATOM     28  C   UNL A   1      32.809  17.428  23.009  1.00  0.00     0.085 A 
BRANCH  27  29
ATOM     29  N   UNL A   1      33.455  16.193  25.052  1.00  0.00     0.062 N 
ATOM     30  O   UNL A   1      34.501  15.653  24.666  1.00  0.00    -0.258 OA
ATOM     31  O   UNL A   1      32.733  15.761  25.962  1.00  0.00    -0.258 OA
ENDBRANCH  27  29
ENDBRANCH  22  23
ENDBRANCH  18  21
ENDBRANCH  11  17
ENDBRANCH   4   7
ENDBRANCH   2   3
ENDBRANCH   1   2
BRANCH   1  32
ATOM     32  C   UNL A   1      36.898  21.802  24.824  1.00  0.00     0.002 C 
BRANCH  32  33
ATOM     33  C   UNL A   1      36.669  20.287  24.880  1.00  0.00     0.002 C 
BRANCH  33  34
ATOM     34  C   UNL A   1      37.948  19.449  24.933  1.00  0.00     0.021 C 
BRANCH  34  35
ATOM     35  C   UNL A   1      39.061  20.069  25.768  1.00  0.00     0.116 C 
BRANCH  35  36
ATOM     36  N   UNL A   1      40.180  19.152  25.929  1.00  0.00    -0.352 N 
ATOM     37  C   UNL A   1      41.504  19.441  26.100  1.00  0.00     0.251 C 
ATOM     38  H   UNL A   1      39.952  18.195  25.912  1.00  0.00     0.163 HD
ATOM     39  O   UNL A   1      42.357  18.557  25.978  1.00  0.00    -0.269 OA
BRANCH  37  40
ATOM     40  C   UNL A   1      41.918  20.817  26.431  1.00  0.00     0.039 A 
ATOM     41  C   UNL A   1      42.160  21.155  27.764  1.00  0.00     0.014 A 
ATOM     42  C   UNL A   1      42.040  21.780  25.423  1.00  0.00     0.014 A 
ATOM     43  C   UNL A   1      42.551  22.455  28.086  1.00  0.00     0.010 A 
ATOM     44  C   UNL A   1      42.502  23.054  25.736  1.00  0.00     0.010 A 
ATOM     45  C   UNL A   1      42.736  23.410  27.072  1.00  0.00    -0.014 A 
BRANCH  45  46
ATOM     46  C   UNL A   1      43.118  24.805  27.394  1.00  0.00     0.031 A 
ATOM     47  C   UNL A   1      44.523  25.271  27.131  1.00  0.00     0.074 A 
ATOM     48  C   UNL A   1      42.223  25.631  27.965  1.00  0.00     0.049 A 
ATOM     49  N   UNL A   1      45.073  26.433  27.381  1.00  0.00    -0.248 NA
ATOM     50  C   UNL A   1      45.442  24.287  26.537  1.00  0.00     0.031 C 
ATOM     51  C   UNL A   1      40.844  25.280  28.299  1.00  0.00     0.029 A 
ATOM     52  N   UNL A   1      42.344  26.937  28.364  1.00  0.00    -0.354 N 
ATOM     53  C   UNL A   1      46.401  26.311  26.991  1.00  0.00     0.074 A 
ATOM     54  C   UNL A   1      46.589  24.945  26.551  1.00  0.00     0.031 C 
ATOM     55  C   UNL A   1      40.233  26.357  28.819  1.00  0.00     0.029 A 
ATOM     56  C   UNL A   1      41.186  27.460  28.884  1.00  0.00     0.049 A 
ATOM     57  H   UNL A   1      43.180  27.451  28.284  1.00  0.00     0.167 HD
ATOM     58  C   UNL A   1      47.369  27.257  26.976  1.00  0.00     0.037 A 
ATOM     59  C   UNL A   1      40.928  28.696  29.351  1.00  0.00     0.037 A 
ATOM     60  C   UNL A   1      47.166  28.621  27.391  1.00  0.00     0.049 A 
ATOM     61  C   UNL A   1      42.020  29.729  29.335  1.00  0.00     0.074 A 
ATOM     62  C   UNL A   1      48.061  29.676  27.367  1.00  0.00     0.029 A 
ATOM     63  N   UNL A   1      45.978  29.115  27.912  1.00  0.00    -0.354 N 
ATOM     64  N   UNL A   1      43.254  29.624  28.907  1.00  0.00    -0.248 NA
ATOM     65  C   UNL A   1      41.677  31.057  29.862  1.00  0.00     0.031 C 
ATOM     66  C   UNL A   1      47.428  30.797  27.913  1.00  0.00     0.029 A 
ATOM     67  C   UNL A   1      46.122  30.456  28.230  1.00  0.00     0.049 A 
ATOM     68  H   UNL A   1      45.154  28.591  28.036  1.00  0.00     0.167 HD
ATOM     69  C   UNL A   1      43.825  30.878  29.075  1.00  0.00     0.074 A 
ATOM     70  C   UNL A   1      42.798  31.730  29.642  1.00  0.00     0.031 C 
ATOM     71  C   UNL A   1      45.084  31.290  28.782  1.00  0.00     0.037 A 
BRANCH  58  72
ATOM     72  C   UNL A   1      48.730  26.838  26.499  1.00  0.00     0.064 A 
ATOM     73  C   UNL A   1      49.691  26.311  27.378  1.00  0.00     0.173 A 
ATOM     74  C   UNL A   1      49.088  26.978  25.150  1.00  0.00     0.173 A 
ATOM     75  F   UNL A   1      49.405  26.167  28.682  1.00  0.00    -0.203 F 
ATOM     76  C   UNL A   1      50.970  25.989  26.936  1.00  0.00     0.198 A 
ATOM     77  C   UNL A   1      50.358  26.621  24.703  1.00  0.00     0.198 A 
ATOM     78  F   UNL A   1      48.210  27.470  24.264  1.00  0.00    -0.203 F 
ATOM     79  F   UNL A   1      51.892  25.559  27.809  1.00  0.00    -0.200 F 
ATOM     80  C   UNL A   1      51.302  26.141  25.599  1.00  0.00     0.200 A 
ATOM     81  F   UNL A   1      50.674  26.757  23.408  1.00  0.00    -0.200 F 
ATOM     82  F   UNL A   1      52.537  25.838  25.174  1.00  0.00    -0.200 F 
ENDBRANCH  58  72
BRANCH  59  83
ATOM     83  C   UNL A   1      39.558  29.036  29.813  1.00  0.00     0.064 A 
ATOM     84  C   UNL A   1      39.198  28.865  31.157  1.00  0.00     0.173 A 
ATOM     85  C   UNL A   1      38.593  29.555  28.939  1.00  0.00     0.173 A 
ATOM     86  F   UNL A   1      40.083  28.355  32.026  1.00  0.00    -0.203 F 
ATOM     87  C   UNL A   1      37.920  29.186  31.606  1.00  0.00     0.198 A 
ATOM     88  C   UNL A   1      37.322  29.899  29.394  1.00  0.00     0.198 A 
ATOM     89  F   UNL A   1      38.891  29.745  27.644  1.00  0.00    -0.203 F 
ATOM     90  F   UNL A   1      37.591  28.979  32.889  1.00  0.00    -0.200 F 
ATOM     91  C   UNL A   1      36.985  29.709  30.727  1.00  0.00     0.200 A 
ATOM     92  F   UNL A   1      36.425  30.418  28.545  1.00  0.00    -0.200 F 
ATOM     93  F   UNL A   1      35.757  30.027  31.161  1.00  0.00    -0.200 F 
ENDBRANCH  59  83
BRANCH  71  94
ATOM     94  C   UNL A   1      45.405  32.736  29.021  1.00  0.00     0.064 A 
ATOM     95  C   UNL A   1      45.966  33.180  30.228  1.00  0.00     0.173 A 
ATOM     96  C   UNL A   1      45.179  33.685  28.011  1.00  0.00     0.173 A 
ATOM     97  F   UNL A   1      46.186  32.315  31.228  1.00  0.00    -0.203 F 
ATOM     98  C   UNL A   1      46.264  34.526  30.424  1.00  0.00     0.198 A 
ATOM     99  C   UNL A   1      45.507  35.024  28.202  1.00  0.00     0.198 A 
ATOM    100  F   UNL A   1      44.650  33.311  26.837  1.00  0.00    -0.203 F 
ATOM    101  F   UNL A   1      46.751  34.937  31.603  1.00  0.00    -0.200 F 
ATOM    102  C   UNL A   1      46.040  35.446  29.410  1.00  0.00     0.200 A 
ATOM    103  F   UNL A   1      45.302  35.908  27.215  1.00  0.00    -0.200 F 
ATOM    104  F   UNL A   1      46.333  36.739  29.600  1.00  0.00    -0.200 F 
ENDBRANCH  71  94
ENDBRANCH  45  46
ENDBRANCH  37  40
ENDBRANCH  35  36
ENDBRANCH  34  35
ENDBRANCH  33  34
ENDBRANCH  32  33
ENDBRANCH   1  32
TORSDOF 19
ENDMDL
MODEL 3
REMARK VINA RESULT:     -11.8      1.662      4.836
REMARK SMILES COc1cc(NC(=O)/C=C/c2cccc([N+](=O)[O-])c2)c(C(=O)NCCCCCCNC(=O)c2ccc(-c3c4nc(c(-c5c(F)c(F)c(F)c(F)c5F)c5ccc([nH]5)c(-c5c(F)c(F)c(F)c(F)c5F)c5nc(c(-c6c(F)c(F)c(F)c(F)c6F)c6ccc3[nH]6)C=C5)C=C4)cc2)cc1OC
REMARK SMILES IDX 25 1 24 2 23 3 21 4 22 5 20 7 3 8 4 9 97 10 5 11 96 12 2 13
REMARK SMILES IDX 1 14 98 15 99 16 6 17 7 18 8 20 9 21 10 22 11 23 12 24 19 25
REMARK SMILES IDX 13 26 15 27 14 28 16 29 17 30 18 31 26 32 27 33 28 34 29 35
REMARK SMILES IDX 30 36 31 37 32 39 33 40 34 41 95 42 35 43 94 44 36 45 37 46
REMARK SMILES IDX 38 47 88 48 39 49 93 50 87 51 89 52 40 53 92 54 86 55 85 56
REMARK SMILES IDX 41 58 73 59 53 60 72 61 54 62 57 63 71 64 90 65 55 66 56 67
REMARK SMILES IDX 70 69 91 70 58 71 42 72 43 73 51 74 44 75 45 76 49 77 52 78
REMARK SMILES IDX 46 79 47 80 50 81 48 82 74 83 75 84 83 85 76 86 77 87 81 88
REMARK SMILES IDX 84 89 78 90 79 91 82 92 80 93 59 94 60 95 68 96 61 97 62 98
REMARK SMILES IDX 66 99 69 100 63 101 64 102 67 103 65 104
REMARK H PARENT 23 6 6 19 30 38 89 57 57 68
REMARK Flexibility Score: inf
ROOT
ATOM      1  C   UNL A   1      36.778  23.026  25.372  1.00  0.00     0.021 C 
ENDROOT
BRANCH   1   2
ATOM      2  C   UNL A   1      35.676  24.017  24.995  1.00  0.00     0.116 C 
BRANCH   2   3
ATOM      3  N   UNL A   1      35.349  23.856  23.590  1.00  0.00    -0.352 N 
ATOM      4  C   UNL A   1      34.258  23.304  22.970  1.00  0.00     0.253 C 
ATOM      5  O   UNL A   1      34.252  23.251  21.740  1.00  0.00    -0.269 OA
ATOM      6  H   UNL A   1      36.032  24.206  22.973  1.00  0.00     0.163 HD
BRANCH   4   7
ATOM      7  C   UNL A   1      33.048  22.886  23.732  1.00  0.00     0.067 A 
ATOM      8  C   UNL A   1      30.920  22.312  25.458  1.00  0.00     0.162 A 
ATOM      9  C   UNL A   1      30.865  23.402  24.576  1.00  0.00     0.077 A 
ATOM     10  C   UNL A   1      32.017  21.456  25.424  1.00  0.00     0.161 A 
ATOM     11  C   UNL A   1      31.860  23.635  23.623  1.00  0.00     0.058 A 
ATOM     12  C   UNL A   1      33.071  21.753  24.557  1.00  0.00     0.066 A 
BRANCH   8  13
ATOM     13  O   UNL A   1      29.799  21.981  26.172  1.00  0.00    -0.493 OA
ATOM     14  C   UNL A   1      29.529  22.838  27.278  1.00  0.00     0.278 C 
ENDBRANCH   8  13
BRANCH  10  15
ATOM     15  O   UNL A   1      32.206  20.309  26.144  1.00  0.00    -0.493 OA
ATOM     16  C   UNL A   1      32.862  19.237  25.480  1.00  0.00     0.278 C 
ENDBRANCH  10  15
BRANCH  11  17
ATOM     17  N   UNL A   1      31.701  24.512  22.516  1.00  0.00    -0.322 N 
ATOM     18  C   UNL A   1      31.565  25.863  22.359  1.00  0.00     0.248 C 
ATOM     19  H   UNL A   1      31.684  24.031  21.657  1.00  0.00     0.170 HD
ATOM     20  O   UNL A   1      31.406  26.343  21.238  1.00  0.00    -0.270 OA
BRANCH  18  21
ATOM     21  C   UNL A   1      31.665  26.786  23.503  1.00  0.00     0.072 C 
ATOM     22  C   UNL A   1      32.793  26.937  24.218  1.00  0.00     0.014 C 
BRANCH  22  23
ATOM     23  C   UNL A   1      32.968  28.027  25.190  1.00  0.00    -0.019 A 
ATOM     24  C   UNL A   1      33.849  27.887  26.279  1.00  0.00     0.008 A 
ATOM     25  C   UNL A   1      32.151  29.157  25.126  1.00  0.00     0.093 A 
ATOM     26  C   UNL A   1      33.909  28.841  27.296  1.00  0.00     0.008 A 
ATOM     27  C   UNL A   1      32.231  30.127  26.139  1.00  0.00     0.270 A 
ATOM     28  C   UNL A   1      33.095  29.967  27.230  1.00  0.00     0.085 A 
BRANCH  27  29
ATOM     29  N   UNL A   1      31.391  31.326  26.062  1.00  0.00     0.062 N 
ATOM     30  O   UNL A   1      31.598  32.227  26.886  1.00  0.00    -0.258 OA
ATOM     31  O   UNL A   1      30.528  31.368  25.173  1.00  0.00    -0.258 OA
ENDBRANCH  27  29
ENDBRANCH  22  23
ENDBRANCH  18  21
ENDBRANCH  11  17
ENDBRANCH   4   7
ENDBRANCH   2   3
ENDBRANCH   1   2
BRANCH   1  32
ATOM     32  C   UNL A   1      36.989  21.942  24.309  1.00  0.00     0.002 C 
BRANCH  32  33
ATOM     33  C   UNL A   1      36.699  20.517  24.793  1.00  0.00     0.002 C 
BRANCH  33  34
ATOM     34  C   UNL A   1      37.927  19.609  24.883  1.00  0.00     0.021 C 
BRANCH  34  35
ATOM     35  C   UNL A   1      39.043  20.165  25.760  1.00  0.00     0.116 C 
BRANCH  35  36
ATOM     36  N   UNL A   1      40.121  19.200  25.924  1.00  0.00    -0.352 N 
ATOM     37  C   UNL A   1      41.458  19.431  26.083  1.00  0.00     0.251 C 
ATOM     38  H   UNL A   1      39.851  18.254  25.919  1.00  0.00     0.163 HD
ATOM     39  O   UNL A   1      42.270  18.508  25.965  1.00  0.00    -0.269 OA
BRANCH  37  40
ATOM     40  C   UNL A   1      41.935  20.791  26.395  1.00  0.00     0.039 A 
ATOM     41  C   UNL A   1      42.133  21.701  25.353  1.00  0.00     0.014 A 
ATOM     42  C   UNL A   1      42.213  21.157  27.716  1.00  0.00     0.014 A 
ATOM     43  C   UNL A   1      42.586  22.989  25.639  1.00  0.00     0.010 A 
ATOM     44  C   UNL A   1      42.592  22.463  28.007  1.00  0.00     0.010 A 
ATOM     45  C   UNL A   1      42.806  23.382  26.970  1.00  0.00    -0.014 A 
BRANCH  45  46
ATOM     46  C   UNL A   1      43.319  24.734  27.295  1.00  0.00     0.031 A 
ATOM     47  C   UNL A   1      42.395  25.755  27.897  1.00  0.00     0.074 A 
ATOM     48  C   UNL A   1      44.592  25.056  27.004  1.00  0.00     0.049 A 
ATOM     49  N   UNL A   1      42.629  27.004  28.212  1.00  0.00    -0.248 NA
ATOM     50  C   UNL A   1      41.011  25.322  28.148  1.00  0.00     0.031 C 
ATOM     51  C   UNL A   1      45.570  24.161  26.386  1.00  0.00     0.029 A 
ATOM     52  N   UNL A   1      45.279  26.228  27.190  1.00  0.00    -0.354 N 
ATOM     53  C   UNL A   1      41.422  27.506  28.680  1.00  0.00     0.074 A 
ATOM     54  C   UNL A   1      40.443  26.449  28.546  1.00  0.00     0.031 C 
ATOM     55  C   UNL A   1      46.744  24.804  26.279  1.00  0.00     0.029 A 
ATOM     56  C   UNL A   1      46.591  26.164  26.788  1.00  0.00     0.049 A 
ATOM     57  H   UNL A   1      44.872  27.037  27.574  1.00  0.00     0.167 HD
ATOM     58  C   UNL A   1      41.158  28.728  29.200  1.00  0.00     0.037 A 
ATOM     59  C   UNL A   1      47.558  27.098  26.836  1.00  0.00     0.037 A 
ATOM     60  C   UNL A   1      42.144  29.766  29.354  1.00  0.00     0.049 A 
ATOM     61  C   UNL A   1      47.241  28.453  27.408  1.00  0.00     0.074 A 
ATOM     62  C   UNL A   1      41.999  31.022  29.917  1.00  0.00     0.029 A 
ATOM     63  N   UNL A   1      43.464  29.664  28.937  1.00  0.00    -0.354 N 
ATOM     64  N   UNL A   1      46.113  28.899  27.906  1.00  0.00    -0.248 NA
ATOM     65  C   UNL A   1      48.336  29.430  27.429  1.00  0.00     0.031 C 
ATOM     66  C   UNL A   1      43.219  31.696  29.801  1.00  0.00     0.029 A 
ATOM     67  C   UNL A   1      44.140  30.842  29.212  1.00  0.00     0.049 A 
ATOM     68  H   UNL A   1      43.862  28.872  28.509  1.00  0.00     0.167 HD
ATOM     69  C   UNL A   1      46.371  30.194  28.335  1.00  0.00     0.074 A 
ATOM     70  C   UNL A   1      47.766  30.459  28.041  1.00  0.00     0.031 C 
ATOM     71  C   UNL A   1      45.531  31.082  28.924  1.00  0.00     0.037 A 
BRANCH  58  72
ATOM     72  C   UNL A   1      39.744  29.000  29.629  1.00  0.00     0.064 A 
ATOM     73  C   UNL A   1      39.293  28.697  30.924  1.00  0.00     0.173 A 
ATOM     74  C   UNL A   1      38.822  29.558  28.731  1.00  0.00     0.173 A 
ATOM     75  F   UNL A   1      40.131  28.151  31.819  1.00  0.00    -0.203 F 
ATOM     76  C   UNL A   1      37.964  28.892  31.287  1.00  0.00     0.198 A 
ATOM     77  C   UNL A   1      37.500  29.786  29.108  1.00  0.00     0.198 A 
ATOM     78  F   UNL A   1      39.197  29.873  27.482  1.00  0.00    -0.203 F 
ATOM     79  F   UNL A   1      37.542  28.524  32.505  1.00  0.00    -0.200 F 
ATOM     80  C   UNL A   1      37.069  29.439  30.381  1.00  0.00     0.200 A 
ATOM     81  F   UNL A   1      36.639  30.326  28.235  1.00  0.00    -0.200 F 
ATOM     82  F   UNL A   1      35.788  29.621  30.728  1.00  0.00    -0.200 F 
ENDBRANCH  58  72
BRANCH  59  83
ATOM     83  C   UNL A   1      48.932  26.759  26.388  1.00  0.00     0.064 A 
ATOM     84  C   UNL A   1      49.856  26.206  27.286  1.00  0.00     0.173 A 
ATOM     85  C   UNL A   1      49.346  26.957  25.064  1.00  0.00     0.173 A 
ATOM     86  F   UNL A   1      49.510  26.015  28.567  1.00  0.00    -0.203 F 
ATOM     87  C   UNL A   1      51.146  25.876  26.879  1.00  0.00     0.198 A 
ATOM     88  C   UNL A   1      50.629  26.604  24.652  1.00  0.00     0.198 A 
ATOM     89  F   UNL A   1      48.497  27.477  24.165  1.00  0.00    -0.203 F 
ATOM     90  F   UNL A   1      52.020  25.381  27.766  1.00  0.00    -0.200 F 
ATOM     91  C   UNL A   1      51.530  26.069  25.561  1.00  0.00     0.200 A 
ATOM     92  F   UNL A   1      50.993  26.779  23.374  1.00  0.00    -0.200 F 
ATOM     93  F   UNL A   1      52.769  25.744  25.168  1.00  0.00    -0.200 F 
ENDBRANCH  59  83
BRANCH  71  94
ATOM     94  C   UNL A   1      46.111  32.403  29.337  1.00  0.00     0.064 A 
ATOM     95  C   UNL A   1      46.090  33.519  28.487  1.00  0.00     0.173 A 
ATOM     96  C   UNL A   1      46.665  32.561  30.617  1.00  0.00     0.173 A 
ATOM     97  F   UNL A   1      45.587  33.413  27.248  1.00  0.00    -0.203 F 
ATOM     98  C   UNL A   1      46.626  34.737  28.894  1.00  0.00     0.198 A 
ATOM     99  C   UNL A   1      47.172  33.790  31.031  1.00  0.00     0.198 A 
ATOM    100  F   UNL A   1      46.704  31.527  31.470  1.00  0.00    -0.203 F 
ATOM    101  F   UNL A   1      46.642  35.776  28.047  1.00  0.00    -0.200 F 
ATOM    102  C   UNL A   1      47.160  34.874  30.167  1.00  0.00     0.200 A 
ATOM    103  F   UNL A   1      47.675  33.923  32.266  1.00  0.00    -0.200 F 
ATOM    104  F   UNL A   1      47.670  36.050  30.558  1.00  0.00    -0.200 F 
ENDBRANCH  71  94
ENDBRANCH  45  46
ENDBRANCH  37  40
ENDBRANCH  35  36
ENDBRANCH  34  35
ENDBRANCH  33  34
ENDBRANCH  32  33
ENDBRANCH   1  32
TORSDOF 19
ENDMDL
