MODEL 1
REMARK VINA RESULT:     -12.1      0.000      0.000
REMARK SMILES CCOC(=O)c1ccc(NC(=O)[C@H]2CC=CC[C@@]2(C)C(=O)NCCCCCCNC(=O)c2ccc(-c3c4nc(c(-c5c(F)c(F)c(F)c(F)c5F)c5ccc([nH]5)c(-c5c(F)c(F)c(F)c(F)c5F)c5nc(c(-c6c(F)c(F)c(F)c(F)c6F)c6ccc3[nH]6)C=C5)C=C4)cc2)cc1
REMARK SMILES IDX 24 1 23 2 22 3 20 4 21 5 18 7 13 8 14 9 15 10 17 11 19 12
REMARK SMILES IDX 16 13 11 14 10 15 12 17 9 18 6 19 7 20 96 21 8 22 95 23 4 24
REMARK SMILES IDX 5 25 3 26 2 27 1 28 25 29 26 30 27 31 28 32 29 33 30 34
REMARK SMILES IDX 31 36 32 37 33 38 94 39 34 40 93 41 35 42 36 43 37 44 87 45
REMARK SMILES IDX 38 46 92 47 86 48 88 49 39 50 91 51 85 52 84 53 40 55 72 56
REMARK SMILES IDX 52 57 71 58 53 59 56 60 70 61 89 62 54 63 55 64 69 66 90 67
REMARK SMILES IDX 57 68 41 69 42 70 50 71 43 72 44 73 48 74 51 75 45 76 46 77
REMARK SMILES IDX 49 78 47 79 73 80 74 81 82 82 75 83 76 84 80 85 83 86 77 87
REMARK SMILES IDX 78 88 81 89 79 90 58 91 59 92 67 93 60 94 61 95 65 96 68 97
REMARK SMILES IDX 62 98 63 99 66 100 64 101
REMARK H PARENT 22 6 10 16 29 35 88 54 56 65
REMARK Flexibility Score: inf
ROOT
ATOM      1  C   UNL A   1      35.691  22.502  26.236  1.00  0.00     0.021 C 
ENDROOT
BRANCH   1   2
ATOM      2  C   UNL A   1      34.239  22.034  26.255  1.00  0.00     0.116 C 
BRANCH   2   3
ATOM      3  N   UNL A   1      33.364  23.007  26.862  1.00  0.00    -0.356 N 
ATOM      4  C   UNL A   1      32.360  23.780  26.372  1.00  0.00     0.227 C 
ATOM      5  O   UNL A   1      31.665  24.324  27.240  1.00  0.00    -0.274 OA
ATOM      6  H   UNL A   1      33.526  23.136  27.824  1.00  0.00     0.163 HD
BRANCH   4   7
ATOM      7  C   UNL A   1      32.023  23.919  24.855  1.00  0.00     0.062 C 
ATOM      8  C   UNL A   1      33.046  24.802  24.013  1.00  0.00     0.098 C 
ATOM      9  C   UNL A   1      34.062  23.987  23.195  1.00  0.00     0.041 C 
ATOM     10  C   UNL A   1      33.674  22.612  22.761  1.00  0.00    -0.030 C 
ATOM     11  C   UNL A   1      31.723  22.493  24.303  1.00  0.00     0.044 C 
ATOM     12  C   UNL A   1      30.642  24.662  24.797  1.00  0.00     0.023 C 
ATOM     13  C   UNL A   1      32.629  21.950  23.253  1.00  0.00    -0.030 C 
BRANCH   8  14
ATOM     14  C   UNL A   1      33.611  25.958  24.885  1.00  0.00     0.228 C 
ATOM     15  N   UNL A   1      33.281  27.273  24.837  1.00  0.00    -0.326 N 
ATOM     16  H   UNL A   1      33.928  27.829  25.329  1.00  0.00     0.169 HD
ATOM     17  O   UNL A   1      34.476  25.715  25.738  1.00  0.00    -0.274 OA
BRANCH  15  18
ATOM     18  C   UNL A   1      32.264  28.041  24.272  1.00  0.00     0.041 A 
ATOM     19  C   UNL A   1      30.097  29.344  23.056  1.00  0.00     0.060 A 
ATOM     20  C   UNL A   1      30.557  29.751  24.315  1.00  0.00     0.018 A 
ATOM     21  C   UNL A   1      30.797  28.354  22.359  1.00  0.00     0.018 A 
ATOM     22  C   UNL A   1      31.655  29.116  24.906  1.00  0.00     0.027 A 
ATOM     23  C   UNL A   1      31.884  27.718  22.962  1.00  0.00     0.027 A 
BRANCH  19  24
ATOM     24  C   UNL A   1      28.878  29.985  22.504  1.00  0.00     0.338 C 
ATOM     25  O   UNL A   1      28.460  29.779  21.378  1.00  0.00    -0.246 OA
BRANCH  24  26
ATOM     26  O   UNL A   1      28.376  30.872  23.402  1.00  0.00    -0.462 OA
BRANCH  26  27
ATOM     27  C   UNL A   1      27.920  32.118  22.853  1.00  0.00     0.230 C 
ATOM     28  C   UNL A   1      28.966  33.202  23.037  1.00  0.00     0.049 C 
ENDBRANCH  26  27
ENDBRANCH  24  26
ENDBRANCH  19  24
ENDBRANCH  15  18
ENDBRANCH   8  14
ENDBRANCH   4   7
ENDBRANCH   2   3
ENDBRANCH   1   2
BRANCH   1  29
ATOM     29  C   UNL A   1      36.532  21.903  25.104  1.00  0.00     0.002 C 
BRANCH  29  30
ATOM     30  C   UNL A   1      36.555  20.371  25.051  1.00  0.00     0.002 C 
BRANCH  30  31
ATOM     31  C   UNL A   1      37.933  19.744  24.815  1.00  0.00     0.021 C 
BRANCH  31  32
ATOM     32  C   UNL A   1      39.009  20.163  25.812  1.00  0.00     0.116 C 
BRANCH  32  33
ATOM     33  N   UNL A   1      40.085  19.189  25.897  1.00  0.00    -0.352 N 
ATOM     34  C   UNL A   1      41.427  19.377  26.107  1.00  0.00     0.251 C 
ATOM     35  H   UNL A   1      39.807  18.250  25.789  1.00  0.00     0.163 HD
ATOM     36  O   UNL A   1      42.211  18.449  25.949  1.00  0.00    -0.269 OA
BRANCH  34  37
ATOM     37  C   UNL A   1      41.937  20.703  26.514  1.00  0.00     0.039 A 
ATOM     38  C   UNL A   1      42.377  21.588  25.525  1.00  0.00     0.014 A 
ATOM     39  C   UNL A   1      42.019  21.062  27.863  1.00  0.00     0.014 A 
ATOM     40  C   UNL A   1      42.851  22.851  25.884  1.00  0.00     0.010 A 
ATOM     41  C   UNL A   1      42.433  22.344  28.216  1.00  0.00     0.010 A 
ATOM     42  C   UNL A   1      42.858  23.248  27.230  1.00  0.00    -0.014 A 
BRANCH  42  43
ATOM     43  C   UNL A   1      43.311  24.604  27.628  1.00  0.00     0.031 A 
ATOM     44  C   UNL A   1      42.306  25.661  27.987  1.00  0.00     0.074 A 
ATOM     45  C   UNL A   1      44.624  24.898  27.607  1.00  0.00     0.049 A 
ATOM     46  N   UNL A   1      42.502  26.918  28.297  1.00  0.00    -0.248 NA
ATOM     47  C   UNL A   1      40.892  25.260  27.967  1.00  0.00     0.031 C 
ATOM     48  C   UNL A   1      45.692  23.969  27.236  1.00  0.00     0.029 A 
ATOM     49  N   UNL A   1      45.283  26.067  27.894  1.00  0.00    -0.354 N 
ATOM     50  C   UNL A   1      41.239  27.460  28.493  1.00  0.00     0.074 A 
ATOM     51  C   UNL A   1      40.282  26.408  28.220  1.00  0.00     0.031 C 
ATOM     52  C   UNL A   1      46.874  24.595  27.341  1.00  0.00     0.029 A 
ATOM     53  C   UNL A   1      46.646  25.977  27.752  1.00  0.00     0.049 A 
ATOM     54  H   UNL A   1      44.823  26.891  28.174  1.00  0.00     0.167 HD
ATOM     55  C   UNL A   1      40.908  28.712  28.888  1.00  0.00     0.037 A 
ATOM     56  C   UNL A   1      47.602  26.907  27.933  1.00  0.00     0.037 A 
ATOM     57  C   UNL A   1      41.864  29.747  29.186  1.00  0.00     0.049 A 
ATOM     58  C   UNL A   1      47.211  28.291  28.368  1.00  0.00     0.074 A 
ATOM     59  C   UNL A   1      41.632  31.028  29.657  1.00  0.00     0.029 A 
ATOM     60  N   UNL A   1      43.238  29.616  29.042  1.00  0.00    -0.354 N 
ATOM     61  N   UNL A   1      46.017  28.775  28.612  1.00  0.00    -0.248 NA
ATOM     62  C   UNL A   1      48.301  29.258  28.558  1.00  0.00     0.031 C 
ATOM     63  C   UNL A   1      42.864  31.686  29.758  1.00  0.00     0.029 A 
ATOM     64  C   UNL A   1      43.866  30.801  29.391  1.00  0.00     0.049 A 
ATOM     65  H   UNL A   1      43.699  28.802  28.735  1.00  0.00     0.167 HD
ATOM     66  C   UNL A   1      46.211  30.091  29.008  1.00  0.00     0.074 A 
ATOM     67  C   UNL A   1      47.641  30.326  28.983  1.00  0.00     0.031 C 
ATOM     68  C   UNL A   1      45.289  31.019  29.361  1.00  0.00     0.037 A 
BRANCH  55  69
ATOM     69  C   UNL A   1      39.447  29.032  29.014  1.00  0.00     0.064 A 
ATOM     70  C   UNL A   1      38.676  29.404  27.902  1.00  0.00     0.173 A 
ATOM     71  C   UNL A   1      38.806  28.954  30.260  1.00  0.00     0.173 A 
ATOM     72  F   UNL A   1      39.245  29.506  26.691  1.00  0.00    -0.203 F 
ATOM     73  C   UNL A   1      37.327  29.721  28.037  1.00  0.00     0.198 A 
ATOM     74  C   UNL A   1      37.449  29.243  30.387  1.00  0.00     0.198 A 
ATOM     75  F   UNL A   1      39.495  28.600  31.354  1.00  0.00    -0.203 F 
ATOM     76  F   UNL A   1      36.625  30.129  26.972  1.00  0.00    -0.200 F 
ATOM     77  C   UNL A   1      36.713  29.635  29.279  1.00  0.00     0.200 A 
ATOM     78  F   UNL A   1      36.856  29.151  31.585  1.00  0.00    -0.200 F 
ATOM     79  F   UNL A   1      35.416  29.943  29.409  1.00  0.00    -0.200 F 
ENDBRANCH  55  69
BRANCH  56  80
ATOM     80  C   UNL A   1      49.028  26.541  27.739  1.00  0.00     0.064 A 
ATOM     81  C   UNL A   1      49.845  26.242  28.837  1.00  0.00     0.173 A 
ATOM     82  C   UNL A   1      49.597  26.463  26.460  1.00  0.00     0.173 A 
ATOM     83  F   UNL A   1      49.349  26.324  30.081  1.00  0.00    -0.203 F 
ATOM     84  C   UNL A   1      51.181  25.887  28.665  1.00  0.00     0.198 A 
ATOM     85  C   UNL A   1      50.926  26.085  26.286  1.00  0.00     0.198 A 
ATOM     86  F   UNL A   1      48.853  26.736  25.377  1.00  0.00    -0.203 F 
ATOM     87  F   UNL A   1      51.948  25.636  29.734  1.00  0.00    -0.200 F 
ATOM     88  C   UNL A   1      51.718  25.801  27.390  1.00  0.00     0.200 A 
ATOM     89  F   UNL A   1      51.439  25.991  25.052  1.00  0.00    -0.200 F 
ATOM     90  F   UNL A   1      53.000  25.451  27.223  1.00  0.00    -0.200 F 
ENDBRANCH  56  80
BRANCH  68  91
ATOM     91  C   UNL A   1      45.800  32.368  29.775  1.00  0.00     0.064 A 
ATOM     92  C   UNL A   1      46.136  32.649  31.107  1.00  0.00     0.173 A 
ATOM     93  C   UNL A   1      45.992  33.378  28.820  1.00  0.00     0.173 A 
ATOM     94  F   UNL A   1      45.955  31.721  32.059  1.00  0.00    -0.203 F 
ATOM     95  C   UNL A   1      46.622  33.902  31.473  1.00  0.00     0.198 A 
ATOM     96  C   UNL A   1      46.504  34.620  29.185  1.00  0.00     0.198 A 
ATOM     97  F   UNL A   1      45.692  33.157  27.532  1.00  0.00    -0.203 F 
ATOM     98  F   UNL A   1      46.895  34.163  32.758  1.00  0.00    -0.200 F 
ATOM     99  C   UNL A   1      46.813  34.883  30.511  1.00  0.00     0.200 A 
ATOM    100  F   UNL A   1      46.698  35.563  28.253  1.00  0.00    -0.200 F 
ATOM    101  F   UNL A   1      47.287  36.085  30.864  1.00  0.00    -0.200 F 
ENDBRANCH  68  91
ENDBRANCH  42  43
ENDBRANCH  34  37
ENDBRANCH  32  33
ENDBRANCH  31  32
ENDBRANCH  30  31
ENDBRANCH  29  30
ENDBRANCH   1  29
TORSDOF 18
ENDMDL
MODEL 2
REMARK VINA RESULT:     -12.0      5.107     10.775
REMARK SMILES CCOC(=O)c1ccc(NC(=O)[C@H]2CC=CC[C@@]2(C)C(=O)NCCCCCCNC(=O)c2ccc(-c3c4nc(c(-c5c(F)c(F)c(F)c(F)c5F)c5ccc([nH]5)c(-c5c(F)c(F)c(F)c(F)c5F)c5nc(c(-c6c(F)c(F)c(F)c(F)c6F)c6ccc3[nH]6)C=C5)C=C4)cc2)cc1
REMARK SMILES IDX 24 1 23 2 22 3 20 4 21 5 18 7 13 8 14 9 15 10 17 11 19 12
REMARK SMILES IDX 16 13 11 14 10 15 12 17 9 18 6 19 7 20 96 21 8 22 95 23 4 24
REMARK SMILES IDX 5 25 3 26 2 27 1 28 25 29 26 30 27 31 28 32 29 33 30 34
REMARK SMILES IDX 31 36 32 37 33 38 94 39 34 40 93 41 35 42 36 43 37 44 87 45
REMARK SMILES IDX 38 46 92 47 86 48 88 49 39 50 91 51 85 52 84 53 40 55 72 56
REMARK SMILES IDX 52 57 71 58 53 59 56 60 70 61 89 62 54 63 55 64 69 66 90 67
REMARK SMILES IDX 57 68 41 69 42 70 50 71 43 72 44 73 48 74 51 75 45 76 46 77
REMARK SMILES IDX 49 78 47 79 73 80 74 81 82 82 75 83 76 84 80 85 83 86 77 87
REMARK SMILES IDX 78 88 81 89 79 90 58 91 59 92 67 93 60 94 61 95 65 96 68 97
REMARK SMILES IDX 62 98 63 99 66 100 64 101
REMARK H PARENT 22 6 10 16 29 35 88 54 56 65
REMARK Flexibility Score: inf
ROOT
ATOM      1  C   UNL A   1      33.214  29.009  25.724  1.00  0.00     0.021 C 
ENDROOT
BRANCH   1   2
ATOM      2  C   UNL A   1      32.687  29.022  24.292  1.00  0.00     0.116 C 
BRANCH   2   3
ATOM      3  N   UNL A   1      33.524  28.257  23.400  1.00  0.00    -0.356 N 
ATOM      4  C   UNL A   1      33.331  27.098  22.718  1.00  0.00     0.227 C 
ATOM      5  O   UNL A   1      34.187  26.865  21.855  1.00  0.00    -0.274 OA
ATOM      6  H   UNL A   1      34.413  28.655  23.256  1.00  0.00     0.163 HD
BRANCH   4   7
ATOM      7  C   UNL A   1      32.098  26.162  22.914  1.00  0.00     0.062 C 
ATOM      8  C   UNL A   1      32.085  25.336  24.275  1.00  0.00     0.098 C 
ATOM      9  C   UNL A   1      31.174  25.926  25.366  1.00  0.00     0.041 C 
ATOM     10  C   UNL A   1      30.001  26.743  24.935  1.00  0.00    -0.030 C 
ATOM     11  C   UNL A   1      30.817  26.993  22.597  1.00  0.00     0.044 C 
ATOM     12  C   UNL A   1      32.181  25.108  21.755  1.00  0.00     0.023 C 
ATOM     13  C   UNL A   1      29.842  27.214  23.700  1.00  0.00    -0.030 C 
BRANCH   8  14
ATOM     14  C   UNL A   1      33.533  24.961  24.696  1.00  0.00     0.228 C 
ATOM     15  N   UNL A   1      34.060  23.719  24.844  1.00  0.00    -0.326 N 
ATOM     16  H   UNL A   1      34.919  23.744  25.326  1.00  0.00     0.169 HD
ATOM     17  O   UNL A   1      34.349  25.858  24.949  1.00  0.00    -0.274 OA
BRANCH  15  18
ATOM     18  C   UNL A   1      33.702  22.419  24.491  1.00  0.00     0.041 A 
ATOM     19  C   UNL A   1      32.963  19.748  24.057  1.00  0.00     0.060 A 
ATOM     20  C   UNL A   1      32.382  20.778  23.306  1.00  0.00     0.018 A 
ATOM     21  C   UNL A   1      33.996  20.050  24.949  1.00  0.00     0.018 A 
ATOM     22  C   UNL A   1      32.773  22.107  23.507  1.00  0.00     0.027 A 
ATOM     23  C   UNL A   1      34.371  21.380  25.151  1.00  0.00     0.027 A 
BRANCH  19  24
ATOM     24  C   UNL A   1      32.458  18.365  23.874  1.00  0.00     0.338 C 
ATOM     25  O   UNL A   1      32.300  17.844  22.783  1.00  0.00    -0.246 OA
BRANCH  24  26
ATOM     26  O   UNL A   1      32.132  17.829  25.078  1.00  0.00    -0.462 OA
BRANCH  26  27
ATOM     27  C   UNL A   1      32.477  16.446  25.255  1.00  0.00     0.230 C 
ATOM     28  C   UNL A   1      33.978  16.282  25.408  1.00  0.00     0.049 C 
ENDBRANCH  26  27
ENDBRANCH  24  26
ENDBRANCH  19  24
ENDBRANCH  15  18
ENDBRANCH   8  14
ENDBRANCH   4   7
ENDBRANCH   2   3
ENDBRANCH   1   2
BRANCH   1  29
ATOM     29  C   UNL A   1      32.525  30.008  26.657  1.00  0.00     0.002 C 
BRANCH  29  30
ATOM     30  C   UNL A   1      31.399  30.829  26.017  1.00  0.00     0.002 C 
BRANCH  30  31
ATOM     31  C   UNL A   1      31.285  32.278  26.503  1.00  0.00     0.021 C 
BRANCH  31  32
ATOM     32  C   UNL A   1      32.526  32.819  27.205  1.00  0.00     0.116 C 
BRANCH  32  33
ATOM     33  N   UNL A   1      32.358  34.201  27.624  1.00  0.00    -0.352 N 
ATOM     34  C   UNL A   1      32.989  34.901  28.620  1.00  0.00     0.251 C 
ATOM     35  H   UNL A   1      31.689  34.714  27.114  1.00  0.00     0.163 HD
ATOM     36  O   UNL A   1      32.573  36.004  28.957  1.00  0.00    -0.269 OA
BRANCH  34  37
ATOM     37  C   UNL A   1      34.168  34.325  29.301  1.00  0.00     0.039 A 
ATOM     38  C   UNL A   1      33.978  33.612  30.489  1.00  0.00     0.014 A 
ATOM     39  C   UNL A   1      35.458  34.517  28.797  1.00  0.00     0.014 A 
ATOM     40  C   UNL A   1      35.075  33.048  31.144  1.00  0.00     0.010 A 
ATOM     41  C   UNL A   1      36.543  33.902  29.416  1.00  0.00     0.010 A 
ATOM     42  C   UNL A   1      36.362  33.167  30.598  1.00  0.00    -0.014 A 
BRANCH  42  43
ATOM     43  C   UNL A   1      37.534  32.533  31.251  1.00  0.00     0.031 A 
ATOM     44  C   UNL A   1      38.268  31.416  30.566  1.00  0.00     0.074 A 
ATOM     45  C   UNL A   1      37.897  32.923  32.487  1.00  0.00     0.049 A 
ATOM     46  N   UNL A   1      39.271  30.695  31.001  1.00  0.00    -0.248 NA
ATOM     47  C   UNL A   1      37.795  31.040  29.226  1.00  0.00     0.031 C 
ATOM     48  C   UNL A   1      37.237  33.967  33.271  1.00  0.00     0.029 A 
ATOM     49  N   UNL A   1      38.905  32.479  33.305  1.00  0.00    -0.354 N 
ATOM     50  C   UNL A   1      39.537  29.774  29.997  1.00  0.00     0.074 A 
ATOM     51  C   UNL A   1      38.560  29.994  28.953  1.00  0.00     0.031 C 
ATOM     52  C   UNL A   1      37.871  34.101  34.446  1.00  0.00     0.029 A 
ATOM     53  C   UNL A   1      38.959  33.129  34.512  1.00  0.00     0.049 A 
ATOM     54  H   UNL A   1      39.530  31.762  33.050  1.00  0.00     0.167 HD
ATOM     55  C   UNL A   1      40.521  28.845  29.942  1.00  0.00     0.037 A 
ATOM     56  C   UNL A   1      39.792  32.959  35.556  1.00  0.00     0.037 A 
ATOM     57  C   UNL A   1      41.509  28.648  30.971  1.00  0.00     0.049 A 
ATOM     58  C   UNL A   1      40.875  31.920  35.472  1.00  0.00     0.074 A 
ATOM     59  C   UNL A   1      42.586  27.778  30.980  1.00  0.00     0.029 A 
ATOM     60  N   UNL A   1      41.538  29.334  32.176  1.00  0.00    -0.354 N 
ATOM     61  N   UNL A   1      41.156  31.097  34.492  1.00  0.00    -0.248 NA
ATOM     62  C   UNL A   1      41.758  31.790  36.640  1.00  0.00     0.031 C 
ATOM     63  C   UNL A   1      43.243  27.909  32.209  1.00  0.00     0.029 A 
ATOM     64  C   UNL A   1      42.601  28.890  32.948  1.00  0.00     0.049 A 
ATOM     65  H   UNL A   1      40.898  30.032  32.445  1.00  0.00     0.167 HD
ATOM     66  C   UNL A   1      42.262  30.369  34.910  1.00  0.00     0.074 A 
ATOM     67  C   UNL A   1      42.607  30.857  36.230  1.00  0.00     0.031 C 
ATOM     68  C   UNL A   1      42.931  29.386  34.259  1.00  0.00     0.037 A 
BRANCH  55  69
ATOM     69  C   UNL A   1      40.571  27.965  28.726  1.00  0.00     0.064 A 
ATOM     70  C   UNL A   1      39.869  26.752  28.665  1.00  0.00     0.173 A 
ATOM     71  C   UNL A   1      41.320  28.347  27.602  1.00  0.00     0.173 A 
ATOM     72  F   UNL A   1      39.149  26.336  29.718  1.00  0.00    -0.203 F 
ATOM     73  C   UNL A   1      39.944  25.935  27.540  1.00  0.00     0.198 A 
ATOM     74  C   UNL A   1      41.369  27.542  26.467  1.00  0.00     0.198 A 
ATOM     75  F   UNL A   1      42.007  29.498  27.606  1.00  0.00    -0.203 F 
ATOM     76  F   UNL A   1      39.312  24.754  27.528  1.00  0.00    -0.200 F 
ATOM     77  C   UNL A   1      40.690  26.333  26.440  1.00  0.00     0.200 A 
ATOM     78  F   UNL A   1      42.083  27.931  25.401  1.00  0.00    -0.200 F 
ATOM     79  F   UNL A   1      40.764  25.545  25.358  1.00  0.00    -0.200 F 
ENDBRANCH  55  69
BRANCH  56  80
ATOM     80  C   UNL A   1      39.655  33.826  36.754  1.00  0.00     0.064 A 
ATOM     81  C   UNL A   1      40.291  35.073  36.810  1.00  0.00     0.173 A 
ATOM     82  C   UNL A   1      38.875  33.439  37.852  1.00  0.00     0.173 A 
ATOM     83  F   UNL A   1      41.063  35.476  35.790  1.00  0.00    -0.203 F 
ATOM     84  C   UNL A   1      40.159  35.899  37.924  1.00  0.00     0.198 A 
ATOM     85  C   UNL A   1      38.725  34.274  38.957  1.00  0.00     0.198 A 
ATOM     86  F   UNL A   1      38.243  32.256  37.844  1.00  0.00    -0.203 F 
ATOM     87  F   UNL A   1      40.802  37.073  37.965  1.00  0.00    -0.200 F 
ATOM     88  C   UNL A   1      39.371  35.502  38.994  1.00  0.00     0.200 A 
ATOM     89  F   UNL A   1      37.951  33.894  39.983  1.00  0.00    -0.200 F 
ATOM     90  F   UNL A   1      39.236  36.299  40.061  1.00  0.00    -0.200 F 
ENDBRANCH  56  80
BRANCH  68  91
ATOM     91  C   UNL A   1      44.121  28.792  34.954  1.00  0.00     0.064 A 
ATOM     92  C   UNL A   1      44.003  27.662  35.775  1.00  0.00     0.173 A 
ATOM     93  C   UNL A   1      45.400  29.339  34.765  1.00  0.00     0.173 A 
ATOM     94  F   UNL A   1      42.799  27.113  35.999  1.00  0.00    -0.203 F 
ATOM     95  C   UNL A   1      45.119  27.114  36.402  1.00  0.00     0.198 A 
ATOM     96  C   UNL A   1      46.517  28.772  35.372  1.00  0.00     0.198 A 
ATOM     97  F   UNL A   1      45.566  30.417  33.984  1.00  0.00    -0.203 F 
ATOM     98  F   UNL A   1      44.977  26.061  37.218  1.00  0.00    -0.200 F 
ATOM     99  C   UNL A   1      46.375  27.665  36.194  1.00  0.00     0.200 A 
ATOM    100  F   UNL A   1      47.731  29.299  35.162  1.00  0.00    -0.200 F 
ATOM    101  F   UNL A   1      47.448  27.132  36.794  1.00  0.00    -0.200 F 
ENDBRANCH  68  91
ENDBRANCH  42  43
ENDBRANCH  34  37
ENDBRANCH  32  33
ENDBRANCH  31  32
ENDBRANCH  30  31
ENDBRANCH  29  30
ENDBRANCH   1  29
TORSDOF 18
ENDMDL
MODEL 3
REMARK VINA RESULT:     -11.9      1.000      7.165
REMARK SMILES CCOC(=O)c1ccc(NC(=O)[C@H]2CC=CC[C@@]2(C)C(=O)NCCCCCCNC(=O)c2ccc(-c3c4nc(c(-c5c(F)c(F)c(F)c(F)c5F)c5ccc([nH]5)c(-c5c(F)c(F)c(F)c(F)c5F)c5nc(c(-c6c(F)c(F)c(F)c(F)c6F)c6ccc3[nH]6)C=C5)C=C4)cc2)cc1
REMARK SMILES IDX 24 1 23 2 22 3 20 4 21 5 18 7 13 8 14 9 15 10 17 11 19 12
REMARK SMILES IDX 16 13 11 14 10 15 12 17 9 18 6 19 7 20 96 21 8 22 95 23 4 24
REMARK SMILES IDX 5 25 3 26 2 27 1 28 25 29 26 30 27 31 28 32 29 33 30 34
REMARK SMILES IDX 31 36 32 37 33 38 94 39 34 40 93 41 35 42 36 43 37 44 87 45
REMARK SMILES IDX 38 46 92 47 86 48 88 49 39 50 91 51 85 52 84 53 40 55 72 56
REMARK SMILES IDX 52 57 71 58 53 59 56 60 70 61 89 62 54 63 55 64 69 66 90 67
REMARK SMILES IDX 57 68 41 69 42 70 50 71 43 72 44 73 48 74 51 75 45 76 46 77
REMARK SMILES IDX 49 78 47 79 73 80 74 81 82 82 75 83 76 84 80 85 83 86 77 87
REMARK SMILES IDX 78 88 81 89 79 90 58 91 59 92 67 93 60 94 61 95 65 96 68 97
REMARK SMILES IDX 62 98 63 99 66 100 64 101
REMARK H PARENT 22 6 10 16 29 35 88 54 56 65
REMARK Flexibility Score: inf
ROOT
ATOM      1  C   UNL A   1      34.470  20.290  24.764  1.00  0.00     0.021 C 
ENDROOT
BRANCH   1   2
ATOM      2  C   UNL A   1      33.432  21.223  25.382  1.00  0.00     0.116 C 
BRANCH   2   3
ATOM      3  N   UNL A   1      32.435  21.635  24.424  1.00  0.00    -0.356 N 
ATOM      4  C   UNL A   1      32.307  22.735  23.637  1.00  0.00     0.227 C 
ATOM      5  O   UNL A   1      31.442  22.636  22.758  1.00  0.00    -0.274 OA
ATOM      6  H   UNL A   1      31.699  20.989  24.320  1.00  0.00     0.163 HD
BRANCH   4   7
ATOM      7  C   UNL A   1      33.219  23.996  23.743  1.00  0.00     0.062 C 
ATOM      8  C   UNL A   1      33.171  24.751  25.144  1.00  0.00     0.098 C 
ATOM      9  C   UNL A   1      34.355  24.440  26.073  1.00  0.00     0.041 C 
ATOM     10  C   UNL A   1      35.649  24.030  25.450  1.00  0.00    -0.030 C 
ATOM     11  C   UNL A   1      34.634  23.604  23.217  1.00  0.00     0.044 C 
ATOM     12  C   UNL A   1      32.668  25.005  22.674  1.00  0.00     0.023 C 
ATOM     13  C   UNL A   1      35.771  23.662  24.176  1.00  0.00    -0.030 C 
BRANCH   8  14
ATOM     14  C   UNL A   1      31.748  24.657  25.762  1.00  0.00     0.228 C 
ATOM     15  N   UNL A   1      30.726  25.541  25.636  1.00  0.00    -0.326 N 
ATOM     16  H   UNL A   1      30.013  25.369  26.294  1.00  0.00     0.169 HD
ATOM     17  O   UNL A   1      31.453  23.686  26.473  1.00  0.00    -0.274 OA
BRANCH  15  18
ATOM     18  C   UNL A   1      30.425  26.628  24.818  1.00  0.00     0.041 A 
ATOM     19  C   UNL A   1      29.552  28.792  23.261  1.00  0.00     0.060 A 
ATOM     20  C   UNL A   1      30.743  28.877  23.992  1.00  0.00     0.018 A 
ATOM     21  C   UNL A   1      28.855  27.580  23.224  1.00  0.00     0.018 A 
ATOM     22  C   UNL A   1      31.189  27.785  24.746  1.00  0.00     0.027 A 
ATOM     23  C   UNL A   1      29.303  26.500  23.988  1.00  0.00     0.027 A 
BRANCH  19  24
ATOM     24  C   UNL A   1      29.071  30.000  22.545  1.00  0.00     0.338 C 
ATOM     25  O   UNL A   1      29.254  30.196  21.356  1.00  0.00    -0.246 OA
BRANCH  24  26
ATOM     26  O   UNL A   1      28.491  30.857  23.424  1.00  0.00    -0.462 OA
BRANCH  26  27
ATOM     27  C   UNL A   1      27.928  32.047  22.850  1.00  0.00     0.230 C 
ATOM     28  C   UNL A   1      28.920  33.195  22.912  1.00  0.00     0.049 C 
ENDBRANCH  26  27
ENDBRANCH  24  26
ENDBRANCH  19  24
ENDBRANCH  15  18
ENDBRANCH   8  14
ENDBRANCH   4   7
ENDBRANCH   2   3
ENDBRANCH   1   2
BRANCH   1  29
ATOM     29  C   UNL A   1      35.808  20.257  25.508  1.00  0.00     0.002 C 
BRANCH  29  30
ATOM     30  C   UNL A   1      37.052  20.303  24.613  1.00  0.00     0.002 C 
BRANCH  30  31
ATOM     31  C   UNL A   1      38.164  19.315  24.984  1.00  0.00     0.021 C 
BRANCH  31  32
ATOM     32  C   UNL A   1      39.295  19.906  25.819  1.00  0.00     0.116 C 
BRANCH  32  33
ATOM     33  N   UNL A   1      40.447  19.022  25.883  1.00  0.00    -0.352 N 
ATOM     34  C   UNL A   1      41.776  19.319  26.051  1.00  0.00     0.251 C 
ATOM     35  H   UNL A   1      40.243  18.063  25.793  1.00  0.00     0.163 HD
ATOM     36  O   UNL A   1      42.627  18.453  25.879  1.00  0.00    -0.269 OA
BRANCH  34  37
ATOM     37  C   UNL A   1      42.190  20.687  26.428  1.00  0.00     0.039 A 
ATOM     38  C   UNL A   1      42.581  21.574  25.420  1.00  0.00     0.014 A 
ATOM     39  C   UNL A   1      42.232  21.084  27.768  1.00  0.00     0.014 A 
ATOM     40  C   UNL A   1      42.964  22.875  25.751  1.00  0.00     0.010 A 
ATOM     41  C   UNL A   1      42.554  22.399  28.091  1.00  0.00     0.010 A 
ATOM     42  C   UNL A   1      42.928  23.305  27.087  1.00  0.00    -0.014 A 
BRANCH  42  43
ATOM     43  C   UNL A   1      43.284  24.698  27.454  1.00  0.00     0.031 A 
ATOM     44  C   UNL A   1      44.724  25.124  27.498  1.00  0.00     0.074 A 
ATOM     45  C   UNL A   1      42.312  25.561  27.805  1.00  0.00     0.049 A 
ATOM     46  N   UNL A   1      45.236  26.275  27.856  1.00  0.00    -0.248 NA
ATOM     47  C   UNL A   1      45.721  24.115  27.116  1.00  0.00     0.031 C 
ATOM     48  C   UNL A   1      40.882  25.253  27.841  1.00  0.00     0.029 A 
ATOM     49  N   UNL A   1      42.382  26.870  28.209  1.00  0.00    -0.354 N 
ATOM     50  C   UNL A   1      46.612  26.122  27.758  1.00  0.00     0.074 A 
ATOM     51  C   UNL A   1      46.857  24.754  27.354  1.00  0.00     0.031 C 
ATOM     52  C   UNL A   1      40.207  26.349  28.222  1.00  0.00     0.029 A 
ATOM     53  C   UNL A   1      41.158  27.424  28.489  1.00  0.00     0.049 A 
ATOM     54  H   UNL A   1      43.229  27.365  28.290  1.00  0.00     0.167 HD
ATOM     55  C   UNL A   1      47.582  27.045  27.963  1.00  0.00     0.037 A 
ATOM     56  C   UNL A   1      40.839  28.661  28.915  1.00  0.00     0.037 A 
ATOM     57  C   UNL A   1      47.333  28.413  28.337  1.00  0.00     0.049 A 
ATOM     58  C   UNL A   1      41.933  29.667  29.139  1.00  0.00     0.074 A 
ATOM     59  C   UNL A   1      48.243  29.442  28.505  1.00  0.00     0.029 A 
ATOM     60  N   UNL A   1      46.078  28.941  28.602  1.00  0.00    -0.354 N 
ATOM     61  N   UNL A   1      43.227  29.530  28.983  1.00  0.00    -0.248 NA
ATOM     62  C   UNL A   1      41.521  31.002  29.595  1.00  0.00     0.031 C 
ATOM     63  C   UNL A   1      47.542  30.584  28.911  1.00  0.00     0.029 A 
ATOM     64  C   UNL A   1      46.191  30.277  28.955  1.00  0.00     0.049 A 
ATOM     65  H   UNL A   1      45.231  28.441  28.548  1.00  0.00     0.167 HD
ATOM     66  C   UNL A   1      43.783  30.764  29.294  1.00  0.00     0.074 A 
ATOM     67  C   UNL A   1      42.681  31.641  29.638  1.00  0.00     0.031 C 
ATOM     68  C   UNL A   1      45.086  31.136  29.294  1.00  0.00     0.037 A 
BRANCH  55  69
ATOM     69  C   UNL A   1      49.005  26.599  27.791  1.00  0.00     0.064 A 
ATOM     70  C   UNL A   1      49.823  26.307  28.893  1.00  0.00     0.173 A 
ATOM     71  C   UNL A   1      49.554  26.450  26.509  1.00  0.00     0.173 A 
ATOM     72  F   UNL A   1      49.350  26.448  30.141  1.00  0.00    -0.203 F 
ATOM     73  C   UNL A   1      51.149  25.918  28.720  1.00  0.00     0.198 A 
ATOM     74  C   UNL A   1      50.872  26.031  26.338  1.00  0.00     0.198 A 
ATOM     75  F   UNL A   1      48.816  26.711  25.422  1.00  0.00    -0.203 F 
ATOM     76  F   UNL A   1      51.928  25.701  29.788  1.00  0.00    -0.200 F 
ATOM     77  C   UNL A   1      51.671  25.775  27.442  1.00  0.00     0.200 A 
ATOM     78  F   UNL A   1      51.372  25.885  25.103  1.00  0.00    -0.200 F 
ATOM     79  F   UNL A   1      52.947  25.403  27.276  1.00  0.00    -0.200 F 
ENDBRANCH  55  69
BRANCH  56  80
ATOM     80  C   UNL A   1      39.414  29.023  29.119  1.00  0.00     0.064 A 
ATOM     81  C   UNL A   1      38.829  28.936  30.390  1.00  0.00     0.173 A 
ATOM     82  C   UNL A   1      38.616  29.480  28.061  1.00  0.00     0.173 A 
ATOM     83  F   UNL A   1      39.549  28.485  31.427  1.00  0.00    -0.203 F 
ATOM     84  C   UNL A   1      37.496  29.284  30.594  1.00  0.00     0.198 A 
ATOM     85  C   UNL A   1      37.289  29.850  28.270  1.00  0.00     0.198 A 
ATOM     86  F   UNL A   1      39.132  29.585  26.827  1.00  0.00    -0.203 F 
ATOM     87  F   UNL A   1      36.953  29.163  31.812  1.00  0.00    -0.200 F 
ATOM     88  C   UNL A   1      36.729  29.748  29.535  1.00  0.00     0.200 A 
ATOM     89  F   UNL A   1      36.555  30.311  27.248  1.00  0.00    -0.200 F 
ATOM     90  F   UNL A   1      35.450  30.092  29.733  1.00  0.00    -0.200 F 
ENDBRANCH  56  80
BRANCH  68  91
ATOM     91  C   UNL A   1      45.390  32.561  29.652  1.00  0.00     0.064 A 
ATOM     92  C   UNL A   1      45.700  32.938  30.967  1.00  0.00     0.173 A 
ATOM     93  C   UNL A   1      45.410  33.554  28.660  1.00  0.00     0.173 A 
ATOM     94  F   UNL A   1      45.678  32.028  31.953  1.00  0.00    -0.203 F 
ATOM     95  C   UNL A   1      45.993  34.262  31.280  1.00  0.00     0.198 A 
ATOM     96  C   UNL A   1      45.731  34.871  28.973  1.00  0.00     0.198 A 
ATOM     97  F   UNL A   1      45.127  33.243  27.386  1.00  0.00    -0.203 F 
ATOM     98  F   UNL A   1      46.242  34.609  32.550  1.00  0.00    -0.200 F 
ATOM     99  C   UNL A   1      46.016  35.226  30.282  1.00  0.00     0.200 A 
ATOM    100  F   UNL A   1      45.763  35.799  28.006  1.00  0.00    -0.200 F 
ATOM    101  F   UNL A   1      46.306  36.499  30.586  1.00  0.00    -0.200 F 
ENDBRANCH  68  91
ENDBRANCH  42  43
ENDBRANCH  34  37
ENDBRANCH  32  33
ENDBRANCH  31  32
ENDBRANCH  30  31
ENDBRANCH  29  30
ENDBRANCH   1  29
TORSDOF 18
ENDMDL
