MODEL 1
REMARK VINA RESULT:     -13.1      0.000      0.000
REMARK SMILES NS(=O)(=O)c1ccc(-n2nc(C(F)F)cc2-c2ccc(C(=O)NCCCCCCNC(=O)c3ccc(-c4c5nc(c(-c6c(F)c(F)c(F)c(F)c6F)c6ccc([nH]6)c(-c6c(F)c(F)c(F)c(F)c6F)c6nc(c(-c7c(F)c(F)c(F)c(F)c7F)c7ccc4[nH]7)C=C6)C=C5)cc3)cc2)cc1
REMARK SMILES IDX 25 1 24 2 23 3 21 4 22 5 20 7 17 8 18 9 97 10 19 11 96 12
REMARK SMILES IDX 16 13 9 14 10 15 11 16 15 17 8 18 5 19 6 20 99 21 7 22 98 23
REMARK SMILES IDX 2 24 3 25 4 26 1 27 12 30 13 31 14 32 26 33 27 34 28 35
REMARK SMILES IDX 29 36 30 37 31 38 32 40 33 41 34 42 95 43 35 44 94 45 36 46
REMARK SMILES IDX 37 47 38 48 88 49 39 50 93 51 87 52 89 53 40 54 92 55 86 56
REMARK SMILES IDX 85 57 41 59 73 60 53 61 72 62 54 63 57 64 71 65 90 66 55 67
REMARK SMILES IDX 56 68 70 70 91 71 58 72 42 73 43 74 51 75 44 76 45 77 49 78
REMARK SMILES IDX 52 79 46 80 47 81 50 82 48 83 74 84 75 85 83 86 76 87 77 88
REMARK SMILES IDX 81 89 84 90 78 91 79 92 82 93 80 94 59 95 60 96 68 97 61 98
REMARK SMILES IDX 62 99 66 100 69 101 63 102 64 103 67 104 65 105
REMARK H PARENT 23 6 1 28 1 29 30 39 89 58 57 69
REMARK Flexibility Score: inf
ROOT
ATOM      1  C   UNL A   1      30.894  27.262  26.303  1.00  0.00     0.021 C 
ENDROOT
BRANCH   1   2
ATOM      2  C   UNL A   1      31.020  27.386  24.784  1.00  0.00     0.116 C 
BRANCH   2   3
ATOM      3  N   UNL A   1      30.440  26.217  24.155  1.00  0.00    -0.352 N 
ATOM      4  C   UNL A   1      30.956  24.983  23.860  1.00  0.00     0.251 C 
ATOM      5  O   UNL A   1      30.244  24.182  23.257  1.00  0.00    -0.269 OA
ATOM      6  H   UNL A   1      29.498  26.330  23.889  1.00  0.00     0.163 HD
BRANCH   4   7
ATOM      7  C   UNL A   1      32.303  24.563  24.319  1.00  0.00     0.039 A 
ATOM      8  C   UNL A   1      34.829  23.574  25.002  1.00  0.00     0.000 A 
ATOM      9  C   UNL A   1      34.570  23.981  23.689  1.00  0.00     0.011 A 
ATOM     10  C   UNL A   1      33.840  23.696  25.977  1.00  0.00     0.011 A 
ATOM     11  C   UNL A   1      33.306  24.460  23.347  1.00  0.00     0.014 A 
ATOM     12  C   UNL A   1      32.612  24.258  25.647  1.00  0.00     0.014 A 
BRANCH   8  13
ATOM     13  C   UNL A   1      36.158  23.154  25.403  1.00  0.00     0.075 A 
ATOM     14  N   UNL A   1      36.563  21.829  25.476  1.00  0.00    -0.233 N 
ATOM     15  N   UNL A   1      37.783  21.710  26.054  1.00  0.00    -0.166 NA
ATOM     16  C   UNL A   1      38.248  22.972  26.132  1.00  0.00     0.129 A 
ATOM     17  C   UNL A   1      37.244  23.907  25.788  1.00  0.00     0.060 A 
BRANCH  14  18
ATOM     18  C   UNL A   1      35.836  20.694  25.027  1.00  0.00     0.065 A 
ATOM     19  C   UNL A   1      34.366  18.411  24.419  1.00  0.00     0.082 A 
ATOM     20  C   UNL A   1      33.704  19.630  24.562  1.00  0.00     0.024 A 
ATOM     21  C   UNL A   1      35.759  18.333  24.536  1.00  0.00     0.024 A 
ATOM     22  C   UNL A   1      34.442  20.770  24.869  1.00  0.00     0.030 A 
ATOM     23  C   UNL A   1      36.504  19.485  24.815  1.00  0.00     0.030 A 
BRANCH  19  24
ATOM     24  S   UNL A   1      33.414  16.961  24.079  1.00  0.00     0.238 S 
ATOM     25  O   UNL A   1      34.008  15.830  24.768  1.00  0.00    -0.207 OA
ATOM     26  O   UNL A   1      33.090  16.939  22.680  1.00  0.00    -0.207 OA
BRANCH  24  27
ATOM     27  N   UNL A   1      31.974  17.260  24.895  1.00  0.00    -0.225 NA
ATOM     28  H   UNL A   1      32.107  18.028  25.551  1.00  0.00     0.137 HD
ATOM     29  H   UNL A   1      31.692  16.422  25.404  1.00  0.00     0.137 HD
ENDBRANCH  24  27
ENDBRANCH  19  24
ENDBRANCH  14  18
BRANCH  16  30
ATOM     30  C   UNL A   1      39.656  23.305  26.531  1.00  0.00     0.393 C 
ATOM     31  F   UNL A   1      39.909  24.640  26.498  1.00  0.00    -0.203 F 
ATOM     32  F   UNL A   1      39.929  22.881  27.796  1.00  0.00    -0.203 F 
ENDBRANCH  16  30
ENDBRANCH   8  13
ENDBRANCH   4   7
ENDBRANCH   2   3
ENDBRANCH   1   2
BRANCH   1  33
ATOM     33  C   UNL A   1      32.192  27.633  27.030  1.00  0.00     0.002 C 
BRANCH  33  34
ATOM     34  C   UNL A   1      33.355  28.040  26.108  1.00  0.00     0.002 C 
BRANCH  34  35
ATOM     35  C   UNL A   1      33.768  29.520  26.164  1.00  0.00     0.021 C 
BRANCH  35  36
ATOM     36  C   UNL A   1      34.006  30.007  27.581  1.00  0.00     0.116 C 
BRANCH  36  37
ATOM     37  N   UNL A   1      34.501  31.394  27.618  1.00  0.00    -0.352 N 
ATOM     38  C   UNL A   1      35.689  31.893  28.133  1.00  0.00     0.251 C 
ATOM     39  H   UNL A   1      33.901  32.066  27.218  1.00  0.00     0.163 HD
ATOM     40  O   UNL A   1      35.819  33.076  28.420  1.00  0.00    -0.269 OA
BRANCH  38  41
ATOM     41  C   UNL A   1      36.818  30.964  28.287  1.00  0.00     0.039 A 
ATOM     42  C   UNL A   1      37.026  29.815  27.517  1.00  0.00     0.014 A 
ATOM     43  C   UNL A   1      37.759  31.358  29.213  1.00  0.00     0.014 A 
ATOM     44  C   UNL A   1      38.197  29.087  27.734  1.00  0.00     0.010 A 
ATOM     45  C   UNL A   1      39.027  30.962  28.979  1.00  0.00     0.010 A 
ATOM     46  C   UNL A   1      39.185  29.674  28.526  1.00  0.00    -0.014 A 
BRANCH  46  47
ATOM     47  C   UNL A   1      40.460  29.085  28.895  1.00  0.00     0.031 A 
ATOM     48  C   UNL A   1      40.610  28.900  30.351  1.00  0.00     0.074 A 
ATOM     49  C   UNL A   1      41.243  28.482  27.965  1.00  0.00     0.049 A 
ATOM     50  N   UNL A   1      41.362  29.573  31.152  1.00  0.00    -0.248 NA
ATOM     51  C   UNL A   1      39.672  27.993  31.034  1.00  0.00     0.031 C 
ATOM     52  C   UNL A   1      40.994  28.309  26.520  1.00  0.00     0.029 A 
ATOM     53  N   UNL A   1      42.420  27.813  28.130  1.00  0.00    -0.354 N 
ATOM     54  C   UNL A   1      41.164  29.008  32.408  1.00  0.00     0.074 A 
ATOM     55  C   UNL A   1      39.956  28.235  32.315  1.00  0.00     0.031 C 
ATOM     56  C   UNL A   1      41.875  27.426  25.994  1.00  0.00     0.029 A 
ATOM     57  C   UNL A   1      42.856  27.104  27.011  1.00  0.00     0.049 A 
ATOM     58  H   UNL A   1      42.923  27.830  28.977  1.00  0.00     0.167 HD
ATOM     59  C   UNL A   1      42.182  28.959  33.310  1.00  0.00     0.037 A 
ATOM     60  C   UNL A   1      43.961  26.319  26.936  1.00  0.00     0.037 A 
ATOM     61  C   UNL A   1      43.284  29.771  32.859  1.00  0.00     0.049 A 
ATOM     62  C   UNL A   1      44.846  26.733  28.049  1.00  0.00     0.074 A 
ATOM     63  C   UNL A   1      43.542  31.119  32.749  1.00  0.00     0.029 A 
ATOM     64  N   UNL A   1      44.144  29.119  32.011  1.00  0.00    -0.354 N 
ATOM     65  N   UNL A   1      45.403  27.911  28.115  1.00  0.00    -0.248 NA
ATOM     66  C   UNL A   1      44.775  26.005  29.308  1.00  0.00     0.031 C 
ATOM     67  C   UNL A   1      44.401  31.258  31.615  1.00  0.00     0.029 A 
ATOM     68  C   UNL A   1      44.693  29.991  31.110  1.00  0.00     0.049 A 
ATOM     69  H   UNL A   1      44.340  28.155  32.046  1.00  0.00     0.167 HD
ATOM     70  C   UNL A   1      45.367  28.241  29.459  1.00  0.00     0.074 A 
ATOM     71  C   UNL A   1      45.122  26.981  30.153  1.00  0.00     0.031 C 
ATOM     72  C   UNL A   1      45.229  29.544  29.843  1.00  0.00     0.037 A 
BRANCH  59  73
ATOM     73  C   UNL A   1      42.404  27.847  34.312  1.00  0.00     0.064 A 
ATOM     74  C   UNL A   1      42.950  26.627  33.860  1.00  0.00     0.173 A 
ATOM     75  C   UNL A   1      41.834  27.811  35.603  1.00  0.00     0.173 A 
ATOM     76  F   UNL A   1      43.500  26.538  32.639  1.00  0.00    -0.203 F 
ATOM     77  C   UNL A   1      42.870  25.455  34.617  1.00  0.00     0.198 A 
ATOM     78  C   UNL A   1      41.803  26.653  36.377  1.00  0.00     0.198 A 
ATOM     79  F   UNL A   1      41.181  28.854  36.127  1.00  0.00    -0.203 F 
ATOM     80  F   UNL A   1      43.297  24.296  34.098  1.00  0.00    -0.200 F 
ATOM     81  C   UNL A   1      42.293  25.467  35.874  1.00  0.00     0.200 A 
ATOM     82  F   UNL A   1      41.218  26.683  37.584  1.00  0.00    -0.200 F 
ATOM     83  F   UNL A   1      42.163  24.336  36.578  1.00  0.00    -0.200 F 
ENDBRANCH  59  73
BRANCH  60  84
ATOM     84  C   UNL A   1      44.183  25.074  26.165  1.00  0.00     0.064 A 
ATOM     85  C   UNL A   1      45.218  24.956  25.222  1.00  0.00     0.173 A 
ATOM     86  C   UNL A   1      43.563  23.877  26.569  1.00  0.00     0.173 A 
ATOM     87  F   UNL A   1      45.890  26.044  24.821  1.00  0.00    -0.203 F 
ATOM     88  C   UNL A   1      45.623  23.709  24.729  1.00  0.00     0.198 A 
ATOM     89  C   UNL A   1      43.969  22.633  26.080  1.00  0.00     0.198 A 
ATOM     90  F   UNL A   1      42.619  23.890  27.521  1.00  0.00    -0.203 F 
ATOM     91  F   UNL A   1      46.649  23.627  23.871  1.00  0.00    -0.200 F 
ATOM     92  C   UNL A   1      45.007  22.548  25.169  1.00  0.00     0.200 A 
ATOM     93  F   UNL A   1      43.395  21.515  26.549  1.00  0.00    -0.200 F 
ATOM     94  F   UNL A   1      45.437  21.350  24.748  1.00  0.00    -0.200 F 
ENDBRANCH  60  84
BRANCH  72  95
ATOM     95  C   UNL A   1      45.516  30.589  28.804  1.00  0.00     0.064 A 
ATOM     96  C   UNL A   1      44.539  31.211  28.007  1.00  0.00     0.173 A 
ATOM     97  C   UNL A   1      46.832  31.044  28.677  1.00  0.00     0.173 A 
ATOM     98  F   UNL A   1      43.247  30.891  28.128  1.00  0.00    -0.203 F 
ATOM     99  C   UNL A   1      44.874  32.213  27.097  1.00  0.00     0.198 A 
ATOM    100  C   UNL A   1      47.161  32.067  27.793  1.00  0.00     0.198 A 
ATOM    101  F   UNL A   1      47.797  30.520  29.447  1.00  0.00    -0.203 F 
ATOM    102  F   UNL A   1      43.923  32.780  26.339  1.00  0.00    -0.200 F 
ATOM    103  C   UNL A   1      46.186  32.644  26.996  1.00  0.00     0.200 A 
ATOM    104  F   UNL A   1      48.424  32.510  27.731  1.00  0.00    -0.200 F 
ATOM    105  F   UNL A   1      46.506  33.630  26.147  1.00  0.00    -0.200 F 
ENDBRANCH  72  95
ENDBRANCH  46  47
ENDBRANCH  38  41
ENDBRANCH  36  37
ENDBRANCH  35  36
ENDBRANCH  34  35
ENDBRANCH  33  34
ENDBRANCH   1  33
TORSDOF 18
ENDMDL
MODEL 2
REMARK VINA RESULT:     -13.0      3.797      9.529
REMARK SMILES NS(=O)(=O)c1ccc(-n2nc(C(F)F)cc2-c2ccc(C(=O)NCCCCCCNC(=O)c3ccc(-c4c5nc(c(-c6c(F)c(F)c(F)c(F)c6F)c6ccc([nH]6)c(-c6c(F)c(F)c(F)c(F)c6F)c6nc(c(-c7c(F)c(F)c(F)c(F)c7F)c7ccc4[nH]7)C=C6)C=C5)cc3)cc2)cc1
REMARK SMILES IDX 25 1 24 2 23 3 21 4 22 5 20 7 17 8 18 9 97 10 19 11 96 12
REMARK SMILES IDX 16 13 9 14 10 15 11 16 15 17 8 18 5 19 6 20 99 21 7 22 98 23
REMARK SMILES IDX 2 24 3 25 4 26 1 27 12 30 13 31 14 32 26 33 27 34 28 35
REMARK SMILES IDX 29 36 30 37 31 38 32 40 33 41 34 42 95 43 35 44 94 45 36 46
REMARK SMILES IDX 37 47 38 48 88 49 39 50 93 51 87 52 89 53 40 54 92 55 86 56
REMARK SMILES IDX 85 57 41 59 73 60 53 61 72 62 54 63 57 64 71 65 90 66 55 67
REMARK SMILES IDX 56 68 70 70 91 71 58 72 42 73 43 74 51 75 44 76 45 77 49 78
REMARK SMILES IDX 52 79 46 80 47 81 50 82 48 83 74 84 75 85 83 86 76 87 77 88
REMARK SMILES IDX 81 89 84 90 78 91 79 92 82 93 80 94 59 95 60 96 68 97 61 98
REMARK SMILES IDX 62 99 66 100 69 101 63 102 64 103 67 104 65 105
REMARK H PARENT 23 6 1 28 1 29 30 39 89 58 57 69
REMARK Flexibility Score: inf
ROOT
ATOM      1  C   UNL A   1      34.298  21.023  24.648  1.00  0.00     0.021 C 
ENDROOT
BRANCH   1   2
ATOM      2  C   UNL A   1      32.839  21.097  25.100  1.00  0.00     0.116 C 
BRANCH   2   3
ATOM      3  N   UNL A   1      32.787  21.460  26.503  1.00  0.00    -0.352 N 
ATOM      4  C   UNL A   1      32.460  22.629  27.136  1.00  0.00     0.251 C 
ATOM      5  O   UNL A   1      32.559  22.677  28.360  1.00  0.00    -0.269 OA
ATOM      6  H   UNL A   1      33.033  20.729  27.115  1.00  0.00     0.163 HD
BRANCH   4   7
ATOM      7  C   UNL A   1      31.912  23.796  26.400  1.00  0.00     0.039 A 
ATOM      8  C   UNL A   1      31.068  26.145  25.138  1.00  0.00     0.000 A 
ATOM      9  C   UNL A   1      32.387  25.704  24.984  1.00  0.00     0.011 A 
ATOM     10  C   UNL A   1      30.167  25.395  25.890  1.00  0.00     0.011 A 
ATOM     11  C   UNL A   1      32.810  24.542  25.626  1.00  0.00     0.014 A 
ATOM     12  C   UNL A   1      30.572  24.189  26.453  1.00  0.00     0.014 A 
BRANCH   8  13
ATOM     13  C   UNL A   1      30.580  27.302  24.412  1.00  0.00     0.075 A 
ATOM     14  N   UNL A   1      31.025  28.598  24.631  1.00  0.00    -0.233 N 
ATOM     15  N   UNL A   1      30.276  29.505  23.956  1.00  0.00    -0.166 NA
ATOM     16  C   UNL A   1      29.509  28.766  23.131  1.00  0.00     0.129 A 
ATOM     17  C   UNL A   1      29.627  27.387  23.422  1.00  0.00     0.060 A 
BRANCH  14  18
ATOM     18  C   UNL A   1      32.116  28.994  25.450  1.00  0.00     0.065 A 
ATOM     19  C   UNL A   1      34.273  29.998  26.893  1.00  0.00     0.082 A 
ATOM     20  C   UNL A   1      32.978  30.362  27.261  1.00  0.00     0.024 A 
ATOM     21  C   UNL A   1      34.495  29.105  25.837  1.00  0.00     0.024 A 
ATOM     22  C   UNL A   1      31.901  29.860  26.535  1.00  0.00     0.030 A 
ATOM     23  C   UNL A   1      33.410  28.578  25.127  1.00  0.00     0.030 A 
BRANCH  19  24
ATOM     24  S   UNL A   1      35.635  30.681  27.789  1.00  0.00     0.238 S 
ATOM     25  O   UNL A   1      35.684  32.114  27.561  1.00  0.00    -0.207 OA
ATOM     26  O   UNL A   1      36.776  29.825  27.616  1.00  0.00    -0.207 OA
BRANCH  24  27
ATOM     27  N   UNL A   1      35.153  30.511  29.391  1.00  0.00    -0.225 NA
ATOM     28  H   UNL A   1      35.665  29.741  29.821  1.00  0.00     0.137 HD
ATOM     29  H   UNL A   1      34.152  30.314  29.425  1.00  0.00     0.137 HD
ENDBRANCH  24  27
ENDBRANCH  19  24
ENDBRANCH  14  18
BRANCH  16  30
ATOM     30  C   UNL A   1      28.655  29.364  22.050  1.00  0.00     0.393 C 
ATOM     31  F   UNL A   1      27.500  29.896  22.529  1.00  0.00    -0.203 F 
ATOM     32  F   UNL A   1      29.309  30.361  21.394  1.00  0.00    -0.203 F 
ENDBRANCH  16  30
ENDBRANCH   8  13
ENDBRANCH   4   7
ENDBRANCH   2   3
ENDBRANCH   1   2
BRANCH   1  33
ATOM     33  C   UNL A   1      34.686  22.190  23.731  1.00  0.00     0.002 C 
BRANCH  33  34
ATOM     34  C   UNL A   1      36.052  22.828  24.040  1.00  0.00     0.002 C 
BRANCH  34  35
ATOM     35  C   UNL A   1      36.849  22.183  25.185  1.00  0.00     0.021 C 
BRANCH  35  36
ATOM     36  C   UNL A   1      37.834  23.145  25.825  1.00  0.00     0.116 C 
BRANCH  36  37
ATOM     37  N   UNL A   1      38.939  22.443  26.500  1.00  0.00    -0.352 N 
ATOM     38  C   UNL A   1      40.096  22.960  27.067  1.00  0.00     0.251 C 
ATOM     39  H   UNL A   1      38.844  21.464  26.557  1.00  0.00     0.163 HD
ATOM     40  O   UNL A   1      41.080  22.260  27.269  1.00  0.00    -0.269 OA
BRANCH  38  41
ATOM     41  C   UNL A   1      40.096  24.374  27.466  1.00  0.00     0.039 A 
ATOM     42  C   UNL A   1      38.977  25.214  27.454  1.00  0.00     0.014 A 
ATOM     43  C   UNL A   1      41.297  24.826  27.967  1.00  0.00     0.014 A 
ATOM     44  C   UNL A   1      39.130  26.511  27.948  1.00  0.00     0.010 A 
ATOM     45  C   UNL A   1      41.226  25.814  28.883  1.00  0.00     0.010 A 
ATOM     46  C   UNL A   1      40.311  26.807  28.631  1.00  0.00    -0.014 A 
BRANCH  46  47
ATOM     47  C   UNL A   1      40.680  28.091  29.201  1.00  0.00     0.031 A 
ATOM     48  C   UNL A   1      41.840  28.707  28.528  1.00  0.00     0.074 A 
ATOM     49  C   UNL A   1      39.830  28.760  30.021  1.00  0.00     0.049 A 
ATOM     50  N   UNL A   1      43.038  28.828  28.987  1.00  0.00    -0.248 NA
ATOM     51  C   UNL A   1      41.709  29.058  27.104  1.00  0.00     0.031 C 
ATOM     52  C   UNL A   1      38.479  28.368  30.467  1.00  0.00     0.029 A 
ATOM     53  N   UNL A   1      39.966  29.995  30.582  1.00  0.00    -0.354 N 
ATOM     54  C   UNL A   1      43.751  29.487  27.990  1.00  0.00     0.074 A 
ATOM     55  C   UNL A   1      42.967  29.372  26.792  1.00  0.00     0.031 C 
ATOM     56  C   UNL A   1      37.855  29.417  31.053  1.00  0.00     0.029 A 
ATOM     57  C   UNL A   1      38.812  30.497  31.184  1.00  0.00     0.049 A 
ATOM     58  H   UNL A   1      40.814  30.495  30.563  1.00  0.00     0.167 HD
ATOM     59  C   UNL A   1      44.755  30.346  28.316  1.00  0.00     0.037 A 
ATOM     60  C   UNL A   1      38.672  31.718  31.761  1.00  0.00     0.037 A 
ATOM     61  C   UNL A   1      45.078  30.225  29.716  1.00  0.00     0.049 A 
ATOM     62  C   UNL A   1      40.039  32.198  32.066  1.00  0.00     0.074 A 
ATOM     63  C   UNL A   1      45.712  29.295  30.510  1.00  0.00     0.029 A 
ATOM     64  N   UNL A   1      44.293  30.997  30.536  1.00  0.00    -0.354 N 
ATOM     65  N   UNL A   1      40.819  31.618  32.937  1.00  0.00    -0.248 NA
ATOM     66  C   UNL A   1      40.710  33.057  31.101  1.00  0.00     0.031 C 
ATOM     67  C   UNL A   1      45.075  29.377  31.786  1.00  0.00     0.029 A 
ATOM     68  C   UNL A   1      44.120  30.393  31.752  1.00  0.00     0.049 A 
ATOM     69  H   UNL A   1      43.908  31.867  30.283  1.00  0.00     0.167 HD
ATOM     70  C   UNL A   1      42.085  31.699  32.382  1.00  0.00     0.074 A 
ATOM     71  C   UNL A   1      41.981  32.722  31.346  1.00  0.00     0.031 C 
ATOM     72  C   UNL A   1      42.998  30.710  32.609  1.00  0.00     0.037 A 
BRANCH  59  73
ATOM     73  C   UNL A   1      45.107  31.603  27.550  1.00  0.00     0.064 A 
ATOM     74  C   UNL A   1      46.390  31.708  26.974  1.00  0.00     0.173 A 
ATOM     75  C   UNL A   1      44.375  32.808  27.615  1.00  0.00     0.173 A 
ATOM     76  F   UNL A   1      47.184  30.630  26.878  1.00  0.00    -0.203 F 
ATOM     77  C   UNL A   1      46.918  32.934  26.559  1.00  0.00     0.198 A 
ATOM     78  C   UNL A   1      44.884  34.020  27.153  1.00  0.00     0.198 A 
ATOM     79  F   UNL A   1      43.191  32.895  28.232  1.00  0.00    -0.203 F 
ATOM     80  F   UNL A   1      48.184  33.003  26.127  1.00  0.00    -0.200 F 
ATOM     81  C   UNL A   1      46.166  34.090  26.652  1.00  0.00     0.200 A 
ATOM     82  F   UNL A   1      44.145  35.133  27.274  1.00  0.00    -0.200 F 
ATOM     83  F   UNL A   1      46.687  35.275  26.310  1.00  0.00    -0.200 F 
ENDBRANCH  59  73
BRANCH  60  84
ATOM     84  C   UNL A   1      37.488  32.607  31.812  1.00  0.00     0.064 A 
ATOM     85  C   UNL A   1      36.988  33.248  30.666  1.00  0.00     0.173 A 
ATOM     86  C   UNL A   1      36.648  32.596  32.941  1.00  0.00     0.173 A 
ATOM     87  F   UNL A   1      37.708  33.262  29.535  1.00  0.00    -0.203 F 
ATOM     88  C   UNL A   1      35.712  33.826  30.646  1.00  0.00     0.198 A 
ATOM     89  C   UNL A   1      35.374  33.168  32.920  1.00  0.00     0.198 A 
ATOM     90  F   UNL A   1      37.014  31.940  34.052  1.00  0.00    -0.203 F 
ATOM     91  F   UNL A   1      35.244  34.382  29.520  1.00  0.00    -0.200 F 
ATOM     92  C   UNL A   1      34.902  33.773  31.769  1.00  0.00     0.200 A 
ATOM     93  F   UNL A   1      34.584  33.070  33.999  1.00  0.00    -0.200 F 
ATOM     94  F   UNL A   1      33.655  34.266  31.731  1.00  0.00    -0.200 F 
ENDBRANCH  60  84
BRANCH  72  95
ATOM     95  C   UNL A   1      42.723  29.786  33.760  1.00  0.00     0.064 A 
ATOM     96  C   UNL A   1      42.081  28.540  33.646  1.00  0.00     0.173 A 
ATOM     97  C   UNL A   1      43.214  30.143  35.020  1.00  0.00     0.173 A 
ATOM     98  F   UNL A   1      41.657  28.091  32.462  1.00  0.00    -0.203 F 
ATOM     99  C   UNL A   1      41.906  27.711  34.753  1.00  0.00     0.198 A 
ATOM    100  C   UNL A   1      43.069  29.299  36.116  1.00  0.00     0.198 A 
ATOM    101  F   UNL A   1      43.878  31.297  35.175  1.00  0.00    -0.203 F 
ATOM    102  F   UNL A   1      41.278  26.533  34.619  1.00  0.00    -0.200 F 
ATOM    103  C   UNL A   1      42.406  28.090  35.987  1.00  0.00     0.200 A 
ATOM    104  F   UNL A   1      43.593  29.651  37.298  1.00  0.00    -0.200 F 
ATOM    105  F   UNL A   1      42.268  27.280  37.046  1.00  0.00    -0.200 F 
ENDBRANCH  72  95
ENDBRANCH  46  47
ENDBRANCH  38  41
ENDBRANCH  36  37
ENDBRANCH  35  36
ENDBRANCH  34  35
ENDBRANCH  33  34
ENDBRANCH   1  33
TORSDOF 18
ENDMDL
MODEL 3
REMARK VINA RESULT:     -12.9      3.845      6.368
REMARK SMILES NS(=O)(=O)c1ccc(-n2nc(C(F)F)cc2-c2ccc(C(=O)NCCCCCCNC(=O)c3ccc(-c4c5nc(c(-c6c(F)c(F)c(F)c(F)c6F)c6ccc([nH]6)c(-c6c(F)c(F)c(F)c(F)c6F)c6nc(c(-c7c(F)c(F)c(F)c(F)c7F)c7ccc4[nH]7)C=C6)C=C5)cc3)cc2)cc1
REMARK SMILES IDX 25 1 24 2 23 3 21 4 22 5 20 7 17 8 18 9 97 10 19 11 96 12
REMARK SMILES IDX 16 13 9 14 10 15 11 16 15 17 8 18 5 19 6 20 99 21 7 22 98 23
REMARK SMILES IDX 2 24 3 25 4 26 1 27 12 30 13 31 14 32 26 33 27 34 28 35
REMARK SMILES IDX 29 36 30 37 31 38 32 40 33 41 34 42 95 43 35 44 94 45 36 46
REMARK SMILES IDX 37 47 38 48 88 49 39 50 93 51 87 52 89 53 40 54 92 55 86 56
REMARK SMILES IDX 85 57 41 59 73 60 53 61 72 62 54 63 57 64 71 65 90 66 55 67
REMARK SMILES IDX 56 68 70 70 91 71 58 72 42 73 43 74 51 75 44 76 45 77 49 78
REMARK SMILES IDX 52 79 46 80 47 81 50 82 48 83 74 84 75 85 83 86 76 87 77 88
REMARK SMILES IDX 81 89 84 90 78 91 79 92 82 93 80 94 59 95 60 96 68 97 61 98
REMARK SMILES IDX 62 99 66 100 69 101 63 102 64 103 67 104 65 105
REMARK H PARENT 23 6 1 28 1 29 30 39 89 58 57 69
REMARK Flexibility Score: inf
ROOT
ATOM      1  C   UNL A   1      37.033  29.991  29.310  1.00  0.00     0.021 C 
ENDROOT
BRANCH   1   2
ATOM      2  C   UNL A   1      36.098  29.522  28.194  1.00  0.00     0.116 C 
BRANCH   2   3
ATOM      3  N   UNL A   1      34.943  30.396  28.134  1.00  0.00    -0.352 N 
ATOM      4  C   UNL A   1      33.743  30.286  27.486  1.00  0.00     0.251 C 
ATOM      5  O   UNL A   1      32.950  31.223  27.561  1.00  0.00    -0.269 OA
ATOM      6  H   UNL A   1      35.041  31.226  28.656  1.00  0.00     0.163 HD
BRANCH   4   7
ATOM      7  C   UNL A   1      33.342  29.045  26.777  1.00  0.00     0.039 A 
ATOM      8  C   UNL A   1      32.607  26.580  25.678  1.00  0.00     0.000 A 
ATOM      9  C   UNL A   1      31.854  27.133  26.719  1.00  0.00     0.011 A 
ATOM     10  C   UNL A   1      33.701  27.274  25.165  1.00  0.00     0.011 A 
ATOM     11  C   UNL A   1      32.231  28.355  27.276  1.00  0.00     0.014 A 
ATOM     12  C   UNL A   1      34.016  28.533  25.665  1.00  0.00     0.014 A 
BRANCH   8  13
ATOM     13  C   UNL A   1      32.188  25.354  25.025  1.00  0.00     0.075 A 
ATOM     14  N   UNL A   1      31.120  25.273  24.143  1.00  0.00    -0.233 N 
ATOM     15  N   UNL A   1      30.829  23.988  23.826  1.00  0.00    -0.166 NA
ATOM     16  C   UNL A   1      31.858  23.274  24.323  1.00  0.00     0.129 A 
ATOM     17  C   UNL A   1      32.698  24.080  25.126  1.00  0.00     0.060 A 
BRANCH  14  18
ATOM     18  C   UNL A   1      30.379  26.360  23.606  1.00  0.00     0.065 A 
ATOM     19  C   UNL A   1      29.011  28.637  22.778  1.00  0.00     0.082 A 
ATOM     20  C   UNL A   1      30.339  28.461  22.390  1.00  0.00     0.024 A 
ATOM     21  C   UNL A   1      28.351  27.665  23.540  1.00  0.00     0.024 A 
ATOM     22  C   UNL A   1      31.022  27.322  22.808  1.00  0.00     0.030 A 
ATOM     23  C   UNL A   1      29.030  26.506  23.935  1.00  0.00     0.030 A 
BRANCH  19  24
ATOM     24  S   UNL A   1      28.169  30.111  22.284  1.00  0.00     0.238 S 
ATOM     25  O   UNL A   1      27.058  30.350  23.188  1.00  0.00    -0.207 OA
ATOM     26  O   UNL A   1      28.024  30.102  20.855  1.00  0.00    -0.207 OA
BRANCH  24  27
ATOM     27  N   UNL A   1      29.286  31.317  22.640  1.00  0.00    -0.225 NA
ATOM     28  H   UNL A   1      30.219  31.008  22.368  1.00  0.00     0.137 HD
ATOM     29  H   UNL A   1      29.271  31.509  23.642  1.00  0.00     0.137 HD
ENDBRANCH  24  27
ENDBRANCH  19  24
ENDBRANCH  14  18
BRANCH  16  30
ATOM     30  C   UNL A   1      32.056  21.813  24.037  1.00  0.00     0.393 C 
ATOM     31  F   UNL A   1      33.347  21.508  23.740  1.00  0.00    -0.203 F 
ATOM     32  F   UNL A   1      31.703  21.044  25.103  1.00  0.00    -0.203 F 
ENDBRANCH  16  30
ENDBRANCH   8  13
ENDBRANCH   4   7
ENDBRANCH   2   3
ENDBRANCH   1   2
BRANCH   1  33
ATOM     33  C   UNL A   1      37.788  31.273  28.940  1.00  0.00     0.002 C 
BRANCH  33  34
ATOM     34  C   UNL A   1      37.365  32.524  29.731  1.00  0.00     0.002 C 
BRANCH  34  35
ATOM     35  C   UNL A   1      38.042  33.840  29.316  1.00  0.00     0.021 C 
BRANCH  35  36
ATOM     36  C   UNL A   1      39.556  33.741  29.309  1.00  0.00     0.116 C 
BRANCH  36  37
ATOM     37  N   UNL A   1      40.158  34.299  30.533  1.00  0.00    -0.352 N 
ATOM     38  C   UNL A   1      40.504  33.659  31.715  1.00  0.00     0.251 C 
ATOM     39  H   UNL A   1      40.340  35.266  30.509  1.00  0.00     0.163 HD
ATOM     40  O   UNL A   1      40.655  34.279  32.760  1.00  0.00    -0.269 OA
BRANCH  38  41
ATOM     41  C   UNL A   1      40.732  32.208  31.673  1.00  0.00     0.039 A 
ATOM     42  C   UNL A   1      39.768  31.233  31.953  1.00  0.00     0.014 A 
ATOM     43  C   UNL A   1      41.982  31.839  31.227  1.00  0.00     0.014 A 
ATOM     44  C   UNL A   1      40.125  29.894  31.781  1.00  0.00     0.010 A 
ATOM     45  C   UNL A   1      42.060  30.655  30.585  1.00  0.00     0.010 A 
ATOM     46  C   UNL A   1      41.327  29.626  31.123  1.00  0.00    -0.014 A 
BRANCH  46  47
ATOM     47  C   UNL A   1      41.894  28.315  30.862  1.00  0.00     0.031 A 
ATOM     48  C   UNL A   1      42.606  27.754  32.026  1.00  0.00     0.074 A 
ATOM     49  C   UNL A   1      41.503  27.588  29.785  1.00  0.00     0.049 A 
ATOM     50  N   UNL A   1      43.880  27.620  32.175  1.00  0.00    -0.248 NA
ATOM     51  C   UNL A   1      41.832  27.487  33.250  1.00  0.00     0.031 C 
ATOM     52  C   UNL A   1      40.512  27.937  28.747  1.00  0.00     0.029 A 
ATOM     53  N   UNL A   1      41.859  26.323  29.421  1.00  0.00    -0.354 N 
ATOM     54  C   UNL A   1      44.046  27.030  33.424  1.00  0.00     0.074 A 
ATOM     55  C   UNL A   1      42.803  27.206  34.121  1.00  0.00     0.031 C 
ATOM     56  C   UNL A   1      40.208  26.848  28.003  1.00  0.00     0.029 A 
ATOM     57  C   UNL A   1      41.101  25.773  28.388  1.00  0.00     0.049 A 
ATOM     58  H   UNL A   1      42.596  25.836  29.856  1.00  0.00     0.167 HD
ATOM     59  C   UNL A   1      45.073  26.164  33.645  1.00  0.00     0.037 A 
ATOM     60  C   UNL A   1      41.220  24.518  27.883  1.00  0.00     0.037 A 
ATOM     61  C   UNL A   1      46.003  26.205  32.544  1.00  0.00     0.049 A 
ATOM     62  C   UNL A   1      42.566  24.037  28.267  1.00  0.00     0.074 A 
ATOM     63  C   UNL A   1      46.946  27.093  32.076  1.00  0.00     0.029 A 
ATOM     64  N   UNL A   1      45.668  25.377  31.502  1.00  0.00    -0.354 N 
ATOM     65  N   UNL A   1      43.668  24.572  27.818  1.00  0.00    -0.248 NA
ATOM     66  C   UNL A   1      42.707  23.245  29.481  1.00  0.00     0.031 C 
ATOM     67  C   UNL A   1      46.963  26.928  30.657  1.00  0.00     0.029 A 
ATOM     68  C   UNL A   1      46.081  25.904  30.309  1.00  0.00     0.049 A 
ATOM     69  H   UNL A   1      45.195  24.519  31.601  1.00  0.00     0.167 HD
ATOM     70  C   UNL A   1      44.538  24.540  28.894  1.00  0.00     0.074 A 
ATOM     71  C   UNL A   1      43.954  23.579  29.826  1.00  0.00     0.031 C 
ATOM     72  C   UNL A   1      45.470  25.524  29.054  1.00  0.00     0.037 A 
BRANCH  59  73
ATOM     73  C   UNL A   1      45.014  24.960  34.559  1.00  0.00     0.064 A 
ATOM     74  C   UNL A   1      45.841  24.935  35.701  1.00  0.00     0.173 A 
ATOM     75  C   UNL A   1      44.428  23.723  34.212  1.00  0.00     0.173 A 
ATOM     76  F   UNL A   1      46.467  26.048  36.113  1.00  0.00    -0.203 F 
ATOM     77  C   UNL A   1      46.109  23.752  36.396  1.00  0.00     0.198 A 
ATOM     78  C   UNL A   1      44.655  22.555  34.938  1.00  0.00     0.198 A 
ATOM     79  F   UNL A   1      43.709  23.559  33.096  1.00  0.00    -0.203 F 
ATOM     80  F   UNL A   1      46.992  23.756  37.404  1.00  0.00    -0.200 F 
ATOM     81  C   UNL A   1      45.519  22.562  36.012  1.00  0.00     0.200 A 
ATOM     82  F   UNL A   1      44.090  21.409  34.534  1.00  0.00    -0.200 F 
ATOM     83  F   UNL A   1      45.817  21.418  36.639  1.00  0.00    -0.200 F 
ENDBRANCH  59  73
BRANCH  60  84
ATOM     84  C   UNL A   1      40.175  23.614  27.348  1.00  0.00     0.064 A 
ATOM     85  C   UNL A   1      38.929  24.092  26.910  1.00  0.00     0.173 A 
ATOM     86  C   UNL A   1      40.508  22.297  26.978  1.00  0.00     0.173 A 
ATOM     87  F   UNL A   1      38.558  25.351  27.182  1.00  0.00    -0.203 F 
ATOM     88  C   UNL A   1      38.074  23.304  26.128  1.00  0.00     0.198 A 
ATOM     89  C   UNL A   1      39.657  21.513  26.195  1.00  0.00     0.198 A 
ATOM     90  F   UNL A   1      41.709  21.788  27.288  1.00  0.00    -0.203 F 
ATOM     91  F   UNL A   1      36.916  23.810  25.682  1.00  0.00    -0.200 F 
ATOM     92  C   UNL A   1      38.445  22.021  25.760  1.00  0.00     0.200 A 
ATOM     93  F   UNL A   1      40.049  20.290  25.809  1.00  0.00    -0.200 F 
ATOM     94  F   UNL A   1      37.659  21.290  24.957  1.00  0.00    -0.200 F 
ENDBRANCH  60  84
BRANCH  72  95
ATOM     95  C   UNL A   1      45.768  26.375  27.853  1.00  0.00     0.064 A 
ATOM     96  C   UNL A   1      45.238  27.658  27.633  1.00  0.00     0.173 A 
ATOM     97  C   UNL A   1      46.705  25.900  26.929  1.00  0.00     0.173 A 
ATOM     98  F   UNL A   1      44.400  28.215  28.512  1.00  0.00    -0.203 F 
ATOM     99  C   UNL A   1      45.600  28.412  26.518  1.00  0.00     0.198 A 
ATOM    100  C   UNL A   1      47.092  26.667  25.835  1.00  0.00     0.198 A 
ATOM    101  F   UNL A   1      47.280  24.703  27.115  1.00  0.00    -0.203 F 
ATOM    102  F   UNL A   1      45.069  29.628  26.325  1.00  0.00    -0.200 F 
ATOM    103  C   UNL A   1      46.533  27.917  25.622  1.00  0.00     0.200 A 
ATOM    104  F   UNL A   1      48.027  26.201  24.996  1.00  0.00    -0.200 F 
ATOM    105  F   UNL A   1      46.909  28.652  24.567  1.00  0.00    -0.200 F 
ENDBRANCH  72  95
ENDBRANCH  46  47
ENDBRANCH  38  41
ENDBRANCH  36  37
ENDBRANCH  35  36
ENDBRANCH  34  35
ENDBRANCH  33  34
ENDBRANCH   1  33
TORSDOF 18
ENDMDL
