MODEL 1
REMARK VINA RESULT:     -13.3      0.000      0.000
REMARK SMILES O=C(NCCCCCCNC(=O)c1ccc(-c2c3nc(c(-c4c(F)c(F)c(F)c(F)c4F)c4ccc([nH]4)c(-c4c(F)c(F)c(F)c(F)c4F)c4nc(c(-c5c(F)c(F)c(F)c(F)c5F)c5ccc2[nH]5)C=C4)C=C3)cc1)C1=Cc2cc(Cl)cc(-c3ccc(CO)cc3)c2O[C@@H]1C(F)(F)F
REMARK SMILES IDX 6 1 5 2 4 3 3 4 1 5 2 6 76 8 77 9 94 10 78 11 93 12 79 13
REMARK SMILES IDX 92 14 80 15 83 16 81 17 82 18 95 19 96 20 97 21 98 22 84 23
REMARK SMILES IDX 85 24 91 25 86 26 90 27 87 28 88 29 89 30 7 32 8 33 9 34
REMARK SMILES IDX 10 35 11 36 12 38 13 39 14 40 75 41 15 42 74 43 16 44 17 45
REMARK SMILES IDX 18 46 68 47 19 48 73 49 67 50 69 51 20 52 72 53 66 54 65 55
REMARK SMILES IDX 21 57 53 58 33 59 52 60 34 61 37 62 51 63 70 64 35 65 36 66
REMARK SMILES IDX 50 68 71 69 38 70 22 71 23 72 31 73 24 74 25 75 29 76 32 77
REMARK SMILES IDX 26 78 27 79 30 80 28 81 54 82 55 83 63 84 56 85 57 86 61 87
REMARK SMILES IDX 64 88 58 89 59 90 62 91 60 92 39 93 40 94 48 95 41 96 42 97
REMARK SMILES IDX 46 98 49 99 43 100 44 101 47 102 45 103
REMARK H PARENT 3 7 89 31 10 37 69 56 37 67
REMARK Flexibility Score: inf
ROOT
ATOM      1  C   UNL A   1      31.948  27.070  24.784  1.00  0.00     0.002 C 
ENDROOT
BRANCH   1   2
ATOM      2  C   UNL A   1      31.038  26.754  25.977  1.00  0.00     0.021 C 
BRANCH   2   3
ATOM      3  C   UNL A   1      30.280  25.422  25.944  1.00  0.00     0.116 C 
BRANCH   3   4
ATOM      4  N   UNL A   1      30.750  24.426  26.902  1.00  0.00    -0.352 N 
ATOM      5  O   UNL A   1      32.090  22.815  27.744  1.00  0.00    -0.270 OA
ATOM      6  C   UNL A   1      31.723  23.459  26.768  1.00  0.00     0.251 C 
ATOM      7  H   UNL A   1      30.301  24.447  27.779  1.00  0.00     0.163 HD
BRANCH   6   8
ATOM      8  C   UNL A   1      32.469  23.364  25.486  1.00  0.00     0.067 C 
ATOM      9  C   UNL A   1      33.720  23.794  25.266  1.00  0.00     0.025 C 
ATOM     10  C   UNL A   1      31.875  22.450  24.456  1.00  0.00     0.314 C 
ATOM     11  C   UNL A   1      34.590  22.637  24.915  1.00  0.00     0.019 A 
ATOM     12  O   UNL A   1      32.648  21.230  24.394  1.00  0.00    -0.475 OA
ATOM     13  C   UNL A   1      35.954  22.705  25.231  1.00  0.00     0.032 A 
ATOM     14  C   UNL A   1      34.003  21.373  24.626  1.00  0.00     0.135 A 
ATOM     15  C   UNL A   1      36.715  21.538  25.274  1.00  0.00     0.042 A 
ATOM     16  C   UNL A   1      34.755  20.188  24.730  1.00  0.00     0.026 A 
ATOM     17  Cl  UNL A   1      38.356  21.601  25.795  1.00  0.00    -0.084 Cl
ATOM     18  C   UNL A   1      36.128  20.299  25.027  1.00  0.00     0.033 A 
BRANCH  10  19
ATOM     19  C   UNL A   1      31.759  23.153  23.080  1.00  0.00     0.429 C 
ATOM     20  F   UNL A   1      32.195  22.354  22.077  1.00  0.00    -0.167 F 
ATOM     21  F   UNL A   1      30.474  23.479  22.792  1.00  0.00    -0.167 F 
ATOM     22  F   UNL A   1      32.478  24.301  23.006  1.00  0.00    -0.167 F 
ENDBRANCH  10  19
BRANCH  16  23
ATOM     23  C   UNL A   1      34.143  18.846  24.786  1.00  0.00    -0.015 A 
ATOM     24  C   UNL A   1      33.140  18.618  25.742  1.00  0.00     0.009 A 
ATOM     25  C   UNL A   1      34.523  17.774  23.979  1.00  0.00     0.009 A 
ATOM     26  C   UNL A   1      32.578  17.363  25.949  1.00  0.00     0.007 A 
ATOM     27  C   UNL A   1      33.963  16.499  24.181  1.00  0.00     0.007 A 
ATOM     28  C   UNL A   1      33.009  16.279  25.188  1.00  0.00    -0.023 A 
BRANCH  28  29
ATOM     29  C   UNL A   1      32.455  14.910  25.478  1.00  0.00     0.191 C 
BRANCH  29  30
ATOM     30  O   UNL A   1      31.937  14.855  26.804  1.00  0.00    -0.392 OA
ATOM     31  H   UNL A   1      30.968  14.814  26.772  1.00  0.00     0.211 HD
ENDBRANCH  29  30
ENDBRANCH  28  29
ENDBRANCH  16  23
ENDBRANCH   6   8
ENDBRANCH   3   4
ENDBRANCH   2   3
ENDBRANCH   1   2
BRANCH   1  32
ATOM     32  C   UNL A   1      31.768  28.437  24.111  1.00  0.00     0.002 C 
BRANCH  32  33
ATOM     33  C   UNL A   1      31.511  29.630  25.037  1.00  0.00     0.021 C 
BRANCH  33  34
ATOM     34  C   UNL A   1      32.666  30.054  25.930  1.00  0.00     0.116 C 
BRANCH  34  35
ATOM     35  N   UNL A   1      32.584  31.462  26.284  1.00  0.00    -0.352 N 
ATOM     36  C   UNL A   1      33.270  32.205  27.213  1.00  0.00     0.251 C 
ATOM     37  H   UNL A   1      31.919  31.972  25.766  1.00  0.00     0.163 HD
ATOM     38  O   UNL A   1      32.859  33.325  27.496  1.00  0.00    -0.269 OA
BRANCH  36  39
ATOM     39  C   UNL A   1      34.492  31.691  27.885  1.00  0.00     0.039 A 
ATOM     40  C   UNL A   1      34.506  30.360  28.320  1.00  0.00     0.014 A 
ATOM     41  C   UNL A   1      35.584  32.513  28.173  1.00  0.00     0.014 A 
ATOM     42  C   UNL A   1      35.616  29.852  29.005  1.00  0.00     0.010 A 
ATOM     43  C   UNL A   1      36.726  31.982  28.770  1.00  0.00     0.010 A 
ATOM     44  C   UNL A   1      36.747  30.654  29.217  1.00  0.00    -0.014 A 
BRANCH  44  45
ATOM     45  C   UNL A   1      37.938  30.145  29.947  1.00  0.00     0.031 A 
ATOM     46  C   UNL A   1      38.217  30.612  31.352  1.00  0.00     0.074 A 
ATOM     47  C   UNL A   1      38.804  29.319  29.330  1.00  0.00     0.049 A 
ATOM     48  N   UNL A   1      39.250  30.372  32.120  1.00  0.00    -0.248 NA
ATOM     49  C   UNL A   1      37.211  31.496  31.964  1.00  0.00     0.031 C 
ATOM     50  C   UNL A   1      38.675  28.831  27.957  1.00  0.00     0.029 A 
ATOM     51  N   UNL A   1      39.975  28.755  29.774  1.00  0.00    -0.354 N 
ATOM     52  C   UNL A   1      39.030  31.092  33.288  1.00  0.00     0.074 A 
ATOM     53  C   UNL A   1      37.796  31.823  33.106  1.00  0.00     0.031 C 
ATOM     54  C   UNL A   1      39.715  28.031  27.675  1.00  0.00     0.029 A 
ATOM     55  C   UNL A   1      40.603  27.979  28.833  1.00  0.00     0.049 A 
ATOM     56  H   UNL A   1      40.330  28.895  30.682  1.00  0.00     0.167 HD
ATOM     57  C   UNL A   1      39.774  31.119  34.420  1.00  0.00     0.037 A 
ATOM     58  C   UNL A   1      41.769  27.307  28.892  1.00  0.00     0.037 A 
ATOM     59  C   UNL A   1      40.983  30.364  34.610  1.00  0.00     0.049 A 
ATOM     60  C   UNL A   1      42.572  27.339  30.165  1.00  0.00     0.074 A 
ATOM     61  C   UNL A   1      41.782  30.279  35.737  1.00  0.00     0.029 A 
ATOM     62  N   UNL A   1      41.567  29.555  33.644  1.00  0.00    -0.354 N 
ATOM     63  N   UNL A   1      42.325  27.980  31.282  1.00  0.00    -0.248 NA
ATOM     64  C   UNL A   1      43.808  26.547  30.189  1.00  0.00     0.031 C 
ATOM     65  C   UNL A   1      42.868  29.448  35.441  1.00  0.00     0.029 A 
ATOM     66  C   UNL A   1      42.722  28.979  34.146  1.00  0.00     0.049 A 
ATOM     67  H   UNL A   1      41.211  29.412  32.738  1.00  0.00     0.167 HD
ATOM     68  C   UNL A   1      43.360  27.653  32.147  1.00  0.00     0.074 A 
ATOM     69  C   UNL A   1      44.228  26.741  31.431  1.00  0.00     0.031 C 
ATOM     70  C   UNL A   1      43.572  28.070  33.419  1.00  0.00     0.037 A 
BRANCH  57  71
ATOM     71  C   UNL A   1      39.291  31.993  35.544  1.00  0.00     0.064 A 
ATOM     72  C   UNL A   1      39.680  33.338  35.649  1.00  0.00     0.173 A 
ATOM     73  C   UNL A   1      38.414  31.488  36.516  1.00  0.00     0.173 A 
ATOM     74  F   UNL A   1      40.526  33.868  34.753  1.00  0.00    -0.203 F 
ATOM     75  C   UNL A   1      39.242  34.132  36.706  1.00  0.00     0.198 A 
ATOM     76  C   UNL A   1      37.952  32.295  37.553  1.00  0.00     0.198 A 
ATOM     77  F   UNL A   1      38.003  30.212  36.460  1.00  0.00    -0.203 F 
ATOM     78  F   UNL A   1      39.677  35.395  36.818  1.00  0.00    -0.200 F 
ATOM     79  C   UNL A   1      38.374  33.611  37.653  1.00  0.00     0.200 A 
ATOM     80  F   UNL A   1      37.103  31.794  38.462  1.00  0.00    -0.200 F 
ATOM     81  F   UNL A   1      37.952  34.377  38.669  1.00  0.00    -0.200 F 
ENDBRANCH  57  71
BRANCH  58  82
ATOM     82  C   UNL A   1      42.233  26.530  27.714  1.00  0.00     0.064 A 
ATOM     83  C   UNL A   1      43.160  27.072  26.813  1.00  0.00     0.173 A 
ATOM     84  C   UNL A   1      41.773  25.227  27.473  1.00  0.00     0.173 A 
ATOM     85  F   UNL A   1      43.613  28.321  26.991  1.00  0.00    -0.203 F 
ATOM     86  C   UNL A   1      43.597  26.347  25.707  1.00  0.00     0.198 A 
ATOM     87  C   UNL A   1      42.232  24.492  26.381  1.00  0.00     0.198 A 
ATOM     88  F   UNL A   1      40.891  24.660  28.308  1.00  0.00    -0.203 F 
ATOM     89  F   UNL A   1      44.454  26.903  24.840  1.00  0.00    -0.200 F 
ATOM     90  C   UNL A   1      43.139  25.055  25.495  1.00  0.00     0.200 A 
ATOM     91  F   UNL A   1      41.799  23.239  26.190  1.00  0.00    -0.200 F 
ATOM     92  F   UNL A   1      43.567  24.354  24.436  1.00  0.00    -0.200 F 
ENDBRANCH  58  82
BRANCH  70  93
ATOM     93  C   UNL A   1      44.776  27.524  34.129  1.00  0.00     0.064 A 
ATOM     94  C   UNL A   1      44.724  26.316  34.840  1.00  0.00     0.173 A 
ATOM     95  C   UNL A   1      46.005  28.197  34.062  1.00  0.00     0.173 A 
ATOM     96  F   UNL A   1      43.568  25.643  34.946  1.00  0.00    -0.203 F 
ATOM     97  C   UNL A   1      45.855  25.813  35.478  1.00  0.00     0.198 A 
ATOM     98  C   UNL A   1      47.140  27.677  34.678  1.00  0.00     0.198 A 
ATOM     99  F   UNL A   1      46.109  29.353  33.390  1.00  0.00    -0.203 F 
ATOM    100  F   UNL A   1      45.772  24.680  36.189  1.00  0.00    -0.200 F 
ATOM    101  C   UNL A   1      47.063  26.489  35.390  1.00  0.00     0.200 A 
ATOM    102  F   UNL A   1      48.309  28.324  34.581  1.00  0.00    -0.200 F 
ATOM    103  F   UNL A   1      48.152  25.999  35.999  1.00  0.00    -0.200 F 
ENDBRANCH  70  93
ENDBRANCH  44  45
ENDBRANCH  36  39
ENDBRANCH  34  35
ENDBRANCH  33  34
ENDBRANCH  32  33
ENDBRANCH   1  32
TORSDOF 17
ENDMDL
MODEL 2
REMARK VINA RESULT:     -13.2      1.481      7.278
REMARK SMILES O=C(NCCCCCCNC(=O)c1ccc(-c2c3nc(c(-c4c(F)c(F)c(F)c(F)c4F)c4ccc([nH]4)c(-c4c(F)c(F)c(F)c(F)c4F)c4nc(c(-c5c(F)c(F)c(F)c(F)c5F)c5ccc2[nH]5)C=C4)C=C3)cc1)C1=Cc2cc(Cl)cc(-c3ccc(CO)cc3)c2O[C@@H]1C(F)(F)F
REMARK SMILES IDX 6 1 5 2 4 3 3 4 1 5 2 6 76 8 77 9 94 10 78 11 93 12 79 13
REMARK SMILES IDX 92 14 80 15 83 16 81 17 82 18 95 19 96 20 97 21 98 22 84 23
REMARK SMILES IDX 85 24 91 25 86 26 90 27 87 28 88 29 89 30 7 32 8 33 9 34
REMARK SMILES IDX 10 35 11 36 12 38 13 39 14 40 75 41 15 42 74 43 16 44 17 45
REMARK SMILES IDX 18 46 68 47 19 48 73 49 67 50 69 51 20 52 72 53 66 54 65 55
REMARK SMILES IDX 21 57 53 58 33 59 52 60 34 61 37 62 51 63 70 64 35 65 36 66
REMARK SMILES IDX 50 68 71 69 38 70 22 71 23 72 31 73 24 74 25 75 29 76 32 77
REMARK SMILES IDX 26 78 27 79 30 80 28 81 54 82 55 83 63 84 56 85 57 86 61 87
REMARK SMILES IDX 64 88 58 89 59 90 62 91 60 92 39 93 40 94 48 95 41 96 42 97
REMARK SMILES IDX 46 98 49 99 43 100 44 101 47 102 45 103
REMARK H PARENT 3 7 89 31 10 37 69 56 37 67
REMARK Flexibility Score: inf
ROOT
ATOM      1  C   UNL A   1      32.263  29.120  26.865  1.00  0.00     0.002 C 
ENDROOT
BRANCH   1   2
ATOM      2  C   UNL A   1      31.580  27.827  27.327  1.00  0.00     0.021 C 
BRANCH   2   3
ATOM      3  C   UNL A   1      31.726  26.599  26.422  1.00  0.00     0.116 C 
BRANCH   3   4
ATOM      4  N   UNL A   1      31.625  25.315  27.110  1.00  0.00    -0.352 N 
ATOM      5  O   UNL A   1      32.068  23.143  27.541  1.00  0.00    -0.270 OA
ATOM      6  C   UNL A   1      32.116  24.078  26.750  1.00  0.00     0.251 C 
ATOM      7  H   UNL A   1      31.130  25.336  27.961  1.00  0.00     0.163 HD
BRANCH   6   8
ATOM      8  C   UNL A   1      32.894  23.952  25.491  1.00  0.00     0.067 C 
ATOM      9  C   UNL A   1      34.164  24.340  25.305  1.00  0.00     0.025 C 
ATOM     10  C   UNL A   1      32.300  23.053  24.447  1.00  0.00     0.314 C 
ATOM     11  C   UNL A   1      35.005  23.153  24.983  1.00  0.00     0.019 A 
ATOM     12  O   UNL A   1      33.033  21.809  24.412  1.00  0.00    -0.475 OA
ATOM     13  C   UNL A   1      36.362  23.178  25.337  1.00  0.00     0.032 A 
ATOM     14  C   UNL A   1      34.385  21.908  24.682  1.00  0.00     0.135 A 
ATOM     15  C   UNL A   1      37.082  21.987  25.407  1.00  0.00     0.042 A 
ATOM     16  C   UNL A   1      35.095  20.699  24.812  1.00  0.00     0.026 A 
ATOM     17  Cl  UNL A   1      38.708  21.999  25.973  1.00  0.00    -0.084 Cl
ATOM     18  C   UNL A   1      36.462  20.766  25.147  1.00  0.00     0.033 A 
BRANCH  10  19
ATOM     19  C   UNL A   1      32.246  23.754  23.066  1.00  0.00     0.429 C 
ATOM     20  F   UNL A   1      30.975  24.065  22.718  1.00  0.00    -0.167 F 
ATOM     21  F   UNL A   1      32.948  24.915  23.067  1.00  0.00    -0.167 F 
ATOM     22  F   UNL A   1      32.752  22.994  22.064  1.00  0.00    -0.167 F 
ENDBRANCH  10  19
BRANCH  16  23
ATOM     23  C   UNL A   1      34.437  19.379  24.856  1.00  0.00    -0.015 A 
ATOM     24  C   UNL A   1      33.218  19.271  25.544  1.00  0.00     0.009 A 
ATOM     25  C   UNL A   1      34.966  18.217  24.292  1.00  0.00     0.009 A 
ATOM     26  C   UNL A   1      32.575  18.053  25.737  1.00  0.00     0.007 A 
ATOM     27  C   UNL A   1      34.326  16.980  24.482  1.00  0.00     0.007 A 
ATOM     28  C   UNL A   1      33.142  16.885  25.232  1.00  0.00    -0.023 A 
BRANCH  28  29
ATOM     29  C   UNL A   1      32.481  15.563  25.519  1.00  0.00     0.191 C 
BRANCH  29  30
ATOM     30  O   UNL A   1      33.427  14.502  25.413  1.00  0.00    -0.392 OA
ATOM     31  H   UNL A   1      34.312  14.834  25.631  1.00  0.00     0.211 HD
ENDBRANCH  29  30
ENDBRANCH  28  29
ENDBRANCH  16  23
ENDBRANCH   6   8
ENDBRANCH   3   4
ENDBRANCH   2   3
ENDBRANCH   1   2
BRANCH   1  32
ATOM     32  C   UNL A   1      31.422  30.094  26.030  1.00  0.00     0.002 C 
BRANCH  32  33
ATOM     33  C   UNL A   1      31.398  31.554  26.494  1.00  0.00     0.021 C 
BRANCH  33  34
ATOM     34  C   UNL A   1      32.709  32.119  27.016  1.00  0.00     0.116 C 
BRANCH  34  35
ATOM     35  N   UNL A   1      32.580  33.518  27.393  1.00  0.00    -0.352 N 
ATOM     36  C   UNL A   1      33.173  34.245  28.396  1.00  0.00     0.251 C 
ATOM     37  H   UNL A   1      31.960  34.033  26.829  1.00  0.00     0.163 HD
ATOM     38  O   UNL A   1      32.727  35.355  28.665  1.00  0.00    -0.269 OA
BRANCH  36  39
ATOM     39  C   UNL A   1      34.335  33.727  29.163  1.00  0.00     0.039 A 
ATOM     40  C   UNL A   1      35.611  34.222  28.861  1.00  0.00     0.014 A 
ATOM     41  C   UNL A   1      34.208  32.705  30.106  1.00  0.00     0.014 A 
ATOM     42  C   UNL A   1      36.738  33.722  29.523  1.00  0.00     0.010 A 
ATOM     43  C   UNL A   1      35.317  32.275  30.832  1.00  0.00     0.010 A 
ATOM     44  C   UNL A   1      36.598  32.757  30.531  1.00  0.00    -0.014 A 
BRANCH  44  45
ATOM     45  C   UNL A   1      37.777  32.202  31.248  1.00  0.00     0.031 A 
ATOM     46  C   UNL A   1      38.573  31.081  30.631  1.00  0.00     0.074 A 
ATOM     47  C   UNL A   1      38.095  32.655  32.475  1.00  0.00     0.049 A 
ATOM     48  N   UNL A   1      39.566  30.390  31.134  1.00  0.00    -0.248 NA
ATOM     49  C   UNL A   1      38.176  30.658  29.279  1.00  0.00     0.031 C 
ATOM     50  C   UNL A   1      37.377  33.703  33.201  1.00  0.00     0.029 A 
ATOM     51  N   UNL A   1      39.098  32.280  33.336  1.00  0.00    -0.354 N 
ATOM     52  C   UNL A   1      39.891  29.440  30.173  1.00  0.00     0.074 A 
ATOM     53  C   UNL A   1      38.955  29.604  29.084  1.00  0.00     0.031 C 
ATOM     54  C   UNL A   1      37.969  33.897  34.391  1.00  0.00     0.029 A 
ATOM     55  C   UNL A   1      39.084  32.964  34.526  1.00  0.00     0.049 A 
ATOM     56  H   UNL A   1      39.762  31.587  33.119  1.00  0.00     0.167 HD
ATOM     57  C   UNL A   1      40.897  28.533  30.185  1.00  0.00     0.037 A 
ATOM     58  C   UNL A   1      39.875  32.845  35.610  1.00  0.00     0.037 A 
ATOM     59  C   UNL A   1      41.848  28.395  31.256  1.00  0.00     0.049 A 
ATOM     60  C   UNL A   1      40.996  31.840  35.595  1.00  0.00     0.074 A 
ATOM     61  C   UNL A   1      42.936  27.544  31.342  1.00  0.00     0.029 A 
ATOM     62  N   UNL A   1      41.825  29.135  32.430  1.00  0.00    -0.354 N 
ATOM     63  N   UNL A   1      41.327  30.986  34.658  1.00  0.00    -0.248 NA
ATOM     64  C   UNL A   1      41.858  31.792  36.784  1.00  0.00     0.031 C 
ATOM     65  C   UNL A   1      43.550  27.744  32.584  1.00  0.00     0.029 A 
ATOM     66  C   UNL A   1      42.872  28.751  33.252  1.00  0.00     0.049 A 
ATOM     67  H   UNL A   1      41.162  29.830  32.646  1.00  0.00     0.167 HD
ATOM     68  C   UNL A   1      42.446  30.314  35.132  1.00  0.00     0.074 A 
ATOM     69  C   UNL A   1      42.747  30.874  36.434  1.00  0.00     0.031 C 
ATOM     70  C   UNL A   1      43.158  29.322  34.543  1.00  0.00     0.037 A 
BRANCH  57  71
ATOM     71  C   UNL A   1      41.021  27.622  28.996  1.00  0.00     0.064 A 
ATOM     72  C   UNL A   1      40.178  26.512  28.828  1.00  0.00     0.173 A 
ATOM     73  C   UNL A   1      41.980  27.870  28.002  1.00  0.00     0.173 A 
ATOM     74  F   UNL A   1      39.251  26.222  29.755  1.00  0.00    -0.203 F 
ATOM     75  C   UNL A   1      40.315  25.664  27.732  1.00  0.00     0.198 A 
ATOM     76  C   UNL A   1      42.092  27.038  26.890  1.00  0.00     0.198 A 
ATOM     77  F   UNL A   1      42.807  28.921  28.107  1.00  0.00    -0.203 F 
ATOM     78  F   UNL A   1      39.538  24.577  27.627  1.00  0.00    -0.200 F 
ATOM     79  C   UNL A   1      41.268  25.931  26.762  1.00  0.00     0.200 A 
ATOM     80  F   UNL A   1      43.006  27.305  25.946  1.00  0.00    -0.200 F 
ATOM     81  F   UNL A   1      41.398  25.115  25.707  1.00  0.00    -0.200 F 
ENDBRANCH  57  71
BRANCH  58  82
ATOM     82  C   UNL A   1      39.645  33.719  36.789  1.00  0.00     0.064 A 
ATOM     83  C   UNL A   1      40.209  35.001  36.856  1.00  0.00     0.173 A 
ATOM     84  C   UNL A   1      38.846  33.300  37.863  1.00  0.00     0.173 A 
ATOM     85  F   UNL A   1      40.996  35.438  35.863  1.00  0.00    -0.203 F 
ATOM     86  C   UNL A   1      39.996  35.824  37.960  1.00  0.00     0.198 A 
ATOM     87  C   UNL A   1      38.612  34.135  38.954  1.00  0.00     0.198 A 
ATOM     88  F   UNL A   1      38.278  32.086  37.845  1.00  0.00    -0.203 F 
ATOM     89  F   UNL A   1      40.579  37.029  38.017  1.00  0.00    -0.200 F 
ATOM     90  C   UNL A   1      39.192  35.394  39.005  1.00  0.00     0.200 A 
ATOM     91  F   UNL A   1      37.821  33.721  39.953  1.00  0.00    -0.200 F 
ATOM     92  F   UNL A   1      38.979  36.189  40.062  1.00  0.00    -0.200 F 
ENDBRANCH  58  82
BRANCH  70  93
ATOM     93  C   UNL A   1      44.350  28.797  35.288  1.00  0.00     0.064 A 
ATOM     94  C   UNL A   1      45.619  29.380  35.149  1.00  0.00     0.173 A 
ATOM     95  C   UNL A   1      44.212  27.725  36.182  1.00  0.00     0.173 A 
ATOM     96  F   UNL A   1      45.804  30.398  34.295  1.00  0.00    -0.203 F 
ATOM     97  C   UNL A   1      46.711  28.893  35.862  1.00  0.00     0.198 A 
ATOM     98  C   UNL A   1      45.300  27.259  36.914  1.00  0.00     0.198 A 
ATOM     99  F   UNL A   1      43.019  27.138  36.356  1.00  0.00    -0.203 F 
ATOM    100  F   UNL A   1      47.923  29.436  35.680  1.00  0.00    -0.200 F 
ATOM    101  C   UNL A   1      46.549  27.839  36.749  1.00  0.00     0.200 A 
ATOM    102  F   UNL A   1      45.141  26.249  37.780  1.00  0.00    -0.200 F 
ATOM    103  F   UNL A   1      47.601  27.376  37.440  1.00  0.00    -0.200 F 
ENDBRANCH  70  93
ENDBRANCH  44  45
ENDBRANCH  36  39
ENDBRANCH  34  35
ENDBRANCH  33  34
ENDBRANCH  32  33
ENDBRANCH   1  32
TORSDOF 17
ENDMDL
MODEL 3
REMARK VINA RESULT:     -12.5      1.312      7.137
REMARK SMILES O=C(NCCCCCCNC(=O)c1ccc(-c2c3nc(c(-c4c(F)c(F)c(F)c(F)c4F)c4ccc([nH]4)c(-c4c(F)c(F)c(F)c(F)c4F)c4nc(c(-c5c(F)c(F)c(F)c(F)c5F)c5ccc2[nH]5)C=C4)C=C3)cc1)C1=Cc2cc(Cl)cc(-c3ccc(CO)cc3)c2O[C@@H]1C(F)(F)F
REMARK SMILES IDX 6 1 5 2 4 3 3 4 1 5 2 6 76 8 77 9 94 10 78 11 93 12 79 13
REMARK SMILES IDX 92 14 80 15 83 16 81 17 82 18 95 19 96 20 97 21 98 22 84 23
REMARK SMILES IDX 85 24 91 25 86 26 90 27 87 28 88 29 89 30 7 32 8 33 9 34
REMARK SMILES IDX 10 35 11 36 12 38 13 39 14 40 75 41 15 42 74 43 16 44 17 45
REMARK SMILES IDX 18 46 68 47 19 48 73 49 67 50 69 51 20 52 72 53 66 54 65 55
REMARK SMILES IDX 21 57 53 58 33 59 52 60 34 61 37 62 51 63 70 64 35 65 36 66
REMARK SMILES IDX 50 68 71 69 38 70 22 71 23 72 31 73 24 74 25 75 29 76 32 77
REMARK SMILES IDX 26 78 27 79 30 80 28 81 54 82 55 83 63 84 56 85 57 86 61 87
REMARK SMILES IDX 64 88 58 89 59 90 62 91 60 92 39 93 40 94 48 95 41 96 42 97
REMARK SMILES IDX 46 98 49 99 43 100 44 101 47 102 45 103
REMARK H PARENT 3 7 89 31 10 37 69 56 37 67
REMARK Flexibility Score: inf
ROOT
ATOM      1  C   UNL A   1      32.061  28.670  26.479  1.00  0.00     0.002 C 
ENDROOT
BRANCH   1   2
ATOM      2  C   UNL A   1      31.073  27.557  26.848  1.00  0.00     0.021 C 
BRANCH   2   3
ATOM      3  C   UNL A   1      31.215  26.223  26.107  1.00  0.00     0.116 C 
BRANCH   3   4
ATOM      4  N   UNL A   1      31.376  25.056  26.970  1.00  0.00    -0.352 N 
ATOM      5  O   UNL A   1      32.181  23.054  27.638  1.00  0.00    -0.270 OA
ATOM      6  C   UNL A   1      32.012  23.857  26.727  1.00  0.00     0.251 C 
ATOM      7  H   UNL A   1      30.966  25.138  27.862  1.00  0.00     0.163 HD
BRANCH   6   8
ATOM      8  C   UNL A   1      32.677  23.650  25.415  1.00  0.00     0.067 C 
ATOM      9  C   UNL A   1      33.909  24.061  25.080  1.00  0.00     0.025 C 
ATOM     10  C   UNL A   1      32.028  22.647  24.508  1.00  0.00     0.314 C 
ATOM     11  C   UNL A   1      34.764  22.878  24.780  1.00  0.00     0.019 A 
ATOM     12  O   UNL A   1      32.803  21.428  24.506  1.00  0.00    -0.475 OA
ATOM     13  C   UNL A   1      36.145  22.976  25.003  1.00  0.00     0.032 A 
ATOM     14  C   UNL A   1      34.169  21.593  24.640  1.00  0.00     0.135 A 
ATOM     15  C   UNL A   1      36.915  21.819  25.102  1.00  0.00     0.042 A 
ATOM     16  C   UNL A   1      34.935  20.423  24.801  1.00  0.00     0.026 A 
ATOM     17  Cl  UNL A   1      38.584  21.930  25.511  1.00  0.00    -0.084 Cl
ATOM     18  C   UNL A   1      36.323  20.561  25.001  1.00  0.00     0.033 A 
BRANCH  10  19
ATOM     19  C   UNL A   1      31.822  23.226  23.086  1.00  0.00     0.429 C 
ATOM     20  F   UNL A   1      32.629  22.619  22.183  1.00  0.00    -0.167 F 
ATOM     21  F   UNL A   1      30.548  23.050  22.653  1.00  0.00    -0.167 F 
ATOM     22  F   UNL A   1      32.079  24.555  23.009  1.00  0.00    -0.167 F 
ENDBRANCH  10  19
BRANCH  16  23
ATOM     23  C   UNL A   1      34.336  19.090  25.014  1.00  0.00    -0.015 A 
ATOM     24  C   UNL A   1      35.076  17.963  24.623  1.00  0.00     0.009 A 
ATOM     25  C   UNL A   1      33.063  18.876  25.543  1.00  0.00     0.009 A 
ATOM     26  C   UNL A   1      34.558  16.674  24.679  1.00  0.00     0.007 A 
ATOM     27  C   UNL A   1      32.528  17.577  25.603  1.00  0.00     0.007 A 
ATOM     28  C   UNL A   1      33.260  16.471  25.143  1.00  0.00    -0.023 A 
BRANCH  28  29
ATOM     29  C   UNL A   1      32.680  15.082  25.121  1.00  0.00     0.191 C 
BRANCH  29  30
ATOM     30  O   UNL A   1      31.404  15.066  25.753  1.00  0.00    -0.392 OA
ATOM     31  H   UNL A   1      31.154  15.970  26.001  1.00  0.00     0.211 HD
ENDBRANCH  29  30
ENDBRANCH  28  29
ENDBRANCH  16  23
ENDBRANCH   6   8
ENDBRANCH   3   4
ENDBRANCH   2   3
ENDBRANCH   1   2
BRANCH   1  32
ATOM     32  C   UNL A   1      31.486  30.079  26.286  1.00  0.00     0.002 C 
BRANCH  32  33
ATOM     33  C   UNL A   1      31.986  31.162  27.246  1.00  0.00     0.021 C 
BRANCH  33  34
ATOM     34  C   UNL A   1      32.861  32.250  26.642  1.00  0.00     0.116 C 
BRANCH  34  35
ATOM     35  N   UNL A   1      32.596  33.548  27.241  1.00  0.00    -0.352 N 
ATOM     36  C   UNL A   1      33.083  34.137  28.382  1.00  0.00     0.251 C 
ATOM     37  H   UNL A   1      31.955  34.102  26.739  1.00  0.00     0.163 HD
ATOM     38  O   UNL A   1      32.532  35.145  28.810  1.00  0.00    -0.269 OA
BRANCH  36  39
ATOM     39  C   UNL A   1      34.255  33.588  29.112  1.00  0.00     0.039 A 
ATOM     40  C   UNL A   1      35.518  34.141  28.861  1.00  0.00     0.014 A 
ATOM     41  C   UNL A   1      34.152  32.488  29.966  1.00  0.00     0.014 A 
ATOM     42  C   UNL A   1      36.656  33.618  29.487  1.00  0.00     0.010 A 
ATOM     43  C   UNL A   1      35.269  32.030  30.662  1.00  0.00     0.010 A 
ATOM     44  C   UNL A   1      36.538  32.570  30.411  1.00  0.00    -0.014 A 
BRANCH  44  45
ATOM     45  C   UNL A   1      37.728  31.988  31.088  1.00  0.00     0.031 A 
ATOM     46  C   UNL A   1      38.559  30.947  30.385  1.00  0.00     0.074 A 
ATOM     47  C   UNL A   1      38.025  32.344  32.352  1.00  0.00     0.049 A 
ATOM     48  N   UNL A   1      39.568  30.243  30.836  1.00  0.00    -0.248 NA
ATOM     49  C   UNL A   1      38.182  30.629  28.998  1.00  0.00     0.031 C 
ATOM     50  C   UNL A   1      37.274  33.306  33.158  1.00  0.00     0.029 A 
ATOM     51  N   UNL A   1      39.033  31.926  33.186  1.00  0.00    -0.354 N 
ATOM     52  C   UNL A   1      39.925  29.388  29.801  1.00  0.00     0.074 A 
ATOM     53  C   UNL A   1      38.992  29.618  28.721  1.00  0.00     0.031 C 
ATOM     54  C   UNL A   1      37.853  33.415  34.364  1.00  0.00     0.029 A 
ATOM     55  C   UNL A   1      38.993  32.505  34.430  1.00  0.00     0.049 A 
ATOM     56  H   UNL A   1      39.718  31.272  32.917  1.00  0.00     0.167 HD
ATOM     57  C   UNL A   1      40.957  28.511  29.744  1.00  0.00     0.037 A 
ATOM     58  C   UNL A   1      39.781  32.317  35.506  1.00  0.00     0.037 A 
ATOM     59  C   UNL A   1      41.905  28.309  30.807  1.00  0.00     0.049 A 
ATOM     60  C   UNL A   1      40.930  31.349  35.415  1.00  0.00     0.074 A 
ATOM     61  C   UNL A   1      43.017  27.486  30.830  1.00  0.00     0.029 A 
ATOM     62  N   UNL A   1      41.854  28.947  32.039  1.00  0.00    -0.354 N 
ATOM     63  N   UNL A   1      41.291  30.587  34.412  1.00  0.00    -0.248 NA
ATOM     64  C   UNL A   1      41.786  31.224  36.602  1.00  0.00     0.031 C 
ATOM     65  C   UNL A   1      43.617  27.596  32.089  1.00  0.00     0.029 A 
ATOM     66  C   UNL A   1      42.907  28.524  32.834  1.00  0.00     0.049 A 
ATOM     67  H   UNL A   1      41.171  29.602  32.307  1.00  0.00     0.167 HD
ATOM     68  C   UNL A   1      42.425  29.908  34.836  1.00  0.00     0.074 A 
ATOM     69  C   UNL A   1      42.703  30.364  36.183  1.00  0.00     0.031 C 
ATOM     70  C   UNL A   1      43.169  28.991  34.171  1.00  0.00     0.037 A 
BRANCH  57  71
ATOM     71  C   UNL A   1      41.113  27.708  28.482  1.00  0.00     0.064 A 
ATOM     72  C   UNL A   1      41.955  28.130  27.442  1.00  0.00     0.173 A 
ATOM     73  C   UNL A   1      40.429  26.494  28.318  1.00  0.00     0.173 A 
ATOM     74  F   UNL A   1      42.624  29.289  27.542  1.00  0.00    -0.203 F 
ATOM     75  C   UNL A   1      42.076  27.388  26.270  1.00  0.00     0.198 A 
ATOM     76  C   UNL A   1      40.578  25.738  27.159  1.00  0.00     0.198 A 
ATOM     77  F   UNL A   1      39.616  26.039  29.284  1.00  0.00    -0.203 F 
ATOM     78  F   UNL A   1      42.839  27.843  25.266  1.00  0.00    -0.200 F 
ATOM     79  C   UNL A   1      41.392  26.190  26.132  1.00  0.00     0.200 A 
ATOM     80  F   UNL A   1      39.926  24.573  27.031  1.00  0.00    -0.200 F 
ATOM     81  F   UNL A   1      41.511  25.476  25.004  1.00  0.00    -0.200 F 
ENDBRANCH  57  71
BRANCH  58  82
ATOM     82  C   UNL A   1      39.519  33.081  36.753  1.00  0.00     0.064 A 
ATOM     83  C   UNL A   1      38.592  32.621  37.698  1.00  0.00     0.173 A 
ATOM     84  C   UNL A   1      40.200  34.275  37.034  1.00  0.00     0.173 A 
ATOM     85  F   UNL A   1      37.902  31.495  37.465  1.00  0.00    -0.203 F 
ATOM     86  C   UNL A   1      38.344  33.335  38.868  1.00  0.00     0.198 A 
ATOM     87  C   UNL A   1      39.971  34.973  38.217  1.00  0.00     0.198 A 
ATOM     88  F   UNL A   1      41.103  34.754  36.165  1.00  0.00    -0.203 F 
ATOM     89  F   UNL A   1      37.423  32.893  39.737  1.00  0.00    -0.200 F 
ATOM     90  C   UNL A   1      39.038  34.506  39.131  1.00  0.00     0.200 A 
ATOM     91  F   UNL A   1      40.656  36.095  38.474  1.00  0.00    -0.200 F 
ATOM     92  F   UNL A   1      38.806  35.187  40.262  1.00  0.00    -0.200 F 
ENDBRANCH  58  82
BRANCH  70  93
ATOM     93  C   UNL A   1      44.371  28.438  34.879  1.00  0.00     0.064 A 
ATOM     94  C   UNL A   1      44.301  27.257  35.633  1.00  0.00     0.173 A 
ATOM     95  C   UNL A   1      45.616  29.076  34.768  1.00  0.00     0.173 A 
ATOM     96  F   UNL A   1      43.130  26.618  35.781  1.00  0.00    -0.203 F 
ATOM     97  C   UNL A   1      45.430  26.747  36.268  1.00  0.00     0.198 A 
ATOM     98  C   UNL A   1      46.748  28.548  35.382  1.00  0.00     0.198 A 
ATOM     99  F   UNL A   1      45.736  30.205  34.054  1.00  0.00    -0.203 F 
ATOM    100  F   UNL A   1      45.331  25.641  37.019  1.00  0.00    -0.200 F 
ATOM    101  C   UNL A   1      46.653  27.388  36.136  1.00  0.00     0.200 A 
ATOM    102  F   UNL A   1      47.931  29.161  35.243  1.00  0.00    -0.200 F 
ATOM    103  F   UNL A   1      47.740  26.891  36.743  1.00  0.00    -0.200 F 
ENDBRANCH  70  93
ENDBRANCH  44  45
ENDBRANCH  36  39
ENDBRANCH  34  35
ENDBRANCH  33  34
ENDBRANCH  32  33
ENDBRANCH   1  32
TORSDOF 17
ENDMDL
