MODEL 1
REMARK VINA RESULT:     -12.0      0.000      0.000
REMARK SMILES CC(C)N(C(=O)[C@@H]1CCCC[C@H]1C(=O)NCCCCCCNC(=O)c1ccc(-c2c3nc(c(-c4c(F)c(F)c(F)c(F)c4F)c4ccc([nH]4)c(-c4c(F)c(F)c(F)c(F)c4F)c4nc(c(-c5c(F)c(F)c(F)c(F)c5F)c5ccc2[nH]5)C=C4)C=C3)cc1)C(C)C
REMARK SMILES IDX 18 1 17 2 16 3 15 4 13 5 14 6 12 8 7 9 8 10 9 11 11 12 10 13
REMARK SMILES IDX 5 14 4 15 6 16 2 17 1 18 3 19 88 20 89 21 90 22 19 23 20 24
REMARK SMILES IDX 21 25 22 26 23 27 24 29 25 30 26 31 87 32 27 33 86 34 28 35
REMARK SMILES IDX 29 36 30 37 80 38 31 39 85 40 79 41 81 42 32 43 84 44 78 45
REMARK SMILES IDX 77 46 33 48 65 49 45 50 64 51 46 52 49 53 63 54 82 55 47 56
REMARK SMILES IDX 48 57 62 59 83 60 50 61 34 62 35 63 43 64 36 65 37 66 41 67
REMARK SMILES IDX 44 68 38 69 39 70 42 71 40 72 66 73 67 74 75 75 68 76 69 77
REMARK SMILES IDX 73 78 76 79 70 80 71 81 74 82 72 83 51 84 52 85 60 86 53 87
REMARK SMILES IDX 54 88 58 89 61 90 55 91 56 92 59 93 57 94
REMARK H PARENT 15 7 22 28 81 47 49 58
REMARK Flexibility Score: inf
ROOT
ATOM      1  C   UNL A   1      33.232  29.834  27.219  1.00  0.00     0.002 C 
ENDROOT
BRANCH   1   2
ATOM      2  C   UNL A   1      33.921  29.315  25.952  1.00  0.00     0.021 C 
BRANCH   2   3
ATOM      3  C   UNL A   1      33.034  29.346  24.708  1.00  0.00     0.116 C 
BRANCH   3   4
ATOM      4  N   UNL A   1      33.752  28.867  23.541  1.00  0.00    -0.356 N 
ATOM      5  C   UNL A   1      33.393  28.005  22.554  1.00  0.00     0.223 C 
ATOM      6  O   UNL A   1      34.235  27.739  21.691  1.00  0.00    -0.275 OA
ATOM      7  H   UNL A   1      34.660  29.235  23.446  1.00  0.00     0.163 HD
BRANCH   5   8
ATOM      8  C   UNL A   1      31.986  27.413  22.457  1.00  0.00     0.091 C 
ATOM      9  C   UNL A   1      31.790  26.208  23.403  1.00  0.00     0.091 C 
ATOM     10  C   UNL A   1      30.348  25.859  23.796  1.00  0.00     0.014 C 
ATOM     11  C   UNL A   1      29.480  27.092  24.014  1.00  0.00     0.001 C 
ATOM     12  C   UNL A   1      30.939  28.532  22.574  1.00  0.00     0.014 C 
ATOM     13  C   UNL A   1      29.528  28.011  22.804  1.00  0.00     0.001 C 
BRANCH   9  14
ATOM     14  C   UNL A   1      32.624  24.982  22.989  1.00  0.00     0.226 C 
ATOM     15  N   UNL A   1      33.282  24.159  23.916  1.00  0.00    -0.338 N 
ATOM     16  O   UNL A   1      32.678  24.755  21.771  1.00  0.00    -0.275 OA
BRANCH  15  17
ATOM     17  C   UNL A   1      33.442  24.508  25.355  1.00  0.00     0.079 C 
ATOM     18  C   UNL A   1      33.984  25.906  25.641  1.00  0.00     0.031 C 
ATOM     19  C   UNL A   1      32.197  24.211  26.194  1.00  0.00     0.031 C 
ENDBRANCH  15  17
BRANCH  15  20
ATOM     20  C   UNL A   1      33.955  22.959  23.329  1.00  0.00     0.079 C 
ATOM     21  C   UNL A   1      35.481  23.047  23.341  1.00  0.00     0.031 C 
ATOM     22  C   UNL A   1      33.467  21.612  23.859  1.00  0.00     0.031 C 
ENDBRANCH  15  20
ENDBRANCH   9  14
ENDBRANCH   5   8
ENDBRANCH   3   4
ENDBRANCH   2   3
ENDBRANCH   1   2
BRANCH   1  23
ATOM     23  C   UNL A   1      31.807  30.360  27.014  1.00  0.00     0.002 C 
BRANCH  23  24
ATOM     24  C   UNL A   1      31.697  31.876  26.831  1.00  0.00     0.021 C 
BRANCH  24  25
ATOM     25  C   UNL A   1      32.887  32.667  27.364  1.00  0.00     0.116 C 
BRANCH  25  26
ATOM     26  N   UNL A   1      32.542  34.052  27.646  1.00  0.00    -0.352 N 
ATOM     27  C   UNL A   1      33.047  34.901  28.599  1.00  0.00     0.251 C 
ATOM     28  H   UNL A   1      31.843  34.436  27.068  1.00  0.00     0.163 HD
ATOM     29  O   UNL A   1      32.502  35.976  28.829  1.00  0.00    -0.269 OA
BRANCH  27  30
ATOM     30  C   UNL A   1      34.240  34.501  29.371  1.00  0.00     0.039 A 
ATOM     31  C   UNL A   1      34.071  33.970  30.652  1.00  0.00     0.014 A 
ATOM     32  C   UNL A   1      35.519  34.632  28.823  1.00  0.00     0.014 A 
ATOM     33  C   UNL A   1      35.178  33.484  31.349  1.00  0.00     0.010 A 
ATOM     34  C   UNL A   1      36.613  34.091  29.492  1.00  0.00     0.010 A 
ATOM     35  C   UNL A   1      36.450  33.495  30.752  1.00  0.00    -0.014 A 
BRANCH  35  36
ATOM     36  C   UNL A   1      37.611  32.835  31.398  1.00  0.00     0.031 A 
ATOM     37  C   UNL A   1      38.267  31.649  30.755  1.00  0.00     0.074 A 
ATOM     38  C   UNL A   1      38.009  33.252  32.616  1.00  0.00     0.049 A 
ATOM     39  N   UNL A   1      39.212  30.872  31.222  1.00  0.00    -0.248 NA
ATOM     40  C   UNL A   1      37.781  31.270  29.419  1.00  0.00     0.031 C 
ATOM     41  C   UNL A   1      37.424  34.370  33.358  1.00  0.00     0.029 A 
ATOM     42  N   UNL A   1      38.985  32.772  33.454  1.00  0.00    -0.354 N 
ATOM     43  C   UNL A   1      39.427  29.911  30.244  1.00  0.00     0.074 A 
ATOM     44  C   UNL A   1      38.484  30.173  29.177  1.00  0.00     0.031 C 
ATOM     45  C   UNL A   1      38.057  34.496  34.535  1.00  0.00     0.029 A 
ATOM     46  C   UNL A   1      39.057  33.440  34.653  1.00  0.00     0.049 A 
ATOM     47  H   UNL A   1      39.577  32.022  33.219  1.00  0.00     0.167 HD
ATOM     48  C   UNL A   1      40.341  28.911  30.234  1.00  0.00     0.037 A 
ATOM     49  C   UNL A   1      39.824  33.210  35.735  1.00  0.00     0.037 A 
ATOM     50  C   UNL A   1      41.284  28.663  31.293  1.00  0.00     0.049 A 
ATOM     51  C   UNL A   1      40.799  32.064  35.716  1.00  0.00     0.074 A 
ATOM     52  C   UNL A   1      42.297  27.723  31.344  1.00  0.00     0.029 A 
ATOM     53  N   UNL A   1      41.322  29.356  32.496  1.00  0.00    -0.354 N 
ATOM     54  N   UNL A   1      41.046  31.207  34.755  1.00  0.00    -0.248 NA
ATOM     55  C   UNL A   1      41.594  31.851  36.931  1.00  0.00     0.031 C 
ATOM     56  C   UNL A   1      42.910  27.806  32.599  1.00  0.00     0.029 A 
ATOM     57  C   UNL A   1      42.313  28.834  33.312  1.00  0.00     0.049 A 
ATOM     58  H   UNL A   1      40.731  30.106  32.734  1.00  0.00     0.167 HD
ATOM     59  C   UNL A   1      42.034  30.364  35.243  1.00  0.00     0.074 A 
ATOM     60  C   UNL A   1      42.358  30.825  36.577  1.00  0.00     0.031 C 
ATOM     61  C   UNL A   1      42.617  29.299  34.641  1.00  0.00     0.037 A 
BRANCH  48  62
ATOM     62  C   UNL A   1      40.365  28.001  29.040  1.00  0.00     0.064 A 
ATOM     63  C   UNL A   1      39.608  26.820  28.999  1.00  0.00     0.173 A 
ATOM     64  C   UNL A   1      41.115  28.339  27.903  1.00  0.00     0.173 A 
ATOM     65  F   UNL A   1      38.880  26.447  30.063  1.00  0.00    -0.203 F 
ATOM     66  C   UNL A   1      39.622  25.999  27.875  1.00  0.00     0.198 A 
ATOM     67  C   UNL A   1      41.103  27.530  26.769  1.00  0.00     0.198 A 
ATOM     68  F   UNL A   1      41.850  29.460  27.886  1.00  0.00    -0.203 F 
ATOM     69  F   UNL A   1      38.925  24.853  27.875  1.00  0.00    -0.200 F 
ATOM     70  C   UNL A   1      40.362  26.357  26.758  1.00  0.00     0.200 A 
ATOM     71  F   UNL A   1      41.808  27.886  25.686  1.00  0.00    -0.200 F 
ATOM     72  F   UNL A   1      40.367  25.571  25.674  1.00  0.00    -0.200 F 
ENDBRANCH  48  62
BRANCH  49  73
ATOM     73  C   UNL A   1      39.694  34.081  36.934  1.00  0.00     0.064 A 
ATOM     74  C   UNL A   1      38.878  33.707  38.010  1.00  0.00     0.173 A 
ATOM     75  C   UNL A   1      40.377  35.303  37.028  1.00  0.00     0.173 A 
ATOM     76  F   UNL A   1      38.188  32.559  37.958  1.00  0.00    -0.203 F 
ATOM     77  C   UNL A   1      38.738  34.528  39.127  1.00  0.00     0.198 A 
ATOM     78  C   UNL A   1      40.260  36.109  38.157  1.00  0.00     0.198 A 
ATOM     79  F   UNL A   1      41.173  35.707  36.026  1.00  0.00    -0.203 F 
ATOM     80  F   UNL A   1      37.918  34.167  40.122  1.00  0.00    -0.200 F 
ATOM     81  C   UNL A   1      39.434  35.725  39.203  1.00  0.00     0.200 A 
ATOM     82  F   UNL A   1      40.946  37.257  38.232  1.00  0.00    -0.200 F 
ATOM     83  F   UNL A   1      39.303  36.512  40.279  1.00  0.00    -0.200 F 
ENDBRANCH  49  73
BRANCH  61  84
ATOM     84  C   UNL A   1      43.668  28.560  35.417  1.00  0.00     0.064 A 
ATOM     85  C   UNL A   1      43.334  27.502  36.276  1.00  0.00     0.173 A 
ATOM     86  C   UNL A   1      45.026  28.878  35.263  1.00  0.00     0.173 A 
ATOM     87  F   UNL A   1      42.049  27.171  36.472  1.00  0.00    -0.203 F 
ATOM     88  C   UNL A   1      44.321  26.802  36.965  1.00  0.00     0.198 A 
ATOM     89  C   UNL A   1      46.011  28.156  35.931  1.00  0.00     0.198 A 
ATOM     90  F   UNL A   1      45.398  29.878  34.451  1.00  0.00    -0.203 F 
ATOM     91  F   UNL A   1      43.976  25.822  37.812  1.00  0.00    -0.200 F 
ATOM     92  C   UNL A   1      45.658  27.123  36.785  1.00  0.00     0.200 A 
ATOM     93  F   UNL A   1      47.304  28.459  35.745  1.00  0.00    -0.200 F 
ATOM     94  F   UNL A   1      46.606  26.439  37.440  1.00  0.00    -0.200 F 
ENDBRANCH  61  84
ENDBRANCH  35  36
ENDBRANCH  27  30
ENDBRANCH  25  26
ENDBRANCH  24  25
ENDBRANCH  23  24
ENDBRANCH   1  23
TORSDOF 16
ENDMDL
MODEL 2
REMARK VINA RESULT:     -12.0      5.648     11.149
REMARK SMILES CC(C)N(C(=O)[C@@H]1CCCC[C@H]1C(=O)NCCCCCCNC(=O)c1ccc(-c2c3nc(c(-c4c(F)c(F)c(F)c(F)c4F)c4ccc([nH]4)c(-c4c(F)c(F)c(F)c(F)c4F)c4nc(c(-c5c(F)c(F)c(F)c(F)c5F)c5ccc2[nH]5)C=C4)C=C3)cc1)C(C)C
REMARK SMILES IDX 18 1 17 2 16 3 15 4 13 5 14 6 12 8 7 9 8 10 9 11 11 12 10 13
REMARK SMILES IDX 5 14 4 15 6 16 2 17 1 18 3 19 88 20 89 21 90 22 19 23 20 24
REMARK SMILES IDX 21 25 22 26 23 27 24 29 25 30 26 31 87 32 27 33 86 34 28 35
REMARK SMILES IDX 29 36 30 37 80 38 31 39 85 40 79 41 81 42 32 43 84 44 78 45
REMARK SMILES IDX 77 46 33 48 65 49 45 50 64 51 46 52 49 53 63 54 82 55 47 56
REMARK SMILES IDX 48 57 62 59 83 60 50 61 34 62 35 63 43 64 36 65 37 66 41 67
REMARK SMILES IDX 44 68 38 69 39 70 42 71 40 72 66 73 67 74 75 75 68 76 69 77
REMARK SMILES IDX 73 78 76 79 70 80 71 81 74 82 72 83 51 84 52 85 60 86 53 87
REMARK SMILES IDX 54 88 58 89 61 90 55 91 56 92 59 93 57 94
REMARK H PARENT 15 7 22 28 81 47 49 58
REMARK Flexibility Score: inf
ROOT
ATOM      1  C   UNL A   1      35.548  21.093  25.028  1.00  0.00     0.002 C 
ENDROOT
BRANCH   1   2
ATOM      2  C   UNL A   1      35.107  21.449  26.452  1.00  0.00     0.021 C 
BRANCH   2   3
ATOM      3  C   UNL A   1      34.814  22.934  26.657  1.00  0.00     0.116 C 
BRANCH   3   4
ATOM      4  N   UNL A   1      33.492  23.135  27.223  1.00  0.00    -0.356 N 
ATOM      5  C   UNL A   1      32.331  23.568  26.666  1.00  0.00     0.223 C 
ATOM      6  O   UNL A   1      31.351  23.688  27.407  1.00  0.00    -0.275 OA
ATOM      7  H   UNL A   1      33.425  22.917  28.180  1.00  0.00     0.163 HD
BRANCH   5   8
ATOM      8  C   UNL A   1      32.197  23.850  25.169  1.00  0.00     0.091 C 
ATOM      9  C   UNL A   1      33.248  24.864  24.667  1.00  0.00     0.091 C 
ATOM     10  C   UNL A   1      33.571  24.846  23.166  1.00  0.00     0.014 C 
ATOM     11  C   UNL A   1      33.596  23.437  22.585  1.00  0.00     0.001 C 
ATOM     12  C   UNL A   1      32.120  22.526  24.392  1.00  0.00     0.014 C 
ATOM     13  C   UNL A   1      32.302  22.700  22.892  1.00  0.00     0.001 C 
BRANCH   9  14
ATOM     14  C   UNL A   1      33.024  26.281  25.226  1.00  0.00     0.226 C 
ATOM     15  N   UNL A   1      31.868  27.032  24.958  1.00  0.00    -0.338 N 
ATOM     16  O   UNL A   1      33.933  26.727  25.941  1.00  0.00    -0.275 OA
BRANCH  15  17
ATOM     17  C   UNL A   1      30.859  26.648  23.933  1.00  0.00     0.079 C 
ATOM     18  C   UNL A   1      29.488  26.245  24.472  1.00  0.00     0.031 C 
ATOM     19  C   UNL A   1      30.733  27.661  22.794  1.00  0.00     0.031 C 
ENDBRANCH  15  17
BRANCH  15  20
ATOM     20  C   UNL A   1      31.788  28.344  25.674  1.00  0.00     0.079 C 
ATOM     21  C   UNL A   1      31.653  28.204  27.191  1.00  0.00     0.031 C 
ATOM     22  C   UNL A   1      32.866  29.359  25.298  1.00  0.00     0.031 C 
ENDBRANCH  15  20
ENDBRANCH   9  14
ENDBRANCH   5   8
ENDBRANCH   3   4
ENDBRANCH   2   3
ENDBRANCH   1   2
BRANCH   1  23
ATOM     23  C   UNL A   1      37.031  21.335  24.728  1.00  0.00     0.002 C 
BRANCH  23  24
ATOM     24  C   UNL A   1      37.949  20.138  24.990  1.00  0.00     0.021 C 
BRANCH  24  25
ATOM     25  C   UNL A   1      39.183  20.457  25.828  1.00  0.00     0.116 C 
BRANCH  25  26
ATOM     26  N   UNL A   1      40.096  19.328  25.910  1.00  0.00    -0.352 N 
ATOM     27  C   UNL A   1      41.457  19.317  26.085  1.00  0.00     0.251 C 
ATOM     28  H   UNL A   1      39.676  18.441  25.827  1.00  0.00     0.163 HD
ATOM     29  O   UNL A   1      42.098  18.282  25.931  1.00  0.00    -0.269 OA
BRANCH  27  30
ATOM     30  C   UNL A   1      42.157  20.569  26.434  1.00  0.00     0.039 A 
ATOM     31  C   UNL A   1      42.682  21.360  25.409  1.00  0.00     0.014 A 
ATOM     32  C   UNL A   1      42.275  20.971  27.768  1.00  0.00     0.014 A 
ATOM     33  C   UNL A   1      43.246  22.600  25.714  1.00  0.00     0.010 A 
ATOM     34  C   UNL A   1      42.779  22.233  28.065  1.00  0.00     0.010 A 
ATOM     35  C   UNL A   1      43.252  23.067  27.039  1.00  0.00    -0.014 A 
BRANCH  35  36
ATOM     36  C   UNL A   1      43.689  24.446  27.369  1.00  0.00     0.031 A 
ATOM     37  C   UNL A   1      42.698  25.464  27.849  1.00  0.00     0.074 A 
ATOM     38  C   UNL A   1      44.969  24.800  27.141  1.00  0.00     0.049 A 
ATOM     39  N   UNL A   1      42.869  26.743  28.073  1.00  0.00    -0.248 NA
ATOM     40  C   UNL A   1      41.327  24.989  28.087  1.00  0.00     0.031 C 
ATOM     41  C   UNL A   1      46.016  23.908  26.640  1.00  0.00     0.029 A 
ATOM     42  N   UNL A   1      45.603  26.010  27.280  1.00  0.00    -0.354 N 
ATOM     43  C   UNL A   1      41.629  27.225  28.469  1.00  0.00     0.074 A 
ATOM     44  C   UNL A   1      40.704  26.113  28.412  1.00  0.00     0.031 C 
ATOM     45  C   UNL A   1      47.161  24.596  26.521  1.00  0.00     0.029 A 
ATOM     46  C   UNL A   1      46.921  25.988  26.890  1.00  0.00     0.049 A 
ATOM     47  H   UNL A   1      45.157  26.817  27.625  1.00  0.00     0.167 HD
ATOM     48  C   UNL A   1      41.299  28.480  28.860  1.00  0.00     0.037 A 
ATOM     49  C   UNL A   1      47.826  26.982  26.814  1.00  0.00     0.037 A 
ATOM     50  C   UNL A   1      42.228  29.578  28.926  1.00  0.00     0.049 A 
ATOM     51  C   UNL A   1      47.421  28.376  27.210  1.00  0.00     0.074 A 
ATOM     52  C   UNL A   1      42.008  30.867  29.380  1.00  0.00     0.029 A 
ATOM     53  N   UNL A   1      43.552  29.519  28.517  1.00  0.00    -0.354 N 
ATOM     54  N   UNL A   1      46.265  28.805  27.654  1.00  0.00    -0.248 NA
ATOM     55  C   UNL A   1      48.443  29.423  27.088  1.00  0.00     0.031 C 
ATOM     56  C   UNL A   1      43.182  31.604  29.190  1.00  0.00     0.029 A 
ATOM     57  C   UNL A   1      44.150  30.761  28.666  1.00  0.00     0.049 A 
ATOM     58  H   UNL A   1      44.002  28.715  28.169  1.00  0.00     0.167 HD
ATOM     59  C   UNL A   1      46.425  30.165  27.879  1.00  0.00     0.074 A 
ATOM     60  C   UNL A   1      47.796  30.487  27.544  1.00  0.00     0.031 C 
ATOM     61  C   UNL A   1      45.514  31.068  28.319  1.00  0.00     0.037 A 
BRANCH  48  62
ATOM     62  C   UNL A   1      39.871  28.738  29.243  1.00  0.00     0.064 A 
ATOM     63  C   UNL A   1      38.923  29.168  28.303  1.00  0.00     0.173 A 
ATOM     64  C   UNL A   1      39.433  28.504  30.557  1.00  0.00     0.173 A 
ATOM     65  F   UNL A   1      39.291  29.414  27.036  1.00  0.00    -0.203 F 
ATOM     66  C   UNL A   1      37.596  29.380  28.669  1.00  0.00     0.198 A 
ATOM     67  C   UNL A   1      38.099  28.688  30.911  1.00  0.00     0.198 A 
ATOM     68  F   UNL A   1      40.297  28.084  31.493  1.00  0.00    -0.203 F 
ATOM     69  F   UNL A   1      36.717  29.833  27.763  1.00  0.00    -0.200 F 
ATOM     70  C   UNL A   1      37.183  29.132  29.969  1.00  0.00     0.200 A 
ATOM     71  F   UNL A   1      37.700  28.434  32.165  1.00  0.00    -0.200 F 
ATOM     72  F   UNL A   1      35.904  29.327  30.317  1.00  0.00    -0.200 F 
ENDBRANCH  48  62
BRANCH  49  73
ATOM     73  C   UNL A   1      49.204  26.695  26.334  1.00  0.00     0.064 A 
ATOM     74  C   UNL A   1      50.186  26.216  27.211  1.00  0.00     0.173 A 
ATOM     75  C   UNL A   1      49.568  26.896  24.994  1.00  0.00     0.173 A 
ATOM     76  F   UNL A   1      49.892  26.029  28.506  1.00  0.00    -0.203 F 
ATOM     77  C   UNL A   1      51.483  25.963  26.771  1.00  0.00     0.198 A 
ATOM     78  C   UNL A   1      50.857  26.616  24.549  1.00  0.00     0.198 A 
ATOM     79  F   UNL A   1      48.664  27.352  24.113  1.00  0.00    -0.203 F 
ATOM     80  F   UNL A   1      52.414  25.547  27.639  1.00  0.00    -0.200 F 
ATOM     81  C   UNL A   1      51.816  26.157  25.439  1.00  0.00     0.200 A 
ATOM     82  F   UNL A   1      51.170  26.790  23.257  1.00  0.00    -0.200 F 
ATOM     83  F   UNL A   1      53.062  25.909  25.014  1.00  0.00    -0.200 F 
ENDBRANCH  49  73
BRANCH  61  84
ATOM     84  C   UNL A   1      45.971  32.490  28.468  1.00  0.00     0.064 A 
ATOM     85  C   UNL A   1      46.578  32.942  29.649  1.00  0.00     0.173 A 
ATOM     86  C   UNL A   1      45.848  33.395  27.403  1.00  0.00     0.173 A 
ATOM     87  F   UNL A   1      46.703  32.121  30.702  1.00  0.00    -0.203 F 
ATOM     88  C   UNL A   1      47.028  34.255  29.763  1.00  0.00     0.198 A 
ATOM     89  C   UNL A   1      46.327  34.698  27.511  1.00  0.00     0.198 A 
ATOM     90  F   UNL A   1      45.279  33.011  26.251  1.00  0.00    -0.203 F 
ATOM     91  F   UNL A   1      47.567  34.677  30.916  1.00  0.00    -0.200 F 
ATOM     92  C   UNL A   1      46.912  35.128  28.692  1.00  0.00     0.200 A 
ATOM     93  F   UNL A   1      46.226  35.536  26.470  1.00  0.00    -0.200 F 
ATOM     94  F   UNL A   1      47.358  36.387  28.801  1.00  0.00    -0.200 F 
ENDBRANCH  61  84
ENDBRANCH  35  36
ENDBRANCH  27  30
ENDBRANCH  25  26
ENDBRANCH  24  25
ENDBRANCH  23  24
ENDBRANCH   1  23
TORSDOF 16
ENDMDL
MODEL 3
REMARK VINA RESULT:     -11.9      5.638     11.171
REMARK SMILES CC(C)N(C(=O)[C@@H]1CCCC[C@H]1C(=O)NCCCCCCNC(=O)c1ccc(-c2c3nc(c(-c4c(F)c(F)c(F)c(F)c4F)c4ccc([nH]4)c(-c4c(F)c(F)c(F)c(F)c4F)c4nc(c(-c5c(F)c(F)c(F)c(F)c5F)c5ccc2[nH]5)C=C4)C=C3)cc1)C(C)C
REMARK SMILES IDX 18 1 17 2 16 3 15 4 13 5 14 6 12 8 7 9 8 10 9 11 11 12 10 13
REMARK SMILES IDX 5 14 4 15 6 16 2 17 1 18 3 19 88 20 89 21 90 22 19 23 20 24
REMARK SMILES IDX 21 25 22 26 23 27 24 29 25 30 26 31 87 32 27 33 86 34 28 35
REMARK SMILES IDX 29 36 30 37 80 38 31 39 85 40 79 41 81 42 32 43 84 44 78 45
REMARK SMILES IDX 77 46 33 48 65 49 45 50 64 51 46 52 49 53 63 54 82 55 47 56
REMARK SMILES IDX 48 57 62 59 83 60 50 61 34 62 35 63 43 64 36 65 37 66 41 67
REMARK SMILES IDX 44 68 38 69 39 70 42 71 40 72 66 73 67 74 75 75 68 76 69 77
REMARK SMILES IDX 73 78 76 79 70 80 71 81 74 82 72 83 51 84 52 85 60 86 53 87
REMARK SMILES IDX 54 88 58 89 61 90 55 91 56 92 59 93 57 94
REMARK H PARENT 15 7 22 28 81 47 49 58
REMARK Flexibility Score: inf
ROOT
ATOM      1  C   UNL A   1      35.560  21.092  25.107  1.00  0.00     0.002 C 
ENDROOT
BRANCH   1   2
ATOM      2  C   UNL A   1      35.188  21.826  26.400  1.00  0.00     0.021 C 
BRANCH   2   3
ATOM      3  C   UNL A   1      34.616  23.225  26.175  1.00  0.00     0.116 C 
BRANCH   3   4
ATOM      4  N   UNL A   1      33.355  23.395  26.875  1.00  0.00    -0.356 N 
ATOM      5  C   UNL A   1      32.080  23.496  26.418  1.00  0.00     0.223 C 
ATOM      6  O   UNL A   1      31.187  23.683  27.251  1.00  0.00    -0.275 OA
ATOM      7  H   UNL A   1      33.440  23.444  27.854  1.00  0.00     0.163 HD
BRANCH   5   8
ATOM      8  C   UNL A   1      31.724  23.332  24.940  1.00  0.00     0.091 C 
ATOM      9  C   UNL A   1      32.177  24.539  24.090  1.00  0.00     0.091 C 
ATOM     10  C   UNL A   1      32.364  24.299  22.585  1.00  0.00     0.014 C 
ATOM     11  C   UNL A   1      32.966  22.935  22.275  1.00  0.00     0.001 C 
ATOM     12  C   UNL A   1      32.184  21.952  24.442  1.00  0.00     0.014 C 
ATOM     13  C   UNL A   1      32.159  21.824  22.927  1.00  0.00     0.001 C 
BRANCH   9  14
ATOM     14  C   UNL A   1      31.393  25.823  24.411  1.00  0.00     0.226 C 
ATOM     15  N   UNL A   1      32.000  27.086  24.499  1.00  0.00    -0.338 N 
ATOM     16  O   UNL A   1      30.174  25.680  24.585  1.00  0.00    -0.275 OA
BRANCH  15  17
ATOM     17  C   UNL A   1      33.476  27.287  24.527  1.00  0.00     0.079 C 
ATOM     18  C   UNL A   1      34.028  28.281  23.509  1.00  0.00     0.031 C 
ATOM     19  C   UNL A   1      34.025  27.561  25.928  1.00  0.00     0.031 C 
ENDBRANCH  15  17
BRANCH  15  20
ATOM     20  C   UNL A   1      31.057  28.227  24.718  1.00  0.00     0.079 C 
ATOM     21  C   UNL A   1      31.534  29.219  25.778  1.00  0.00     0.031 C 
ATOM     22  C   UNL A   1      30.591  28.941  23.450  1.00  0.00     0.031 C 
ENDBRANCH  15  20
ENDBRANCH   9  14
ENDBRANCH   5   8
ENDBRANCH   3   4
ENDBRANCH   2   3
ENDBRANCH   1   2
BRANCH   1  23
ATOM     23  C   UNL A   1      37.019  21.254  24.666  1.00  0.00     0.002 C 
BRANCH  23  24
ATOM     24  C   UNL A   1      37.924  20.057  24.968  1.00  0.00     0.021 C 
BRANCH  24  25
ATOM     25  C   UNL A   1      39.148  20.385  25.816  1.00  0.00     0.116 C 
BRANCH  25  26
ATOM     26  N   UNL A   1      40.066  19.261  25.912  1.00  0.00    -0.352 N 
ATOM     27  C   UNL A   1      41.427  19.256  26.084  1.00  0.00     0.251 C 
ATOM     28  H   UNL A   1      39.648  18.371  25.843  1.00  0.00     0.163 HD
ATOM     29  O   UNL A   1      42.071  18.222  25.944  1.00  0.00    -0.269 OA
BRANCH  27  30
ATOM     30  C   UNL A   1      42.123  20.517  26.413  1.00  0.00     0.039 A 
ATOM     31  C   UNL A   1      42.647  21.292  25.375  1.00  0.00     0.014 A 
ATOM     32  C   UNL A   1      42.239  20.940  27.740  1.00  0.00     0.014 A 
ATOM     33  C   UNL A   1      43.208  22.538  25.660  1.00  0.00     0.010 A 
ATOM     34  C   UNL A   1      42.740  22.209  28.017  1.00  0.00     0.010 A 
ATOM     35  C   UNL A   1      43.211  23.027  26.978  1.00  0.00    -0.014 A 
BRANCH  35  36
ATOM     36  C   UNL A   1      43.645  24.412  27.285  1.00  0.00     0.031 A 
ATOM     37  C   UNL A   1      42.653  25.434  27.755  1.00  0.00     0.074 A 
ATOM     38  C   UNL A   1      44.922  24.768  27.046  1.00  0.00     0.049 A 
ATOM     39  N   UNL A   1      42.819  26.716  27.959  1.00  0.00    -0.248 NA
ATOM     40  C   UNL A   1      41.284  24.957  28.006  1.00  0.00     0.031 C 
ATOM     41  C   UNL A   1      45.970  23.872  26.553  1.00  0.00     0.029 A 
ATOM     42  N   UNL A   1      45.552  25.982  27.164  1.00  0.00    -0.354 N 
ATOM     43  C   UNL A   1      41.579  27.199  28.354  1.00  0.00     0.074 A 
ATOM     44  C   UNL A   1      40.658  26.083  28.317  1.00  0.00     0.031 C 
ATOM     45  C   UNL A   1      47.112  24.563  26.419  1.00  0.00     0.029 A 
ATOM     46  C   UNL A   1      46.869  25.959  26.768  1.00  0.00     0.049 A 
ATOM     47  H   UNL A   1      45.105  26.792  27.500  1.00  0.00     0.167 HD
ATOM     48  C   UNL A   1      41.247  28.458  28.728  1.00  0.00     0.037 A 
ATOM     49  C   UNL A   1      47.769  26.956  26.674  1.00  0.00     0.037 A 
ATOM     50  C   UNL A   1      42.171  29.561  28.774  1.00  0.00     0.049 A 
ATOM     51  C   UNL A   1      47.361  28.353  27.051  1.00  0.00     0.074 A 
ATOM     52  C   UNL A   1      41.949  30.855  29.209  1.00  0.00     0.029 A 
ATOM     53  N   UNL A   1      43.494  29.501  28.359  1.00  0.00    -0.354 N 
ATOM     54  N   UNL A   1      46.205  28.785  27.494  1.00  0.00    -0.248 NA
ATOM     55  C   UNL A   1      48.379  29.402  26.909  1.00  0.00     0.031 C 
ATOM     56  C   UNL A   1      43.118  31.594  29.003  1.00  0.00     0.029 A 
ATOM     57  C   UNL A   1      44.087  30.748  28.487  1.00  0.00     0.049 A 
ATOM     58  H   UNL A   1      43.945  28.693  28.021  1.00  0.00     0.167 HD
ATOM     59  C   UNL A   1      46.361  30.148  27.698  1.00  0.00     0.074 A 
ATOM     60  C   UNL A   1      47.729  30.470  27.351  1.00  0.00     0.031 C 
ATOM     61  C   UNL A   1      45.449  31.054  28.129  1.00  0.00     0.037 A 
BRANCH  48  62
ATOM     62  C   UNL A   1      39.819  28.716  29.114  1.00  0.00     0.064 A 
ATOM     63  C   UNL A   1      39.377  28.575  30.438  1.00  0.00     0.173 A 
ATOM     64  C   UNL A   1      38.892  29.160  28.157  1.00  0.00     0.173 A 
ATOM     65  F   UNL A   1      40.221  28.145  31.389  1.00  0.00    -0.203 F 
ATOM     66  C   UNL A   1      38.055  28.841  30.785  1.00  0.00     0.198 A 
ATOM     67  C   UNL A   1      37.579  29.455  28.514  1.00  0.00     0.198 A 
ATOM     68  F   UNL A   1      39.265  29.321  26.879  1.00  0.00    -0.203 F 
ATOM     69  F   UNL A   1      37.645  28.656  32.048  1.00  0.00    -0.200 F 
ATOM     70  C   UNL A   1      37.159  29.289  29.826  1.00  0.00     0.200 A 
ATOM     71  F   UNL A   1      36.719  29.901  27.588  1.00  0.00    -0.200 F 
ATOM     72  F   UNL A   1      35.890  29.554  30.163  1.00  0.00    -0.200 F 
ENDBRANCH  48  62
BRANCH  49  73
ATOM     73  C   UNL A   1      49.146  26.667  26.191  1.00  0.00     0.064 A 
ATOM     74  C   UNL A   1      50.137  26.215  27.073  1.00  0.00     0.173 A 
ATOM     75  C   UNL A   1      49.500  26.838  24.845  1.00  0.00     0.173 A 
ATOM     76  F   UNL A   1      49.853  26.057  28.374  1.00  0.00    -0.203 F 
ATOM     77  C   UNL A   1      51.433  25.961  26.630  1.00  0.00     0.198 A 
ATOM     78  C   UNL A   1      50.788  26.556  24.397  1.00  0.00     0.198 A 
ATOM     79  F   UNL A   1      48.587  27.266  23.959  1.00  0.00    -0.203 F 
ATOM     80  F   UNL A   1      52.373  25.572  27.502  1.00  0.00    -0.200 F 
ATOM     81  C   UNL A   1      51.756  26.125  25.291  1.00  0.00     0.200 A 
ATOM     82  F   UNL A   1      51.091  26.702  23.100  1.00  0.00    -0.200 F 
ATOM     83  F   UNL A   1      53.001  25.876  24.864  1.00  0.00    -0.200 F 
ENDBRANCH  49  73
BRANCH  61  84
ATOM     84  C   UNL A   1      45.901  32.480  28.254  1.00  0.00     0.064 A 
ATOM     85  C   UNL A   1      45.721  33.398  27.209  1.00  0.00     0.173 A 
ATOM     86  C   UNL A   1      46.474  32.945  29.448  1.00  0.00     0.173 A 
ATOM     87  F   UNL A   1      45.195  32.998  26.042  1.00  0.00    -0.203 F 
ATOM     88  C   UNL A   1      46.114  34.726  27.349  1.00  0.00     0.198 A 
ATOM     89  C   UNL A   1      46.838  34.281  29.594  1.00  0.00     0.198 A 
ATOM     90  F   UNL A   1      46.664  32.109  30.478  1.00  0.00    -0.203 F 
ATOM     91  F   UNL A   1      45.970  35.576  26.323  1.00  0.00    -0.200 F 
ATOM     92  C   UNL A   1      46.663  35.169  28.543  1.00  0.00     0.200 A 
ATOM     93  F   UNL A   1      47.355  34.710  30.754  1.00  0.00    -0.200 F 
ATOM     94  F   UNL A   1      47.028  36.451  28.680  1.00  0.00    -0.200 F 
ENDBRANCH  61  84
ENDBRANCH  35  36
ENDBRANCH  27  30
ENDBRANCH  25  26
ENDBRANCH  24  25
ENDBRANCH  23  24
ENDBRANCH   1  23
TORSDOF 16
ENDMDL
