MODEL 1
REMARK VINA RESULT:     -12.3      0.000      0.000
REMARK SMILES CCC(CC)([NH2+]CC(=O)Nc1ccc(C)cc1)C(=O)NCCCCCCNC(=O)c1ccc(-c2c3nc(c(-c4c(F)c(F)c(F)c(F)c4F)c4ccc([nH]4)c(-c4c(F)c(F)c(F)c(F)c4F)c4nc(c(-c5c(F)c(F)c(F)c(F)c5F)c5ccc2[nH]5)C=C4)C=C3)cc1
REMARK SMILES IDX 22 1 21 2 20 3 18 4 19 5 3 7 2 8 1 9 4 10 5 11 6 12 7 15
REMARK SMILES IDX 8 16 9 17 10 18 11 20 12 21 17 22 13 23 16 24 14 25 15 26
REMARK SMILES IDX 23 27 24 28 25 29 26 30 27 31 28 32 29 34 30 35 31 36 92 37
REMARK SMILES IDX 32 38 91 39 33 40 34 41 35 42 85 43 36 44 90 45 84 46 86 47
REMARK SMILES IDX 37 48 89 49 83 50 82 51 38 53 70 54 50 55 69 56 51 57 54 58
REMARK SMILES IDX 68 59 87 60 52 61 53 62 67 64 88 65 55 66 39 67 40 68 48 69
REMARK SMILES IDX 41 70 42 71 46 72 49 73 43 74 44 75 47 76 45 77 71 78 72 79
REMARK SMILES IDX 80 80 73 81 74 82 78 83 81 84 75 85 76 86 79 87 77 88 56 89
REMARK SMILES IDX 57 90 65 91 58 92 59 93 63 94 66 95 60 96 61 97 64 98 62 99
REMARK H PARENT 20 6 6 13 6 14 10 19 27 33 86 52 54 63
REMARK Flexibility Score: inf
ROOT
ATOM      1  C   UNL A   1      34.470  23.703  23.047  1.00  0.00     0.021 C 
ENDROOT
BRANCH   1   2
ATOM      2  C   UNL A   1      33.230  23.348  22.210  1.00  0.00     0.116 C 
BRANCH   2   3
ATOM      3  N   UNL A   1      32.330  24.485  21.957  1.00  0.00    -0.351 N 
ATOM      4  C   UNL A   1      32.805  25.783  21.726  1.00  0.00     0.281 C 
ATOM      5  O   UNL A   1      33.277  26.020  20.612  1.00  0.00    -0.268 OA
ATOM      6  H   UNL A   1      31.358  24.326  21.951  1.00  0.00     0.163 HD
BRANCH   4   7
ATOM      7  C   UNL A   1      32.350  26.967  22.750  1.00  0.00     0.175 C 
BRANCH   7   8
ATOM      8  C   UNL A   1      30.801  27.081  22.471  1.00  0.00     0.076 C 
ATOM      9  C   UNL A   1      30.271  28.535  22.371  1.00  0.00     0.011 C 
ENDBRANCH   7   8
BRANCH   7  10
ATOM     10  C   UNL A   1      32.878  28.443  22.686  1.00  0.00     0.076 C 
ATOM     11  C   UNL A   1      34.406  28.632  22.759  1.00  0.00     0.011 C 
ENDBRANCH   7  10
BRANCH   7  12
ATOM     12  N   UNL A   1      32.669  26.499  24.112  1.00  0.00    -0.326 N 
ATOM     13  H   UNL A   1      33.681  26.558  24.224  1.00  0.00     0.347 HD
ATOM     14  H   UNL A   1      32.271  25.561  24.158  1.00  0.00     0.347 HD
BRANCH  12  15
ATOM     15  C   UNL A   1      32.055  27.217  25.260  1.00  0.00     0.363 C 
BRANCH  15  16
ATOM     16  C   UNL A   1      31.491  26.526  26.535  1.00  0.00     0.279 C 
ATOM     17  O   UNL A   1      31.071  27.259  27.447  1.00  0.00    -0.268 OA
ATOM     18  N   UNL A   1      31.139  25.191  26.637  1.00  0.00    -0.321 N 
ATOM     19  H   UNL A   1      30.260  25.080  27.066  1.00  0.00     0.170 HD
BRANCH  18  20
ATOM     20  C   UNL A   1      31.712  23.941  26.288  1.00  0.00     0.041 A 
ATOM     21  C   UNL A   1      31.216  23.080  25.320  1.00  0.00     0.026 A 
ATOM     22  C   UNL A   1      32.945  23.587  26.844  1.00  0.00     0.026 A 
ATOM     23  C   UNL A   1      31.745  21.795  25.119  1.00  0.00     0.005 A 
ATOM     24  C   UNL A   1      33.486  22.297  26.657  1.00  0.00     0.005 A 
ATOM     25  C   UNL A   1      32.835  21.358  25.857  1.00  0.00    -0.051 A 
ATOM     26  C   UNL A   1      33.277  19.930  25.750  1.00  0.00     0.044 C 
ENDBRANCH  18  20
ENDBRANCH  15  16
ENDBRANCH  12  15
ENDBRANCH   7  12
ENDBRANCH   4   7
ENDBRANCH   2   3
ENDBRANCH   1   2
BRANCH   1  27
ATOM     27  C   UNL A   1      35.297  22.499  23.544  1.00  0.00     0.002 C 
BRANCH  27  28
ATOM     28  C   UNL A   1      36.811  22.671  23.765  1.00  0.00     0.002 C 
BRANCH  28  29
ATOM     29  C   UNL A   1      37.425  21.991  24.989  1.00  0.00     0.021 C 
BRANCH  29  30
ATOM     30  C   UNL A   1      38.035  22.938  26.017  1.00  0.00     0.116 C 
BRANCH  30  31
ATOM     31  N   UNL A   1      39.476  22.819  26.206  1.00  0.00    -0.352 N 
ATOM     32  C   UNL A   1      40.422  23.793  26.525  1.00  0.00     0.251 C 
ATOM     33  H   UNL A   1      39.837  21.911  26.091  1.00  0.00     0.163 HD
ATOM     34  O   UNL A   1      41.595  23.517  26.547  1.00  0.00    -0.269 OA
BRANCH  32  35
ATOM     35  C   UNL A   1      39.965  25.142  26.969  1.00  0.00     0.039 A 
ATOM     36  C   UNL A   1      40.408  26.260  26.244  1.00  0.00     0.014 A 
ATOM     37  C   UNL A   1      39.271  25.323  28.158  1.00  0.00     0.014 A 
ATOM     38  C   UNL A   1      40.381  27.521  26.840  1.00  0.00     0.010 A 
ATOM     39  C   UNL A   1      39.346  26.541  28.797  1.00  0.00     0.010 A 
ATOM     40  C   UNL A   1      39.959  27.625  28.163  1.00  0.00    -0.014 A 
BRANCH  40  41
ATOM     41  C   UNL A   1      40.195  28.788  29.006  1.00  0.00     0.031 A 
ATOM     42  C   UNL A   1      39.135  29.796  29.204  1.00  0.00     0.074 A 
ATOM     43  C   UNL A   1      41.334  28.841  29.733  1.00  0.00     0.049 A 
ATOM     44  N   UNL A   1      39.344  30.992  29.639  1.00  0.00    -0.248 NA
ATOM     45  C   UNL A   1      37.736  29.537  28.890  1.00  0.00     0.031 C 
ATOM     46  C   UNL A   1      41.617  29.707  30.875  1.00  0.00     0.029 A 
ATOM     47  N   UNL A   1      42.563  28.222  29.451  1.00  0.00    -0.354 N 
ATOM     48  C   UNL A   1      38.121  31.559  29.920  1.00  0.00     0.074 A 
ATOM     49  C   UNL A   1      37.151  30.633  29.383  1.00  0.00     0.031 C 
ATOM     50  C   UNL A   1      42.948  29.811  31.020  1.00  0.00     0.029 A 
ATOM     51  C   UNL A   1      43.550  29.141  29.882  1.00  0.00     0.049 A 
ATOM     52  H   UNL A   1      42.708  27.339  29.041  1.00  0.00     0.167 HD
ATOM     53  C   UNL A   1      38.074  32.685  30.690  1.00  0.00     0.037 A 
ATOM     54  C   UNL A   1      44.405  29.731  28.998  1.00  0.00     0.037 A 
ATOM     55  C   UNL A   1      39.420  33.148  31.022  1.00  0.00     0.049 A 
ATOM     56  C   UNL A   1      44.333  31.239  28.991  1.00  0.00     0.074 A 
ATOM     57  C   UNL A   1      40.218  32.975  32.141  1.00  0.00     0.029 A 
ATOM     58  N   UNL A   1      40.250  33.624  30.015  1.00  0.00    -0.354 N 
ATOM     59  N   UNL A   1      43.304  31.919  29.416  1.00  0.00    -0.248 NA
ATOM     60  C   UNL A   1      45.402  32.096  28.489  1.00  0.00     0.031 C 
ATOM     61  C   UNL A   1      41.548  33.315  31.790  1.00  0.00     0.029 A 
ATOM     62  C   UNL A   1      41.553  33.711  30.464  1.00  0.00     0.049 A 
ATOM     63  H   UNL A   1      39.951  33.866  29.108  1.00  0.00     0.167 HD
ATOM     64  C   UNL A   1      43.544  33.260  29.253  1.00  0.00     0.074 A 
ATOM     65  C   UNL A   1      44.877  33.319  28.684  1.00  0.00     0.031 C 
ATOM     66  C   UNL A   1      42.615  34.202  29.598  1.00  0.00     0.037 A 
BRANCH  53  67
ATOM     67  C   UNL A   1      36.825  33.193  31.380  1.00  0.00     0.064 A 
ATOM     68  C   UNL A   1      35.827  33.883  30.656  1.00  0.00     0.173 A 
ATOM     69  C   UNL A   1      36.573  33.080  32.759  1.00  0.00     0.173 A 
ATOM     70  F   UNL A   1      35.861  33.972  29.321  1.00  0.00    -0.203 F 
ATOM     71  C   UNL A   1      34.746  34.517  31.278  1.00  0.00     0.198 A 
ATOM     72  C   UNL A   1      35.525  33.760  33.390  1.00  0.00     0.198 A 
ATOM     73  F   UNL A   1      37.296  32.262  33.533  1.00  0.00    -0.203 F 
ATOM     74  F   UNL A   1      33.839  35.167  30.535  1.00  0.00    -0.200 F 
ATOM     75  C   UNL A   1      34.618  34.491  32.650  1.00  0.00     0.200 A 
ATOM     76  F   UNL A   1      35.400  33.698  34.723  1.00  0.00    -0.200 F 
ATOM     77  F   UNL A   1      33.612  35.139  33.252  1.00  0.00    -0.200 F 
ENDBRANCH  53  67
BRANCH  54  78
ATOM     78  C   UNL A   1      44.698  28.879  27.816  1.00  0.00     0.064 A 
ATOM     79  C   UNL A   1      45.544  27.768  27.996  1.00  0.00     0.173 A 
ATOM     80  C   UNL A   1      43.874  28.891  26.685  1.00  0.00     0.173 A 
ATOM     81  F   UNL A   1      46.352  27.709  29.066  1.00  0.00    -0.203 F 
ATOM     82  C   UNL A   1      45.474  26.661  27.154  1.00  0.00     0.198 A 
ATOM     83  C   UNL A   1      43.817  27.784  25.834  1.00  0.00     0.198 A 
ATOM     84  F   UNL A   1      43.033  29.913  26.468  1.00  0.00    -0.203 F 
ATOM     85  F   UNL A   1      46.206  25.570  27.421  1.00  0.00    -0.200 F 
ATOM     86  C   UNL A   1      44.587  26.659  26.090  1.00  0.00     0.200 A 
ATOM     87  F   UNL A   1      42.943  27.770  24.818  1.00  0.00    -0.200 F 
ATOM     88  F   UNL A   1      44.445  25.559  25.338  1.00  0.00    -0.200 F 
ENDBRANCH  54  78
BRANCH  66  89
ATOM     89  C   UNL A   1      42.644  35.675  29.257  1.00  0.00     0.064 A 
ATOM     90  C   UNL A   1      43.407  36.631  29.947  1.00  0.00     0.173 A 
ATOM     91  C   UNL A   1      41.995  36.152  28.088  1.00  0.00     0.173 A 
ATOM     92  F   UNL A   1      44.169  36.293  30.995  1.00  0.00    -0.203 F 
ATOM     93  C   UNL A   1      43.466  37.969  29.541  1.00  0.00     0.198 A 
ATOM     94  C   UNL A   1      42.106  37.472  27.652  1.00  0.00     0.198 A 
ATOM     95  F   UNL A   1      41.255  35.345  27.314  1.00  0.00    -0.203 F 
ATOM     96  F   UNL A   1      44.174  38.848  30.262  1.00  0.00    -0.200 F 
ATOM     97  C   UNL A   1      42.828  38.385  28.388  1.00  0.00     0.200 A 
ATOM     98  F   UNL A   1      41.528  37.842  26.501  1.00  0.00    -0.200 F 
ATOM     99  F   UNL A   1      42.930  39.655  27.976  1.00  0.00    -0.200 F 
ENDBRANCH  66  89
ENDBRANCH  40  41
ENDBRANCH  32  35
ENDBRANCH  30  31
ENDBRANCH  29  30
ENDBRANCH  28  29
ENDBRANCH  27  28
ENDBRANCH   1  27
TORSDOF 19
ENDMDL
MODEL 2
REMARK VINA RESULT:     -11.9      3.711      9.633
REMARK SMILES CCC(CC)([NH2+]CC(=O)Nc1ccc(C)cc1)C(=O)NCCCCCCNC(=O)c1ccc(-c2c3nc(c(-c4c(F)c(F)c(F)c(F)c4F)c4ccc([nH]4)c(-c4c(F)c(F)c(F)c(F)c4F)c4nc(c(-c5c(F)c(F)c(F)c(F)c5F)c5ccc2[nH]5)C=C4)C=C3)cc1
REMARK SMILES IDX 22 1 21 2 20 3 18 4 19 5 3 7 2 8 1 9 4 10 5 11 6 12 7 15
REMARK SMILES IDX 8 16 9 17 10 18 11 20 12 21 17 22 13 23 16 24 14 25 15 26
REMARK SMILES IDX 23 27 24 28 25 29 26 30 27 31 28 32 29 34 30 35 31 36 92 37
REMARK SMILES IDX 32 38 91 39 33 40 34 41 35 42 85 43 36 44 90 45 84 46 86 47
REMARK SMILES IDX 37 48 89 49 83 50 82 51 38 53 70 54 50 55 69 56 51 57 54 58
REMARK SMILES IDX 68 59 87 60 52 61 53 62 67 64 88 65 55 66 39 67 40 68 48 69
REMARK SMILES IDX 41 70 42 71 46 72 49 73 43 74 44 75 47 76 45 77 71 78 72 79
REMARK SMILES IDX 80 80 73 81 74 82 78 83 81 84 75 85 76 86 79 87 77 88 56 89
REMARK SMILES IDX 57 90 65 91 58 92 59 93 63 94 66 95 60 96 61 97 64 98 62 99
REMARK H PARENT 20 6 6 13 6 14 10 19 27 33 86 52 54 63
REMARK Flexibility Score: inf
ROOT
ATOM      1  C   UNL A   1      30.744  29.469  24.333  1.00  0.00     0.021 C 
ENDROOT
BRANCH   1   2
ATOM      2  C   UNL A   1      31.245  29.059  22.939  1.00  0.00     0.116 C 
BRANCH   2   3
ATOM      3  N   UNL A   1      31.214  27.608  22.692  1.00  0.00    -0.351 N 
ATOM      4  C   UNL A   1      30.580  26.711  23.562  1.00  0.00     0.281 C 
ATOM      5  O   UNL A   1      29.350  26.657  23.518  1.00  0.00    -0.268 OA
ATOM      6  H   UNL A   1      31.656  27.256  21.885  1.00  0.00     0.163 HD
BRANCH   4   7
ATOM      7  C   UNL A   1      31.479  25.542  24.257  1.00  0.00     0.175 C 
BRANCH   7   8
ATOM      8  C   UNL A   1      31.990  26.243  25.575  1.00  0.00     0.076 C 
ATOM      9  C   UNL A   1      33.453  25.903  25.960  1.00  0.00     0.011 C 
ENDBRANCH   7   8
BRANCH   7  10
ATOM     10  C   UNL A   1      32.765  24.914  23.614  1.00  0.00     0.076 C 
ATOM     11  C   UNL A   1      32.554  24.047  22.357  1.00  0.00     0.011 C 
ENDBRANCH   7  10
BRANCH   7  12
ATOM     12  N   UNL A   1      30.576  24.403  24.510  1.00  0.00    -0.326 N 
ATOM     13  H   UNL A   1      31.100  23.550  24.311  1.00  0.00     0.347 HD
ATOM     14  H   UNL A   1      29.770  24.578  23.910  1.00  0.00     0.347 HD
BRANCH  12  15
ATOM     15  C   UNL A   1      29.998  24.257  25.872  1.00  0.00     0.363 C 
BRANCH  15  16
ATOM     16  C   UNL A   1      30.341  23.104  26.859  1.00  0.00     0.279 C 
ATOM     17  O   UNL A   1      29.572  22.920  27.817  1.00  0.00    -0.268 OA
ATOM     18  N   UNL A   1      31.245  22.083  26.619  1.00  0.00    -0.321 N 
ATOM     19  H   UNL A   1      30.871  21.204  26.857  1.00  0.00     0.170 HD
BRANCH  18  20
ATOM     20  C   UNL A   1      32.569  21.970  26.122  1.00  0.00     0.041 A 
ATOM     21  C   UNL A   1      32.922  21.361  24.927  1.00  0.00     0.026 A 
ATOM     22  C   UNL A   1      33.600  22.631  26.796  1.00  0.00     0.026 A 
ATOM     23  C   UNL A   1      34.261  21.155  24.557  1.00  0.00     0.005 A 
ATOM     24  C   UNL A   1      34.951  22.429  26.442  1.00  0.00     0.005 A 
ATOM     25  C   UNL A   1      35.292  21.610  25.364  1.00  0.00    -0.051 A 
ATOM     26  C   UNL A   1      36.707  21.233  25.041  1.00  0.00     0.044 C 
ENDBRANCH  18  20
ENDBRANCH  15  16
ENDBRANCH  12  15
ENDBRANCH   7  12
ENDBRANCH   4   7
ENDBRANCH   2   3
ENDBRANCH   1   2
BRANCH   1  27
ATOM     27  C   UNL A   1      31.842  29.877  25.336  1.00  0.00     0.002 C 
BRANCH  27  28
ATOM     28  C   UNL A   1      33.309  29.537  25.018  1.00  0.00     0.002 C 
BRANCH  28  29
ATOM     29  C   UNL A   1      34.257  29.330  26.201  1.00  0.00     0.021 C 
BRANCH  29  30
ATOM     30  C   UNL A   1      33.704  29.764  27.555  1.00  0.00     0.116 C 
BRANCH  30  31
ATOM     31  N   UNL A   1      34.322  30.951  28.136  1.00  0.00    -0.352 N 
ATOM     32  C   UNL A   1      35.566  31.106  28.748  1.00  0.00     0.251 C 
ATOM     33  H   UNL A   1      33.776  31.768  28.090  1.00  0.00     0.163 HD
ATOM     34  O   UNL A   1      35.865  32.157  29.257  1.00  0.00    -0.269 OA
BRANCH  32  35
ATOM     35  C   UNL A   1      36.573  30.010  28.652  1.00  0.00     0.039 A 
ATOM     36  C   UNL A   1      36.748  29.176  29.767  1.00  0.00     0.014 A 
ATOM     37  C   UNL A   1      37.443  29.910  27.573  1.00  0.00     0.014 A 
ATOM     38  C   UNL A   1      37.929  28.444  29.900  1.00  0.00     0.010 A 
ATOM     39  C   UNL A   1      38.657  29.285  27.749  1.00  0.00     0.010 A 
ATOM     40  C   UNL A   1      38.925  28.605  28.940  1.00  0.00    -0.014 A 
BRANCH  40  41
ATOM     41  C   UNL A   1      40.307  28.185  29.121  1.00  0.00     0.031 A 
ATOM     42  C   UNL A   1      40.764  26.877  28.612  1.00  0.00     0.074 A 
ATOM     43  C   UNL A   1      41.197  29.078  29.609  1.00  0.00     0.049 A 
ATOM     44  N   UNL A   1      41.840  26.283  29.002  1.00  0.00    -0.248 NA
ATOM     45  C   UNL A   1      40.011  26.110  27.628  1.00  0.00     0.031 C 
ATOM     46  C   UNL A   1      42.655  29.000  29.549  1.00  0.00     0.029 A 
ATOM     47  N   UNL A   1      40.941  30.181  30.441  1.00  0.00    -0.354 N 
ATOM     48  C   UNL A   1      42.068  25.222  28.156  1.00  0.00     0.074 A 
ATOM     49  C   UNL A   1      40.870  25.123  27.353  1.00  0.00     0.031 C 
ATOM     50  C   UNL A   1      43.170  29.783  30.511  1.00  0.00     0.029 A 
ATOM     51  C   UNL A   1      42.056  30.259  31.309  1.00  0.00     0.049 A 
ATOM     52  H   UNL A   1      40.154  30.772  30.424  1.00  0.00     0.167 HD
ATOM     53  C   UNL A   1      43.300  24.633  28.148  1.00  0.00     0.037 A 
ATOM     54  C   UNL A   1      41.924  30.062  32.653  1.00  0.00     0.037 A 
ATOM     55  C   UNL A   1      44.169  25.226  29.161  1.00  0.00     0.049 A 
ATOM     56  C   UNL A   1      42.761  28.927  33.190  1.00  0.00     0.074 A 
ATOM     57  C   UNL A   1      45.148  26.203  29.096  1.00  0.00     0.029 A 
ATOM     58  N   UNL A   1      43.870  25.055  30.508  1.00  0.00    -0.354 N 
ATOM     59  N   UNL A   1      43.216  27.949  32.456  1.00  0.00    -0.248 NA
ATOM     60  C   UNL A   1      43.134  28.793  34.594  1.00  0.00     0.031 C 
ATOM     61  C   UNL A   1      45.411  26.651  30.415  1.00  0.00     0.029 A 
ATOM     62  C   UNL A   1      44.605  25.933  31.280  1.00  0.00     0.049 A 
ATOM     63  H   UNL A   1      43.224  24.401  30.861  1.00  0.00     0.167 HD
ATOM     64  C   UNL A   1      43.916  27.073  33.245  1.00  0.00     0.074 A 
ATOM     65  C   UNL A   1      43.850  27.654  34.572  1.00  0.00     0.031 C 
ATOM     66  C   UNL A   1      44.484  25.940  32.730  1.00  0.00     0.037 A 
BRANCH  53  67
ATOM     67  C   UNL A   1      43.806  23.732  27.040  1.00  0.00     0.064 A 
ATOM     68  C   UNL A   1      44.693  24.223  26.055  1.00  0.00     0.173 A 
ATOM     69  C   UNL A   1      43.414  22.394  26.858  1.00  0.00     0.173 A 
ATOM     70  F   UNL A   1      45.248  25.437  26.152  1.00  0.00    -0.203 F 
ATOM     71  C   UNL A   1      45.047  23.483  24.923  1.00  0.00     0.198 A 
ATOM     72  C   UNL A   1      43.721  21.672  25.699  1.00  0.00     0.198 A 
ATOM     73  F   UNL A   1      42.773  21.721  27.820  1.00  0.00    -0.203 F 
ATOM     74  F   UNL A   1      45.885  24.010  24.019  1.00  0.00    -0.200 F 
ATOM     75  C   UNL A   1      44.528  22.222  24.724  1.00  0.00     0.200 A 
ATOM     76  F   UNL A   1      43.230  20.435  25.537  1.00  0.00    -0.200 F 
ATOM     77  F   UNL A   1      44.826  21.531  23.615  1.00  0.00    -0.200 F 
ENDBRANCH  53  67
BRANCH  54  78
ATOM     78  C   UNL A   1      40.592  30.468  33.172  1.00  0.00     0.064 A 
ATOM     79  C   UNL A   1      40.310  31.844  33.267  1.00  0.00     0.173 A 
ATOM     80  C   UNL A   1      39.508  29.582  33.171  1.00  0.00     0.173 A 
ATOM     81  F   UNL A   1      41.316  32.733  33.269  1.00  0.00    -0.203 F 
ATOM     82  C   UNL A   1      39.002  32.320  33.231  1.00  0.00     0.198 A 
ATOM     83  C   UNL A   1      38.196  30.064  33.151  1.00  0.00     0.198 A 
ATOM     84  F   UNL A   1      39.710  28.261  33.066  1.00  0.00    -0.203 F 
ATOM     85  F   UNL A   1      38.771  33.641  33.202  1.00  0.00    -0.200 F 
ATOM     86  C   UNL A   1      37.946  31.428  33.143  1.00  0.00     0.200 A 
ATOM     87  F   UNL A   1      37.173  29.204  33.041  1.00  0.00    -0.200 F 
ATOM     88  F   UNL A   1      36.693  31.884  33.009  1.00  0.00    -0.200 F 
ENDBRANCH  54  78
BRANCH  66  89
ATOM     89  C   UNL A   1      45.068  24.782  33.508  1.00  0.00     0.064 A 
ATOM     90  C   UNL A   1      44.364  23.610  33.828  1.00  0.00     0.173 A 
ATOM     91  C   UNL A   1      46.450  24.762  33.833  1.00  0.00     0.173 A 
ATOM     92  F   UNL A   1      43.084  23.443  33.469  1.00  0.00    -0.203 F 
ATOM     93  C   UNL A   1      44.973  22.531  34.478  1.00  0.00     0.198 A 
ATOM     94  C   UNL A   1      47.067  23.660  34.424  1.00  0.00     0.198 A 
ATOM     95  F   UNL A   1      47.253  25.800  33.560  1.00  0.00    -0.203 F 
ATOM     96  F   UNL A   1      44.243  21.455  34.799  1.00  0.00    -0.200 F 
ATOM     97  C   UNL A   1      46.325  22.551  34.763  1.00  0.00     0.200 A 
ATOM     98  F   UNL A   1      48.390  23.676  34.640  1.00  0.00    -0.200 F 
ATOM     99  F   UNL A   1      46.914  21.494  35.339  1.00  0.00    -0.200 F 
ENDBRANCH  66  89
ENDBRANCH  40  41
ENDBRANCH  32  35
ENDBRANCH  30  31
ENDBRANCH  29  30
ENDBRANCH  28  29
ENDBRANCH  27  28
ENDBRANCH   1  27
TORSDOF 19
ENDMDL
MODEL 3
REMARK VINA RESULT:     -11.7      1.021      3.418
REMARK SMILES CCC(CC)([NH2+]CC(=O)Nc1ccc(C)cc1)C(=O)NCCCCCCNC(=O)c1ccc(-c2c3nc(c(-c4c(F)c(F)c(F)c(F)c4F)c4ccc([nH]4)c(-c4c(F)c(F)c(F)c(F)c4F)c4nc(c(-c5c(F)c(F)c(F)c(F)c5F)c5ccc2[nH]5)C=C4)C=C3)cc1
REMARK SMILES IDX 22 1 21 2 20 3 18 4 19 5 3 7 2 8 1 9 4 10 5 11 6 12 7 15
REMARK SMILES IDX 8 16 9 17 10 18 11 20 12 21 17 22 13 23 16 24 14 25 15 26
REMARK SMILES IDX 23 27 24 28 25 29 26 30 27 31 28 32 29 34 30 35 31 36 92 37
REMARK SMILES IDX 32 38 91 39 33 40 34 41 35 42 85 43 36 44 90 45 84 46 86 47
REMARK SMILES IDX 37 48 89 49 83 50 82 51 38 53 70 54 50 55 69 56 51 57 54 58
REMARK SMILES IDX 68 59 87 60 52 61 53 62 67 64 88 65 55 66 39 67 40 68 48 69
REMARK SMILES IDX 41 70 42 71 46 72 49 73 43 74 44 75 47 76 45 77 71 78 72 79
REMARK SMILES IDX 80 80 73 81 74 82 78 83 81 84 75 85 76 86 79 87 77 88 56 89
REMARK SMILES IDX 57 90 65 91 58 92 59 93 63 94 66 95 60 96 61 97 64 98 62 99
REMARK H PARENT 20 6 6 13 6 14 10 19 27 33 86 52 54 63
REMARK Flexibility Score: inf
ROOT
ATOM      1  C   UNL A   1      34.648  24.194  24.610  1.00  0.00     0.021 C 
ENDROOT
BRANCH   1   2
ATOM      2  C   UNL A   1      33.248  24.267  25.242  1.00  0.00     0.116 C 
BRANCH   2   3
ATOM      3  N   UNL A   1      33.026  25.457  26.078  1.00  0.00    -0.351 N 
ATOM      4  C   UNL A   1      32.288  26.562  25.633  1.00  0.00     0.281 C 
ATOM      5  O   UNL A   1      31.060  26.450  25.619  1.00  0.00    -0.268 OA
ATOM      6  H   UNL A   1      33.413  25.478  26.984  1.00  0.00     0.163 HD
BRANCH   4   7
ATOM      7  C   UNL A   1      33.031  28.011  25.558  1.00  0.00     0.175 C 
BRANCH   7   8
ATOM      8  C   UNL A   1      33.407  28.279  27.067  1.00  0.00     0.076 C 
ATOM      9  C   UNL A   1      34.771  28.987  27.275  1.00  0.00     0.011 C 
ENDBRANCH   7   8
BRANCH   7  10
ATOM     10  C   UNL A   1      32.343  29.335  25.075  1.00  0.00     0.076 C 
ATOM     11  C   UNL A   1      31.700  30.214  26.165  1.00  0.00     0.011 C 
ENDBRANCH   7  10
BRANCH   7  12
ATOM     12  N   UNL A   1      34.206  27.842  24.682  1.00  0.00    -0.326 N 
ATOM     13  H   UNL A   1      34.554  26.893  24.820  1.00  0.00     0.347 HD
ATOM     14  H   UNL A   1      34.840  28.591  24.959  1.00  0.00     0.347 HD
BRANCH  12  15
ATOM     15  C   UNL A   1      34.022  28.034  23.219  1.00  0.00     0.363 C 
BRANCH  15  16
ATOM     16  C   UNL A   1      33.105  27.155  22.321  1.00  0.00     0.279 C 
ATOM     17  O   UNL A   1      33.640  26.236  21.678  1.00  0.00    -0.268 OA
ATOM     18  N   UNL A   1      31.723  27.104  22.390  1.00  0.00    -0.321 N 
ATOM     19  H   UNL A   1      31.394  26.175  22.387  1.00  0.00     0.170 HD
BRANCH  18  20
ATOM     20  C   UNL A   1      30.656  28.035  22.462  1.00  0.00     0.041 A 
ATOM     21  C   UNL A   1      29.428  27.796  23.063  1.00  0.00     0.026 A 
ATOM     22  C   UNL A   1      30.875  29.346  22.028  1.00  0.00     0.026 A 
ATOM     23  C   UNL A   1      28.363  28.706  22.979  1.00  0.00     0.005 A 
ATOM     24  C   UNL A   1      29.814  30.270  21.931  1.00  0.00     0.005 A 
ATOM     25  C   UNL A   1      28.523  29.919  22.327  1.00  0.00    -0.051 A 
ATOM     26  C   UNL A   1      27.332  30.801  22.100  1.00  0.00     0.044 C 
ENDBRANCH  18  20
ENDBRANCH  15  16
ENDBRANCH  12  15
ENDBRANCH   7  12
ENDBRANCH   4   7
ENDBRANCH   2   3
ENDBRANCH   1   2
BRANCH   1  27
ATOM     27  C   UNL A   1      35.084  22.795  24.130  1.00  0.00     0.002 C 
BRANCH  27  28
ATOM     28  C   UNL A   1      36.555  22.561  23.742  1.00  0.00     0.002 C 
BRANCH  28  29
ATOM     29  C   UNL A   1      37.474  21.950  24.800  1.00  0.00     0.021 C 
BRANCH  29  30
ATOM     30  C   UNL A   1      38.053  22.942  25.804  1.00  0.00     0.116 C 
BRANCH  30  31
ATOM     31  N   UNL A   1      39.452  22.734  26.160  1.00  0.00    -0.352 N 
ATOM     32  C   UNL A   1      40.408  23.646  26.609  1.00  0.00     0.251 C 
ATOM     33  H   UNL A   1      39.771  21.808  26.068  1.00  0.00     0.163 HD
ATOM     34  O   UNL A   1      41.551  23.300  26.764  1.00  0.00    -0.269 OA
BRANCH  32  35
ATOM     35  C   UNL A   1      39.980  25.013  27.023  1.00  0.00     0.039 A 
ATOM     36  C   UNL A   1      40.441  26.105  26.272  1.00  0.00     0.014 A 
ATOM     37  C   UNL A   1      39.295  25.235  28.212  1.00  0.00     0.014 A 
ATOM     38  C   UNL A   1      40.442  27.380  26.839  1.00  0.00     0.010 A 
ATOM     39  C   UNL A   1      39.397  26.466  28.822  1.00  0.00     0.010 A 
ATOM     40  C   UNL A   1      40.029  27.522  28.161  1.00  0.00    -0.014 A 
BRANCH  40  41
ATOM     41  C   UNL A   1      40.292  28.699  28.976  1.00  0.00     0.031 A 
ATOM     42  C   UNL A   1      39.255  29.736  29.149  1.00  0.00     0.074 A 
ATOM     43  C   UNL A   1      41.432  28.743  29.702  1.00  0.00     0.049 A 
ATOM     44  N   UNL A   1      39.492  30.936  29.556  1.00  0.00    -0.248 NA
ATOM     45  C   UNL A   1      37.850  29.502  28.841  1.00  0.00     0.031 C 
ATOM     46  C   UNL A   1      41.735  29.629  30.823  1.00  0.00     0.029 A 
ATOM     47  N   UNL A   1      42.646  28.089  29.436  1.00  0.00    -0.354 N 
ATOM     48  C   UNL A   1      38.283  31.539  29.823  1.00  0.00     0.074 A 
ATOM     49  C   UNL A   1      37.291  30.623  29.307  1.00  0.00     0.031 C 
ATOM     50  C   UNL A   1      43.068  29.705  30.967  1.00  0.00     0.029 A 
ATOM     51  C   UNL A   1      43.654  28.994  29.846  1.00  0.00     0.049 A 
ATOM     52  H   UNL A   1      42.770  27.193  29.047  1.00  0.00     0.167 HD
ATOM     53  C   UNL A   1      38.263  32.684  30.566  1.00  0.00     0.037 A 
ATOM     54  C   UNL A   1      44.523  29.543  28.948  1.00  0.00     0.037 A 
ATOM     55  C   UNL A   1      39.618  33.123  30.888  1.00  0.00     0.049 A 
ATOM     56  C   UNL A   1      44.486  31.052  28.905  1.00  0.00     0.074 A 
ATOM     57  C   UNL A   1      40.413  32.958  32.010  1.00  0.00     0.029 A 
ATOM     58  N   UNL A   1      40.460  33.556  29.869  1.00  0.00    -0.354 N 
ATOM     59  N   UNL A   1      43.474  31.766  29.313  1.00  0.00    -0.248 NA
ATOM     60  C   UNL A   1      45.575  31.871  28.383  1.00  0.00     0.031 C 
ATOM     61  C   UNL A   1      41.750  33.259  31.652  1.00  0.00     0.029 A 
ATOM     62  C   UNL A   1      41.764  33.622  30.317  1.00  0.00     0.049 A 
ATOM     63  H   UNL A   1      40.166  33.782  28.957  1.00  0.00     0.167 HD
ATOM     64  C   UNL A   1      43.744  33.096  29.118  1.00  0.00     0.074 A 
ATOM     65  C   UNL A   1      45.078  33.110  28.549  1.00  0.00     0.031 C 
ATOM     66  C   UNL A   1      42.837  34.067  29.441  1.00  0.00     0.037 A 
BRANCH  53  67
ATOM     67  C   UNL A   1      37.025  33.237  31.243  1.00  0.00     0.064 A 
ATOM     68  C   UNL A   1      36.818  33.060  32.630  1.00  0.00     0.173 A 
ATOM     69  C   UNL A   1      35.982  33.902  30.577  1.00  0.00     0.173 A 
ATOM     70  F   UNL A   1      37.767  32.551  33.424  1.00  0.00    -0.203 F 
ATOM     71  C   UNL A   1      35.617  33.399  33.261  1.00  0.00     0.198 A 
ATOM     72  C   UNL A   1      34.759  34.190  31.193  1.00  0.00     0.198 A 
ATOM     73  F   UNL A   1      36.130  34.349  29.324  1.00  0.00    -0.203 F 
ATOM     74  F   UNL A   1      35.478  33.195  34.579  1.00  0.00    -0.200 F 
ATOM     75  C   UNL A   1      34.571  33.926  32.535  1.00  0.00     0.200 A 
ATOM     76  F   UNL A   1      33.764  34.731  30.476  1.00  0.00    -0.200 F 
ATOM     77  F   UNL A   1      33.403  34.205  33.128  1.00  0.00    -0.200 F 
ENDBRANCH  53  67
BRANCH  54  78
ATOM     78  C   UNL A   1      44.796  28.657  27.787  1.00  0.00     0.064 A 
ATOM     79  C   UNL A   1      45.597  27.519  27.998  1.00  0.00     0.173 A 
ATOM     80  C   UNL A   1      43.984  28.676  26.647  1.00  0.00     0.173 A 
ATOM     81  F   UNL A   1      46.391  27.451  29.079  1.00  0.00    -0.203 F 
ATOM     82  C   UNL A   1      45.494  26.398  27.178  1.00  0.00     0.198 A 
ATOM     83  C   UNL A   1      43.895  27.555  25.818  1.00  0.00     0.198 A 
ATOM     84  F   UNL A   1      43.185  29.724  26.399  1.00  0.00    -0.203 F 
ATOM     85  F   UNL A   1      46.182  25.286  27.476  1.00  0.00    -0.200 F 
ATOM     86  C   UNL A   1      44.619  26.407  26.105  1.00  0.00     0.200 A 
ATOM     87  F   UNL A   1      43.031  27.552  24.793  1.00  0.00    -0.200 F 
ATOM     88  F   UNL A   1      44.443  25.298  25.373  1.00  0.00    -0.200 F 
ENDBRANCH  54  78
BRANCH  66  89
ATOM     89  C   UNL A   1      42.902  35.531  29.065  1.00  0.00     0.064 A 
ATOM     90  C   UNL A   1      42.151  36.116  28.033  1.00  0.00     0.173 A 
ATOM     91  C   UNL A   1      43.639  36.443  29.864  1.00  0.00     0.173 A 
ATOM     92  F   UNL A   1      41.314  35.390  27.279  1.00  0.00    -0.203 F 
ATOM     93  C   UNL A   1      42.183  37.491  27.777  1.00  0.00     0.198 A 
ATOM     94  C   UNL A   1      43.619  37.821  29.646  1.00  0.00     0.198 A 
ATOM     95  F   UNL A   1      44.380  36.031  30.903  1.00  0.00    -0.203 F 
ATOM     96  F   UNL A   1      41.480  37.990  26.751  1.00  0.00    -0.200 F 
ATOM     97  C   UNL A   1      42.905  38.343  28.592  1.00  0.00     0.200 A 
ATOM     98  F   UNL A   1      44.280  38.635  30.480  1.00  0.00    -0.200 F 
ATOM     99  F   UNL A   1      42.891  39.665  28.373  1.00  0.00    -0.200 F 
ENDBRANCH  66  89
ENDBRANCH  40  41
ENDBRANCH  32  35
ENDBRANCH  30  31
ENDBRANCH  29  30
ENDBRANCH  28  29
ENDBRANCH  27  28
ENDBRANCH   1  27
TORSDOF 19
ENDMDL
