MODEL 1
REMARK VINA RESULT:     -12.4      0.000      0.000
REMARK SMILES O=C(Cc1ccc2c(c1)NC(=O)CO2)NCCCCCCNC(=O)c1ccc(-c2c3nc(c(-c4c(F)c(F)c(F)c(F)c4F)c4ccc([nH]4)c(-c4c(F)c(F)c(F)c(F)c4F)c4nc(c(-c5c(F)c(F)c(F)c(F)c5F)c5ccc2[nH]5)C=C4)C=C3)cc1
REMARK SMILES IDX 19 1 18 2 17 3 16 4 15 5 1 6 2 7 3 9 4 10 5 11 9 12 6 13
REMARK SMILES IDX 8 14 7 15 10 16 14 17 11 18 13 20 12 21 20 22 21 23 22 24
REMARK SMILES IDX 23 25 24 27 25 28 26 29 87 30 27 31 86 32 28 33 29 34 30 35
REMARK SMILES IDX 80 36 31 37 85 38 79 39 81 40 32 41 84 42 78 43 77 44 33 46
REMARK SMILES IDX 65 47 45 48 64 49 46 50 49 51 63 52 82 53 47 54 48 55 62 57
REMARK SMILES IDX 83 58 50 59 34 60 35 61 43 62 36 63 37 64 41 65 44 66 38 67
REMARK SMILES IDX 39 68 42 69 40 70 66 71 67 72 75 73 68 74 69 75 73 76 76 77
REMARK SMILES IDX 70 78 71 79 74 80 72 81 51 82 52 83 60 84 53 85 54 86 58 87
REMARK SMILES IDX 61 88 55 89 56 90 59 91 57 92
REMARK H PARENT 15 8 10 19 22 26 81 45 49 56
REMARK Flexibility Score: inf
ROOT
ATOM      1  C   UNL A   1      31.680  30.696  26.119  1.00  0.00     0.002 C 
ENDROOT
BRANCH   1   2
ATOM      2  C   UNL A   1      32.878  29.995  26.766  1.00  0.00     0.002 C 
BRANCH   2   3
ATOM      3  C   UNL A   1      32.617  28.566  27.266  1.00  0.00     0.021 C 
BRANCH   3   4
ATOM      4  C   UNL A   1      33.375  27.474  26.506  1.00  0.00     0.116 C 
BRANCH   4   5
ATOM      5  N   UNL A   1      32.675  27.105  25.295  1.00  0.00    -0.356 N 
ATOM      6  O   UNL A   1      34.121  28.097  23.813  1.00  0.00    -0.275 OA
ATOM      7  C   UNL A   1      33.089  27.470  24.033  1.00  0.00     0.224 C 
ATOM      8  H   UNL A   1      31.857  26.563  25.377  1.00  0.00     0.163 HD
BRANCH   7   9
ATOM      9  C   UNL A   1      32.110  27.112  22.925  1.00  0.00     0.135 C 
BRANCH   9  10
ATOM     10  C   UNL A   1      30.824  27.906  22.964  1.00  0.00    -0.036 A 
ATOM     11  C   UNL A   1      29.606  27.279  23.271  1.00  0.00     0.008 A 
ATOM     12  C   UNL A   1      30.833  29.277  22.670  1.00  0.00     0.034 A 
ATOM     13  C   UNL A   1      28.414  28.006  23.261  1.00  0.00     0.049 A 
ATOM     14  C   UNL A   1      29.639  30.000  22.674  1.00  0.00     0.084 A 
ATOM     15  C   UNL A   1      28.428  29.363  22.951  1.00  0.00     0.143 A 
ATOM     16  N   UNL A   1      29.667  31.374  22.437  1.00  0.00    -0.320 N 
ATOM     17  O   UNL A   1      27.224  30.011  23.000  1.00  0.00    -0.482 OA
ATOM     18  C   UNL A   1      28.515  32.108  22.361  1.00  0.00     0.262 C 
ATOM     19  H   UNL A   1      30.534  31.826  22.323  1.00  0.00     0.170 HD
ATOM     20  C   UNL A   1      27.227  31.286  22.375  1.00  0.00     0.329 C 
ATOM     21  O   UNL A   1      28.537  33.326  22.205  1.00  0.00    -0.271 OA
ENDBRANCH   9  10
ENDBRANCH   7   9
ENDBRANCH   4   5
ENDBRANCH   3   4
ENDBRANCH   2   3
ENDBRANCH   1   2
BRANCH   1  22
ATOM     22  C   UNL A   1      31.407  32.115  26.619  1.00  0.00     0.021 C 
BRANCH  22  23
ATOM     23  C   UNL A   1      32.576  32.776  27.342  1.00  0.00     0.116 C 
BRANCH  23  24
ATOM     24  N   UNL A   1      32.328  34.179  27.640  1.00  0.00    -0.352 N 
ATOM     25  C   UNL A   1      32.937  34.997  28.560  1.00  0.00     0.251 C 
ATOM     26  H   UNL A   1      31.621  34.605  27.101  1.00  0.00     0.163 HD
ATOM     27  O   UNL A   1      32.484  36.116  28.788  1.00  0.00    -0.269 OA
BRANCH  25  28
ATOM     28  C   UNL A   1      34.122  34.520  29.303  1.00  0.00     0.039 A 
ATOM     29  C   UNL A   1      33.947  33.968  30.575  1.00  0.00     0.014 A 
ATOM     30  C   UNL A   1      35.402  34.606  28.746  1.00  0.00     0.014 A 
ATOM     31  C   UNL A   1      35.044  33.435  31.255  1.00  0.00     0.010 A 
ATOM     32  C   UNL A   1      36.480  34.007  29.392  1.00  0.00     0.010 A 
ATOM     33  C   UNL A   1      36.312  33.410  30.651  1.00  0.00    -0.014 A 
BRANCH  33  34
ATOM     34  C   UNL A   1      37.467  32.747  31.310  1.00  0.00     0.031 A 
ATOM     35  C   UNL A   1      38.160  31.589  30.645  1.00  0.00     0.074 A 
ATOM     36  C   UNL A   1      37.845  33.139  32.542  1.00  0.00     0.049 A 
ATOM     37  N   UNL A   1      39.130  30.835  31.095  1.00  0.00    -0.248 NA
ATOM     38  C   UNL A   1      37.679  31.214  29.307  1.00  0.00     0.031 C 
ATOM     39  C   UNL A   1      37.223  34.216  33.313  1.00  0.00     0.029 A 
ATOM     40  N   UNL A   1      38.834  32.667  33.370  1.00  0.00    -0.354 N 
ATOM     41  C   UNL A   1      39.368  29.892  30.104  1.00  0.00     0.074 A 
ATOM     42  C   UNL A   1      38.403  30.133  29.052  1.00  0.00     0.031 C 
ATOM     43  C   UNL A   1      37.853  34.334  34.492  1.00  0.00     0.029 A 
ATOM     44  C   UNL A   1      38.894  33.314  34.581  1.00  0.00     0.049 A 
ATOM     45  H   UNL A   1      39.442  31.934  33.120  1.00  0.00     0.167 HD
ATOM     46  C   UNL A   1      40.318  28.928  30.064  1.00  0.00     0.037 A 
ATOM     47  C   UNL A   1      39.685  33.100  35.648  1.00  0.00     0.037 A 
ATOM     48  C   UNL A   1      41.284  28.701  31.108  1.00  0.00     0.049 A 
ATOM     49  C   UNL A   1      40.719  32.006  35.589  1.00  0.00     0.074 A 
ATOM     50  C   UNL A   1      42.326  27.789  31.135  1.00  0.00     0.029 A 
ATOM     51  N   UNL A   1      41.322  29.384  32.315  1.00  0.00    -0.354 N 
ATOM     52  N   UNL A   1      40.984  31.171  34.615  1.00  0.00    -0.248 NA
ATOM     53  C   UNL A   1      41.566  31.830  36.777  1.00  0.00     0.031 C 
ATOM     54  C   UNL A   1      42.954  27.879  32.381  1.00  0.00     0.029 A 
ATOM     55  C   UNL A   1      42.348  28.892  33.107  1.00  0.00     0.049 A 
ATOM     56  H   UNL A   1      40.710  30.112  32.571  1.00  0.00     0.167 HD
ATOM     57  C   UNL A   1      42.044  30.390  35.059  1.00  0.00     0.074 A 
ATOM     58  C   UNL A   1      42.383  30.863  36.384  1.00  0.00     0.031 C 
ATOM     59  C   UNL A   1      42.678  29.374  34.425  1.00  0.00     0.037 A 
BRANCH  46  60
ATOM     60  C   UNL A   1      40.357  28.038  28.853  1.00  0.00     0.064 A 
ATOM     61  C   UNL A   1      41.099  28.378  27.711  1.00  0.00     0.173 A 
ATOM     62  C   UNL A   1      39.671  26.814  28.848  1.00  0.00     0.173 A 
ATOM     63  F   UNL A   1      41.766  29.541  27.660  1.00  0.00    -0.203 F 
ATOM     64  C   UNL A   1      41.125  27.543  26.597  1.00  0.00     0.198 A 
ATOM     65  C   UNL A   1      39.727  25.965  27.744  1.00  0.00     0.198 A 
ATOM     66  F   UNL A   1      38.953  26.434  29.915  1.00  0.00    -0.203 F 
ATOM     67  F   UNL A   1      41.794  27.916  25.498  1.00  0.00    -0.200 F 
ATOM     68  C   UNL A   1      40.445  26.334  26.617  1.00  0.00     0.200 A 
ATOM     69  F   UNL A   1      39.084  24.790  27.773  1.00  0.00    -0.200 F 
ATOM     70  F   UNL A   1      40.477  25.528  25.547  1.00  0.00    -0.200 F 
ENDBRANCH  46  60
BRANCH  47  71
ATOM     71  C   UNL A   1      39.537  33.944  36.863  1.00  0.00     0.064 A 
ATOM     72  C   UNL A   1      38.765  33.516  37.952  1.00  0.00     0.173 A 
ATOM     73  C   UNL A   1      40.161  35.197  36.961  1.00  0.00     0.173 A 
ATOM     74  F   UNL A   1      38.131  32.336  37.900  1.00  0.00    -0.203 F 
ATOM     75  C   UNL A   1      38.603  34.318  39.081  1.00  0.00     0.198 A 
ATOM     76  C   UNL A   1      40.026  35.983  38.104  1.00  0.00     0.198 A 
ATOM     77  F   UNL A   1      40.917  35.652  35.950  1.00  0.00    -0.203 F 
ATOM     78  F   UNL A   1      37.819  33.906  40.086  1.00  0.00    -0.200 F 
ATOM     79  C   UNL A   1      39.240  35.547  39.158  1.00  0.00     0.200 A 
ATOM     80  F   UNL A   1      40.658  37.163  38.181  1.00  0.00    -0.200 F 
ATOM     81  F   UNL A   1      39.089  36.314  40.246  1.00  0.00    -0.200 F 
ENDBRANCH  47  71
BRANCH  59  82
ATOM     82  C   UNL A   1      43.827  28.722  35.140  1.00  0.00     0.064 A 
ATOM     83  C   UNL A   1      43.636  27.638  36.010  1.00  0.00     0.173 A 
ATOM     84  C   UNL A   1      45.141  29.159  34.917  1.00  0.00     0.173 A 
ATOM     85  F   UNL A   1      42.397  27.190  36.271  1.00  0.00    -0.203 F 
ATOM     86  C   UNL A   1      44.715  27.034  36.650  1.00  0.00     0.198 A 
ATOM     87  C   UNL A   1      46.222  28.531  35.530  1.00  0.00     0.198 A 
ATOM     88  F   UNL A   1      45.381  30.186  34.088  1.00  0.00    -0.203 F 
ATOM     89  F   UNL A   1      44.505  26.033  37.516  1.00  0.00    -0.200 F 
ATOM     90  C   UNL A   1      46.007  27.474  36.402  1.00  0.00     0.200 A 
ATOM     91  F   UNL A   1      47.469  28.947  35.277  1.00  0.00    -0.200 F 
ATOM     92  F   UNL A   1      47.046  26.884  37.010  1.00  0.00    -0.200 F 
ENDBRANCH  59  82
ENDBRANCH  33  34
ENDBRANCH  25  28
ENDBRANCH  23  24
ENDBRANCH  22  23
ENDBRANCH   1  22
TORSDOF 14
ENDMDL
MODEL 2
REMARK VINA RESULT:     -12.3      6.765     12.050
REMARK SMILES O=C(Cc1ccc2c(c1)NC(=O)CO2)NCCCCCCNC(=O)c1ccc(-c2c3nc(c(-c4c(F)c(F)c(F)c(F)c4F)c4ccc([nH]4)c(-c4c(F)c(F)c(F)c(F)c4F)c4nc(c(-c5c(F)c(F)c(F)c(F)c5F)c5ccc2[nH]5)C=C4)C=C3)cc1
REMARK SMILES IDX 19 1 18 2 17 3 16 4 15 5 1 6 2 7 3 9 4 10 5 11 9 12 6 13
REMARK SMILES IDX 8 14 7 15 10 16 14 17 11 18 13 20 12 21 20 22 21 23 22 24
REMARK SMILES IDX 23 25 24 27 25 28 26 29 87 30 27 31 86 32 28 33 29 34 30 35
REMARK SMILES IDX 80 36 31 37 85 38 79 39 81 40 32 41 84 42 78 43 77 44 33 46
REMARK SMILES IDX 65 47 45 48 64 49 46 50 49 51 63 52 82 53 47 54 48 55 62 57
REMARK SMILES IDX 83 58 50 59 34 60 35 61 43 62 36 63 37 64 41 65 44 66 38 67
REMARK SMILES IDX 39 68 42 69 40 70 66 71 67 72 75 73 68 74 69 75 73 76 76 77
REMARK SMILES IDX 70 78 71 79 74 80 72 81 51 82 52 83 60 84 53 85 54 86 58 87
REMARK SMILES IDX 61 88 55 89 56 90 59 91 57 92
REMARK H PARENT 15 8 10 19 22 26 81 45 49 56
REMARK Flexibility Score: inf
ROOT
ATOM      1  C   UNL A   1      36.672  20.406  25.001  1.00  0.00     0.002 C 
ENDROOT
BRANCH   1   2
ATOM      2  C   UNL A   1      36.299  21.806  24.503  1.00  0.00     0.002 C 
BRANCH   2   3
ATOM      3  C   UNL A   1      36.584  22.953  25.483  1.00  0.00     0.021 C 
BRANCH   3   4
ATOM      4  C   UNL A   1      35.450  23.972  25.622  1.00  0.00     0.116 C 
BRANCH   4   5
ATOM      5  N   UNL A   1      34.168  23.363  25.339  1.00  0.00    -0.356 N 
ATOM      6  O   UNL A   1      33.637  22.794  27.499  1.00  0.00    -0.275 OA
ATOM      7  C   UNL A   1      33.365  22.792  26.301  1.00  0.00     0.224 C 
ATOM      8  H   UNL A   1      33.853  23.356  24.406  1.00  0.00     0.163 HD
BRANCH   7   9
ATOM      9  C   UNL A   1      32.147  22.068  25.751  1.00  0.00     0.135 C 
BRANCH   9  10
ATOM     10  C   UNL A   1      32.479  20.820  24.964  1.00  0.00    -0.036 A 
ATOM     11  C   UNL A   1      32.153  20.727  23.602  1.00  0.00     0.008 A 
ATOM     12  C   UNL A   1      33.098  19.732  25.596  1.00  0.00     0.034 A 
ATOM     13  C   UNL A   1      32.419  19.556  22.889  1.00  0.00     0.049 A 
ATOM     14  C   UNL A   1      33.373  18.569  24.875  1.00  0.00     0.084 A 
ATOM     15  C   UNL A   1      33.018  18.473  23.527  1.00  0.00     0.143 A 
ATOM     16  N   UNL A   1      34.041  17.516  25.497  1.00  0.00    -0.320 N 
ATOM     17  O   UNL A   1      33.280  17.377  22.751  1.00  0.00    -0.482 OA
ATOM     18  C   UNL A   1      34.266  16.332  24.850  1.00  0.00     0.262 C 
ATOM     19  H   UNL A   1      34.358  17.626  26.423  1.00  0.00     0.170 HD
ATOM     20  C   UNL A   1      33.583  16.203  23.490  1.00  0.00     0.329 C 
ATOM     21  O   UNL A   1      34.900  15.421  25.376  1.00  0.00    -0.271 OA
ENDBRANCH   9  10
ENDBRANCH   7   9
ENDBRANCH   4   5
ENDBRANCH   3   4
ENDBRANCH   2   3
ENDBRANCH   1   2
BRANCH   1  22
ATOM     22  C   UNL A   1      38.094  19.953  24.667  1.00  0.00     0.021 C 
BRANCH  22  23
ATOM     23  C   UNL A   1      39.129  20.234  25.751  1.00  0.00     0.116 C 
BRANCH  23  24
ATOM     24  N   UNL A   1      40.092  19.153  25.900  1.00  0.00    -0.352 N 
ATOM     25  C   UNL A   1      41.445  19.216  26.126  1.00  0.00     0.251 C 
ATOM     26  H   UNL A   1      39.719  18.245  25.827  1.00  0.00     0.163 HD
ATOM     27  O   UNL A   1      42.131  18.198  26.059  1.00  0.00    -0.269 OA
BRANCH  25  28
ATOM     28  C   UNL A   1      42.087  20.514  26.422  1.00  0.00     0.039 A 
ATOM     29  C   UNL A   1      42.539  21.302  25.360  1.00  0.00     0.014 A 
ATOM     30  C   UNL A   1      42.234  20.959  27.739  1.00  0.00     0.014 A 
ATOM     31  C   UNL A   1      43.070  22.568  25.616  1.00  0.00     0.010 A 
ATOM     32  C   UNL A   1      42.692  22.251  27.986  1.00  0.00     0.010 A 
ATOM     33  C   UNL A   1      43.111  23.072  26.926  1.00  0.00    -0.014 A 
BRANCH  33  34
ATOM     34  C   UNL A   1      43.565  24.458  27.206  1.00  0.00     0.031 A 
ATOM     35  C   UNL A   1      42.595  25.488  27.714  1.00  0.00     0.074 A 
ATOM     36  C   UNL A   1      44.837  24.809  26.932  1.00  0.00     0.049 A 
ATOM     37  N   UNL A   1      42.785  26.763  27.942  1.00  0.00    -0.248 NA
ATOM     38  C   UNL A   1      41.223  25.030  27.977  1.00  0.00     0.031 C 
ATOM     39  C   UNL A   1      45.861  23.914  26.391  1.00  0.00     0.029 A 
ATOM     40  N   UNL A   1      45.482  26.015  27.057  1.00  0.00    -0.354 N 
ATOM     41  C   UNL A   1      41.557  27.260  28.361  1.00  0.00     0.074 A 
ATOM     42  C   UNL A   1      40.616  26.161  28.303  1.00  0.00     0.031 C 
ATOM     43  C   UNL A   1      47.008  24.596  26.245  1.00  0.00     0.029 A 
ATOM     44  C   UNL A   1      46.791  25.985  26.639  1.00  0.00     0.049 A 
ATOM     45  H   UNL A   1      45.047  26.824  27.410  1.00  0.00     0.167 HD
ATOM     46  C   UNL A   1      41.249  28.511  28.777  1.00  0.00     0.037 A 
ATOM     47  C   UNL A   1      47.707  26.968  26.566  1.00  0.00     0.037 A 
ATOM     48  C   UNL A   1      42.192  29.597  28.846  1.00  0.00     0.049 A 
ATOM     49  C   UNL A   1      47.333  28.357  27.013  1.00  0.00     0.074 A 
ATOM     50  C   UNL A   1      41.992  30.885  29.311  1.00  0.00     0.029 A 
ATOM     51  N   UNL A   1      43.513  29.526  28.426  1.00  0.00    -0.354 N 
ATOM     52  N   UNL A   1      46.191  28.795  27.480  1.00  0.00    -0.248 NA
ATOM     53  C   UNL A   1      48.380  29.385  26.926  1.00  0.00     0.031 C 
ATOM     54  C   UNL A   1      43.173  31.610  29.117  1.00  0.00     0.029 A 
ATOM     55  C   UNL A   1      44.130  30.756  28.591  1.00  0.00     0.049 A 
ATOM     56  H   UNL A   1      43.948  28.720  28.064  1.00  0.00     0.167 HD
ATOM     57  C   UNL A   1      46.386  30.140  27.769  1.00  0.00     0.074 A 
ATOM     58  C   UNL A   1      47.764  30.440  27.440  1.00  0.00     0.031 C 
ATOM     59  C   UNL A   1      45.504  31.043  28.262  1.00  0.00     0.037 A 
BRANCH  46  60
ATOM     60  C   UNL A   1      39.828  28.777  29.188  1.00  0.00     0.064 A 
ATOM     61  C   UNL A   1      39.396  28.603  30.513  1.00  0.00     0.173 A 
ATOM     62  C   UNL A   1      38.892  29.245  28.252  1.00  0.00     0.173 A 
ATOM     63  F   UNL A   1      40.247  28.149  31.445  1.00  0.00    -0.203 F 
ATOM     64  C   UNL A   1      38.076  28.854  30.876  1.00  0.00     0.198 A 
ATOM     65  C   UNL A   1      37.581  29.528  28.628  1.00  0.00     0.198 A 
ATOM     66  F   UNL A   1      39.251  29.438  26.974  1.00  0.00    -0.203 F 
ATOM     67  F   UNL A   1      37.675  28.626  32.135  1.00  0.00    -0.200 F 
ATOM     68  C   UNL A   1      37.172  29.323  29.936  1.00  0.00     0.200 A 
ATOM     69  F   UNL A   1      36.713  29.998  27.721  1.00  0.00    -0.200 F 
ATOM     70  F   UNL A   1      35.903  29.571  30.289  1.00  0.00    -0.200 F 
ENDBRANCH  46  60
BRANCH  47  71
ATOM     71  C   UNL A   1      49.073  26.673  26.056  1.00  0.00     0.064 A 
ATOM     72  C   UNL A   1      50.050  26.111  26.888  1.00  0.00     0.173 A 
ATOM     73  C   UNL A   1      49.430  26.949  24.728  1.00  0.00     0.173 A 
ATOM     74  F   UNL A   1      49.765  25.848  28.172  1.00  0.00    -0.203 F 
ATOM     75  C   UNL A   1      51.338  25.859  26.420  1.00  0.00     0.198 A 
ATOM     76  C   UNL A   1      50.709  26.666  24.250  1.00  0.00     0.198 A 
ATOM     77  F   UNL A   1      48.531  27.482  23.886  1.00  0.00    -0.203 F 
ATOM     78  F   UNL A   1      52.267  25.367  27.251  1.00  0.00    -0.200 F 
ATOM     79  C   UNL A   1      51.664  26.129  25.099  1.00  0.00     0.200 A 
ATOM     80  F   UNL A   1      51.013  26.913  22.969  1.00  0.00    -0.200 F 
ATOM     81  F   UNL A   1      52.900  25.880  24.648  1.00  0.00    -0.200 F 
ENDBRANCH  47  71
BRANCH  59  82
ATOM     82  C   UNL A   1      46.007  32.436  28.510  1.00  0.00     0.064 A 
ATOM     83  C   UNL A   1      46.602  32.802  29.727  1.00  0.00     0.173 A 
ATOM     84  C   UNL A   1      45.932  33.408  27.500  1.00  0.00     0.173 A 
ATOM     85  F   UNL A   1      46.684  31.916  30.732  1.00  0.00    -0.203 F 
ATOM     86  C   UNL A   1      47.079  34.094  29.931  1.00  0.00     0.198 A 
ATOM     87  C   UNL A   1      46.442  34.688  27.694  1.00  0.00     0.198 A 
ATOM     88  F   UNL A   1      45.379  33.109  26.314  1.00  0.00    -0.203 F 
ATOM     89  F   UNL A   1      47.598  34.435  31.119  1.00  0.00    -0.200 F 
ATOM     90  C   UNL A   1      47.008  35.032  28.912  1.00  0.00     0.200 A 
ATOM     91  F   UNL A   1      46.386  35.588  26.703  1.00  0.00    -0.200 F 
ATOM     92  F   UNL A   1      47.479  36.272  29.107  1.00  0.00    -0.200 F 
ENDBRANCH  59  82
ENDBRANCH  33  34
ENDBRANCH  25  28
ENDBRANCH  23  24
ENDBRANCH  22  23
ENDBRANCH   1  22
TORSDOF 14
ENDMDL
MODEL 3
REMARK VINA RESULT:     -12.2      0.494      7.320
REMARK SMILES O=C(Cc1ccc2c(c1)NC(=O)CO2)NCCCCCCNC(=O)c1ccc(-c2c3nc(c(-c4c(F)c(F)c(F)c(F)c4F)c4ccc([nH]4)c(-c4c(F)c(F)c(F)c(F)c4F)c4nc(c(-c5c(F)c(F)c(F)c(F)c5F)c5ccc2[nH]5)C=C4)C=C3)cc1
REMARK SMILES IDX 19 1 18 2 17 3 16 4 15 5 1 6 2 7 3 9 4 10 5 11 9 12 6 13
REMARK SMILES IDX 8 14 7 15 10 16 14 17 11 18 13 20 12 21 20 22 21 23 22 24
REMARK SMILES IDX 23 25 24 27 25 28 26 29 87 30 27 31 86 32 28 33 29 34 30 35
REMARK SMILES IDX 80 36 31 37 85 38 79 39 81 40 32 41 84 42 78 43 77 44 33 46
REMARK SMILES IDX 65 47 45 48 64 49 46 50 49 51 63 52 82 53 47 54 48 55 62 57
REMARK SMILES IDX 83 58 50 59 34 60 35 61 43 62 36 63 37 64 41 65 44 66 38 67
REMARK SMILES IDX 39 68 42 69 40 70 66 71 67 72 75 73 68 74 69 75 73 76 76 77
REMARK SMILES IDX 70 78 71 79 74 80 72 81 51 82 52 83 60 84 53 85 54 86 58 87
REMARK SMILES IDX 61 88 55 89 56 90 59 91 57 92
REMARK H PARENT 15 8 10 19 22 26 81 45 49 56
REMARK Flexibility Score: inf
ROOT
ATOM      1  C   UNL A   1      31.586  30.703  26.127  1.00  0.00     0.002 C 
ENDROOT
BRANCH   1   2
ATOM      2  C   UNL A   1      32.657  29.926  26.898  1.00  0.00     0.002 C 
BRANCH   2   3
ATOM      3  C   UNL A   1      32.254  28.513  27.345  1.00  0.00     0.021 C 
BRANCH   3   4
ATOM      4  C   UNL A   1      32.996  27.380  26.633  1.00  0.00     0.116 C 
BRANCH   4   5
ATOM      5  N   UNL A   1      32.382  27.078  25.358  1.00  0.00    -0.356 N 
ATOM      6  O   UNL A   1      34.083  27.857  24.027  1.00  0.00    -0.275 OA
ATOM      7  C   UNL A   1      32.963  27.366  24.143  1.00  0.00     0.224 C 
ATOM      8  H   UNL A   1      31.499  26.643  25.359  1.00  0.00     0.163 HD
BRANCH   7   9
ATOM      9  C   UNL A   1      32.065  27.112  22.943  1.00  0.00     0.135 C 
BRANCH   9  10
ATOM     10  C   UNL A   1      30.782  27.912  22.958  1.00  0.00    -0.036 A 
ATOM     11  C   UNL A   1      29.556  27.292  23.245  1.00  0.00     0.008 A 
ATOM     12  C   UNL A   1      30.803  29.283  22.663  1.00  0.00     0.034 A 
ATOM     13  C   UNL A   1      28.367  28.024  23.212  1.00  0.00     0.049 A 
ATOM     14  C   UNL A   1      29.612  30.012  22.645  1.00  0.00     0.084 A 
ATOM     15  C   UNL A   1      28.393  29.381  22.901  1.00  0.00     0.143 A 
ATOM     16  N   UNL A   1      29.650  31.386  22.408  1.00  0.00    -0.320 N 
ATOM     17  O   UNL A   1      27.192  30.035  22.928  1.00  0.00    -0.482 OA
ATOM     18  C   UNL A   1      28.504  32.124  22.310  1.00  0.00     0.262 C 
ATOM     19  H   UNL A   1      30.522  31.833  22.309  1.00  0.00     0.170 HD
ATOM     20  C   UNL A   1      27.212  31.309  22.302  1.00  0.00     0.329 C 
ATOM     21  O   UNL A   1      28.534  33.342  22.154  1.00  0.00    -0.271 OA
ENDBRANCH   9  10
ENDBRANCH   7   9
ENDBRANCH   4   5
ENDBRANCH   3   4
ENDBRANCH   2   3
ENDBRANCH   1   2
BRANCH   1  22
ATOM     22  C   UNL A   1      31.418  32.166  26.542  1.00  0.00     0.021 C 
BRANCH  22  23
ATOM     23  C   UNL A   1      32.647  32.795  27.190  1.00  0.00     0.116 C 
BRANCH  23  24
ATOM     24  N   UNL A   1      32.416  34.169  27.609  1.00  0.00    -0.352 N 
ATOM     25  C   UNL A   1      33.015  34.886  28.616  1.00  0.00     0.251 C 
ATOM     26  H   UNL A   1      31.731  34.656  27.096  1.00  0.00     0.163 HD
ATOM     27  O   UNL A   1      32.576  35.989  28.935  1.00  0.00    -0.269 OA
BRANCH  25  28
ATOM     28  C   UNL A   1      34.172  34.319  29.340  1.00  0.00     0.039 A 
ATOM     29  C   UNL A   1      33.944  33.563  30.492  1.00  0.00     0.014 A 
ATOM     30  C   UNL A   1      35.477  34.524  28.882  1.00  0.00     0.014 A 
ATOM     31  C   UNL A   1      35.018  32.949  31.141  1.00  0.00     0.010 A 
ATOM     32  C   UNL A   1      36.536  33.850  29.484  1.00  0.00     0.010 A 
ATOM     33  C   UNL A   1      36.317  33.051  30.618  1.00  0.00    -0.014 A 
BRANCH  33  34
ATOM     34  C   UNL A   1      37.454  32.313  31.227  1.00  0.00     0.031 A 
ATOM     35  C   UNL A   1      37.968  32.697  32.587  1.00  0.00     0.074 A 
ATOM     36  C   UNL A   1      38.072  31.344  30.523  1.00  0.00     0.049 A 
ATOM     37  N   UNL A   1      38.995  32.225  33.247  1.00  0.00    -0.248 NA
ATOM     38  C   UNL A   1      37.248  33.772  33.285  1.00  0.00     0.031 C 
ATOM     39  C   UNL A   1      37.700  30.913  29.175  1.00  0.00     0.029 A 
ATOM     40  N   UNL A   1      39.153  30.558  30.836  1.00  0.00    -0.354 N 
ATOM     41  C   UNL A   1      39.050  32.951  34.430  1.00  0.00     0.074 A 
ATOM     42  C   UNL A   1      37.988  33.933  34.372  1.00  0.00     0.031 C 
ATOM     43  C   UNL A   1      38.526  29.930  28.784  1.00  0.00     0.029 A 
ATOM     44  C   UNL A   1      39.514  29.693  29.831  1.00  0.00     0.049 A 
ATOM     45  H   UNL A   1      39.626  30.611  31.698  1.00  0.00     0.167 HD
ATOM     46  C   UNL A   1      39.895  32.798  35.478  1.00  0.00     0.037 A 
ATOM     47  C   UNL A   1      40.535  28.818  29.756  1.00  0.00     0.037 A 
ATOM     48  C   UNL A   1      40.942  31.811  35.536  1.00  0.00     0.049 A 
ATOM     49  C   UNL A   1      41.475  28.683  30.925  1.00  0.00     0.074 A 
ATOM     50  C   UNL A   1      41.811  31.536  36.578  1.00  0.00     0.029 A 
ATOM     51  N   UNL A   1      41.269  30.943  34.504  1.00  0.00    -0.354 N 
ATOM     52  N   UNL A   1      41.469  29.322  32.068  1.00  0.00    -0.248 NA
ATOM     53  C   UNL A   1      42.559  27.700  30.792  1.00  0.00     0.031 C 
ATOM     54  C   UNL A   1      42.702  30.544  36.154  1.00  0.00     0.029 A 
ATOM     55  C   UNL A   1      42.349  30.154  34.873  1.00  0.00     0.049 A 
ATOM     56  H   UNL A   1      40.804  30.894  33.638  1.00  0.00     0.167 HD
ATOM     57  C   UNL A   1      42.528  28.802  32.802  1.00  0.00     0.074 A 
ATOM     58  C   UNL A   1      43.143  27.782  31.979  1.00  0.00     0.031 C 
ATOM     59  C   UNL A   1      42.951  29.139  34.045  1.00  0.00     0.037 A 
BRANCH  46  60
ATOM     60  C   UNL A   1      39.727  33.725  36.649  1.00  0.00     0.064 A 
ATOM     61  C   UNL A   1      40.357  34.979  36.695  1.00  0.00     0.173 A 
ATOM     62  C   UNL A   1      38.898  33.370  37.724  1.00  0.00     0.173 A 
ATOM     63  F   UNL A   1      41.167  35.364  35.698  1.00  0.00    -0.203 F 
ATOM     64  C   UNL A   1      40.190  35.826  37.787  1.00  0.00     0.198 A 
ATOM     65  C   UNL A   1      38.706  34.235  38.799  1.00  0.00     0.198 A 
ATOM     66  F   UNL A   1      38.264  32.188  37.730  1.00  0.00    -0.203 F 
ATOM     67  F   UNL A   1      40.848  36.994  37.833  1.00  0.00    -0.200 F 
ATOM     68  C   UNL A   1      39.360  35.457  38.834  1.00  0.00     0.200 A 
ATOM     69  F   UNL A   1      37.890  33.884  39.802  1.00  0.00    -0.200 F 
ATOM     70  F   UNL A   1      39.195  36.277  39.882  1.00  0.00    -0.200 F 
ENDBRANCH  46  60
BRANCH  47  71
ATOM     71  C   UNL A   1      40.717  27.995  28.532  1.00  0.00     0.064 A 
ATOM     72  C   UNL A   1      40.106  26.740  28.406  1.00  0.00     0.173 A 
ATOM     73  C   UNL A   1      41.508  28.443  27.463  1.00  0.00     0.173 A 
ATOM     74  F   UNL A   1      39.357  26.257  29.408  1.00  0.00    -0.203 F 
ATOM     75  C   UNL A   1      40.298  25.954  27.271  1.00  0.00     0.198 A 
ATOM     76  C   UNL A   1      41.672  27.672  26.314  1.00  0.00     0.198 A 
ATOM     77  F   UNL A   1      42.112  29.639  27.528  1.00  0.00    -0.203 F 
ATOM     78  F   UNL A   1      39.742  24.738  27.199  1.00  0.00    -0.200 F 
ATOM     79  C   UNL A   1      41.074  26.425  26.222  1.00  0.00     0.200 A 
ATOM     80  F   UNL A   1      42.410  28.138  25.296  1.00  0.00    -0.200 F 
ATOM     81  F   UNL A   1      41.253  25.672  25.129  1.00  0.00    -0.200 F 
ENDBRANCH  47  71
BRANCH  59  82
ATOM     82  C   UNL A   1      44.117  28.378  34.609  1.00  0.00     0.064 A 
ATOM     83  C   UNL A   1      43.945  27.168  35.300  1.00  0.00     0.173 A 
ATOM     84  C   UNL A   1      45.427  28.841  34.418  1.00  0.00     0.173 A 
ATOM     85  F   UNL A   1      42.712  26.688  35.525  1.00  0.00    -0.203 F 
ATOM     86  C   UNL A   1      45.039  26.467  35.799  1.00  0.00     0.198 A 
ATOM     87  C   UNL A   1      46.521  28.120  34.886  1.00  0.00     0.198 A 
ATOM     88  F   UNL A   1      45.648  29.989  33.757  1.00  0.00    -0.203 F 
ATOM     89  F   UNL A   1      44.847  25.340  36.499  1.00  0.00    -0.200 F 
ATOM     90  C   UNL A   1      46.326  26.938  35.584  1.00  0.00     0.200 A 
ATOM     91  F   UNL A   1      47.764  28.569  34.664  1.00  0.00    -0.200 F 
ATOM     92  F   UNL A   1      47.378  26.255  36.055  1.00  0.00    -0.200 F 
ENDBRANCH  59  82
ENDBRANCH  33  34
ENDBRANCH  25  28
ENDBRANCH  23  24
ENDBRANCH  22  23
ENDBRANCH   1  22
TORSDOF 14
ENDMDL
