MODEL 1
REMARK VINA RESULT:     -12.1      0.000      0.000
REMARK SMILES O=C(NCCCCCCNC(=O)[C@H]1CC[C@@H]2CCCC[C@H]2[NH2+]1)c1ccc(-c2c3nc(c(-c4c(F)c(F)c(F)c(F)c4F)c4ccc([nH]4)c(-c4c(F)c(F)c(F)c(F)c4F)c4nc(c(-c5c(F)c(F)c(F)c(F)c5F)c5ccc2[nH]5)C=C4)C=C3)cc1
REMARK SMILES IDX 5 1 4 2 3 3 1 4 2 5 23 7 24 8 85 9 25 10 84 11 26 12 27 13
REMARK SMILES IDX 28 14 78 15 29 16 83 17 77 18 79 19 30 20 82 21 76 22 75 23
REMARK SMILES IDX 31 25 63 26 43 27 62 28 44 29 47 30 61 31 80 32 45 33 46 34
REMARK SMILES IDX 60 36 81 37 48 38 32 39 33 40 41 41 34 42 35 43 39 44 42 45
REMARK SMILES IDX 36 46 37 47 40 48 38 49 64 50 65 51 73 52 66 53 67 54 71 55
REMARK SMILES IDX 74 56 68 57 69 58 72 59 70 60 49 61 50 62 58 63 51 64 52 65
REMARK SMILES IDX 56 66 59 67 53 68 54 69 57 70 55 71 6 72 7 73 8 74 9 75
REMARK SMILES IDX 10 76 11 77 12 79 13 80 14 81 22 82 15 83 21 84 16 87 20 88
REMARK SMILES IDX 17 89 19 90 18 91
REMARK H PARENT 3 6 79 24 47 35 10 78 22 85 22 86
REMARK Flexibility Score: inf
ROOT
ATOM      1  C   UNL A   1      31.237  31.846  26.355  1.00  0.00     0.021 C 
ENDROOT
BRANCH   1   2
ATOM      2  C   UNL A   1      32.501  32.437  26.969  1.00  0.00     0.116 C 
BRANCH   2   3
ATOM      3  N   UNL A   1      32.310  33.810  27.408  1.00  0.00    -0.352 N 
ATOM      4  O   UNL A   1      32.545  35.607  28.752  1.00  0.00    -0.269 OA
ATOM      5  C   UNL A   1      32.969  34.510  28.383  1.00  0.00     0.251 C 
ATOM      6  H   UNL A   1      31.605  34.308  26.936  1.00  0.00     0.163 HD
BRANCH   5   7
ATOM      7  C   UNL A   1      34.181  33.947  29.010  1.00  0.00     0.039 A 
ATOM      8  C   UNL A   1      35.453  34.407  28.657  1.00  0.00     0.014 A 
ATOM      9  C   UNL A   1      34.037  32.964  29.993  1.00  0.00     0.014 A 
ATOM     10  C   UNL A   1      36.585  33.809  29.203  1.00  0.00     0.010 A 
ATOM     11  C   UNL A   1      35.170  32.412  30.590  1.00  0.00     0.010 A 
ATOM     12  C   UNL A   1      36.453  32.815  30.185  1.00  0.00    -0.014 A 
BRANCH  12  13
ATOM     13  C   UNL A   1      37.654  32.229  30.828  1.00  0.00     0.031 A 
ATOM     14  C   UNL A   1      38.422  31.132  30.152  1.00  0.00     0.074 A 
ATOM     15  C   UNL A   1      38.016  32.656  32.051  1.00  0.00     0.049 A 
ATOM     16  N   UNL A   1      39.423  30.420  30.607  1.00  0.00    -0.248 NA
ATOM     17  C   UNL A   1      38.003  30.779  28.788  1.00  0.00     0.031 C 
ATOM     18  C   UNL A   1      37.342  33.714  32.804  1.00  0.00     0.029 A 
ATOM     19  N   UNL A   1      39.023  32.240  32.884  1.00  0.00    -0.354 N 
ATOM     20  C   UNL A   1      39.737  29.520  29.597  1.00  0.00     0.074 A 
ATOM     21  C   UNL A   1      38.805  29.759  28.516  1.00  0.00     0.031 C 
ATOM     22  C   UNL A   1      37.952  33.863  33.989  1.00  0.00     0.029 A 
ATOM     23  C   UNL A   1      39.017  32.872  34.102  1.00  0.00     0.049 A 
ATOM     24  H   UNL A   1      39.685  31.556  32.633  1.00  0.00     0.167 HD
ATOM     25  C   UNL A   1      40.716  28.582  29.580  1.00  0.00     0.037 A 
ATOM     26  C   UNL A   1      39.755  32.651  35.205  1.00  0.00     0.037 A 
ATOM     27  C   UNL A   1      41.637  28.358  30.664  1.00  0.00     0.049 A 
ATOM     28  C   UNL A   1      40.806  31.578  35.181  1.00  0.00     0.074 A 
ATOM     29  C   UNL A   1      42.693  27.465  30.728  1.00  0.00     0.029 A 
ATOM     30  N   UNL A   1      41.603  29.022  31.883  1.00  0.00    -0.354 N 
ATOM     31  N   UNL A   1      41.125  30.759  34.209  1.00  0.00    -0.248 NA
ATOM     32  C   UNL A   1      41.601  31.399  36.402  1.00  0.00     0.031 C 
ATOM     33  C   UNL A   1      43.257  27.546  32.006  1.00  0.00     0.029 A 
ATOM     34  C   UNL A   1      42.598  28.537  32.716  1.00  0.00     0.049 A 
ATOM     35  H   UNL A   1      40.965  29.733  32.120  1.00  0.00     0.167 HD
ATOM     36  C   UNL A   1      42.173  29.987  34.687  1.00  0.00     0.074 A 
ATOM     37  C   UNL A   1      42.438  30.437  36.039  1.00  0.00     0.031 C 
ATOM     38  C   UNL A   1      42.858  29.001  34.057  1.00  0.00     0.037 A 
BRANCH  25  39
ATOM     39  C   UNL A   1      40.812  27.704  28.365  1.00  0.00     0.064 A 
ATOM     40  C   UNL A   1      40.125  26.483  28.273  1.00  0.00     0.173 A 
ATOM     41  C   UNL A   1      41.598  28.095  27.269  1.00  0.00     0.173 A 
ATOM     42  F   UNL A   1      39.367  26.057  29.293  1.00  0.00    -0.203 F 
ATOM     43  C   UNL A   1      40.256  25.669  27.151  1.00  0.00     0.198 A 
ATOM     44  C   UNL A   1      41.699  27.294  26.133  1.00  0.00     0.198 A 
ATOM     45  F   UNL A   1      42.268  29.257  27.296  1.00  0.00    -0.203 F 
ATOM     46  F   UNL A   1      39.640  24.478  27.113  1.00  0.00    -0.200 F 
ATOM     47  C   UNL A   1      41.039  26.076  26.080  1.00  0.00     0.200 A 
ATOM     48  F   UNL A   1      42.443  27.698  25.094  1.00  0.00    -0.200 F 
ATOM     49  F   UNL A   1      41.165  25.290  25.003  1.00  0.00    -0.200 F 
ENDBRANCH  25  39
BRANCH  26  50
ATOM     50  C   UNL A   1      39.502  33.468  36.418  1.00  0.00     0.064 A 
ATOM     51  C   UNL A   1      40.075  34.737  36.566  1.00  0.00     0.173 A 
ATOM     52  C   UNL A   1      38.631  33.021  37.424  1.00  0.00     0.173 A 
ATOM     53  F   UNL A   1      40.925  35.200  35.638  1.00  0.00    -0.203 F 
ATOM     54  C   UNL A   1      39.788  35.529  37.676  1.00  0.00     0.198 A 
ATOM     55  C   UNL A   1      38.324  33.825  38.518  1.00  0.00     0.198 A 
ATOM     56  F   UNL A   1      38.051  31.817  37.322  1.00  0.00    -0.203 F 
ATOM     57  F   UNL A   1      40.366  36.731  37.806  1.00  0.00    -0.200 F 
ATOM     58  C   UNL A   1      38.904  35.077  38.645  1.00  0.00     0.200 A 
ATOM     59  F   UNL A   1      37.454  33.392  39.441  1.00  0.00    -0.200 F 
ATOM     60  F   UNL A   1      38.613  35.849  39.701  1.00  0.00    -0.200 F 
ENDBRANCH  26  50
BRANCH  38  61
ATOM     61  C   UNL A   1      43.999  28.367  34.796  1.00  0.00     0.064 A 
ATOM     62  C   UNL A   1      45.284  28.928  34.799  1.00  0.00     0.173 A 
ATOM     63  C   UNL A   1      43.781  27.221  35.578  1.00  0.00     0.173 A 
ATOM     64  F   UNL A   1      45.549  30.012  34.055  1.00  0.00    -0.203 F 
ATOM     65  C   UNL A   1      46.310  28.360  35.552  1.00  0.00     0.198 A 
ATOM     66  C   UNL A   1      44.800  26.674  36.350  1.00  0.00     0.198 A 
ATOM     67  F   UNL A   1      42.567  26.648  35.611  1.00  0.00    -0.203 F 
ATOM     68  F   UNL A   1      47.538  28.895  35.517  1.00  0.00    -0.200 F 
ATOM     69  C   UNL A   1      46.064  27.243  36.336  1.00  0.00     0.200 A 
ATOM     70  F   UNL A   1      44.555  25.603  37.118  1.00  0.00    -0.200 F 
ATOM     71  F   UNL A   1      47.046  26.711  37.076  1.00  0.00    -0.200 F 
ENDBRANCH  38  61
ENDBRANCH  12  13
ENDBRANCH   5   7
ENDBRANCH   2   3
ENDBRANCH   1   2
BRANCH   1  72
ATOM     72  C   UNL A   1      31.407  30.448  25.757  1.00  0.00     0.002 C 
BRANCH  72  73
ATOM     73  C   UNL A   1      32.297  29.498  26.564  1.00  0.00     0.002 C 
BRANCH  73  74
ATOM     74  C   UNL A   1      33.383  28.774  25.760  1.00  0.00     0.021 C 
BRANCH  74  75
ATOM     75  C   UNL A   1      33.501  29.215  24.302  1.00  0.00     0.116 C 
BRANCH  75  76
ATOM     76  N   UNL A   1      33.972  28.134  23.455  1.00  0.00    -0.351 N 
ATOM     77  C   UNL A   1      33.279  27.322  22.607  1.00  0.00     0.278 C 
ATOM     78  H   UNL A   1      34.940  27.962  23.500  1.00  0.00     0.163 HD
ATOM     79  O   UNL A   1      33.921  26.483  21.966  1.00  0.00    -0.268 OA
BRANCH  77  80
ATOM     80  C   UNL A   1      31.749  27.418  22.462  1.00  0.00     0.272 C 
ATOM     81  C   UNL A   1      31.042  26.813  23.679  1.00  0.00     0.076 C 
ATOM     82  N   UNL A   1      31.348  28.818  22.196  1.00  0.00    -0.333 N 
ATOM     83  C   UNL A   1      29.528  26.958  23.561  1.00  0.00     0.016 C 
ATOM     84  C   UNL A   1      29.897  28.952  22.050  1.00  0.00     0.186 C 
ATOM     85  H   UNL A   1      31.796  29.131  21.334  1.00  0.00     0.347 HD
ATOM     86  H   UNL A   1      31.641  29.387  22.990  1.00  0.00     0.347 HD
ATOM     87  C   UNL A   1      29.158  28.420  23.295  1.00  0.00     0.048 C 
ATOM     88  C   UNL A   1      29.553  30.430  21.823  1.00  0.00     0.065 C 
ATOM     89  C   UNL A   1      27.643  28.590  23.125  1.00  0.00     0.010 C 
ATOM     90  C   UNL A   1      28.045  30.633  21.684  1.00  0.00     0.006 C 
ATOM     91  C   UNL A   1      27.278  30.050  22.868  1.00  0.00     0.001 C 
ENDBRANCH  77  80
ENDBRANCH  75  76
ENDBRANCH  74  75
ENDBRANCH  73  74
ENDBRANCH  72  73
ENDBRANCH   1  72
TORSDOF 13
ENDMDL
MODEL 2
REMARK VINA RESULT:     -12.1      0.246      1.647
REMARK SMILES O=C(NCCCCCCNC(=O)[C@H]1CC[C@@H]2CCCC[C@H]2[NH2+]1)c1ccc(-c2c3nc(c(-c4c(F)c(F)c(F)c(F)c4F)c4ccc([nH]4)c(-c4c(F)c(F)c(F)c(F)c4F)c4nc(c(-c5c(F)c(F)c(F)c(F)c5F)c5ccc2[nH]5)C=C4)C=C3)cc1
REMARK SMILES IDX 5 1 4 2 3 3 1 4 2 5 23 7 24 8 85 9 25 10 84 11 26 12 27 13
REMARK SMILES IDX 28 14 78 15 29 16 83 17 77 18 79 19 30 20 82 21 76 22 75 23
REMARK SMILES IDX 31 25 63 26 43 27 62 28 44 29 47 30 61 31 80 32 45 33 46 34
REMARK SMILES IDX 60 36 81 37 48 38 32 39 33 40 41 41 34 42 35 43 39 44 42 45
REMARK SMILES IDX 36 46 37 47 40 48 38 49 64 50 65 51 73 52 66 53 67 54 71 55
REMARK SMILES IDX 74 56 68 57 69 58 72 59 70 60 49 61 50 62 58 63 51 64 52 65
REMARK SMILES IDX 56 66 59 67 53 68 54 69 57 70 55 71 6 72 7 73 8 74 9 75
REMARK SMILES IDX 10 76 11 77 12 79 13 80 14 81 22 82 15 83 21 84 16 87 20 88
REMARK SMILES IDX 17 89 19 90 18 91
REMARK H PARENT 3 6 79 24 47 35 10 78 22 85 22 86
REMARK Flexibility Score: inf
ROOT
ATOM      1  C   UNL A   1      31.210  31.605  26.406  1.00  0.00     0.021 C 
ENDROOT
BRANCH   1   2
ATOM      2  C   UNL A   1      32.489  32.254  26.924  1.00  0.00     0.116 C 
BRANCH   2   3
ATOM      3  N   UNL A   1      32.286  33.642  27.304  1.00  0.00    -0.352 N 
ATOM      4  O   UNL A   1      32.512  35.499  28.567  1.00  0.00    -0.269 OA
ATOM      5  C   UNL A   1      32.944  34.391  28.242  1.00  0.00     0.251 C 
ATOM      6  H   UNL A   1      31.572  34.111  26.816  1.00  0.00     0.163 HD
BRANCH   5   7
ATOM      7  C   UNL A   1      34.168  33.870  28.883  1.00  0.00     0.039 A 
ATOM      8  C   UNL A   1      35.420  34.426  28.602  1.00  0.00     0.014 A 
ATOM      9  C   UNL A   1      34.053  32.827  29.805  1.00  0.00     0.014 A 
ATOM     10  C   UNL A   1      36.568  33.868  29.157  1.00  0.00     0.010 A 
ATOM     11  C   UNL A   1      35.198  32.313  30.414  1.00  0.00     0.010 A 
ATOM     12  C   UNL A   1      36.465  32.815  30.079  1.00  0.00    -0.014 A 
BRANCH  12  13
ATOM     13  C   UNL A   1      37.678  32.268  30.734  1.00  0.00     0.031 A 
ATOM     14  C   UNL A   1      38.476  31.181  30.077  1.00  0.00     0.074 A 
ATOM     15  C   UNL A   1      38.026  32.724  31.951  1.00  0.00     0.049 A 
ATOM     16  N   UNL A   1      39.492  30.501  30.545  1.00  0.00    -0.248 NA
ATOM     17  C   UNL A   1      38.069  30.797  28.718  1.00  0.00     0.031 C 
ATOM     18  C   UNL A   1      37.325  33.776  32.686  1.00  0.00     0.029 A 
ATOM     19  N   UNL A   1      39.041  32.345  32.793  1.00  0.00    -0.354 N 
ATOM     20  C   UNL A   1      39.831  29.593  29.551  1.00  0.00     0.074 A 
ATOM     21  C   UNL A   1      38.897  29.792  28.463  1.00  0.00     0.031 C 
ATOM     22  C   UNL A   1      37.927  33.958  33.870  1.00  0.00     0.029 A 
ATOM     23  C   UNL A   1      39.016  32.995  34.002  1.00  0.00     0.049 A 
ATOM     24  H   UNL A   1      39.721  31.674  32.554  1.00  0.00     0.167 HD
ATOM     25  C   UNL A   1      40.833  28.680  29.550  1.00  0.00     0.037 A 
ATOM     26  C   UNL A   1      39.756  32.810  35.110  1.00  0.00     0.037 A 
ATOM     27  C   UNL A   1      41.756  28.495  30.640  1.00  0.00     0.049 A 
ATOM     28  C   UNL A   1      40.833  31.763  35.105  1.00  0.00     0.074 A 
ATOM     29  C   UNL A   1      42.834  27.629  30.721  1.00  0.00     0.029 A 
ATOM     30  N   UNL A   1      41.702  29.177  31.849  1.00  0.00    -0.354 N 
ATOM     31  N   UNL A   1      41.175  30.936  34.146  1.00  0.00    -0.248 NA
ATOM     32  C   UNL A   1      41.629  31.622  36.331  1.00  0.00     0.031 C 
ATOM     33  C   UNL A   1      43.392  27.744  31.998  1.00  0.00     0.029 A 
ATOM     34  C   UNL A   1      42.706  28.729  32.691  1.00  0.00     0.049 A 
ATOM     35  H   UNL A   1      41.046  29.876  32.073  1.00  0.00     0.167 HD
ATOM     36  C   UNL A   1      42.241  30.198  34.639  1.00  0.00     0.074 A 
ATOM     37  C   UNL A   1      42.491  30.675  35.985  1.00  0.00     0.031 C 
ATOM     38  C   UNL A   1      42.951  29.220  34.026  1.00  0.00     0.037 A 
BRANCH  25  39
ATOM     39  C   UNL A   1      40.954  27.786  28.349  1.00  0.00     0.064 A 
ATOM     40  C   UNL A   1      40.302  26.544  28.277  1.00  0.00     0.173 A 
ATOM     41  C   UNL A   1      41.729  28.181  27.247  1.00  0.00     0.173 A 
ATOM     42  F   UNL A   1      39.556  26.113  29.304  1.00  0.00    -0.203 F 
ATOM     43  C   UNL A   1      40.456  25.717  27.167  1.00  0.00     0.198 A 
ATOM     44  C   UNL A   1      41.852  27.366  26.124  1.00  0.00     0.198 A 
ATOM     45  F   UNL A   1      42.366  29.362  27.255  1.00  0.00    -0.203 F 
ATOM     46  F   UNL A   1      39.875  24.509  27.149  1.00  0.00    -0.200 F 
ATOM     47  C   UNL A   1      41.227  26.129  26.091  1.00  0.00     0.200 A 
ATOM     48  F   UNL A   1      42.584  27.774  25.078  1.00  0.00    -0.200 F 
ATOM     49  F   UNL A   1      41.376  25.330  25.025  1.00  0.00    -0.200 F 
ENDBRANCH  25  39
BRANCH  26  50
ATOM     50  C   UNL A   1      39.480  33.639  36.309  1.00  0.00     0.064 A 
ATOM     51  C   UNL A   1      38.663  33.163  37.342  1.00  0.00     0.173 A 
ATOM     52  C   UNL A   1      40.079  34.897  36.473  1.00  0.00     0.173 A 
ATOM     53  F   UNL A   1      38.057  31.973  37.223  1.00  0.00    -0.203 F 
ATOM     54  C   UNL A   1      38.453  33.917  38.496  1.00  0.00     0.198 A 
ATOM     55  C   UNL A   1      39.891  35.637  37.638  1.00  0.00     0.198 A 
ATOM     56  F   UNL A   1      40.877  35.391  35.516  1.00  0.00    -0.203 F 
ATOM     57  F   UNL A   1      37.650  33.450  39.461  1.00  0.00    -0.200 F 
ATOM     58  C   UNL A   1      39.076  35.147  38.647  1.00  0.00     0.200 A 
ATOM     59  F   UNL A   1      40.511  36.815  37.788  1.00  0.00    -0.200 F 
ATOM     60  F   UNL A   1      38.891  35.861  39.766  1.00  0.00    -0.200 F 
ENDBRANCH  26  50
BRANCH  38  61
ATOM     61  C   UNL A   1      44.106  28.625  34.777  1.00  0.00     0.064 A 
ATOM     62  C   UNL A   1      43.967  27.462  35.548  1.00  0.00     0.173 A 
ATOM     63  C   UNL A   1      45.387  29.187  34.658  1.00  0.00     0.173 A 
ATOM     64  F   UNL A   1      42.762  26.897  35.708  1.00  0.00    -0.203 F 
ATOM     65  C   UNL A   1      45.070  26.887  36.177  1.00  0.00     0.198 A 
ATOM     66  C   UNL A   1      46.490  28.594  35.265  1.00  0.00     0.198 A 
ATOM     67  F   UNL A   1      45.572  30.298  33.929  1.00  0.00    -0.203 F 
ATOM     68  F   UNL A   1      44.912  25.793  36.934  1.00  0.00    -0.200 F 
ATOM     69  C   UNL A   1      46.330  27.446  36.025  1.00  0.00     0.200 A 
ATOM     70  F   UNL A   1      47.708  29.128  35.103  1.00  0.00    -0.200 F 
ATOM     71  F   UNL A   1      47.392  26.880  36.614  1.00  0.00    -0.200 F 
ENDBRANCH  38  61
ENDBRANCH  12  13
ENDBRANCH   5   7
ENDBRANCH   2   3
ENDBRANCH   1   2
BRANCH   1  72
ATOM     72  C   UNL A   1      31.429  30.419  25.464  1.00  0.00     0.002 C 
BRANCH  72  73
ATOM     73  C   UNL A   1      31.869  29.119  26.144  1.00  0.00     0.002 C 
BRANCH  73  74
ATOM     74  C   UNL A   1      33.156  28.494  25.594  1.00  0.00     0.021 C 
BRANCH  74  75
ATOM     75  C   UNL A   1      33.554  28.970  24.198  1.00  0.00     0.116 C 
BRANCH  75  76
ATOM     76  N   UNL A   1      33.968  27.863  23.355  1.00  0.00    -0.351 N 
ATOM     77  C   UNL A   1      33.229  27.067  22.531  1.00  0.00     0.278 C 
ATOM     78  H   UNL A   1      34.930  27.656  23.383  1.00  0.00     0.163 HD
ATOM     79  O   UNL A   1      33.827  26.198  21.888  1.00  0.00    -0.268 OA
BRANCH  77  80
ATOM     80  C   UNL A   1      31.701  27.217  22.416  1.00  0.00     0.272 C 
ATOM     81  C   UNL A   1      30.994  26.584  23.619  1.00  0.00     0.076 C 
ATOM     82  N   UNL A   1      31.341  28.638  22.214  1.00  0.00    -0.333 N 
ATOM     83  C   UNL A   1      29.483  26.782  23.532  1.00  0.00     0.016 C 
ATOM     84  C   UNL A   1      29.893  28.824  22.098  1.00  0.00     0.186 C 
ATOM     85  H   UNL A   1      31.786  28.972  21.358  1.00  0.00     0.347 HD
ATOM     86  H   UNL A   1      31.664  29.165  23.026  1.00  0.00     0.347 HD
ATOM     87  C   UNL A   1      29.156  28.265  23.332  1.00  0.00     0.048 C 
ATOM     88  C   UNL A   1      29.593  30.321  21.937  1.00  0.00     0.065 C 
ATOM     89  C   UNL A   1      27.645  28.489  23.195  1.00  0.00     0.010 C 
ATOM     90  C   UNL A   1      28.090  30.576  21.832  1.00  0.00     0.006 C 
ATOM     91  C   UNL A   1      27.323  29.969  23.003  1.00  0.00     0.001 C 
ENDBRANCH  77  80
ENDBRANCH  75  76
ENDBRANCH  74  75
ENDBRANCH  73  74
ENDBRANCH  72  73
ENDBRANCH   1  72
TORSDOF 13
ENDMDL
MODEL 3
REMARK VINA RESULT:     -11.9      2.148      3.500
REMARK SMILES O=C(NCCCCCCNC(=O)[C@H]1CC[C@@H]2CCCC[C@H]2[NH2+]1)c1ccc(-c2c3nc(c(-c4c(F)c(F)c(F)c(F)c4F)c4ccc([nH]4)c(-c4c(F)c(F)c(F)c(F)c4F)c4nc(c(-c5c(F)c(F)c(F)c(F)c5F)c5ccc2[nH]5)C=C4)C=C3)cc1
REMARK SMILES IDX 5 1 4 2 3 3 1 4 2 5 23 7 24 8 85 9 25 10 84 11 26 12 27 13
REMARK SMILES IDX 28 14 78 15 29 16 83 17 77 18 79 19 30 20 82 21 76 22 75 23
REMARK SMILES IDX 31 25 63 26 43 27 62 28 44 29 47 30 61 31 80 32 45 33 46 34
REMARK SMILES IDX 60 36 81 37 48 38 32 39 33 40 41 41 34 42 35 43 39 44 42 45
REMARK SMILES IDX 36 46 37 47 40 48 38 49 64 50 65 51 73 52 66 53 67 54 71 55
REMARK SMILES IDX 74 56 68 57 69 58 72 59 70 60 49 61 50 62 58 63 51 64 52 65
REMARK SMILES IDX 56 66 59 67 53 68 54 69 57 70 55 71 6 72 7 73 8 74 9 75
REMARK SMILES IDX 10 76 11 77 12 79 13 80 14 81 22 82 15 83 21 84 16 87 20 88
REMARK SMILES IDX 17 89 19 90 18 91
REMARK H PARENT 3 6 79 24 47 35 10 78 22 85 22 86
REMARK Flexibility Score: inf
ROOT
ATOM      1  C   UNL A   1      31.403  31.987  26.688  1.00  0.00     0.021 C 
ENDROOT
BRANCH   1   2
ATOM      2  C   UNL A   1      32.710  32.640  27.124  1.00  0.00     0.116 C 
BRANCH   2   3
ATOM      3  N   UNL A   1      32.509  33.990  27.627  1.00  0.00    -0.352 N 
ATOM      4  O   UNL A   1      32.721  35.717  29.063  1.00  0.00    -0.269 OA
ATOM      5  C   UNL A   1      33.152  34.641  28.646  1.00  0.00     0.251 C 
ATOM      6  H   UNL A   1      31.810  34.509  27.170  1.00  0.00     0.163 HD
BRANCH   5   7
ATOM      7  C   UNL A   1      34.356  34.050  29.261  1.00  0.00     0.039 A 
ATOM      8  C   UNL A   1      35.637  34.454  28.870  1.00  0.00     0.014 A 
ATOM      9  C   UNL A   1      34.198  33.097  30.271  1.00  0.00     0.014 A 
ATOM     10  C   UNL A   1      36.758  33.828  29.408  1.00  0.00     0.010 A 
ATOM     11  C   UNL A   1      35.324  32.519  30.858  1.00  0.00     0.010 A 
ATOM     12  C   UNL A   1      36.611  32.864  30.416  1.00  0.00    -0.014 A 
BRANCH  12  13
ATOM     13  C   UNL A   1      37.804  32.250  31.049  1.00  0.00     0.031 A 
ATOM     14  C   UNL A   1      38.548  31.144  30.361  1.00  0.00     0.074 A 
ATOM     15  C   UNL A   1      38.180  32.661  32.274  1.00  0.00     0.049 A 
ATOM     16  N   UNL A   1      39.537  30.410  30.805  1.00  0.00    -0.248 NA
ATOM     17  C   UNL A   1      38.115  30.811  28.996  1.00  0.00     0.031 C 
ATOM     18  C   UNL A   1      37.530  33.725  33.038  1.00  0.00     0.029 A 
ATOM     19  N   UNL A   1      39.183  32.219  33.098  1.00  0.00    -0.354 N 
ATOM     20  C   UNL A   1      39.829  29.512  29.787  1.00  0.00     0.074 A 
ATOM     21  C   UNL A   1      38.896  29.777  28.712  1.00  0.00     0.031 C 
ATOM     22  C   UNL A   1      38.148  33.854  34.221  1.00  0.00     0.029 A 
ATOM     23  C   UNL A   1      39.195  32.841  34.321  1.00  0.00     0.049 A 
ATOM     24  H   UNL A   1      39.831  31.525  32.838  1.00  0.00     0.167 HD
ATOM     25  C   UNL A   1      40.790  28.556  29.757  1.00  0.00     0.037 A 
ATOM     26  C   UNL A   1      39.934  32.598  35.419  1.00  0.00     0.037 A 
ATOM     27  C   UNL A   1      41.712  28.305  30.835  1.00  0.00     0.049 A 
ATOM     28  C   UNL A   1      40.964  31.506  35.381  1.00  0.00     0.074 A 
ATOM     29  C   UNL A   1      42.751  27.393  30.887  1.00  0.00     0.029 A 
ATOM     30  N   UNL A   1      41.696  28.961  32.059  1.00  0.00    -0.354 N 
ATOM     31  N   UNL A   1      41.262  30.688  34.401  1.00  0.00    -0.248 NA
ATOM     32  C   UNL A   1      41.762  31.302  36.597  1.00  0.00     0.031 C 
ATOM     33  C   UNL A   1      43.323  27.453  32.162  1.00  0.00     0.029 A 
ATOM     34  C   UNL A   1      42.686  28.450  32.884  1.00  0.00     0.049 A 
ATOM     35  H   UNL A   1      41.073  29.682  32.305  1.00  0.00     0.167 HD
ATOM     36  C   UNL A   1      42.298  29.892  34.868  1.00  0.00     0.074 A 
ATOM     37  C   UNL A   1      42.579  30.327  36.222  1.00  0.00     0.031 C 
ATOM     38  C   UNL A   1      42.962  28.899  34.227  1.00  0.00     0.037 A 
BRANCH  25  39
ATOM     39  C   UNL A   1      40.864  27.686  28.535  1.00  0.00     0.064 A 
ATOM     40  C   UNL A   1      41.682  28.008  27.440  1.00  0.00     0.173 A 
ATOM     41  C   UNL A   1      40.110  26.504  28.461  1.00  0.00     0.173 A 
ATOM     42  F   UNL A   1      42.418  29.129  27.454  1.00  0.00    -0.203 F 
ATOM     43  C   UNL A   1      41.709  27.203  26.304  1.00  0.00     0.198 A 
ATOM     44  C   UNL A   1      40.166  25.684  27.336  1.00  0.00     0.198 A 
ATOM     45  F   UNL A   1      39.318  26.140  29.481  1.00  0.00    -0.203 F 
ATOM     46  F   UNL A   1      42.450  27.565  25.246  1.00  0.00    -0.200 F 
ATOM     47  C   UNL A   1      40.955  26.040  26.254  1.00  0.00     0.200 A 
ATOM     48  F   UNL A   1      39.449  24.552  27.297  1.00  0.00    -0.200 F 
ATOM     49  F   UNL A   1      40.980  25.269  25.158  1.00  0.00    -0.200 F 
ENDBRANCH  25  39
BRANCH  26  50
ATOM     50  C   UNL A   1      39.703  33.410  36.640  1.00  0.00     0.064 A 
ATOM     51  C   UNL A   1      40.377  34.621  36.839  1.00  0.00     0.173 A 
ATOM     52  C   UNL A   1      38.755  33.021  37.599  1.00  0.00     0.173 A 
ATOM     53  F   UNL A   1      41.302  35.025  35.957  1.00  0.00    -0.203 F 
ATOM     54  C   UNL A   1      40.114  35.413  37.955  1.00  0.00     0.198 A 
ATOM     55  C   UNL A   1      38.473  33.827  38.699  1.00  0.00     0.198 A 
ATOM     56  F   UNL A   1      38.076  31.875  37.446  1.00  0.00    -0.203 F 
ATOM     57  F   UNL A   1      40.788  36.556  38.136  1.00  0.00    -0.200 F 
ATOM     58  C   UNL A   1      39.154  35.021  38.878  1.00  0.00     0.200 A 
ATOM     59  F   UNL A   1      37.530  33.454  39.576  1.00  0.00    -0.200 F 
ATOM     60  F   UNL A   1      38.887  35.795  39.938  1.00  0.00    -0.200 F 
ENDBRANCH  26  50
BRANCH  38  61
ATOM     61  C   UNL A   1      44.094  28.237  34.955  1.00  0.00     0.064 A 
ATOM     62  C   UNL A   1      45.389  28.773  34.955  1.00  0.00     0.173 A 
ATOM     63  C   UNL A   1      43.857  27.090  35.730  1.00  0.00     0.173 A 
ATOM     64  F   UNL A   1      45.671  29.857  34.217  1.00  0.00    -0.203 F 
ATOM     65  C   UNL A   1      46.408  28.180  35.698  1.00  0.00     0.198 A 
ATOM     66  C   UNL A   1      44.870  26.517  36.493  1.00  0.00     0.198 A 
ATOM     67  F   UNL A   1      42.633  26.540  35.765  1.00  0.00    -0.203 F 
ATOM     68  F   UNL A   1      47.646  28.691  35.661  1.00  0.00    -0.200 F 
ATOM     69  C   UNL A   1      46.144  27.062  36.475  1.00  0.00     0.200 A 
ATOM     70  F   UNL A   1      44.608  25.446  37.254  1.00  0.00    -0.200 F 
ATOM     71  F   UNL A   1      47.120  26.506  37.206  1.00  0.00    -0.200 F 
ENDBRANCH  38  61
ENDBRANCH  12  13
ENDBRANCH   5   7
ENDBRANCH   2   3
ENDBRANCH   1   2
BRANCH   1  72
ATOM     72  C   UNL A   1      31.547  30.564  26.145  1.00  0.00     0.002 C 
BRANCH  72  73
ATOM     73  C   UNL A   1      32.208  29.565  27.101  1.00  0.00     0.002 C 
BRANCH  73  74
ATOM     74  C   UNL A   1      31.463  28.239  27.282  1.00  0.00     0.021 C 
BRANCH  74  75
ATOM     75  C   UNL A   1      32.034  27.068  26.485  1.00  0.00     0.116 C 
BRANCH  75  76
ATOM     76  N   UNL A   1      31.139  25.925  26.501  1.00  0.00    -0.351 N 
ATOM     77  C   UNL A   1      31.422  24.592  26.554  1.00  0.00     0.278 C 
ATOM     78  H   UNL A   1      30.181  26.147  26.469  1.00  0.00     0.163 HD
ATOM     79  O   UNL A   1      30.470  23.806  26.586  1.00  0.00    -0.268 OA
BRANCH  77  80
ATOM     80  C   UNL A   1      32.872  24.072  26.548  1.00  0.00     0.272 C 
ATOM     81  C   UNL A   1      32.978  22.732  27.284  1.00  0.00     0.076 C 
ATOM     82  N   UNL A   1      33.390  24.015  25.163  1.00  0.00    -0.333 N 
ATOM     83  C   UNL A   1      34.404  22.191  27.231  1.00  0.00     0.016 C 
ATOM     84  C   UNL A   1      34.769  23.526  25.115  1.00  0.00     0.186 C 
ATOM     85  H   UNL A   1      33.358  24.952  24.761  1.00  0.00     0.347 HD
ATOM     86  H   UNL A   1      32.805  23.368  24.633  1.00  0.00     0.347 HD
ATOM     87  C   UNL A   1      34.895  22.141  25.781  1.00  0.00     0.048 C 
ATOM     88  C   UNL A   1      35.221  23.450  23.650  1.00  0.00     0.065 C 
ATOM     89  C   UNL A   1      36.344  21.643  25.700  1.00  0.00     0.010 C 
ATOM     90  C   UNL A   1      36.651  22.924  23.538  1.00  0.00     0.006 C 
ATOM     91  C   UNL A   1      36.827  21.587  24.253  1.00  0.00     0.001 C 
ENDBRANCH  77  80
ENDBRANCH  75  76
ENDBRANCH  74  75
ENDBRANCH  73  74
ENDBRANCH  72  73
ENDBRANCH   1  72
TORSDOF 13
ENDMDL
