MODEL 1
REMARK VINA RESULT:     -12.7      0.000      0.000
REMARK SMILES Cc1nnc(SCC2=C(C(=O)NCCCCCCNC(=O)c3ccc(-c4c5nc(c(-c6c(F)c(F)c(F)c(F)c6F)c6ccc([nH]6)c(-c6c(F)c(F)c(F)c(F)c6F)c6nc(c(-c7c(F)c(F)c(F)c(F)c7F)c7ccc4[nH]7)C=C6)C=C5)cc3)N3C(=O)[C@H](NC(=O)c4ccc(F)cc4F)[C@H]3SC2)s1
REMARK SMILES IDX 15 1 14 2 13 3 12 4 10 5 11 6 9 8 8 9 102 10 85 11 101 12
REMARK SMILES IDX 86 13 100 14 87 15 88 16 7 17 6 18 5 19 1 20 2 21 3 22
REMARK SMILES IDX 103 23 4 24 89 25 90 26 91 28 92 29 93 30 98 31 94 32 97 33
REMARK SMILES IDX 99 34 95 35 96 36 16 37 17 38 18 39 19 40 20 41 21 43 22 44
REMARK SMILES IDX 23 45 84 46 24 47 83 48 25 49 26 50 27 51 77 52 28 53 82 54
REMARK SMILES IDX 76 55 78 56 29 57 81 58 75 59 74 60 30 62 62 63 42 64 61 65
REMARK SMILES IDX 43 66 46 67 60 68 79 69 44 70 45 71 59 73 80 74 47 75 31 76
REMARK SMILES IDX 32 77 40 78 33 79 34 80 38 81 41 82 35 83 36 84 39 85 37 86
REMARK SMILES IDX 63 87 64 88 72 89 65 90 66 91 70 92 73 93 67 94 68 95 71 96
REMARK SMILES IDX 69 97 48 98 49 99 57 100 50 101 51 102 55 103 58 104 52 105
REMARK SMILES IDX 53 106 56 107 54 108
REMARK H PARENT 12 7 89 27 19 42 78 61 46 72
REMARK Flexibility Score: inf
ROOT
ATOM      1  C   UNL A   1      33.925  31.652  27.930  1.00  0.00     0.002 C 
ENDROOT
BRANCH   1   2
ATOM      2  C   UNL A   1      35.048  30.637  28.151  1.00  0.00     0.021 C 
BRANCH   2   3
ATOM      3  C   UNL A   1      34.764  29.327  27.419  1.00  0.00     0.116 C 
BRANCH   3   4
ATOM      4  N   UNL A   1      33.362  29.020  27.380  1.00  0.00    -0.351 N 
ATOM      5  C   UNL A   1      32.539  28.137  26.788  1.00  0.00     0.268 C 
ATOM      6  O   UNL A   1      31.546  27.924  27.499  1.00  0.00    -0.268 OA
ATOM      7  H   UNL A   1      32.853  29.637  27.954  1.00  0.00     0.163 HD
BRANCH   5   8
ATOM      8  C   UNL A   1      32.633  27.430  25.427  1.00  0.00     0.111 C 
ATOM      9  C   UNL A   1      33.343  26.342  24.979  1.00  0.00    -0.020 C 
ATOM     10  C   UNL A   1      33.290  25.793  23.534  1.00  0.00     0.106 C 
ATOM     11  N   UNL A   1      31.723  27.958  24.526  1.00  0.00    -0.290 N 
ATOM     12  S   UNL A   1      32.376  26.758  22.323  1.00  0.00    -0.129 SA
ATOM     13  C   UNL A   1      30.908  29.025  24.327  1.00  0.00     0.253 C 
ATOM     14  C   UNL A   1      31.108  27.112  23.542  1.00  0.00     0.181 C 
ATOM     15  O   UNL A   1      30.831  30.147  24.776  1.00  0.00    -0.272 OA
ATOM     16  C   UNL A   1      30.147  28.255  23.185  1.00  0.00     0.206 C 
BRANCH   9  17
ATOM     17  C   UNL A   1      34.327  25.480  25.726  1.00  0.00     0.111 C 
BRANCH  17  18
ATOM     18  S   UNL A   1      33.819  23.755  25.959  1.00  0.00    -0.089 SA
BRANCH  18  19
ATOM     19  C   UNL A   1      35.249  22.800  25.664  1.00  0.00     0.174 A 
ATOM     20  C   UNL A   1      37.648  19.918  24.835  1.00  0.00     0.081 C 
ATOM     21  C   UNL A   1      36.889  21.146  25.182  1.00  0.00     0.115 A 
ATOM     22  N   UNL A   1      37.420  22.260  25.640  1.00  0.00    -0.143 NA
ATOM     23  S   UNL A   1      35.179  21.208  25.024  1.00  0.00    -0.091 S 
ATOM     24  N   UNL A   1      36.463  23.210  25.939  1.00  0.00    -0.132 NA
ENDBRANCH  18  19
ENDBRANCH  17  18
ENDBRANCH   9  17
BRANCH  16  25
ATOM     25  N   UNL A   1      28.688  28.013  23.416  1.00  0.00    -0.338 N 
ATOM     26  C   UNL A   1      27.605  28.835  23.180  1.00  0.00     0.254 C 
ATOM     27  H   UNL A   1      28.468  27.131  23.795  1.00  0.00     0.164 HD
ATOM     28  O   UNL A   1      26.495  28.555  23.620  1.00  0.00    -0.269 OA
BRANCH  26  29
ATOM     29  C   UNL A   1      27.760  30.086  22.422  1.00  0.00     0.075 A 
ATOM     30  C   UNL A   1      27.862  30.054  21.029  1.00  0.00     0.020 A 
ATOM     31  C   UNL A   1      27.886  31.304  23.094  1.00  0.00     0.138 A 
ATOM     32  C   UNL A   1      27.969  31.257  20.322  1.00  0.00     0.040 A 
ATOM     33  C   UNL A   1      27.930  32.505  22.395  1.00  0.00     0.079 A 
ATOM     34  F   UNL A   1      27.909  31.346  24.434  1.00  0.00    -0.206 F 
ATOM     35  C   UNL A   1      27.963  32.470  21.009  1.00  0.00     0.126 A 
ATOM     36  F   UNL A   1      28.004  33.618  20.325  1.00  0.00    -0.207 F 
ENDBRANCH  26  29
ENDBRANCH  16  25
ENDBRANCH   5   8
ENDBRANCH   3   4
ENDBRANCH   2   3
ENDBRANCH   1   2
BRANCH   1  37
ATOM     37  C   UNL A   1      34.338  33.100  28.226  1.00  0.00     0.002 C 
BRANCH  37  38
ATOM     38  C   UNL A   1      33.176  34.091  28.299  1.00  0.00     0.021 C 
BRANCH  38  39
ATOM     39  C   UNL A   1      33.578  35.471  28.800  1.00  0.00     0.116 C 
BRANCH  39  40
ATOM     40  N   UNL A   1      32.839  35.835  29.998  1.00  0.00    -0.352 N 
ATOM     41  C   UNL A   1      32.943  35.330  31.266  1.00  0.00     0.251 C 
ATOM     42  H   UNL A   1      32.167  36.545  29.881  1.00  0.00     0.163 HD
ATOM     43  O   UNL A   1      32.052  35.520  32.088  1.00  0.00    -0.269 OA
BRANCH  41  44
ATOM     44  C   UNL A   1      34.143  34.560  31.638  1.00  0.00     0.039 A 
ATOM     45  C   UNL A   1      34.010  33.221  32.010  1.00  0.00     0.014 A 
ATOM     46  C   UNL A   1      35.398  35.177  31.647  1.00  0.00     0.014 A 
ATOM     47  C   UNL A   1      35.145  32.492  32.361  1.00  0.00     0.010 A 
ATOM     48  C   UNL A   1      36.536  34.427  31.907  1.00  0.00     0.010 A 
ATOM     49  C   UNL A   1      36.417  33.084  32.293  1.00  0.00    -0.014 A 
BRANCH  49  50
ATOM     50  C   UNL A   1      37.637  32.331  32.669  1.00  0.00     0.031 A 
ATOM     51  C   UNL A   1      38.334  32.642  33.964  1.00  0.00     0.074 A 
ATOM     52  C   UNL A   1      38.141  31.411  31.825  1.00  0.00     0.049 A 
ATOM     53  N   UNL A   1      39.445  32.148  34.447  1.00  0.00    -0.248 NA
ATOM     54  C   UNL A   1      37.715  33.668  34.820  1.00  0.00     0.031 C 
ATOM     55  C   UNL A   1      37.572  31.056  30.524  1.00  0.00     0.029 A 
ATOM     56  N   UNL A   1      39.250  30.612  31.933  1.00  0.00    -0.354 N 
ATOM     57  C   UNL A   1      39.662  32.811  35.648  1.00  0.00     0.074 A 
ATOM     58  C   UNL A   1      38.607  33.790  35.790  1.00  0.00     0.031 C 
ATOM     59  C   UNL A   1      38.320  30.089  29.968  1.00  0.00     0.029 A 
ATOM     60  C   UNL A   1      39.443  29.789  30.851  1.00  0.00     0.049 A 
ATOM     61  H   UNL A   1      39.851  30.627  32.713  1.00  0.00     0.167 HD
ATOM     62  C   UNL A   1      40.635  32.600  36.566  1.00  0.00     0.037 A 
ATOM     63  C   UNL A   1      40.421  28.900  30.601  1.00  0.00     0.037 A 
ATOM     64  C   UNL A   1      41.668  31.609  36.426  1.00  0.00     0.049 A 
ATOM     65  C   UNL A   1      41.504  28.701  31.627  1.00  0.00     0.074 A 
ATOM     66  C   UNL A   1      42.675  31.281  37.315  1.00  0.00     0.029 A 
ATOM     67  N   UNL A   1      41.826  30.786  35.319  1.00  0.00    -0.354 N 
ATOM     68  N   UNL A   1      41.664  29.287  32.790  1.00  0.00    -0.248 NA
ATOM     69  C   UNL A   1      42.540  27.709  31.310  1.00  0.00     0.031 C 
ATOM     70  C   UNL A   1      43.477  30.300  36.722  1.00  0.00     0.029 A 
ATOM     71  C   UNL A   1      42.930  29.967  35.493  1.00  0.00     0.049 A 
ATOM     72  H   UNL A   1      41.241  30.784  34.527  1.00  0.00     0.167 HD
ATOM     73  C   UNL A   1      42.792  28.709  33.357  1.00  0.00     0.074 A 
ATOM     74  C   UNL A   1      43.269  27.717  32.416  1.00  0.00     0.031 C 
ATOM     75  C   UNL A   1      43.380  28.974  34.551  1.00  0.00     0.037 A 
BRANCH  62  76
ATOM     76  C   UNL A   1      40.626  33.457  37.799  1.00  0.00     0.064 A 
ATOM     77  C   UNL A   1      41.504  34.542  37.954  1.00  0.00     0.173 A 
ATOM     78  C   UNL A   1      39.705  33.211  38.829  1.00  0.00     0.173 A 
ATOM     79  F   UNL A   1      42.413  34.815  37.006  1.00  0.00    -0.203 F 
ATOM     80  C   UNL A   1      41.483  35.326  39.105  1.00  0.00     0.198 A 
ATOM     81  C   UNL A   1      39.663  34.019  39.963  1.00  0.00     0.198 A 
ATOM     82  F   UNL A   1      38.840  32.191  38.735  1.00  0.00    -0.203 F 
ATOM     83  F   UNL A   1      42.371  36.318  39.253  1.00  0.00    -0.200 F 
ATOM     84  C   UNL A   1      40.557  35.069  40.104  1.00  0.00     0.200 A 
ATOM     85  F   UNL A   1      38.757  33.779  40.921  1.00  0.00    -0.200 F 
ATOM     86  F   UNL A   1      40.533  35.829  41.207  1.00  0.00    -0.200 F 
ENDBRANCH  62  76
BRANCH  63  87
ATOM     87  C   UNL A   1      40.410  28.113  29.339  1.00  0.00     0.064 A 
ATOM     88  C   UNL A   1      39.659  26.933  29.231  1.00  0.00     0.173 A 
ATOM     89  C   UNL A   1      41.161  28.511  28.223  1.00  0.00     0.173 A 
ATOM     90  F   UNL A   1      38.939  26.501  30.276  1.00  0.00    -0.203 F 
ATOM     91  C   UNL A   1      39.686  26.166  28.068  1.00  0.00     0.198 A 
ATOM     92  C   UNL A   1      41.159  27.761  27.049  1.00  0.00     0.198 A 
ATOM     93  F   UNL A   1      41.889  29.636  28.269  1.00  0.00    -0.203 F 
ATOM     94  F   UNL A   1      39.005  25.013  28.014  1.00  0.00    -0.200 F 
ATOM     95  C   UNL A   1      40.431  26.583  26.976  1.00  0.00     0.200 A 
ATOM     96  F   UNL A   1      41.865  28.179  25.989  1.00  0.00    -0.200 F 
ATOM     97  F   UNL A   1      40.454  25.846  25.858  1.00  0.00    -0.200 F 
ENDBRANCH  63  87
BRANCH  75  98
ATOM     98  C   UNL A   1      44.571  28.142  34.933  1.00  0.00     0.064 A 
ATOM     99  C   UNL A   1      44.437  26.897  35.563  1.00  0.00     0.173 A 
ATOM    100  C   UNL A   1      45.867  28.583  34.622  1.00  0.00     0.173 A 
ATOM    101  F   UNL A   1      43.221  26.435  35.893  1.00  0.00    -0.203 F 
ATOM    102  C   UNL A   1      45.556  26.139  35.899  1.00  0.00     0.198 A 
ATOM    103  C   UNL A   1      46.981  27.807  34.924  1.00  0.00     0.198 A 
ATOM    104  F   UNL A   1      46.052  29.763  34.010  1.00  0.00    -0.203 F 
ATOM    105  F   UNL A   1      45.407  24.979  36.552  1.00  0.00    -0.200 F 
ATOM    106  C   UNL A   1      46.827  26.590  35.571  1.00  0.00     0.200 A 
ATOM    107  F   UNL A   1      48.206  28.237  34.589  1.00  0.00    -0.200 F 
ATOM    108  F   UNL A   1      47.902  25.857  35.885  1.00  0.00    -0.200 F 
ENDBRANCH  75  98
ENDBRANCH  49  50
ENDBRANCH  41  44
ENDBRANCH  39  40
ENDBRANCH  38  39
ENDBRANCH  37  38
ENDBRANCH   1  37
TORSDOF 18
ENDMDL
MODEL 2
REMARK VINA RESULT:     -12.4      0.954      6.807
REMARK SMILES Cc1nnc(SCC2=C(C(=O)NCCCCCCNC(=O)c3ccc(-c4c5nc(c(-c6c(F)c(F)c(F)c(F)c6F)c6ccc([nH]6)c(-c6c(F)c(F)c(F)c(F)c6F)c6nc(c(-c7c(F)c(F)c(F)c(F)c7F)c7ccc4[nH]7)C=C6)C=C5)cc3)N3C(=O)[C@H](NC(=O)c4ccc(F)cc4F)[C@H]3SC2)s1
REMARK SMILES IDX 15 1 14 2 13 3 12 4 10 5 11 6 9 8 8 9 102 10 85 11 101 12
REMARK SMILES IDX 86 13 100 14 87 15 88 16 7 17 6 18 5 19 1 20 2 21 3 22
REMARK SMILES IDX 103 23 4 24 89 25 90 26 91 28 92 29 93 30 98 31 94 32 97 33
REMARK SMILES IDX 99 34 95 35 96 36 16 37 17 38 18 39 19 40 20 41 21 43 22 44
REMARK SMILES IDX 23 45 84 46 24 47 83 48 25 49 26 50 27 51 77 52 28 53 82 54
REMARK SMILES IDX 76 55 78 56 29 57 81 58 75 59 74 60 30 62 62 63 42 64 61 65
REMARK SMILES IDX 43 66 46 67 60 68 79 69 44 70 45 71 59 73 80 74 47 75 31 76
REMARK SMILES IDX 32 77 40 78 33 79 34 80 38 81 41 82 35 83 36 84 39 85 37 86
REMARK SMILES IDX 63 87 64 88 72 89 65 90 66 91 70 92 73 93 67 94 68 95 71 96
REMARK SMILES IDX 69 97 48 98 49 99 57 100 50 101 51 102 55 103 58 104 52 105
REMARK SMILES IDX 53 106 56 107 54 108
REMARK H PARENT 12 7 89 27 19 42 78 61 46 72
REMARK Flexibility Score: inf
ROOT
ATOM      1  C   UNL A   1      34.769  31.636  28.343  1.00  0.00     0.002 C 
ENDROOT
BRANCH   1   2
ATOM      2  C   UNL A   1      34.515  30.741  27.129  1.00  0.00     0.021 C 
BRANCH   2   3
ATOM      3  C   UNL A   1      34.426  29.270  27.534  1.00  0.00     0.116 C 
BRANCH   3   4
ATOM      4  N   UNL A   1      33.076  28.782  27.508  1.00  0.00    -0.351 N 
ATOM      5  C   UNL A   1      32.359  27.833  26.882  1.00  0.00     0.268 C 
ATOM      6  O   UNL A   1      31.426  27.447  27.601  1.00  0.00    -0.268 OA
ATOM      7  H   UNL A   1      32.509  29.290  28.132  1.00  0.00     0.163 HD
BRANCH   5   8
ATOM      8  C   UNL A   1      32.502  27.226  25.477  1.00  0.00     0.111 C 
ATOM      9  C   UNL A   1      33.228  26.172  24.977  1.00  0.00    -0.020 C 
ATOM     10  C   UNL A   1      33.227  25.730  23.494  1.00  0.00     0.106 C 
ATOM     11  N   UNL A   1      31.626  27.822  24.584  1.00  0.00    -0.290 N 
ATOM     12  S   UNL A   1      32.359  26.784  22.325  1.00  0.00    -0.129 SA
ATOM     13  C   UNL A   1      30.819  28.902  24.434  1.00  0.00     0.253 C 
ATOM     14  C   UNL A   1      31.047  27.052  23.520  1.00  0.00     0.181 C 
ATOM     15  O   UNL A   1      30.725  29.989  24.961  1.00  0.00    -0.272 OA
ATOM     16  C   UNL A   1      30.100  28.220  23.212  1.00  0.00     0.206 C 
BRANCH   9  17
ATOM     17  C   UNL A   1      34.184  25.255  25.693  1.00  0.00     0.111 C 
BRANCH  17  18
ATOM     18  S   UNL A   1      34.922  23.955  24.666  1.00  0.00    -0.089 SA
BRANCH  18  19
ATOM     19  C   UNL A   1      33.991  22.516  24.992  1.00  0.00     0.174 A 
ATOM     20  C   UNL A   1      32.864  18.862  25.363  1.00  0.00     0.081 C 
ATOM     21  C   UNL A   1      33.112  20.325  25.287  1.00  0.00     0.115 A 
ATOM     22  N   UNL A   1      32.197  21.257  25.445  1.00  0.00    -0.143 NA
ATOM     23  S   UNL A   1      34.681  20.943  24.952  1.00  0.00    -0.091 S 
ATOM     24  N   UNL A   1      32.707  22.526  25.253  1.00  0.00    -0.132 NA
ENDBRANCH  18  19
ENDBRANCH  17  18
ENDBRANCH   9  17
BRANCH  16  25
ATOM     25  N   UNL A   1      28.634  27.966  23.371  1.00  0.00    -0.338 N 
ATOM     26  C   UNL A   1      27.558  28.792  23.116  1.00  0.00     0.254 C 
ATOM     27  H   UNL A   1      28.401  27.072  23.711  1.00  0.00     0.164 HD
ATOM     28  O   UNL A   1      26.431  28.495  23.498  1.00  0.00    -0.269 OA
BRANCH  26  29
ATOM     29  C   UNL A   1      27.740  30.068  22.407  1.00  0.00     0.075 A 
ATOM     30  C   UNL A   1      27.866  30.086  21.017  1.00  0.00     0.020 A 
ATOM     31  C   UNL A   1      27.866  31.259  23.126  1.00  0.00     0.138 A 
ATOM     32  C   UNL A   1      28.000  31.312  20.355  1.00  0.00     0.040 A 
ATOM     33  C   UNL A   1      27.936  32.484  22.473  1.00  0.00     0.079 A 
ATOM     34  F   UNL A   1      27.866  31.252  24.467  1.00  0.00    -0.206 F 
ATOM     35  C   UNL A   1      27.994  32.499  21.087  1.00  0.00     0.126 A 
ATOM     36  F   UNL A   1      28.059  33.672  20.446  1.00  0.00    -0.207 F 
ENDBRANCH  26  29
ENDBRANCH  16  25
ENDBRANCH   5   8
ENDBRANCH   3   4
ENDBRANCH   2   3
ENDBRANCH   1   2
BRANCH   1  37
ATOM     37  C   UNL A   1      35.539  32.921  28.009  1.00  0.00     0.002 C 
BRANCH  37  38
ATOM     38  C   UNL A   1      34.678  34.182  27.951  1.00  0.00     0.021 C 
BRANCH  38  39
ATOM     39  C   UNL A   1      33.222  33.948  28.327  1.00  0.00     0.116 C 
BRANCH  39  40
ATOM     40  N   UNL A   1      32.773  34.906  29.325  1.00  0.00    -0.352 N 
ATOM     41  C   UNL A   1      33.114  35.004  30.647  1.00  0.00     0.251 C 
ATOM     42  H   UNL A   1      32.131  35.581  29.005  1.00  0.00     0.163 HD
ATOM     43  O   UNL A   1      32.429  35.664  31.421  1.00  0.00    -0.269 OA
BRANCH  41  44
ATOM     44  C   UNL A   1      34.324  34.313  31.131  1.00  0.00     0.039 A 
ATOM     45  C   UNL A   1      34.201  33.055  31.722  1.00  0.00     0.014 A 
ATOM     46  C   UNL A   1      35.574  34.930  31.024  1.00  0.00     0.014 A 
ATOM     47  C   UNL A   1      35.344  32.400  32.179  1.00  0.00     0.010 A 
ATOM     48  C   UNL A   1      36.719  34.239  31.394  1.00  0.00     0.010 A 
ATOM     49  C   UNL A   1      36.612  32.978  32.000  1.00  0.00    -0.014 A 
BRANCH  49  50
ATOM     50  C   UNL A   1      37.840  32.305  32.485  1.00  0.00     0.031 A 
ATOM     51  C   UNL A   1      38.472  31.221  31.657  1.00  0.00     0.074 A 
ATOM     52  C   UNL A   1      38.352  32.633  33.686  1.00  0.00     0.049 A 
ATOM     53  N   UNL A   1      39.505  30.466  31.928  1.00  0.00    -0.248 NA
ATOM     54  C   UNL A   1      37.838  30.925  30.360  1.00  0.00     0.031 C 
ATOM     55  C   UNL A   1      37.800  33.641  34.594  1.00  0.00     0.029 A 
ATOM     56  N   UNL A   1      39.447  32.148  34.354  1.00  0.00    -0.354 N 
ATOM     57  C   UNL A   1      39.634  29.602  30.848  1.00  0.00     0.074 A 
ATOM     58  C   UNL A   1      38.536  29.878  29.949  1.00  0.00     0.031 C 
ATOM     59  C   UNL A   1      38.576  33.718  35.687  1.00  0.00     0.029 A 
ATOM     60  C   UNL A   1      39.652  32.738  35.576  1.00  0.00     0.049 A 
ATOM     61  H   UNL A   1      40.031  31.444  33.990  1.00  0.00     0.167 HD
ATOM     62  C   UNL A   1      40.601  28.683  30.613  1.00  0.00     0.037 A 
ATOM     63  C   UNL A   1      40.599  32.506  36.503  1.00  0.00     0.037 A 
ATOM     64  C   UNL A   1      41.702  28.432  31.503  1.00  0.00     0.049 A 
ATOM     65  C   UNL A   1      41.649  31.463  36.227  1.00  0.00     0.074 A 
ATOM     66  C   UNL A   1      42.761  27.557  31.340  1.00  0.00     0.029 A 
ATOM     67  N   UNL A   1      41.883  29.056  32.730  1.00  0.00    -0.354 N 
ATOM     68  N   UNL A   1      41.800  30.697  35.174  1.00  0.00    -0.248 NA
ATOM     69  C   UNL A   1      42.666  31.258  37.267  1.00  0.00     0.031 C 
ATOM     70  C   UNL A   1      43.551  27.609  32.493  1.00  0.00     0.029 A 
ATOM     71  C   UNL A   1      43.024  28.568  33.345  1.00  0.00     0.049 A 
ATOM     72  H   UNL A   1      41.289  29.745  33.107  1.00  0.00     0.167 HD
ATOM     73  C   UNL A   1      42.947  29.949  35.406  1.00  0.00     0.074 A 
ATOM     74  C   UNL A   1      43.460  30.364  36.696  1.00  0.00     0.031 C 
ATOM     75  C   UNL A   1      43.527  29.005  34.622  1.00  0.00     0.037 A 
BRANCH  62  76
ATOM     76  C   UNL A   1      40.509  27.887  29.343  1.00  0.00     0.064 A 
ATOM     77  C   UNL A   1      41.251  28.228  28.200  1.00  0.00     0.173 A 
ATOM     78  C   UNL A   1      39.693  26.747  29.275  1.00  0.00     0.173 A 
ATOM     79  F   UNL A   1      42.038  29.315  28.206  1.00  0.00    -0.203 F 
ATOM     80  C   UNL A   1      41.153  27.480  27.029  1.00  0.00     0.198 A 
ATOM     81  C   UNL A   1      39.626  25.981  28.114  1.00  0.00     0.198 A 
ATOM     82  F   UNL A   1      38.965  26.371  30.336  1.00  0.00    -0.203 F 
ATOM     83  F   UNL A   1      41.827  27.861  25.935  1.00  0.00    -0.200 F 
ATOM     84  C   UNL A   1      40.348  26.352  26.990  1.00  0.00     0.200 A 
ATOM     85  F   UNL A   1      38.859  24.882  28.082  1.00  0.00    -0.200 F 
ATOM     86  F   UNL A   1      40.262  25.629  25.866  1.00  0.00    -0.200 F 
ENDBRANCH  62  76
BRANCH  63  87
ATOM     87  C   UNL A   1      40.615  33.289  37.768  1.00  0.00     0.064 A 
ATOM     88  C   UNL A   1      39.682  33.037  38.784  1.00  0.00     0.173 A 
ATOM     89  C   UNL A   1      41.547  34.316  37.980  1.00  0.00     0.173 A 
ATOM     90  F   UNL A   1      38.759  32.078  38.621  1.00  0.00    -0.203 F 
ATOM     91  C   UNL A   1      39.661  33.801  39.949  1.00  0.00     0.198 A 
ATOM     92  C   UNL A   1      41.547  35.056  39.161  1.00  0.00     0.198 A 
ATOM     93  F   UNL A   1      42.467  34.593  37.045  1.00  0.00    -0.203 F 
ATOM     94  F   UNL A   1      38.722  33.575  40.877  1.00  0.00    -0.200 F 
ATOM     95  C   UNL A   1      40.597  34.806  40.139  1.00  0.00     0.200 A 
ATOM     96  F   UNL A   1      42.466  36.013  39.349  1.00  0.00    -0.200 F 
ATOM     97  F   UNL A   1      40.577  35.539  41.261  1.00  0.00    -0.200 F 
ENDBRANCH  63  87
BRANCH  75  98
ATOM     98  C   UNL A   1      44.810  28.396  35.111  1.00  0.00     0.064 A 
ATOM     99  C   UNL A   1      44.833  27.204  35.849  1.00  0.00     0.173 A 
ATOM    100  C   UNL A   1      46.039  28.996  34.796  1.00  0.00     0.173 A 
ATOM    101  F   UNL A   1      43.685  26.597  36.188  1.00  0.00    -0.203 F 
ATOM    102  C   UNL A   1      46.036  26.654  36.284  1.00  0.00     0.198 A 
ATOM    103  C   UNL A   1      47.242  28.423  35.198  1.00  0.00     0.198 A 
ATOM    104  F   UNL A   1      46.076  30.132  34.083  1.00  0.00    -0.203 F 
ATOM    105  F   UNL A   1      46.031  25.545  37.037  1.00  0.00    -0.200 F 
ATOM    106  C   UNL A   1      47.239  27.258  35.950  1.00  0.00     0.200 A 
ATOM    107  F   UNL A   1      48.404  28.999  34.858  1.00  0.00    -0.200 F 
ATOM    108  F   UNL A   1      48.396  26.722  36.360  1.00  0.00    -0.200 F 
ENDBRANCH  75  98
ENDBRANCH  49  50
ENDBRANCH  41  44
ENDBRANCH  39  40
ENDBRANCH  38  39
ENDBRANCH  37  38
ENDBRANCH   1  37
TORSDOF 18
ENDMDL
MODEL 3
REMARK VINA RESULT:     -12.3      0.857      2.095
REMARK SMILES Cc1nnc(SCC2=C(C(=O)NCCCCCCNC(=O)c3ccc(-c4c5nc(c(-c6c(F)c(F)c(F)c(F)c6F)c6ccc([nH]6)c(-c6c(F)c(F)c(F)c(F)c6F)c6nc(c(-c7c(F)c(F)c(F)c(F)c7F)c7ccc4[nH]7)C=C6)C=C5)cc3)N3C(=O)[C@H](NC(=O)c4ccc(F)cc4F)[C@H]3SC2)s1
REMARK SMILES IDX 15 1 14 2 13 3 12 4 10 5 11 6 9 8 8 9 102 10 85 11 101 12
REMARK SMILES IDX 86 13 100 14 87 15 88 16 7 17 6 18 5 19 1 20 2 21 3 22
REMARK SMILES IDX 103 23 4 24 89 25 90 26 91 28 92 29 93 30 98 31 94 32 97 33
REMARK SMILES IDX 99 34 95 35 96 36 16 37 17 38 18 39 19 40 20 41 21 43 22 44
REMARK SMILES IDX 23 45 84 46 24 47 83 48 25 49 26 50 27 51 77 52 28 53 82 54
REMARK SMILES IDX 76 55 78 56 29 57 81 58 75 59 74 60 30 62 62 63 42 64 61 65
REMARK SMILES IDX 43 66 46 67 60 68 79 69 44 70 45 71 59 73 80 74 47 75 31 76
REMARK SMILES IDX 32 77 40 78 33 79 34 80 38 81 41 82 35 83 36 84 39 85 37 86
REMARK SMILES IDX 63 87 64 88 72 89 65 90 66 91 70 92 73 93 67 94 68 95 71 96
REMARK SMILES IDX 69 97 48 98 49 99 57 100 50 101 51 102 55 103 58 104 52 105
REMARK SMILES IDX 53 106 56 107 54 108
REMARK H PARENT 12 7 89 27 19 42 78 61 46 72
REMARK Flexibility Score: inf
ROOT
ATOM      1  C   UNL A   1      34.792  31.772  28.394  1.00  0.00     0.002 C 
ENDROOT
BRANCH   1   2
ATOM      2  C   UNL A   1      34.389  30.908  27.198  1.00  0.00     0.021 C 
BRANCH   2   3
ATOM      3  C   UNL A   1      34.349  29.428  27.571  1.00  0.00     0.116 C 
BRANCH   3   4
ATOM      4  N   UNL A   1      33.016  28.895  27.537  1.00  0.00    -0.351 N 
ATOM      5  C   UNL A   1      32.335  27.922  26.908  1.00  0.00     0.268 C 
ATOM      6  O   UNL A   1      31.410  27.507  27.622  1.00  0.00    -0.268 OA
ATOM      7  H   UNL A   1      32.428  29.385  28.156  1.00  0.00     0.163 HD
BRANCH   5   8
ATOM      8  C   UNL A   1      32.507  27.318  25.505  1.00  0.00     0.111 C 
ATOM      9  C   UNL A   1      33.258  26.276  25.015  1.00  0.00    -0.020 C 
ATOM     10  C   UNL A   1      33.285  25.835  23.533  1.00  0.00     0.106 C 
ATOM     11  N   UNL A   1      31.632  27.897  24.601  1.00  0.00    -0.290 N 
ATOM     12  S   UNL A   1      32.413  26.872  22.352  1.00  0.00    -0.129 SA
ATOM     13  C   UNL A   1      30.808  28.963  24.440  1.00  0.00     0.253 C 
ATOM     14  C   UNL A   1      31.081  27.117  23.529  1.00  0.00     0.181 C 
ATOM     15  O   UNL A   1      30.688  30.048  24.965  1.00  0.00    -0.272 OA
ATOM     16  C   UNL A   1      30.117  28.268  23.208  1.00  0.00     0.206 C 
BRANCH   9  17
ATOM     17  C   UNL A   1      34.221  25.378  25.745  1.00  0.00     0.111 C 
BRANCH  17  18
ATOM     18  S   UNL A   1      35.190  24.267  24.688  1.00  0.00    -0.089 SA
BRANCH  18  19
ATOM     19  C   UNL A   1      34.521  22.675  24.942  1.00  0.00     0.174 A 
ATOM     20  C   UNL A   1      32.447  19.458  24.631  1.00  0.00     0.081 C 
ATOM     21  C   UNL A   1      33.338  20.613  24.914  1.00  0.00     0.115 A 
ATOM     22  N   UNL A   1      34.091  20.743  25.985  1.00  0.00    -0.143 NA
ATOM     23  S   UNL A   1      33.446  21.937  23.824  1.00  0.00    -0.091 S 
ATOM     24  N   UNL A   1      34.760  21.951  26.008  1.00  0.00    -0.132 NA
ENDBRANCH  18  19
ENDBRANCH  17  18
ENDBRANCH   9  17
BRANCH  16  25
ATOM     25  N   UNL A   1      28.654  27.987  23.349  1.00  0.00    -0.338 N 
ATOM     26  C   UNL A   1      27.567  28.796  23.085  1.00  0.00     0.254 C 
ATOM     27  H   UNL A   1      28.433  27.087  23.682  1.00  0.00     0.164 HD
ATOM     28  O   UNL A   1      26.441  28.477  23.452  1.00  0.00    -0.269 OA
BRANCH  26  29
ATOM     29  C   UNL A   1      27.736  30.079  22.385  1.00  0.00     0.075 A 
ATOM     30  C   UNL A   1      27.890  30.105  20.997  1.00  0.00     0.020 A 
ATOM     31  C   UNL A   1      27.821  31.269  23.110  1.00  0.00     0.138 A 
ATOM     32  C   UNL A   1      28.009  31.336  20.343  1.00  0.00     0.040 A 
ATOM     33  C   UNL A   1      27.876  32.498  22.462  1.00  0.00     0.079 A 
ATOM     34  F   UNL A   1      27.793  31.257  24.450  1.00  0.00    -0.206 F 
ATOM     35  C   UNL A   1      27.962  32.520  21.078  1.00  0.00     0.126 A 
ATOM     36  F   UNL A   1      28.015  33.696  20.443  1.00  0.00    -0.207 F 
ENDBRANCH  26  29
ENDBRANCH  16  25
ENDBRANCH   5   8
ENDBRANCH   3   4
ENDBRANCH   2   3
ENDBRANCH   1   2
BRANCH   1  37
ATOM     37  C   UNL A   1      35.510  33.070  28.001  1.00  0.00     0.002 C 
BRANCH  37  38
ATOM     38  C   UNL A   1      34.616  34.310  27.979  1.00  0.00     0.021 C 
BRANCH  38  39
ATOM     39  C   UNL A   1      33.216  34.066  28.525  1.00  0.00     0.116 C 
BRANCH  39  40
ATOM     40  N   UNL A   1      32.877  35.031  29.559  1.00  0.00    -0.352 N 
ATOM     41  C   UNL A   1      33.303  35.093  30.859  1.00  0.00     0.251 C 
ATOM     42  H   UNL A   1      32.251  35.740  29.287  1.00  0.00     0.163 HD
ATOM     43  O   UNL A   1      32.700  35.774  31.681  1.00  0.00    -0.269 OA
BRANCH  41  44
ATOM     44  C   UNL A   1      34.504  34.337  31.259  1.00  0.00     0.039 A 
ATOM     45  C   UNL A   1      35.764  34.906  31.069  1.00  0.00     0.014 A 
ATOM     46  C   UNL A   1      34.378  33.052  31.795  1.00  0.00     0.014 A 
ATOM     47  C   UNL A   1      36.901  34.193  31.448  1.00  0.00     0.010 A 
ATOM     48  C   UNL A   1      35.502  32.383  32.256  1.00  0.00     0.010 A 
ATOM     49  C   UNL A   1      36.777  32.935  32.062  1.00  0.00    -0.014 A 
BRANCH  49  50
ATOM     50  C   UNL A   1      37.970  32.155  32.466  1.00  0.00     0.031 A 
ATOM     51  C   UNL A   1      38.666  32.474  33.760  1.00  0.00     0.074 A 
ATOM     52  C   UNL A   1      38.453  31.201  31.647  1.00  0.00     0.049 A 
ATOM     53  N   UNL A   1      39.758  31.959  34.263  1.00  0.00    -0.248 NA
ATOM     54  C   UNL A   1      38.071  33.538  34.586  1.00  0.00     0.031 C 
ATOM     55  C   UNL A   1      37.884  30.833  30.349  1.00  0.00     0.029 A 
ATOM     56  N   UNL A   1      39.536  30.372  31.783  1.00  0.00    -0.354 N 
ATOM     57  C   UNL A   1      39.984  32.642  35.451  1.00  0.00     0.074 A 
ATOM     58  C   UNL A   1      38.959  33.655  35.561  1.00  0.00     0.031 C 
ATOM     59  C   UNL A   1      38.607  29.832  29.822  1.00  0.00     0.029 A 
ATOM     60  C   UNL A   1      39.713  29.519  30.722  1.00  0.00     0.049 A 
ATOM     61  H   UNL A   1      40.131  30.386  32.568  1.00  0.00     0.167 HD
ATOM     62  C   UNL A   1      40.944  32.423  36.381  1.00  0.00     0.037 A 
ATOM     63  C   UNL A   1      40.665  28.595  30.500  1.00  0.00     0.037 A 
ATOM     64  C   UNL A   1      41.947  31.398  36.273  1.00  0.00     0.049 A 
ATOM     65  C   UNL A   1      41.734  28.387  31.541  1.00  0.00     0.074 A 
ATOM     66  C   UNL A   1      42.936  31.060  37.178  1.00  0.00     0.029 A 
ATOM     67  N   UNL A   1      42.089  30.545  35.186  1.00  0.00    -0.354 N 
ATOM     68  N   UNL A   1      41.902  28.995  32.690  1.00  0.00    -0.248 NA
ATOM     69  C   UNL A   1      42.742  27.357  31.255  1.00  0.00     0.031 C 
ATOM     70  C   UNL A   1      43.714  30.042  36.615  1.00  0.00     0.029 A 
ATOM     71  C   UNL A   1      43.166  29.698  35.388  1.00  0.00     0.049 A 
ATOM     72  H   UNL A   1      41.511  30.543  34.390  1.00  0.00     0.167 HD
ATOM     73  C   UNL A   1      43.007  28.396  33.281  1.00  0.00     0.074 A 
ATOM     74  C   UNL A   1      43.462  27.368  32.367  1.00  0.00     0.031 C 
ATOM     75  C   UNL A   1      43.594  28.670  34.474  1.00  0.00     0.037 A 
BRANCH  62  76
ATOM     76  C   UNL A   1      40.950  33.307  37.595  1.00  0.00     0.064 A 
ATOM     77  C   UNL A   1      40.049  33.116  38.655  1.00  0.00     0.173 A 
ATOM     78  C   UNL A   1      41.891  34.341  37.717  1.00  0.00     0.173 A 
ATOM     79  F   UNL A   1      39.121  32.149  38.585  1.00  0.00    -0.203 F 
ATOM     80  C   UNL A   1      40.067  33.946  39.773  1.00  0.00     0.198 A 
ATOM     81  C   UNL A   1      41.929  35.146  38.853  1.00  0.00     0.198 A 
ATOM     82  F   UNL A   1      42.779  34.569  36.739  1.00  0.00    -0.203 F 
ATOM     83  F   UNL A   1      39.158  33.778  40.743  1.00  0.00    -0.200 F 
ATOM     84  C   UNL A   1      41.012  34.954  39.875  1.00  0.00     0.200 A 
ATOM     85  F   UNL A   1      42.854  36.111  38.958  1.00  0.00    -0.200 F 
ATOM     86  F   UNL A   1      41.034  35.746  40.956  1.00  0.00    -0.200 F 
ENDBRANCH  62  76
BRANCH  63  87
ATOM     87  C   UNL A   1      40.641  27.780  29.257  1.00  0.00     0.064 A 
ATOM     88  C   UNL A   1      41.486  28.083  28.179  1.00  0.00     0.173 A 
ATOM     89  C   UNL A   1      39.764  26.695  29.111  1.00  0.00     0.173 A 
ATOM     90  F   UNL A   1      42.330  29.121  28.263  1.00  0.00    -0.203 F 
ATOM     91  C   UNL A   1      41.432  27.353  26.993  1.00  0.00     0.198 A 
ATOM     92  C   UNL A   1      39.735  25.944  27.937  1.00  0.00     0.198 A 
ATOM     93  F   UNL A   1      38.941  26.355  30.113  1.00  0.00    -0.203 F 
ATOM     94  F   UNL A   1      42.210  27.702  25.960  1.00  0.00    -0.200 F 
ATOM     95  C   UNL A   1      40.561  26.281  26.875  1.00  0.00     0.200 A 
ATOM     96  F   UNL A   1      38.906  24.897  27.834  1.00  0.00    -0.200 F 
ATOM     97  F   UNL A   1      40.510  25.579  25.735  1.00  0.00    -0.200 F 
ENDBRANCH  63  87
BRANCH  75  98
ATOM     98  C   UNL A   1      44.756  27.812  34.884  1.00  0.00     0.064 A 
ATOM     99  C   UNL A   1      46.081  28.167  34.595  1.00  0.00     0.173 A 
ATOM    100  C   UNL A   1      44.538  26.635  35.618  1.00  0.00     0.173 A 
ATOM    101  F   UNL A   1      46.343  29.276  33.885  1.00  0.00    -0.203 F 
ATOM    102  C   UNL A   1      47.143  27.359  34.994  1.00  0.00     0.198 A 
ATOM    103  C   UNL A   1      45.602  25.850  36.049  1.00  0.00     0.198 A 
ATOM    104  F   UNL A   1      43.290  26.253  35.931  1.00  0.00    -0.203 F 
ATOM    105  F   UNL A   1      48.397  27.689  34.656  1.00  0.00    -0.200 F 
ATOM    106  C   UNL A   1      46.904  26.207  35.728  1.00  0.00     0.200 A 
ATOM    107  F   UNL A   1      45.369  24.747  36.774  1.00  0.00    -0.200 F 
ATOM    108  F   UNL A   1      47.926  25.436  36.121  1.00  0.00    -0.200 F 
ENDBRANCH  75  98
ENDBRANCH  49  50
ENDBRANCH  41  44
ENDBRANCH  39  40
ENDBRANCH  38  39
ENDBRANCH  37  38
ENDBRANCH   1  37
TORSDOF 18
ENDMDL
