MODEL 1
REMARK VINA RESULT:     -11.4      0.000      0.000
REMARK SMILES Cc1cc(CS(=O)(=O)N[C@@H]2C=C[C@H](C(=O)NCCCCCCNC(=O)c3ccc(-c4c5nc(c(-c6c(F)c(F)c(F)c(F)c6F)c6ccc([nH]6)c(-c6c(F)c(F)c(F)c(F)c6F)c6nc(c(-c7c(F)c(F)c(F)c(F)c7F)c7ccc4[nH]7)C=C6)C=C5)cc3)C2)no1
REMARK SMILES IDX 18 1 17 2 16 3 14 4 15 5 13 7 10 8 11 9 89 10 12 11 9 12
REMARK SMILES IDX 6 14 7 15 8 16 5 17 4 18 1 19 2 20 3 21 91 22 90 23 19 24
REMARK SMILES IDX 20 25 21 26 22 27 23 28 24 29 25 31 26 32 27 33 88 34 28 35
REMARK SMILES IDX 87 36 29 37 30 38 31 39 81 40 32 41 86 42 80 43 82 44 33 45
REMARK SMILES IDX 85 46 79 47 78 48 34 50 66 51 46 52 65 53 47 54 50 55 64 56
REMARK SMILES IDX 83 57 48 58 49 59 63 61 84 62 51 63 35 64 36 65 44 66 37 67
REMARK SMILES IDX 38 68 42 69 45 70 39 71 40 72 43 73 41 74 67 75 68 76 76 77
REMARK SMILES IDX 69 78 70 79 74 80 77 81 71 82 72 83 75 84 73 85 52 86 53 87
REMARK SMILES IDX 61 88 54 89 55 90 59 91 62 92 56 93 57 94 60 95 58 96
REMARK H PARENT 16 6 9 13 23 30 82 49 50 60
REMARK Flexibility Score: inf
ROOT
ATOM      1  C   UNL A   1      34.525  32.135  29.104  1.00  0.00     0.021 C 
ENDROOT
BRANCH   1   2
ATOM      2  C   UNL A   1      34.674  31.466  27.736  1.00  0.00     0.116 C 
BRANCH   2   3
ATOM      3  N   UNL A   1      33.377  31.273  27.111  1.00  0.00    -0.356 N 
ATOM      4  C   UNL A   1      32.638  30.185  26.785  1.00  0.00     0.226 C 
ATOM      5  O   UNL A   1      31.617  30.405  26.121  1.00  0.00    -0.274 OA
ATOM      6  H   UNL A   1      32.938  32.121  26.873  1.00  0.00     0.163 HD
BRANCH   4   7
ATOM      7  C   UNL A   1      32.927  28.748  27.239  1.00  0.00     0.103 C 
ATOM      8  C   UNL A   1      33.372  26.940  25.603  1.00  0.00     0.093 C 
ATOM      9  C   UNL A   1      32.027  26.844  26.239  1.00  0.00    -0.011 C 
ATOM     10  C   UNL A   1      34.009  28.130  26.324  1.00  0.00     0.042 C 
ATOM     11  C   UNL A   1      31.825  27.754  27.191  1.00  0.00    -0.016 C 
BRANCH   8  12
ATOM     12  N   UNL A   1      33.165  27.160  24.170  1.00  0.00    -0.208 NA
ATOM     13  H   UNL A   1      32.268  27.633  24.063  1.00  0.00     0.141 HD
BRANCH  12  14
ATOM     14  S   UNL A   1      33.145  25.809  23.158  1.00  0.00     0.218 S 
ATOM     15  O   UNL A   1      33.668  24.690  23.905  1.00  0.00    -0.212 OA
ATOM     16  O   UNL A   1      33.833  26.258  21.961  1.00  0.00    -0.212 OA
BRANCH  14  17
ATOM     17  C   UNL A   1      31.408  25.554  22.703  1.00  0.00     0.213 C 
BRANCH  17  18
ATOM     18  C   UNL A   1      30.569  26.774  22.749  1.00  0.00     0.100 A 
ATOM     19  C   UNL A   1      27.570  28.831  23.142  1.00  0.00     0.091 C 
ATOM     20  C   UNL A   1      28.874  28.155  23.009  1.00  0.00     0.133 A 
ATOM     21  C   UNL A   1      29.428  27.021  23.554  1.00  0.00     0.073 A 
ATOM     22  O   UNL A   1      29.727  28.663  22.081  1.00  0.00    -0.361 OA
ATOM     23  N   UNL A   1      30.815  27.820  21.949  1.00  0.00    -0.084 NA
ENDBRANCH  17  18
ENDBRANCH  14  17
ENDBRANCH  12  14
ENDBRANCH   8  12
ENDBRANCH   4   7
ENDBRANCH   2   3
ENDBRANCH   1   2
BRANCH   1  24
ATOM     24  C   UNL A   1      35.129  33.542  29.160  1.00  0.00     0.002 C 
BRANCH  24  25
ATOM     25  C   UNL A   1      34.412  34.584  28.291  1.00  0.00     0.002 C 
BRANCH  25  26
ATOM     26  C   UNL A   1      33.129  35.156  28.898  1.00  0.00     0.021 C 
BRANCH  26  27
ATOM     27  C   UNL A   1      33.341  36.407  29.743  1.00  0.00     0.116 C 
BRANCH  27  28
ATOM     28  N   UNL A   1      32.490  36.413  30.922  1.00  0.00    -0.352 N 
ATOM     29  C   UNL A   1      32.595  35.678  32.075  1.00  0.00     0.251 C 
ATOM     30  H   UNL A   1      31.728  37.035  30.887  1.00  0.00     0.163 HD
ATOM     31  O   UNL A   1      31.667  35.643  32.875  1.00  0.00    -0.269 OA
BRANCH  29  32
ATOM     32  C   UNL A   1      33.831  34.914  32.346  1.00  0.00     0.039 A 
ATOM     33  C   UNL A   1      35.062  35.567  32.259  1.00  0.00     0.014 A 
ATOM     34  C   UNL A   1      33.773  33.555  32.670  1.00  0.00     0.014 A 
ATOM     35  C   UNL A   1      36.235  34.868  32.551  1.00  0.00     0.010 A 
ATOM     36  C   UNL A   1      34.934  32.882  33.034  1.00  0.00     0.010 A 
ATOM     37  C   UNL A   1      36.178  33.530  32.972  1.00  0.00    -0.014 A 
BRANCH  37  38
ATOM     38  C   UNL A   1      37.409  32.791  33.346  1.00  0.00     0.031 A 
ATOM     39  C   UNL A   1      38.113  33.100  34.638  1.00  0.00     0.074 A 
ATOM     40  C   UNL A   1      37.926  31.888  32.493  1.00  0.00     0.049 A 
ATOM     41  N   UNL A   1      39.233  32.612  35.108  1.00  0.00    -0.248 NA
ATOM     42  C   UNL A   1      37.492  34.116  35.501  1.00  0.00     0.031 C 
ATOM     43  C   UNL A   1      37.361  31.538  31.189  1.00  0.00     0.029 A 
ATOM     44  N   UNL A   1      39.051  31.107  32.587  1.00  0.00    -0.354 N 
ATOM     45  C   UNL A   1      39.454  33.267  36.312  1.00  0.00     0.074 A 
ATOM     46  C   UNL A   1      38.388  34.231  36.470  1.00  0.00     0.031 C 
ATOM     47  C   UNL A   1      38.131  30.602  30.612  1.00  0.00     0.029 A 
ATOM     48  C   UNL A   1      39.264  30.314  31.486  1.00  0.00     0.049 A 
ATOM     49  H   UNL A   1      39.649  31.115  33.370  1.00  0.00     0.167 HD
ATOM     50  C   UNL A   1      40.443  33.064  37.216  1.00  0.00     0.037 A 
ATOM     51  C   UNL A   1      40.268  29.461  31.208  1.00  0.00     0.037 A 
ATOM     52  C   UNL A   1      41.493  32.091  37.059  1.00  0.00     0.049 A 
ATOM     53  C   UNL A   1      41.361  29.261  32.223  1.00  0.00     0.074 A 
ATOM     54  C   UNL A   1      42.507  31.765  37.940  1.00  0.00     0.029 A 
ATOM     55  N   UNL A   1      41.666  31.291  35.938  1.00  0.00    -0.354 N 
ATOM     56  N   UNL A   1      41.520  29.831  33.392  1.00  0.00    -0.248 NA
ATOM     57  C   UNL A   1      42.412  28.291  31.881  1.00  0.00     0.031 C 
ATOM     58  C   UNL A   1      43.328  30.812  37.330  1.00  0.00     0.029 A 
ATOM     59  C   UNL A   1      42.789  30.494  36.094  1.00  0.00     0.049 A 
ATOM     60  H   UNL A   1      41.078  31.289  35.148  1.00  0.00     0.167 HD
ATOM     61  C   UNL A   1      42.668  29.271  33.937  1.00  0.00     0.074 A 
ATOM     62  C   UNL A   1      43.157  28.305  32.977  1.00  0.00     0.031 C 
ATOM     63  C   UNL A   1      43.263  29.535  35.127  1.00  0.00     0.037 A 
BRANCH  50  64
ATOM     64  C   UNL A   1      40.437  33.916  38.453  1.00  0.00     0.064 A 
ATOM     65  C   UNL A   1      39.681  33.570  39.586  1.00  0.00     0.173 A 
ATOM     66  C   UNL A   1      41.213  35.083  38.519  1.00  0.00     0.173 A 
ATOM     67  F   UNL A   1      38.913  32.471  39.576  1.00  0.00    -0.203 F 
ATOM     68  C   UNL A   1      39.673  34.381  40.719  1.00  0.00     0.198 A 
ATOM     69  C   UNL A   1      41.231  35.872  39.666  1.00  0.00     0.198 A 
ATOM     70  F   UNL A   1      41.959  35.459  37.470  1.00  0.00    -0.203 F 
ATOM     71  F   UNL A   1      38.896  34.061  41.763  1.00  0.00    -0.200 F 
ATOM     72  C   UNL A   1      40.453  35.526  40.760  1.00  0.00     0.200 A 
ATOM     73  F   UNL A   1      41.996  36.971  39.711  1.00  0.00    -0.200 F 
ATOM     74  F   UNL A   1      40.447  36.303  41.854  1.00  0.00    -0.200 F 
ENDBRANCH  50  64
BRANCH  51  75
ATOM     75  C   UNL A   1      40.274  28.723  29.917  1.00  0.00     0.064 A 
ATOM     76  C   UNL A   1      40.942  29.230  28.795  1.00  0.00     0.173 A 
ATOM     77  C   UNL A   1      39.613  27.492  29.781  1.00  0.00     0.173 A 
ATOM     78  F   UNL A   1      41.573  30.412  28.870  1.00  0.00    -0.203 F 
ATOM     79  C   UNL A   1      40.933  28.547  27.581  1.00  0.00     0.198 A 
ATOM     80  C   UNL A   1      39.631  26.794  28.576  1.00  0.00     0.198 A 
ATOM     81  F   UNL A   1      38.964  26.958  30.827  1.00  0.00    -0.203 F 
ATOM     82  F   UNL A   1      41.540  29.077  26.511  1.00  0.00    -0.200 F 
ATOM     83  C   UNL A   1      40.283  27.326  27.474  1.00  0.00     0.200 A 
ATOM     84  F   UNL A   1      39.018  25.606  28.483  1.00  0.00    -0.200 F 
ATOM     85  F   UNL A   1      40.280  26.666  26.308  1.00  0.00    -0.200 F 
ENDBRANCH  51  75
BRANCH  63  86
ATOM     86  C   UNL A   1      44.492  28.743  35.473  1.00  0.00     0.064 A 
ATOM     87  C   UNL A   1      44.414  27.511  36.139  1.00  0.00     0.173 A 
ATOM     88  C   UNL A   1      45.763  29.206  35.098  1.00  0.00     0.173 A 
ATOM     89  F   UNL A   1      43.225  27.030  36.533  1.00  0.00    -0.203 F 
ATOM     90  C   UNL A   1      45.563  26.786  36.440  1.00  0.00     0.198 A 
ATOM     91  C   UNL A   1      46.907  28.462  35.370  1.00  0.00     0.198 A 
ATOM     92  F   UNL A   1      45.894  30.375  34.453  1.00  0.00    -0.203 F 
ATOM     93  F   UNL A   1      45.468  25.636  37.124  1.00  0.00    -0.200 F 
ATOM     94  C   UNL A   1      46.807  27.257  36.048  1.00  0.00     0.200 A 
ATOM     95  F   UNL A   1      48.107  28.911  34.976  1.00  0.00    -0.200 F 
ATOM     96  F   UNL A   1      47.912  26.553  36.332  1.00  0.00    -0.200 F 
ENDBRANCH  63  86
ENDBRANCH  37  38
ENDBRANCH  29  32
ENDBRANCH  27  28
ENDBRANCH  26  27
ENDBRANCH  25  26
ENDBRANCH  24  25
ENDBRANCH   1  24
TORSDOF 17
ENDMDL
MODEL 2
REMARK VINA RESULT:     -11.0      6.659     12.274
REMARK SMILES Cc1cc(CS(=O)(=O)N[C@@H]2C=C[C@H](C(=O)NCCCCCCNC(=O)c3ccc(-c4c5nc(c(-c6c(F)c(F)c(F)c(F)c6F)c6ccc([nH]6)c(-c6c(F)c(F)c(F)c(F)c6F)c6nc(c(-c7c(F)c(F)c(F)c(F)c7F)c7ccc4[nH]7)C=C6)C=C5)cc3)C2)no1
REMARK SMILES IDX 18 1 17 2 16 3 14 4 15 5 13 7 10 8 11 9 89 10 12 11 9 12
REMARK SMILES IDX 6 14 7 15 8 16 5 17 4 18 1 19 2 20 3 21 91 22 90 23 19 24
REMARK SMILES IDX 20 25 21 26 22 27 23 28 24 29 25 31 26 32 27 33 88 34 28 35
REMARK SMILES IDX 87 36 29 37 30 38 31 39 81 40 32 41 86 42 80 43 82 44 33 45
REMARK SMILES IDX 85 46 79 47 78 48 34 50 66 51 46 52 65 53 47 54 50 55 64 56
REMARK SMILES IDX 83 57 48 58 49 59 63 61 84 62 51 63 35 64 36 65 44 66 37 67
REMARK SMILES IDX 38 68 42 69 45 70 39 71 40 72 43 73 41 74 67 75 68 76 76 77
REMARK SMILES IDX 69 78 70 79 74 80 77 81 71 82 72 83 75 84 73 85 52 86 53 87
REMARK SMILES IDX 61 88 54 89 55 90 59 91 62 92 56 93 57 94 60 95 58 96
REMARK H PARENT 16 6 9 13 23 30 82 49 50 60
REMARK Flexibility Score: inf
ROOT
ATOM      1  C   UNL A   1      39.389  22.583  26.398  1.00  0.00     0.021 C 
ENDROOT
BRANCH   1   2
ATOM      2  C   UNL A   1      38.231  21.790  25.788  1.00  0.00     0.116 C 
BRANCH   2   3
ATOM      3  N   UNL A   1      37.819  22.369  24.521  1.00  0.00    -0.356 N 
ATOM      4  C   UNL A   1      36.625  22.731  23.992  1.00  0.00     0.226 C 
ATOM      5  O   UNL A   1      36.643  23.070  22.801  1.00  0.00    -0.274 OA
ATOM      6  H   UNL A   1      38.575  22.536  23.913  1.00  0.00     0.163 HD
BRANCH   4   7
ATOM      7  C   UNL A   1      35.304  22.826  24.766  1.00  0.00     0.103 C 
ATOM      8  C   UNL A   1      33.550  24.460  24.135  1.00  0.00     0.093 C 
ATOM      9  C   UNL A   1      34.279  24.827  25.383  1.00  0.00    -0.011 C 
ATOM     10  C   UNL A   1      34.149  23.098  23.775  1.00  0.00     0.042 C 
ATOM     11  C   UNL A   1      35.152  23.901  25.778  1.00  0.00    -0.016 C 
BRANCH   8  12
ATOM     12  N   UNL A   1      33.824  25.505  23.145  1.00  0.00    -0.208 NA
ATOM     13  H   UNL A   1      34.087  26.347  23.657  1.00  0.00     0.141 HD
BRANCH  12  14
ATOM     14  S   UNL A   1      32.582  25.931  22.083  1.00  0.00     0.218 S 
ATOM     15  O   UNL A   1      31.472  25.040  22.322  1.00  0.00    -0.212 OA
ATOM     16  O   UNL A   1      33.224  25.946  20.781  1.00  0.00    -0.212 OA
BRANCH  14  17
ATOM     17  C   UNL A   1      32.156  27.649  22.480  1.00  0.00     0.213 C 
BRANCH  17  18
ATOM     18  C   UNL A   1      32.467  28.061  23.869  1.00  0.00     0.100 A 
ATOM     19  C   UNL A   1      31.897  29.324  27.252  1.00  0.00     0.091 C 
ATOM     20  C   UNL A   1      32.281  28.744  25.953  1.00  0.00     0.133 A 
ATOM     21  C   UNL A   1      31.631  27.982  25.012  1.00  0.00     0.073 A 
ATOM     22  O   UNL A   1      33.508  29.084  25.478  1.00  0.00    -0.361 OA
ATOM     23  N   UNL A   1      33.645  28.615  24.184  1.00  0.00    -0.084 NA
ENDBRANCH  17  18
ENDBRANCH  14  17
ENDBRANCH  12  14
ENDBRANCH   8  12
ENDBRANCH   4   7
ENDBRANCH   2   3
ENDBRANCH   1   2
BRANCH   1  24
ATOM     24  C   UNL A   1      40.429  21.699  27.095  1.00  0.00     0.002 C 
BRANCH  24  25
ATOM     25  C   UNL A   1      41.615  21.286  26.215  1.00  0.00     0.002 C 
BRANCH  25  26
ATOM     26  C   UNL A   1      41.669  19.796  25.866  1.00  0.00     0.021 C 
BRANCH  26  27
ATOM     27  C   UNL A   1      42.960  19.103  26.286  1.00  0.00     0.116 C 
BRANCH  27  28
ATOM     28  N   UNL A   1      43.783  18.753  25.140  1.00  0.00    -0.352 N 
ATOM     29  C   UNL A   1      44.548  19.561  24.339  1.00  0.00     0.251 C 
ATOM     30  H   UNL A   1      43.793  17.797  24.906  1.00  0.00     0.163 HD
ATOM     31  O   UNL A   1      45.000  19.136  23.281  1.00  0.00    -0.269 OA
BRANCH  29  32
ATOM     32  C   UNL A   1      44.816  20.955  24.748  1.00  0.00     0.039 A 
ATOM     33  C   UNL A   1      44.455  21.994  23.886  1.00  0.00     0.014 A 
ATOM     34  C   UNL A   1      45.435  21.234  25.970  1.00  0.00     0.014 A 
ATOM     35  C   UNL A   1      44.667  23.318  24.276  1.00  0.00     0.010 A 
ATOM     36  C   UNL A   1      45.574  22.554  26.389  1.00  0.00     0.010 A 
ATOM     37  C   UNL A   1      45.197  23.608  25.543  1.00  0.00    -0.014 A 
BRANCH  37  38
ATOM     38  C   UNL A   1      45.370  25.010  25.998  1.00  0.00     0.031 A 
ATOM     39  C   UNL A   1      46.724  25.661  25.946  1.00  0.00     0.074 A 
ATOM     40  C   UNL A   1      44.321  25.673  26.519  1.00  0.00     0.049 A 
ATOM     41  N   UNL A   1      47.089  26.848  26.358  1.00  0.00    -0.248 NA
ATOM     42  C   UNL A   1      47.820  24.858  25.383  1.00  0.00     0.031 C 
ATOM     43  C   UNL A   1      42.970  25.130  26.669  1.00  0.00     0.029 A 
ATOM     44  N   UNL A   1      44.227  26.943  27.031  1.00  0.00    -0.354 N 
ATOM     45  C   UNL A   1      48.453  26.930  26.114  1.00  0.00     0.074 A 
ATOM     46  C   UNL A   1      48.863  25.651  25.577  1.00  0.00     0.031 C 
ATOM     47  C   UNL A   1      42.178  26.065  27.218  1.00  0.00     0.029 A 
ATOM     48  C   UNL A   1      42.974  27.257  27.496  1.00  0.00     0.049 A 
ATOM     49  H   UNL A   1      44.987  27.569  27.061  1.00  0.00     0.167 HD
ATOM     50  C   UNL A   1      49.283  27.985  26.297  1.00  0.00     0.037 A 
ATOM     51  C   UNL A   1      42.520  28.377  28.091  1.00  0.00     0.037 A 
ATOM     52  C   UNL A   1      48.865  29.261  26.818  1.00  0.00     0.049 A 
ATOM     53  C   UNL A   1      43.464  29.532  28.294  1.00  0.00     0.074 A 
ATOM     54  C   UNL A   1      49.612  30.412  26.988  1.00  0.00     0.029 A 
ATOM     55  N   UNL A   1      47.582  29.549  27.261  1.00  0.00    -0.354 N 
ATOM     56  N   UNL A   1      44.736  29.624  27.991  1.00  0.00    -0.248 NA
ATOM     57  C   UNL A   1      42.906  30.741  28.916  1.00  0.00     0.031 C 
ATOM     58  C   UNL A   1      48.799  31.378  27.588  1.00  0.00     0.029 A 
ATOM     59  C   UNL A   1      47.525  30.852  27.732  1.00  0.00     0.049 A 
ATOM     60  H   UNL A   1      46.822  28.922  27.244  1.00  0.00     0.167 HD
ATOM     61  C   UNL A   1      45.124  30.907  28.358  1.00  0.00     0.074 A 
ATOM     62  C   UNL A   1      43.948  31.561  28.891  1.00  0.00     0.031 C 
ATOM     63  C   UNL A   1      46.345  31.489  28.261  1.00  0.00     0.037 A 
BRANCH  50  64
ATOM     64  C   UNL A   1      50.730  27.800  25.936  1.00  0.00     0.064 A 
ATOM     65  C   UNL A   1      51.186  27.933  24.615  1.00  0.00     0.173 A 
ATOM     66  C   UNL A   1      51.680  27.507  26.927  1.00  0.00     0.173 A 
ATOM     67  F   UNL A   1      50.321  28.202  23.626  1.00  0.00    -0.203 F 
ATOM     68  C   UNL A   1      52.528  27.741  24.294  1.00  0.00     0.198 A 
ATOM     69  C   UNL A   1      53.027  27.351  26.609  1.00  0.00     0.198 A 
ATOM     70  F   UNL A   1      51.303  27.374  28.208  1.00  0.00    -0.203 F 
ATOM     71  F   UNL A   1      52.926  27.812  23.017  1.00  0.00    -0.200 F 
ATOM     72  C   UNL A   1      53.447  27.457  25.292  1.00  0.00     0.200 A 
ATOM     73  F   UNL A   1      53.917  27.091  27.576  1.00  0.00    -0.200 F 
ATOM     74  F   UNL A   1      54.739  27.276  24.983  1.00  0.00    -0.200 F 
ENDBRANCH  50  64
BRANCH  51  75
ATOM     75  C   UNL A   1      41.100  28.462  28.522  1.00  0.00     0.064 A 
ATOM     76  C   UNL A   1      40.106  28.929  27.653  1.00  0.00     0.173 A 
ATOM     77  C   UNL A   1      40.708  28.075  29.813  1.00  0.00     0.173 A 
ATOM     78  F   UNL A   1      40.434  29.328  26.414  1.00  0.00    -0.203 F 
ATOM     79  C   UNL A   1      38.777  29.026  28.062  1.00  0.00     0.198 A 
ATOM     80  C   UNL A   1      39.375  28.141  30.211  1.00  0.00     0.198 A 
ATOM     81  F   UNL A   1      41.619  27.614  30.683  1.00  0.00    -0.203 F 
ATOM     82  F   UNL A   1      37.855  29.519  27.226  1.00  0.00    -0.200 F 
ATOM     83  C   UNL A   1      38.412  28.625  29.339  1.00  0.00     0.200 A 
ATOM     84  F   UNL A   1      39.024  27.736  31.439  1.00  0.00    -0.200 F 
ATOM     85  F   UNL A   1      37.133  28.711  29.731  1.00  0.00    -0.200 F 
ENDBRANCH  51  75
BRANCH  63  86
ATOM     86  C   UNL A   1      46.464  32.917  28.711  1.00  0.00     0.064 A 
ATOM     87  C   UNL A   1      46.773  33.250  30.039  1.00  0.00     0.173 A 
ATOM     88  C   UNL A   1      46.307  33.966  27.792  1.00  0.00     0.173 A 
ATOM     89  F   UNL A   1      46.920  32.287  30.960  1.00  0.00    -0.203 F 
ATOM     90  C   UNL A   1      46.892  34.580  30.434  1.00  0.00     0.198 A 
ATOM     91  C   UNL A   1      46.460  35.293  28.183  1.00  0.00     0.198 A 
ATOM     92  F   UNL A   1      46.018  33.703  26.509  1.00  0.00    -0.203 F 
ATOM     93  F   UNL A   1      47.136  34.876  31.718  1.00  0.00    -0.200 F 
ATOM     94  C   UNL A   1      46.744  35.599  29.505  1.00  0.00     0.200 A 
ATOM     95  F   UNL A   1      46.333  36.276  27.280  1.00  0.00    -0.200 F 
ATOM     96  F   UNL A   1      46.868  36.878  29.886  1.00  0.00    -0.200 F 
ENDBRANCH  63  86
ENDBRANCH  37  38
ENDBRANCH  29  32
ENDBRANCH  27  28
ENDBRANCH  26  27
ENDBRANCH  25  26
ENDBRANCH  24  25
ENDBRANCH   1  24
TORSDOF 17
ENDMDL
MODEL 3
REMARK VINA RESULT:     -11.0      7.300     12.740
REMARK SMILES Cc1cc(CS(=O)(=O)N[C@@H]2C=C[C@H](C(=O)NCCCCCCNC(=O)c3ccc(-c4c5nc(c(-c6c(F)c(F)c(F)c(F)c6F)c6ccc([nH]6)c(-c6c(F)c(F)c(F)c(F)c6F)c6nc(c(-c7c(F)c(F)c(F)c(F)c7F)c7ccc4[nH]7)C=C6)C=C5)cc3)C2)no1
REMARK SMILES IDX 18 1 17 2 16 3 14 4 15 5 13 7 10 8 11 9 89 10 12 11 9 12
REMARK SMILES IDX 6 14 7 15 8 16 5 17 4 18 1 19 2 20 3 21 91 22 90 23 19 24
REMARK SMILES IDX 20 25 21 26 22 27 23 28 24 29 25 31 26 32 27 33 88 34 28 35
REMARK SMILES IDX 87 36 29 37 30 38 31 39 81 40 32 41 86 42 80 43 82 44 33 45
REMARK SMILES IDX 85 46 79 47 78 48 34 50 66 51 46 52 65 53 47 54 50 55 64 56
REMARK SMILES IDX 83 57 48 58 49 59 63 61 84 62 51 63 35 64 36 65 44 66 37 67
REMARK SMILES IDX 38 68 42 69 45 70 39 71 40 72 43 73 41 74 67 75 68 76 76 77
REMARK SMILES IDX 69 78 70 79 74 80 77 81 71 82 72 83 75 84 73 85 52 86 53 87
REMARK SMILES IDX 61 88 54 89 55 90 59 91 62 92 56 93 57 94 60 95 58 96
REMARK H PARENT 16 6 9 13 23 30 82 49 50 60
REMARK Flexibility Score: inf
ROOT
ATOM      1  C   UNL A   1      40.415  22.579  26.998  1.00  0.00     0.021 C 
ENDROOT
BRANCH   1   2
ATOM      2  C   UNL A   1      39.257  21.818  26.349  1.00  0.00     0.116 C 
BRANCH   2   3
ATOM      3  N   UNL A   1      38.595  22.638  25.350  1.00  0.00    -0.356 N 
ATOM      4  C   UNL A   1      37.316  23.046  25.158  1.00  0.00     0.226 C 
ATOM      5  O   UNL A   1      37.092  23.638  24.094  1.00  0.00    -0.274 OA
ATOM      6  H   UNL A   1      39.212  22.973  24.660  1.00  0.00     0.163 HD
BRANCH   4   7
ATOM      7  C   UNL A   1      36.177  22.901  26.175  1.00  0.00     0.103 C 
ATOM      8  C   UNL A   1      34.089  21.688  25.615  1.00  0.00     0.093 C 
ATOM      9  C   UNL A   1      33.917  23.169  25.670  1.00  0.00    -0.011 C 
ATOM     10  C   UNL A   1      35.547  21.496  26.041  1.00  0.00     0.042 C 
ATOM     11  C   UNL A   1      35.012  23.815  26.069  1.00  0.00    -0.016 C 
BRANCH   8  12
ATOM     12  N   UNL A   1      33.816  21.267  24.239  1.00  0.00    -0.208 NA
ATOM     13  H   UNL A   1      34.108  22.026  23.625  1.00  0.00     0.141 HD
BRANCH  12  14
ATOM     14  S   UNL A   1      32.223  20.878  23.834  1.00  0.00     0.218 S 
ATOM     15  O   UNL A   1      31.807  21.769  22.777  1.00  0.00    -0.212 OA
ATOM     16  O   UNL A   1      31.524  20.897  25.107  1.00  0.00    -0.212 OA
BRANCH  14  17
ATOM     17  C   UNL A   1      32.259  19.152  23.278  1.00  0.00     0.213 C 
BRANCH  17  18
ATOM     18  C   UNL A   1      32.950  18.218  24.198  1.00  0.00     0.100 A 
ATOM     19  C   UNL A   1      35.359  15.707  25.320  1.00  0.00     0.091 C 
ATOM     20  C   UNL A   1      34.363  16.758  25.043  1.00  0.00     0.133 A 
ATOM     21  C   UNL A   1      34.315  17.835  24.191  1.00  0.00     0.073 A 
ATOM     22  O   UNL A   1      33.164  16.633  25.669  1.00  0.00    -0.361 OA
ATOM     23  N   UNL A   1      32.287  17.581  25.171  1.00  0.00    -0.084 NA
ENDBRANCH  17  18
ENDBRANCH  14  17
ENDBRANCH  12  14
ENDBRANCH   8  12
ENDBRANCH   4   7
ENDBRANCH   2   3
ENDBRANCH   1   2
BRANCH   1  24
ATOM     24  C   UNL A   1      41.781  21.930  26.750  1.00  0.00     0.002 C 
BRANCH  24  25
ATOM     25  C   UNL A   1      42.081  20.710  27.630  1.00  0.00     0.002 C 
BRANCH  25  26
ATOM     26  C   UNL A   1      42.389  19.422  26.862  1.00  0.00     0.021 C 
BRANCH  26  27
ATOM     27  C   UNL A   1      42.431  19.593  25.348  1.00  0.00     0.116 C 
BRANCH  27  28
ATOM     28  N   UNL A   1      43.642  19.028  24.775  1.00  0.00    -0.352 N 
ATOM     29  C   UNL A   1      44.805  19.653  24.408  1.00  0.00     0.251 C 
ATOM     30  H   UNL A   1      43.623  18.054  24.628  1.00  0.00     0.163 HD
ATOM     31  O   UNL A   1      45.641  19.062  23.733  1.00  0.00    -0.269 OA
BRANCH  29  32
ATOM     32  C   UNL A   1      45.045  21.052  24.818  1.00  0.00     0.039 A 
ATOM     33  C   UNL A   1      44.807  22.076  23.899  1.00  0.00     0.014 A 
ATOM     34  C   UNL A   1      45.516  21.349  26.101  1.00  0.00     0.014 A 
ATOM     35  C   UNL A   1      44.992  23.405  24.285  1.00  0.00     0.010 A 
ATOM     36  C   UNL A   1      45.625  22.675  26.507  1.00  0.00     0.010 A 
ATOM     37  C   UNL A   1      45.371  23.716  25.601  1.00  0.00    -0.014 A 
BRANCH  37  38
ATOM     38  C   UNL A   1      45.511  25.125  26.046  1.00  0.00     0.031 A 
ATOM     39  C   UNL A   1      46.852  25.802  26.003  1.00  0.00     0.074 A 
ATOM     40  C   UNL A   1      44.442  25.772  26.548  1.00  0.00     0.049 A 
ATOM     41  N   UNL A   1      47.188  27.000  26.409  1.00  0.00    -0.248 NA
ATOM     42  C   UNL A   1      47.971  25.017  25.460  1.00  0.00     0.031 C 
ATOM     43  C   UNL A   1      43.100  25.203  26.687  1.00  0.00     0.029 A 
ATOM     44  N   UNL A   1      44.317  27.044  27.047  1.00  0.00    -0.354 N 
ATOM     45  C   UNL A   1      48.554  27.107  26.180  1.00  0.00     0.074 A 
ATOM     46  C   UNL A   1      48.995  25.832  25.660  1.00  0.00     0.031 C 
ATOM     47  C   UNL A   1      42.284  26.127  27.219  1.00  0.00     0.029 A 
ATOM     48  C   UNL A   1      43.052  27.337  27.495  1.00  0.00     0.049 A 
ATOM     49  H   UNL A   1      45.064  27.685  27.081  1.00  0.00     0.167 HD
ATOM     50  C   UNL A   1      49.361  28.180  26.364  1.00  0.00     0.037 A 
ATOM     51  C   UNL A   1      42.570  28.453  28.075  1.00  0.00     0.037 A 
ATOM     52  C   UNL A   1      48.911  29.451  26.868  1.00  0.00     0.049 A 
ATOM     53  C   UNL A   1      43.489  29.628  28.279  1.00  0.00     0.074 A 
ATOM     54  C   UNL A   1      49.633  30.618  27.037  1.00  0.00     0.029 A 
ATOM     55  N   UNL A   1      47.617  29.718  27.294  1.00  0.00    -0.354 N 
ATOM     56  N   UNL A   1      44.762  29.743  27.989  1.00  0.00    -0.248 NA
ATOM     57  C   UNL A   1      42.899  30.831  28.883  1.00  0.00     0.031 C 
ATOM     58  C   UNL A   1      48.794  31.573  27.618  1.00  0.00     0.029 A 
ATOM     59  C   UNL A   1      47.529  31.023  27.753  1.00  0.00     0.049 A 
ATOM     60  H   UNL A   1      46.870  29.076  27.273  1.00  0.00     0.167 HD
ATOM     61  C   UNL A   1      45.120  31.036  28.349  1.00  0.00     0.074 A 
ATOM     62  C   UNL A   1      43.925  31.671  28.863  1.00  0.00     0.031 C 
ATOM     63  C   UNL A   1      46.330  31.642  28.262  1.00  0.00     0.037 A 
BRANCH  50  64
ATOM     64  C   UNL A   1      50.815  28.020  26.022  1.00  0.00     0.064 A 
ATOM     65  C   UNL A   1      51.283  28.146  24.704  1.00  0.00     0.173 A 
ATOM     66  C   UNL A   1      51.759  27.760  27.027  1.00  0.00     0.173 A 
ATOM     67  F   UNL A   1      50.424  28.384  23.702  1.00  0.00    -0.203 F 
ATOM     68  C   UNL A   1      52.632  27.977  24.401  1.00  0.00     0.198 A 
ATOM     69  C   UNL A   1      53.112  27.628  26.726  1.00  0.00     0.198 A 
ATOM     70  F   UNL A   1      51.370  27.636  28.305  1.00  0.00    -0.203 F 
ATOM     71  F   UNL A   1      53.043  28.041  23.127  1.00  0.00    -0.200 F 
ATOM     72  C   UNL A   1      53.546  27.726  25.413  1.00  0.00     0.200 A 
ATOM     73  F   UNL A   1      53.996  27.400  27.707  1.00  0.00    -0.200 F 
ATOM     74  F   UNL A   1      54.845  27.568  25.120  1.00  0.00    -0.200 F 
ENDBRANCH  50  64
BRANCH  51  75
ATOM     75  C   UNL A   1      41.143  28.513  28.488  1.00  0.00     0.064 A 
ATOM     76  C   UNL A   1      40.740  28.092  29.762  1.00  0.00     0.173 A 
ATOM     77  C   UNL A   1      40.154  28.997  27.618  1.00  0.00     0.173 A 
ATOM     78  F   UNL A   1      41.646  27.604  30.624  1.00  0.00    -0.203 F 
ATOM     79  C   UNL A   1      39.400  28.131  30.144  1.00  0.00     0.198 A 
ATOM     80  C   UNL A   1      38.820  29.067  28.012  1.00  0.00     0.198 A 
ATOM     81  F   UNL A   1      40.488  29.420  26.390  1.00  0.00    -0.203 F 
ATOM     82  F   UNL A   1      39.036  27.679  31.350  1.00  0.00    -0.200 F 
ATOM     83  C   UNL A   1      38.442  28.625  29.271  1.00  0.00     0.200 A 
ATOM     84  F   UNL A   1      37.901  29.562  27.171  1.00  0.00    -0.200 F 
ATOM     85  F   UNL A   1      37.155  28.670  29.640  1.00  0.00    -0.200 F 
ENDBRANCH  51  75
BRANCH  63  86
ATOM     86  C   UNL A   1      46.416  33.076  28.700  1.00  0.00     0.064 A 
ATOM     87  C   UNL A   1      46.159  34.135  27.817  1.00  0.00     0.173 A 
ATOM     88  C   UNL A   1      46.721  33.393  30.033  1.00  0.00     0.173 A 
ATOM     89  F   UNL A   1      45.877  33.888  26.529  1.00  0.00    -0.203 F 
ATOM     90  C   UNL A   1      46.232  35.458  28.245  1.00  0.00     0.198 A 
ATOM     91  C   UNL A   1      46.759  34.715  30.466  1.00  0.00     0.198 A 
ATOM     92  F   UNL A   1      46.968  32.418  30.921  1.00  0.00    -0.203 F 
ATOM     93  F   UNL A   1      46.034  36.455  27.371  1.00  0.00    -0.200 F 
ATOM     94  C   UNL A   1      46.522  35.747  29.570  1.00  0.00     0.200 A 
ATOM     95  F   UNL A   1      47.024  34.991  31.750  1.00  0.00    -0.200 F 
ATOM     96  F   UNL A   1      46.583  37.020  29.982  1.00  0.00    -0.200 F 
ENDBRANCH  63  86
ENDBRANCH  37  38
ENDBRANCH  29  32
ENDBRANCH  27  28
ENDBRANCH  26  27
ENDBRANCH  25  26
ENDBRANCH  24  25
ENDBRANCH   1  24
TORSDOF 17
ENDMDL
