MODEL 1
REMARK VINA RESULT:     -11.8      0.000      0.000
REMARK SMILES [NH3+][C@]1(C(=O)NCCCCCCNC(=O)c2ccc(-c3c4nc(c(-c5c(F)c(F)c(F)c(F)c5F)c5ccc([nH]5)c(-c5c(F)c(F)c(F)c(F)c5F)c5nc(c(-c6c(F)c(F)c(F)c(F)c6F)c6ccc3[nH]6)C=C5)C=C4)cc2)CC[N@H+](Cc2ccccc2O)C1
REMARK SMILES IDX 8 1 7 2 6 3 5 4 3 5 4 6 2 8 78 9 89 10 79 11 80 12 1 14
REMARK SMILES IDX 81 18 82 19 83 20 87 21 84 22 86 23 85 24 88 25 9 27 10 28
REMARK SMILES IDX 11 29 12 30 13 31 14 33 15 34 16 35 77 36 17 37 76 38 18 39
REMARK SMILES IDX 19 40 20 41 70 42 21 43 75 44 69 45 71 46 22 47 74 48 68 49
REMARK SMILES IDX 67 50 23 52 55 53 35 54 54 55 36 56 39 57 53 58 72 59 37 60
REMARK SMILES IDX 38 61 52 63 73 64 40 65 24 66 25 67 33 68 26 69 27 70 31 71
REMARK SMILES IDX 34 72 28 73 29 74 32 75 30 76 56 77 57 78 65 79 58 80 59 81
REMARK SMILES IDX 63 82 66 83 60 84 61 85 64 86 62 87 41 88 42 89 50 90 43 91
REMARK SMILES IDX 44 92 48 93 51 94 45 95 46 96 49 97 47 98
REMARK H PARENT 5 7 80 13 1 15 1 16 1 17 88 26 12 32 71 51 39 62
REMARK Flexibility Score: inf
ROOT
ATOM      1  C   UNL A   1      35.115  32.393  28.188  1.00  0.00     0.002 C 
ENDROOT
BRANCH   1   2
ATOM      2  C   UNL A   1      33.821  31.787  27.647  1.00  0.00     0.021 C 
BRANCH   2   3
ATOM      3  C   UNL A   1      33.939  30.341  27.184  1.00  0.00     0.116 C 
BRANCH   3   4
ATOM      4  N   UNL A   1      32.897  29.489  27.733  1.00  0.00    -0.350 N 
ATOM      5  C   UNL A   1      32.082  28.584  27.097  1.00  0.00     0.287 C 
ATOM      6  O   UNL A   1      31.298  27.933  27.789  1.00  0.00    -0.268 OA
ATOM      7  H   UNL A   1      32.753  29.575  28.702  1.00  0.00     0.163 HD
BRANCH   5   8
ATOM      8  C   UNL A   1      32.123  28.479  25.553  1.00  0.00     0.228 C 
ATOM      9  C   UNL A   1      33.381  27.766  25.057  1.00  0.00     0.146 C 
ATOM     10  C   UNL A   1      31.036  27.521  25.003  1.00  0.00     0.342 C 
ATOM     11  C   UNL A   1      32.996  27.203  23.702  1.00  0.00     0.270 C 
ATOM     12  N   UNL A   1      31.557  26.957  23.743  1.00  0.00    -0.325 N 
ATOM     13  H   UNL A   1      31.381  25.953  23.759  1.00  0.00     0.348 HD
BRANCH   8  14
ATOM     14  N   UNL A   1      31.960  29.840  24.980  1.00  0.00    -0.340 N 
ATOM     15  H   UNL A   1      31.948  30.527  25.733  1.00  0.00     0.345 HD
ATOM     16  H   UNL A   1      31.083  29.888  24.461  1.00  0.00     0.345 HD
ATOM     17  H   UNL A   1      32.738  30.038  24.350  1.00  0.00     0.345 HD
ENDBRANCH   8  14
BRANCH  12  18
ATOM     18  C   UNL A   1      30.829  27.287  22.511  1.00  0.00     0.303 C 
BRANCH  18  19
ATOM     19  C   UNL A   1      29.744  28.346  22.579  1.00  0.00     0.048 A 
ATOM     20  C   UNL A   1      28.476  27.965  23.066  1.00  0.00     0.013 A 
ATOM     21  C   UNL A   1      29.912  29.690  22.211  1.00  0.00     0.124 A 
ATOM     22  C   UNL A   1      27.451  28.898  23.244  1.00  0.00     0.001 A 
ATOM     23  C   UNL A   1      28.905  30.632  22.430  1.00  0.00     0.046 A 
ATOM     24  C   UNL A   1      27.676  30.239  22.952  1.00  0.00     0.004 A 
BRANCH  21  25
ATOM     25  O   UNL A   1      31.030  30.180  21.596  1.00  0.00    -0.507 OA
ATOM     26  H   UNL A   1      31.392  31.000  21.865  1.00  0.00     0.293 HD
ENDBRANCH  21  25
ENDBRANCH  18  19
ENDBRANCH  12  18
ENDBRANCH   5   8
ENDBRANCH   3   4
ENDBRANCH   2   3
ENDBRANCH   1   2
BRANCH   1  27
ATOM     27  C   UNL A   1      35.018  33.860  28.621  1.00  0.00     0.002 C 
BRANCH  27  28
ATOM     28  C   UNL A   1      33.604  34.372  28.906  1.00  0.00     0.021 C 
BRANCH  28  29
ATOM     29  C   UNL A   1      33.507  35.857  29.237  1.00  0.00     0.116 C 
BRANCH  29  30
ATOM     30  N   UNL A   1      32.610  36.122  30.348  1.00  0.00    -0.352 N 
ATOM     31  C   UNL A   1      32.681  35.695  31.647  1.00  0.00     0.251 C 
ATOM     32  H   UNL A   1      31.835  36.693  30.135  1.00  0.00     0.163 HD
ATOM     33  O   UNL A   1      31.736  35.880  32.412  1.00  0.00    -0.269 OA
BRANCH  31  34
ATOM     34  C   UNL A   1      33.885  34.987  32.128  1.00  0.00     0.039 A 
ATOM     35  C   UNL A   1      33.769  33.652  32.521  1.00  0.00     0.014 A 
ATOM     36  C   UNL A   1      35.122  35.635  32.198  1.00  0.00     0.014 A 
ATOM     37  C   UNL A   1      34.904  32.949  32.928  1.00  0.00     0.010 A 
ATOM     38  C   UNL A   1      36.265  34.912  32.529  1.00  0.00     0.010 A 
ATOM     39  C   UNL A   1      36.167  33.563  32.901  1.00  0.00    -0.014 A 
BRANCH  39  40
ATOM     40  C   UNL A   1      37.394  32.807  33.259  1.00  0.00     0.031 A 
ATOM     41  C   UNL A   1      38.117  33.102  34.544  1.00  0.00     0.074 A 
ATOM     42  C   UNL A   1      37.886  31.890  32.403  1.00  0.00     0.049 A 
ATOM     43  N   UNL A   1      39.232  32.591  35.004  1.00  0.00    -0.248 NA
ATOM     44  C   UNL A   1      37.521  34.125  35.418  1.00  0.00     0.031 C 
ATOM     45  C   UNL A   1      37.296  31.542  31.109  1.00  0.00     0.029 A 
ATOM     46  N   UNL A   1      38.996  31.087  32.488  1.00  0.00    -0.354 N 
ATOM     47  C   UNL A   1      39.471  33.232  36.213  1.00  0.00     0.074 A 
ATOM     48  C   UNL A   1      38.422  34.213  36.385  1.00  0.00     0.031 C 
ATOM     49  C   UNL A   1      38.035  30.578  30.535  1.00  0.00     0.029 A 
ATOM     50  C   UNL A   1      39.172  30.273  31.396  1.00  0.00     0.049 A 
ATOM     51  H   UNL A   1      39.609  31.096  33.259  1.00  0.00     0.167 HD
ATOM     52  C   UNL A   1      40.460  33.005  37.110  1.00  0.00     0.037 A 
ATOM     53  C   UNL A   1      40.147  29.385  31.119  1.00  0.00     0.037 A 
ATOM     54  C   UNL A   1      41.496  32.019  36.939  1.00  0.00     0.049 A 
ATOM     55  C   UNL A   1      41.256  29.180  32.117  1.00  0.00     0.074 A 
ATOM     56  C   UNL A   1      42.520  31.684  37.807  1.00  0.00     0.029 A 
ATOM     57  N   UNL A   1      41.642  31.213  35.819  1.00  0.00    -0.354 N 
ATOM     58  N   UNL A   1      41.435  29.746  33.285  1.00  0.00    -0.248 NA
ATOM     59  C   UNL A   1      42.295  28.205  31.757  1.00  0.00     0.031 C 
ATOM     60  C   UNL A   1      43.317  30.714  37.190  1.00  0.00     0.029 A 
ATOM     61  C   UNL A   1      42.755  30.400  35.964  1.00  0.00     0.049 A 
ATOM     62  H   UNL A   1      41.044  31.219  35.037  1.00  0.00     0.167 HD
ATOM     63  C   UNL A   1      42.585  29.174  33.815  1.00  0.00     0.074 A 
ATOM     64  C   UNL A   1      43.051  28.204  32.847  1.00  0.00     0.031 C 
ATOM     65  C   UNL A   1      43.200  29.429  34.996  1.00  0.00     0.037 A 
BRANCH  52  66
ATOM     66  C   UNL A   1      40.468  33.835  38.362  1.00  0.00     0.064 A 
ATOM     67  C   UNL A   1      41.231  35.008  38.461  1.00  0.00     0.173 A 
ATOM     68  C   UNL A   1      39.673  33.477  39.461  1.00  0.00     0.173 A 
ATOM     69  F   UNL A   1      42.017  35.391  37.444  1.00  0.00    -0.203 F 
ATOM     70  C   UNL A   1      41.221  35.775  39.624  1.00  0.00     0.198 A 
ATOM     71  C   UNL A   1      39.640  34.264  40.610  1.00  0.00     0.198 A 
ATOM     72  F   UNL A   1      38.918  32.368  39.419  1.00  0.00    -0.203 F 
ATOM     73  F   UNL A   1      42.000  36.862  39.714  1.00  0.00    -0.200 F 
ATOM     74  C   UNL A   1      40.420  35.407  40.693  1.00  0.00     0.200 A 
ATOM     75  F   UNL A   1      38.852  33.915  41.637  1.00  0.00    -0.200 F 
ATOM     76  F   UNL A   1      40.405  36.151  41.808  1.00  0.00    -0.200 F 
ENDBRANCH  52  66
BRANCH  53  77
ATOM     77  C   UNL A   1      40.114  28.610  29.850  1.00  0.00     0.064 A 
ATOM     78  C   UNL A   1      39.484  27.359  29.788  1.00  0.00     0.173 A 
ATOM     79  C   UNL A   1      40.728  29.087  28.684  1.00  0.00     0.173 A 
ATOM     80  F   UNL A   1      38.898  26.849  30.883  1.00  0.00    -0.203 F 
ATOM     81  C   UNL A   1      39.494  26.603  28.618  1.00  0.00     0.198 A 
ATOM     82  C   UNL A   1      40.709  28.345  27.504  1.00  0.00     0.198 A 
ATOM     83  F   UNL A   1      41.340  30.280  28.686  1.00  0.00    -0.203 F 
ATOM     84  F   UNL A   1      38.935  25.385  28.605  1.00  0.00    -0.200 F 
ATOM     85  C   UNL A   1      40.104  27.098  27.476  1.00  0.00     0.200 A 
ATOM     86  F   UNL A   1      41.285  28.836  26.398  1.00  0.00    -0.200 F 
ATOM     87  F   UNL A   1      40.114  26.370  26.351  1.00  0.00    -0.200 F 
ENDBRANCH  53  77
BRANCH  65  88
ATOM     88  C   UNL A   1      44.418  28.615  35.329  1.00  0.00     0.064 A 
ATOM     89  C   UNL A   1      44.328  27.398  36.022  1.00  0.00     0.173 A 
ATOM     90  C   UNL A   1      45.690  29.043  34.917  1.00  0.00     0.173 A 
ATOM     91  F   UNL A   1      43.138  26.952  36.451  1.00  0.00    -0.203 F 
ATOM     92  C   UNL A   1      45.469  26.656  36.316  1.00  0.00     0.198 A 
ATOM     93  C   UNL A   1      46.824  28.281  35.182  1.00  0.00     0.198 A 
ATOM     94  F   UNL A   1      45.831  30.196  34.245  1.00  0.00    -0.203 F 
ATOM     95  F   UNL A   1      45.365  25.525  37.027  1.00  0.00    -0.200 F 
ATOM     96  C   UNL A   1      46.714  27.094  35.890  1.00  0.00     0.200 A 
ATOM     97  F   UNL A   1      48.023  28.697  34.754  1.00  0.00    -0.200 F 
ATOM     98  F   UNL A   1      47.810  26.374  36.166  1.00  0.00    -0.200 F 
ENDBRANCH  65  88
ENDBRANCH  39  40
ENDBRANCH  31  34
ENDBRANCH  29  30
ENDBRANCH  28  29
ENDBRANCH  27  28
ENDBRANCH   1  27
TORSDOF 17
ENDMDL
MODEL 2
REMARK VINA RESULT:     -11.6      1.587      7.599
REMARK SMILES [NH3+][C@]1(C(=O)NCCCCCCNC(=O)c2ccc(-c3c4nc(c(-c5c(F)c(F)c(F)c(F)c5F)c5ccc([nH]5)c(-c5c(F)c(F)c(F)c(F)c5F)c5nc(c(-c6c(F)c(F)c(F)c(F)c6F)c6ccc3[nH]6)C=C5)C=C4)cc2)CC[N@H+](Cc2ccccc2O)C1
REMARK SMILES IDX 8 1 7 2 6 3 5 4 3 5 4 6 2 8 78 9 89 10 79 11 80 12 1 14
REMARK SMILES IDX 81 18 82 19 83 20 87 21 84 22 86 23 85 24 88 25 9 27 10 28
REMARK SMILES IDX 11 29 12 30 13 31 14 33 15 34 16 35 77 36 17 37 76 38 18 39
REMARK SMILES IDX 19 40 20 41 70 42 21 43 75 44 69 45 71 46 22 47 74 48 68 49
REMARK SMILES IDX 67 50 23 52 55 53 35 54 54 55 36 56 39 57 53 58 72 59 37 60
REMARK SMILES IDX 38 61 52 63 73 64 40 65 24 66 25 67 33 68 26 69 27 70 31 71
REMARK SMILES IDX 34 72 28 73 29 74 32 75 30 76 56 77 57 78 65 79 58 80 59 81
REMARK SMILES IDX 63 82 66 83 60 84 61 85 64 86 62 87 41 88 42 89 50 90 43 91
REMARK SMILES IDX 44 92 48 93 51 94 45 95 46 96 49 97 47 98
REMARK H PARENT 5 7 80 13 1 15 1 16 1 17 88 26 12 32 71 51 39 62
REMARK Flexibility Score: inf
ROOT
ATOM      1  C   UNL A   1      33.015  30.044  27.247  1.00  0.00     0.002 C 
ENDROOT
BRANCH   1   2
ATOM      2  C   UNL A   1      33.758  28.985  26.435  1.00  0.00     0.021 C 
BRANCH   2   3
ATOM      3  C   UNL A   1      33.104  27.609  26.429  1.00  0.00     0.116 C 
BRANCH   3   4
ATOM      4  N   UNL A   1      33.856  26.634  25.657  1.00  0.00    -0.350 N 
ATOM      5  C   UNL A   1      33.486  25.937  24.532  1.00  0.00     0.287 C 
ATOM      6  O   UNL A   1      34.323  25.194  24.018  1.00  0.00    -0.268 OA
ATOM      7  H   UNL A   1      34.762  26.446  25.989  1.00  0.00     0.163 HD
BRANCH   5   8
ATOM      8  C   UNL A   1      32.033  26.048  24.012  1.00  0.00     0.228 C 
ATOM      9  C   UNL A   1      31.013  25.574  25.047  1.00  0.00     0.146 C 
ATOM     10  C   UNL A   1      31.582  27.521  23.844  1.00  0.00     0.342 C 
ATOM     11  C   UNL A   1      29.729  26.296  24.682  1.00  0.00     0.270 C 
ATOM     12  N   UNL A   1      30.120  27.548  24.041  1.00  0.00    -0.325 N 
ATOM     13  H   UNL A   1      29.908  28.331  24.659  1.00  0.00     0.348 HD
BRANCH   8  14
ATOM     14  N   UNL A   1      31.934  25.319  22.721  1.00  0.00    -0.340 N 
ATOM     15  H   UNL A   1      32.075  25.972  21.950  1.00  0.00     0.345 HD
ATOM     16  H   UNL A   1      31.010  24.894  22.641  1.00  0.00     0.345 HD
ATOM     17  H   UNL A   1      32.647  24.591  22.686  1.00  0.00     0.345 HD
ENDBRANCH   8  14
BRANCH  12  18
ATOM     18  C   UNL A   1      29.297  27.948  22.892  1.00  0.00     0.303 C 
BRANCH  18  19
ATOM     19  C   UNL A   1      28.861  29.398  22.790  1.00  0.00     0.048 A 
ATOM     20  C   UNL A   1      27.717  29.799  23.511  1.00  0.00     0.013 A 
ATOM     21  C   UNL A   1      29.526  30.384  22.045  1.00  0.00     0.124 A 
ATOM     22  C   UNL A   1      27.303  31.133  23.542  1.00  0.00     0.001 A 
ATOM     23  C   UNL A   1      29.140  31.725  22.110  1.00  0.00     0.046 A 
ATOM     24  C   UNL A   1      28.032  32.102  22.863  1.00  0.00     0.004 A 
BRANCH  21  25
ATOM     25  O   UNL A   1      30.560  30.127  21.188  1.00  0.00    -0.507 OA
ATOM     26  H   UNL A   1      31.364  30.599  21.269  1.00  0.00     0.293 HD
ENDBRANCH  21  25
ENDBRANCH  18  19
ENDBRANCH  12  18
ENDBRANCH   5   8
ENDBRANCH   3   4
ENDBRANCH   2   3
ENDBRANCH   1   2
BRANCH   1  27
ATOM     27  C   UNL A   1      31.743  30.595  26.594  1.00  0.00     0.002 C 
BRANCH  27  28
ATOM     28  C   UNL A   1      31.512  32.098  26.763  1.00  0.00     0.021 C 
BRANCH  28  29
ATOM     29  C   UNL A   1      32.762  32.914  27.073  1.00  0.00     0.116 C 
BRANCH  29  30
ATOM     30  N   UNL A   1      32.450  34.249  27.553  1.00  0.00    -0.352 N 
ATOM     31  C   UNL A   1      32.983  34.943  28.607  1.00  0.00     0.251 C 
ATOM     32  H   UNL A   1      31.752  34.725  27.047  1.00  0.00     0.163 HD
ATOM     33  O   UNL A   1      32.475  36.002  28.971  1.00  0.00    -0.269 OA
BRANCH  31  34
ATOM     34  C   UNL A   1      34.157  34.408  29.327  1.00  0.00     0.039 A 
ATOM     35  C   UNL A   1      33.953  33.686  30.504  1.00  0.00     0.014 A 
ATOM     36  C   UNL A   1      35.453  34.622  28.849  1.00  0.00     0.014 A 
ATOM     37  C   UNL A   1      35.044  33.126  31.171  1.00  0.00     0.010 A 
ATOM     38  C   UNL A   1      36.532  33.999  29.471  1.00  0.00     0.010 A 
ATOM     39  C   UNL A   1      36.339  33.248  30.640  1.00  0.00    -0.014 A 
BRANCH  39  40
ATOM     40  C   UNL A   1      37.501  32.596  31.297  1.00  0.00     0.031 A 
ATOM     41  C   UNL A   1      38.218  31.464  30.615  1.00  0.00     0.074 A 
ATOM     42  C   UNL A   1      37.879  32.990  32.528  1.00  0.00     0.049 A 
ATOM     43  N   UNL A   1      39.214  30.733  31.049  1.00  0.00    -0.248 NA
ATOM     44  C   UNL A   1      37.737  31.088  29.277  1.00  0.00     0.031 C 
ATOM     45  C   UNL A   1      37.238  34.051  33.309  1.00  0.00     0.029 A 
ATOM     46  N   UNL A   1      38.887  32.541  33.345  1.00  0.00    -0.354 N 
ATOM     47  C   UNL A   1      39.473  29.811  30.043  1.00  0.00     0.074 A 
ATOM     48  C   UNL A   1      38.491  30.032  29.005  1.00  0.00     0.031 C 
ATOM     49  C   UNL A   1      37.886  34.190  34.477  1.00  0.00     0.029 A 
ATOM     50  C   UNL A   1      38.955  33.200  34.548  1.00  0.00     0.049 A 
ATOM     51  H   UNL A   1      39.502  31.816  33.091  1.00  0.00     0.167 HD
ATOM     52  C   UNL A   1      40.457  28.882  29.980  1.00  0.00     0.037 A 
ATOM     53  C   UNL A   1      39.784  33.018  35.595  1.00  0.00     0.037 A 
ATOM     54  C   UNL A   1      41.439  28.673  31.012  1.00  0.00     0.049 A 
ATOM     55  C   UNL A   1      40.845  31.953  35.513  1.00  0.00     0.074 A 
ATOM     56  C   UNL A   1      42.500  27.785  31.026  1.00  0.00     0.029 A 
ATOM     57  N   UNL A   1      41.477  29.359  32.218  1.00  0.00    -0.354 N 
ATOM     58  N   UNL A   1      41.120  31.130  34.530  1.00  0.00    -0.248 NA
ATOM     59  C   UNL A   1      41.714  31.795  36.687  1.00  0.00     0.031 C 
ATOM     60  C   UNL A   1      43.147  27.895  32.262  1.00  0.00     0.029 A 
ATOM     61  C   UNL A   1      42.528  28.895  32.993  1.00  0.00     0.049 A 
ATOM     62  H   UNL A   1      40.848  30.069  32.483  1.00  0.00     0.167 HD
ATOM     63  C   UNL A   1      42.212  30.384  34.951  1.00  0.00     0.074 A 
ATOM     64  C   UNL A   1      42.560  30.862  36.272  1.00  0.00     0.031 C 
ATOM     65  C   UNL A   1      42.869  29.390  34.303  1.00  0.00     0.037 A 
BRANCH  52  66
ATOM     66  C   UNL A   1      40.523  28.022  28.750  1.00  0.00     0.064 A 
ATOM     67  C   UNL A   1      41.275  28.402  27.627  1.00  0.00     0.173 A 
ATOM     68  C   UNL A   1      39.862  26.786  28.705  1.00  0.00     0.173 A 
ATOM     69  F   UNL A   1      41.919  29.580  27.612  1.00  0.00    -0.203 F 
ATOM     70  C   UNL A   1      41.337  27.592  26.496  1.00  0.00     0.198 A 
ATOM     71  C   UNL A   1      39.954  25.963  27.586  1.00  0.00     0.198 A 
ATOM     72  F   UNL A   1      39.134  26.369  29.753  1.00  0.00    -0.203 F 
ATOM     73  F   UNL A   1      42.018  28.002  25.417  1.00  0.00    -0.200 F 
ATOM     74  C   UNL A   1      40.684  26.370  26.480  1.00  0.00     0.200 A 
ATOM     75  F   UNL A   1      39.334  24.774  27.578  1.00  0.00    -0.200 F 
ATOM     76  F   UNL A   1      40.752  25.587  25.394  1.00  0.00    -0.200 F 
ENDBRANCH  52  66
BRANCH  53  77
ATOM     77  C   UNL A   1      39.658  33.874  36.805  1.00  0.00     0.064 A 
ATOM     78  C   UNL A   1      38.873  33.469  37.894  1.00  0.00     0.173 A 
ATOM     79  C   UNL A   1      40.297  35.119  36.891  1.00  0.00     0.173 A 
ATOM     80  F   UNL A   1      38.226  32.294  37.853  1.00  0.00    -0.203 F 
ATOM     81  C   UNL A   1      38.708  34.288  39.009  1.00  0.00     0.198 A 
ATOM     82  C   UNL A   1      40.158  35.923  38.020  1.00  0.00     0.198 A 
ATOM     83  F   UNL A   1      41.063  35.552  35.881  1.00  0.00    -0.203 F 
ATOM     84  F   UNL A   1      37.904  33.901  40.009  1.00  0.00    -0.200 F 
ATOM     85  C   UNL A   1      39.353  35.513  39.073  1.00  0.00     0.200 A 
ATOM     86  F   UNL A   1      40.797  37.099  38.085  1.00  0.00    -0.200 F 
ATOM     87  F   UNL A   1      39.194  36.302  40.145  1.00  0.00    -0.200 F 
ENDBRANCH  53  77
BRANCH  65  88
ATOM     88  C   UNL A   1      44.058  28.784  34.992  1.00  0.00     0.064 A 
ATOM     89  C   UNL A   1      45.348  29.321  34.851  1.00  0.00     0.173 A 
ATOM     90  C   UNL A   1      43.898  27.673  35.835  1.00  0.00     0.173 A 
ATOM     91  F   UNL A   1      45.557  30.373  34.046  1.00  0.00    -0.203 F 
ATOM     92  C   UNL A   1      46.436  28.747  35.504  1.00  0.00     0.198 A 
ATOM     93  C   UNL A   1      44.983  27.125  36.513  1.00  0.00     0.198 A 
ATOM     94  F   UNL A   1      42.686  27.126  36.011  1.00  0.00    -0.203 F 
ATOM     95  F   UNL A   1      47.667  29.242  35.310  1.00  0.00    -0.200 F 
ATOM     96  C   UNL A   1      46.252  27.656  36.339  1.00  0.00     0.200 A 
ATOM     97  F   UNL A   1      44.800  26.082  37.334  1.00  0.00    -0.200 F 
ATOM     98  F   UNL A   1      47.300  27.111  36.973  1.00  0.00    -0.200 F 
ENDBRANCH  65  88
ENDBRANCH  39  40
ENDBRANCH  31  34
ENDBRANCH  29  30
ENDBRANCH  28  29
ENDBRANCH  27  28
ENDBRANCH   1  27
TORSDOF 17
ENDMDL
MODEL 3
REMARK VINA RESULT:     -11.5      2.982      8.378
REMARK SMILES [NH3+][C@]1(C(=O)NCCCCCCNC(=O)c2ccc(-c3c4nc(c(-c5c(F)c(F)c(F)c(F)c5F)c5ccc([nH]5)c(-c5c(F)c(F)c(F)c(F)c5F)c5nc(c(-c6c(F)c(F)c(F)c(F)c6F)c6ccc3[nH]6)C=C5)C=C4)cc2)CC[N@H+](Cc2ccccc2O)C1
REMARK SMILES IDX 8 1 7 2 6 3 5 4 3 5 4 6 2 8 78 9 89 10 79 11 80 12 1 14
REMARK SMILES IDX 81 18 82 19 83 20 87 21 84 22 86 23 85 24 88 25 9 27 10 28
REMARK SMILES IDX 11 29 12 30 13 31 14 33 15 34 16 35 77 36 17 37 76 38 18 39
REMARK SMILES IDX 19 40 20 41 70 42 21 43 75 44 69 45 71 46 22 47 74 48 68 49
REMARK SMILES IDX 67 50 23 52 55 53 35 54 54 55 36 56 39 57 53 58 72 59 37 60
REMARK SMILES IDX 38 61 52 63 73 64 40 65 24 66 25 67 33 68 26 69 27 70 31 71
REMARK SMILES IDX 34 72 28 73 29 74 32 75 30 76 56 77 57 78 65 79 58 80 59 81
REMARK SMILES IDX 63 82 66 83 60 84 61 85 64 86 62 87 41 88 42 89 50 90 43 91
REMARK SMILES IDX 44 92 48 93 51 94 45 95 46 96 49 97 47 98
REMARK H PARENT 5 7 80 13 1 15 1 16 1 17 88 26 12 32 71 51 39 62
REMARK Flexibility Score: inf
ROOT
ATOM      1  C   UNL A   1      32.100  29.753  27.243  1.00  0.00     0.002 C 
ENDROOT
BRANCH   1   2
ATOM      2  C   UNL A   1      32.921  28.574  26.724  1.00  0.00     0.021 C 
BRANCH   2   3
ATOM      3  C   UNL A   1      32.266  27.788  25.595  1.00  0.00     0.116 C 
BRANCH   3   4
ATOM      4  N   UNL A   1      31.119  27.016  26.041  1.00  0.00    -0.350 N 
ATOM      5  C   UNL A   1      30.908  25.659  25.996  1.00  0.00     0.287 C 
ATOM      6  O   UNL A   1      29.866  25.224  26.488  1.00  0.00    -0.268 OA
ATOM      7  H   UNL A   1      30.386  27.542  26.433  1.00  0.00     0.163 HD
BRANCH   5   8
ATOM      8  C   UNL A   1      31.931  24.754  25.268  1.00  0.00     0.228 C 
ATOM      9  C   UNL A   1      33.270  24.693  26.001  1.00  0.00     0.146 C 
ATOM     10  C   UNL A   1      31.529  23.258  25.317  1.00  0.00     0.342 C 
ATOM     11  C   UNL A   1      33.886  23.375  25.571  1.00  0.00     0.270 C 
ATOM     12  N   UNL A   1      32.778  22.475  25.264  1.00  0.00    -0.325 N 
ATOM     13  H   UNL A   1      32.717  21.750  25.978  1.00  0.00     0.348 HD
BRANCH   8  14
ATOM     14  N   UNL A   1      32.058  25.217  23.862  1.00  0.00    -0.340 N 
ATOM     15  H   UNL A   1      32.770  25.945  23.806  1.00  0.00     0.345 HD
ATOM     16  H   UNL A   1      31.163  25.590  23.545  1.00  0.00     0.345 HD
ATOM     17  H   UNL A   1      32.327  24.432  23.269  1.00  0.00     0.345 HD
ENDBRANCH   8  14
BRANCH  12  18
ATOM     18  C   UNL A   1      32.978  21.612  24.092  1.00  0.00     0.303 C 
BRANCH  18  19
ATOM     19  C   UNL A   1      32.799  20.115  24.263  1.00  0.00     0.048 A 
ATOM     20  C   UNL A   1      32.472  19.351  23.123  1.00  0.00     0.013 A 
ATOM     21  C   UNL A   1      32.955  19.423  25.474  1.00  0.00     0.124 A 
ATOM     22  C   UNL A   1      32.378  17.958  23.179  1.00  0.00     0.001 A 
ATOM     23  C   UNL A   1      32.906  18.028  25.523  1.00  0.00     0.046 A 
ATOM     24  C   UNL A   1      32.623  17.294  24.375  1.00  0.00     0.004 A 
BRANCH  21  25
ATOM     25  O   UNL A   1      33.133  20.033  26.685  1.00  0.00    -0.507 OA
ATOM     26  H   UNL A   1      33.669  20.797  26.750  1.00  0.00     0.293 HD
ENDBRANCH  21  25
ENDBRANCH  18  19
ENDBRANCH  12  18
ENDBRANCH   5   8
ENDBRANCH   3   4
ENDBRANCH   2   3
ENDBRANCH   1   2
BRANCH   1  27
ATOM     27  C   UNL A   1      31.601  30.726  26.169  1.00  0.00     0.002 C 
BRANCH  27  28
ATOM     28  C   UNL A   1      31.402  32.171  26.629  1.00  0.00     0.021 C 
BRANCH  28  29
ATOM     29  C   UNL A   1      32.636  32.837  27.227  1.00  0.00     0.116 C 
BRANCH  29  30
ATOM     30  N   UNL A   1      32.393  34.217  27.609  1.00  0.00    -0.352 N 
ATOM     31  C   UNL A   1      32.982  34.965  28.595  1.00  0.00     0.251 C 
ATOM     32  H   UNL A   1      31.705  34.684  27.082  1.00  0.00     0.163 HD
ATOM     33  O   UNL A   1      32.528  36.070  28.887  1.00  0.00    -0.269 OA
BRANCH  31  34
ATOM     34  C   UNL A   1      34.149  34.434  29.329  1.00  0.00     0.039 A 
ATOM     35  C   UNL A   1      33.940  33.799  30.555  1.00  0.00     0.014 A 
ATOM     36  C   UNL A   1      35.442  34.566  28.818  1.00  0.00     0.014 A 
ATOM     37  C   UNL A   1      35.022  33.243  31.240  1.00  0.00     0.010 A 
ATOM     38  C   UNL A   1      36.509  33.945  29.462  1.00  0.00     0.010 A 
ATOM     39  C   UNL A   1      36.310  33.281  30.681  1.00  0.00    -0.014 A 
BRANCH  39  40
ATOM     40  C   UNL A   1      37.459  32.629  31.361  1.00  0.00     0.031 A 
ATOM     41  C   UNL A   1      38.180  31.487  30.701  1.00  0.00     0.074 A 
ATOM     42  C   UNL A   1      37.822  33.035  32.593  1.00  0.00     0.049 A 
ATOM     43  N   UNL A   1      39.165  30.754  31.156  1.00  0.00    -0.248 NA
ATOM     44  C   UNL A   1      37.715  31.098  29.360  1.00  0.00     0.031 C 
ATOM     45  C   UNL A   1      37.177  34.107  33.353  1.00  0.00     0.029 A 
ATOM     46  N   UNL A   1      38.816  32.589  33.428  1.00  0.00    -0.354 N 
ATOM     47  C   UNL A   1      39.433  29.821  30.164  1.00  0.00     0.074 A 
ATOM     48  C   UNL A   1      38.466  30.036  29.110  1.00  0.00     0.031 C 
ATOM     49  C   UNL A   1      37.809  34.254  34.529  1.00  0.00     0.029 A 
ATOM     50  C   UNL A   1      38.872  33.260  34.625  1.00  0.00     0.049 A 
ATOM     51  H   UNL A   1      39.431  31.857  33.190  1.00  0.00     0.167 HD
ATOM     52  C   UNL A   1      40.413  28.886  30.124  1.00  0.00     0.037 A 
ATOM     53  C   UNL A   1      39.685  33.085  35.686  1.00  0.00     0.037 A 
ATOM     54  C   UNL A   1      41.379  28.682  31.171  1.00  0.00     0.049 A 
ATOM     55  C   UNL A   1      40.741  32.013  35.629  1.00  0.00     0.074 A 
ATOM     56  C   UNL A   1      42.435  27.789  31.210  1.00  0.00     0.029 A 
ATOM     57  N   UNL A   1      41.404  29.380  32.371  1.00  0.00    -0.354 N 
ATOM     58  N   UNL A   1      41.025  31.179  34.659  1.00  0.00    -0.248 NA
ATOM     59  C   UNL A   1      41.593  31.863  36.817  1.00  0.00     0.031 C 
ATOM     60  C   UNL A   1      43.066  27.909  32.453  1.00  0.00     0.029 A 
ATOM     61  C   UNL A   1      42.442  28.919  33.165  1.00  0.00     0.049 A 
ATOM     62  H   UNL A   1      40.776  30.097  32.620  1.00  0.00     0.167 HD
ATOM     63  C   UNL A   1      42.108  30.430  35.103  1.00  0.00     0.074 A 
ATOM     64  C   UNL A   1      42.439  30.921  36.423  1.00  0.00     0.031 C 
ATOM     65  C   UNL A   1      42.767  29.427  34.474  1.00  0.00     0.037 A 
BRANCH  52  66
ATOM     66  C   UNL A   1      40.491  28.013  28.904  1.00  0.00     0.064 A 
ATOM     67  C   UNL A   1      41.291  28.358  27.803  1.00  0.00     0.173 A 
ATOM     68  C   UNL A   1      39.793  26.798  28.848  1.00  0.00     0.173 A 
ATOM     69  F   UNL A   1      41.972  29.514  27.799  1.00  0.00    -0.203 F 
ATOM     70  C   UNL A   1      41.363  27.535  26.681  1.00  0.00     0.198 A 
ATOM     71  C   UNL A   1      39.894  25.961  27.740  1.00  0.00     0.198 A 
ATOM     72  F   UNL A   1      39.019  26.414  29.875  1.00  0.00    -0.203 F 
ATOM     73  F   UNL A   1      42.091  27.913  25.621  1.00  0.00    -0.200 F 
ATOM     74  C   UNL A   1      40.672  26.335  26.654  1.00  0.00     0.200 A 
ATOM     75  F   UNL A   1      39.238  24.792  27.722  1.00  0.00    -0.200 F 
ATOM     76  F   UNL A   1      40.750  25.539  25.578  1.00  0.00    -0.200 F 
ENDBRANCH  52  66
BRANCH  53  77
ATOM     77  C   UNL A   1      39.548  33.953  36.885  1.00  0.00     0.064 A 
ATOM     78  C   UNL A   1      40.182  35.203  36.944  1.00  0.00     0.173 A 
ATOM     79  C   UNL A   1      38.804  33.547  38.002  1.00  0.00     0.173 A 
ATOM     80  F   UNL A   1      40.921  35.629  35.909  1.00  0.00    -0.203 F 
ATOM     81  C   UNL A   1      40.101  35.999  38.085  1.00  0.00     0.198 A 
ATOM     82  C   UNL A   1      38.697  34.359  39.130  1.00  0.00     0.198 A 
ATOM     83  F   UNL A   1      38.174  32.365  37.996  1.00  0.00    -0.203 F 
ATOM     84  F   UNL A   1      40.766  37.162  38.136  1.00  0.00    -0.200 F 
ATOM     85  C   UNL A   1      39.356  35.578  39.175  1.00  0.00     0.200 A 
ATOM     86  F   UNL A   1      37.962  33.956  40.175  1.00  0.00    -0.200 F 
ATOM     87  F   UNL A   1      39.280  36.344  40.273  1.00  0.00    -0.200 F 
ENDBRANCH  53  77
BRANCH  65  88
ATOM     88  C   UNL A   1      43.944  28.822  35.186  1.00  0.00     0.064 A 
ATOM     89  C   UNL A   1      45.247  29.311  35.009  1.00  0.00     0.173 A 
ATOM     90  C   UNL A   1      43.758  27.761  36.086  1.00  0.00     0.173 A 
ATOM     91  F   UNL A   1      45.481  30.314  34.150  1.00  0.00    -0.203 F 
ATOM     92  C   UNL A   1      46.324  28.740  35.684  1.00  0.00     0.198 A 
ATOM     93  C   UNL A   1      44.832  27.216  36.785  1.00  0.00     0.198 A 
ATOM     94  F   UNL A   1      42.532  27.260  36.298  1.00  0.00    -0.203 F 
ATOM     95  F   UNL A   1      47.567  29.187  35.457  1.00  0.00    -0.200 F 
ATOM     96  C   UNL A   1      46.114  27.699  36.576  1.00  0.00     0.200 A 
ATOM     97  F   UNL A   1      44.625  26.223  37.659  1.00  0.00    -0.200 F 
ATOM     98  F   UNL A   1      47.150  27.157  37.230  1.00  0.00    -0.200 F 
ENDBRANCH  65  88
ENDBRANCH  39  40
ENDBRANCH  31  34
ENDBRANCH  29  30
ENDBRANCH  28  29
ENDBRANCH  27  28
ENDBRANCH   1  27
TORSDOF 17
ENDMDL
