MODEL 1
REMARK VINA RESULT:     -11.7      0.000      0.000
REMARK SMILES CC(C)N1C[C@@H](C(=O)N[C@@H](C)CC(=O)NCCCCCCNC(=O)c2ccc(-c3c4nc(c(-c5c(F)c(F)c(F)c(F)c5F)c5ccc([nH]5)c(-c5c(F)c(F)c(F)c(F)c5F)c5nc(c(-c6c(F)c(F)c(F)c(F)c6F)c6ccc3[nH]6)C=C5)C=C4)cc2)CC1=O
REMARK SMILES IDX 17 1 16 2 15 3 13 4 14 5 12 7 10 8 11 9 9 10 7 11 8 12 6 14
REMARK SMILES IDX 4 15 5 16 89 17 88 18 90 19 2 20 1 21 3 22 18 23 19 24 20 25
REMARK SMILES IDX 21 26 22 27 23 28 24 30 25 31 26 32 87 33 27 34 86 35 28 36
REMARK SMILES IDX 29 37 30 38 80 39 31 40 85 41 79 42 81 43 32 44 84 45 78 46
REMARK SMILES IDX 77 47 33 49 65 50 45 51 64 52 46 53 49 54 63 55 82 56 47 57
REMARK SMILES IDX 48 58 62 60 83 61 50 62 34 63 35 64 43 65 36 66 37 67 41 68
REMARK SMILES IDX 44 69 38 70 39 71 42 72 40 73 66 74 67 75 75 76 68 77 69 78
REMARK SMILES IDX 73 79 76 80 70 81 71 82 74 83 72 84 51 85 52 86 60 87 53 88
REMARK SMILES IDX 54 89 58 90 61 91 55 92 56 93 59 94 57 95
REMARK H PARENT 15 6 9 13 22 29 81 48 49 59
REMARK Flexibility Score: inf
ROOT
ATOM      1  C   UNL A   1      31.776  28.564  27.250  1.00  0.00     0.021 C 
ENDROOT
BRANCH   1   2
ATOM      2  C   UNL A   1      31.917  27.579  26.091  1.00  0.00     0.116 C 
BRANCH   2   3
ATOM      3  N   UNL A   1      33.022  26.670  26.338  1.00  0.00    -0.356 N 
ATOM      4  C   UNL A   1      33.659  25.831  25.474  1.00  0.00     0.222 C 
ATOM      5  O   UNL A   1      34.439  24.996  25.935  1.00  0.00    -0.275 OA
ATOM      6  H   UNL A   1      33.359  26.659  27.262  1.00  0.00     0.163 HD
BRANCH   4   7
ATOM      7  C   UNL A   1      33.418  25.932  23.982  1.00  0.00     0.124 C 
BRANCH   7   8
ATOM      8  C   UNL A   1      32.817  24.669  23.342  1.00  0.00     0.088 C 
ATOM      9  C   UNL A   1      31.879  25.092  22.206  1.00  0.00     0.031 C 
BRANCH   8  10
ATOM     10  N   UNL A   1      32.026  23.890  24.297  1.00  0.00    -0.353 N 
ATOM     11  C   UNL A   1      31.989  22.573  24.617  1.00  0.00     0.225 C 
ATOM     12  O   UNL A   1      31.109  22.229  25.414  1.00  0.00    -0.275 OA
ATOM     13  H   UNL A   1      31.388  24.434  24.814  1.00  0.00     0.163 HD
BRANCH  11  14
ATOM     14  C   UNL A   1      32.930  21.526  24.057  1.00  0.00     0.107 C 
ATOM     15  N   UNL A   1      33.751  19.394  24.605  1.00  0.00    -0.339 N 
ATOM     16  C   UNL A   1      32.534  20.073  24.237  1.00  0.00     0.133 C 
ATOM     17  C   UNL A   1      34.826  20.251  24.758  1.00  0.00     0.223 C 
ATOM     18  C   UNL A   1      34.336  21.665  24.620  1.00  0.00     0.115 C 
ATOM     19  O   UNL A   1      35.981  19.950  24.999  1.00  0.00    -0.275 OA
BRANCH  15  20
ATOM     20  C   UNL A   1      33.802  17.937  24.742  1.00  0.00     0.078 C 
ATOM     21  C   UNL A   1      32.519  17.391  25.360  1.00  0.00     0.031 C 
ATOM     22  C   UNL A   1      34.118  17.251  23.413  1.00  0.00     0.031 C 
ENDBRANCH  15  20
ENDBRANCH  11  14
ENDBRANCH   8  10
ENDBRANCH   7   8
ENDBRANCH   4   7
ENDBRANCH   2   3
ENDBRANCH   1   2
BRANCH   1  23
ATOM     23  C   UNL A   1      32.333  29.961  26.984  1.00  0.00     0.002 C 
BRANCH  23  24
ATOM     24  C   UNL A   1      31.468  30.829  26.071  1.00  0.00     0.002 C 
BRANCH  24  25
ATOM     25  C   UNL A   1      31.366  32.301  26.482  1.00  0.00     0.021 C 
BRANCH  25  26
ATOM     26  C   UNL A   1      32.565  32.829  27.266  1.00  0.00     0.116 C 
BRANCH  26  27
ATOM     27  N   UNL A   1      32.399  34.229  27.626  1.00  0.00    -0.352 N 
ATOM     28  C   UNL A   1      32.977  34.945  28.643  1.00  0.00     0.251 C 
ATOM     29  H   UNL A   1      31.779  34.737  27.055  1.00  0.00     0.163 HD
ATOM     30  O   UNL A   1      32.528  36.043  28.957  1.00  0.00    -0.269 OA
BRANCH  28  31
ATOM     31  C   UNL A   1      34.137  34.390  29.370  1.00  0.00     0.039 A 
ATOM     32  C   UNL A   1      33.927  33.749  30.594  1.00  0.00     0.014 A 
ATOM     33  C   UNL A   1      35.430  34.519  28.859  1.00  0.00     0.014 A 
ATOM     34  C   UNL A   1      35.008  33.189  31.276  1.00  0.00     0.010 A 
ATOM     35  C   UNL A   1      36.495  33.892  29.498  1.00  0.00     0.010 A 
ATOM     36  C   UNL A   1      36.297  33.226  30.718  1.00  0.00    -0.014 A 
BRANCH  36  37
ATOM     37  C   UNL A   1      37.446  32.571  31.393  1.00  0.00     0.031 A 
ATOM     38  C   UNL A   1      38.154  31.417  30.737  1.00  0.00     0.074 A 
ATOM     39  C   UNL A   1      37.814  32.978  32.624  1.00  0.00     0.049 A 
ATOM     40  N   UNL A   1      39.140  30.684  31.191  1.00  0.00    -0.248 NA
ATOM     41  C   UNL A   1      37.677  31.018  29.404  1.00  0.00     0.031 C 
ATOM     42  C   UNL A   1      37.180  34.059  33.381  1.00  0.00     0.029 A 
ATOM     43  N   UNL A   1      38.806  32.528  33.458  1.00  0.00    -0.354 N 
ATOM     44  C   UNL A   1      39.387  29.732  30.210  1.00  0.00     0.074 A 
ATOM     45  C   UNL A   1      38.417  29.946  29.159  1.00  0.00     0.031 C 
ATOM     46  C   UNL A   1      37.816  34.207  34.554  1.00  0.00     0.029 A 
ATOM     47  C   UNL A   1      38.871  33.203  34.654  1.00  0.00     0.049 A 
ATOM     48  H   UNL A   1      39.414  31.790  33.223  1.00  0.00     0.167 HD
ATOM     49  C   UNL A   1      40.348  28.779  30.182  1.00  0.00     0.037 A 
ATOM     50  C   UNL A   1      39.685  33.027  35.712  1.00  0.00     0.037 A 
ATOM     51  C   UNL A   1      41.327  28.586  31.222  1.00  0.00     0.049 A 
ATOM     52  C   UNL A   1      40.728  31.942  35.661  1.00  0.00     0.074 A 
ATOM     53  C   UNL A   1      42.384  27.694  31.254  1.00  0.00     0.029 A 
ATOM     54  N   UNL A   1      41.360  29.290  32.416  1.00  0.00    -0.354 N 
ATOM     55  N   UNL A   1      41.004  31.102  34.694  1.00  0.00    -0.248 NA
ATOM     56  C   UNL A   1      41.577  31.785  36.851  1.00  0.00     0.031 C 
ATOM     57  C   UNL A   1      43.017  27.813  32.494  1.00  0.00     0.029 A 
ATOM     58  C   UNL A   1      42.400  28.826  33.208  1.00  0.00     0.049 A 
ATOM     59  H   UNL A   1      40.738  30.011  32.665  1.00  0.00     0.167 HD
ATOM     60  C   UNL A   1      42.080  30.345  35.141  1.00  0.00     0.074 A 
ATOM     61  C   UNL A   1      42.415  30.836  36.461  1.00  0.00     0.031 C 
ATOM     62  C   UNL A   1      42.732  29.335  34.514  1.00  0.00     0.037 A 
BRANCH  49  63
ATOM     63  C   UNL A   1      40.393  27.863  28.992  1.00  0.00     0.064 A 
ATOM     64  C   UNL A   1      39.650  26.674  28.943  1.00  0.00     0.173 A 
ATOM     65  C   UNL A   1      41.148  28.209  27.859  1.00  0.00     0.173 A 
ATOM     66  F   UNL A   1      38.919  26.290  30.000  1.00  0.00    -0.203 F 
ATOM     67  C   UNL A   1      39.682  25.853  27.818  1.00  0.00     0.198 A 
ATOM     68  C   UNL A   1      41.150  27.404  26.723  1.00  0.00     0.198 A 
ATOM     69  F   UNL A   1      41.871  29.339  27.848  1.00  0.00    -0.203 F 
ATOM     70  F   UNL A   1      39.000  24.699  27.813  1.00  0.00    -0.200 F 
ATOM     71  C   UNL A   1      40.423  26.223  26.706  1.00  0.00     0.200 A 
ATOM     72  F   UNL A   1      41.854  27.773  25.644  1.00  0.00    -0.200 F 
ATOM     73  F   UNL A   1      40.440  25.441  25.619  1.00  0.00    -0.200 F 
ENDBRANCH  49  63
BRANCH  50  74
ATOM     74  C   UNL A   1      39.562  33.904  36.908  1.00  0.00     0.064 A 
ATOM     75  C   UNL A   1      38.805  33.502  38.018  1.00  0.00     0.173 A 
ATOM     76  C   UNL A   1      40.171  35.166  36.958  1.00  0.00     0.173 A 
ATOM     77  F   UNL A   1      38.186  32.313  38.013  1.00  0.00    -0.203 F 
ATOM     78  C   UNL A   1      38.633  34.344  39.116  1.00  0.00     0.198 A 
ATOM     79  C   UNL A   1      40.027  35.992  38.071  1.00  0.00     0.198 A 
ATOM     80  F   UNL A   1      40.912  35.597  35.926  1.00  0.00    -0.203 F 
ATOM     81  F   UNL A   1      37.852  33.960  40.135  1.00  0.00    -0.200 F 
ATOM     82  C   UNL A   1      39.248  35.586  39.143  1.00  0.00     0.200 A 
ATOM     83  F   UNL A   1      40.638  37.185  38.100  1.00  0.00    -0.200 F 
ATOM     84  F   UNL A   1      39.082  36.395  40.197  1.00  0.00    -0.200 F 
ENDBRANCH  50  74
BRANCH  62  85
ATOM     85  C   UNL A   1      43.906  28.724  35.225  1.00  0.00     0.064 A 
ATOM     86  C   UNL A   1      45.210  29.214  35.058  1.00  0.00     0.173 A 
ATOM     87  C   UNL A   1      43.717  27.656  36.115  1.00  0.00     0.173 A 
ATOM     88  F   UNL A   1      45.450  30.224  34.208  1.00  0.00    -0.203 F 
ATOM     89  C   UNL A   1      46.283  28.637  35.733  1.00  0.00     0.198 A 
ATOM     90  C   UNL A   1      44.786  27.105  36.815  1.00  0.00     0.198 A 
ATOM     91  F   UNL A   1      42.489  27.153  36.317  1.00  0.00    -0.203 F 
ATOM     92  F   UNL A   1      47.528  29.084  35.514  1.00  0.00    -0.200 F 
ATOM     93  C   UNL A   1      46.070  27.590  36.617  1.00  0.00     0.200 A 
ATOM     94  F   UNL A   1      44.574  26.106  37.683  1.00  0.00    -0.200 F 
ATOM     95  F   UNL A   1      47.102  27.042  37.271  1.00  0.00    -0.200 F 
ENDBRANCH  62  85
ENDBRANCH  36  37
ENDBRANCH  28  31
ENDBRANCH  26  27
ENDBRANCH  25  26
ENDBRANCH  24  25
ENDBRANCH  23  24
ENDBRANCH   1  23
TORSDOF 17
ENDMDL
MODEL 2
REMARK VINA RESULT:     -11.6      1.020      2.192
REMARK SMILES CC(C)N1C[C@@H](C(=O)N[C@@H](C)CC(=O)NCCCCCCNC(=O)c2ccc(-c3c4nc(c(-c5c(F)c(F)c(F)c(F)c5F)c5ccc([nH]5)c(-c5c(F)c(F)c(F)c(F)c5F)c5nc(c(-c6c(F)c(F)c(F)c(F)c6F)c6ccc3[nH]6)C=C5)C=C4)cc2)CC1=O
REMARK SMILES IDX 17 1 16 2 15 3 13 4 14 5 12 7 10 8 11 9 9 10 7 11 8 12 6 14
REMARK SMILES IDX 4 15 5 16 89 17 88 18 90 19 2 20 1 21 3 22 18 23 19 24 20 25
REMARK SMILES IDX 21 26 22 27 23 28 24 30 25 31 26 32 87 33 27 34 86 35 28 36
REMARK SMILES IDX 29 37 30 38 80 39 31 40 85 41 79 42 81 43 32 44 84 45 78 46
REMARK SMILES IDX 77 47 33 49 65 50 45 51 64 52 46 53 49 54 63 55 82 56 47 57
REMARK SMILES IDX 48 58 62 60 83 61 50 62 34 63 35 64 43 65 36 66 37 67 41 68
REMARK SMILES IDX 44 69 38 70 39 71 42 72 40 73 66 74 67 75 75 76 68 77 69 78
REMARK SMILES IDX 73 79 76 80 70 81 71 82 74 83 72 84 51 85 52 86 60 87 53 88
REMARK SMILES IDX 54 89 58 90 61 91 55 92 56 93 59 94 57 95
REMARK H PARENT 15 6 9 13 22 29 81 48 49 59
REMARK Flexibility Score: inf
ROOT
ATOM      1  C   UNL A   1      31.759  28.543  27.282  1.00  0.00     0.021 C 
ENDROOT
BRANCH   1   2
ATOM      2  C   UNL A   1      31.497  27.725  26.019  1.00  0.00     0.116 C 
BRANCH   2   3
ATOM      3  N   UNL A   1      32.751  27.408  25.360  1.00  0.00    -0.356 N 
ATOM      4  C   UNL A   1      33.017  26.451  24.425  1.00  0.00     0.222 C 
ATOM      5  O   UNL A   1      34.194  26.217  24.145  1.00  0.00    -0.275 OA
ATOM      6  H   UNL A   1      33.518  27.963  25.624  1.00  0.00     0.163 HD
BRANCH   4   7
ATOM      7  C   UNL A   1      31.890  25.704  23.744  1.00  0.00     0.124 C 
BRANCH   7   8
ATOM      8  C   UNL A   1      31.767  24.224  24.146  1.00  0.00     0.088 C 
ATOM      9  C   UNL A   1      30.772  23.540  23.202  1.00  0.00     0.031 C 
BRANCH   8  10
ATOM     10  N   UNL A   1      31.258  24.063  25.510  1.00  0.00    -0.353 N 
ATOM     11  C   UNL A   1      31.697  23.370  26.589  1.00  0.00     0.225 C 
ATOM     12  O   UNL A   1      30.954  23.370  27.577  1.00  0.00    -0.275 OA
ATOM     13  H   UNL A   1      30.425  24.560  25.679  1.00  0.00     0.163 HD
BRANCH  11  14
ATOM     14  C   UNL A   1      33.003  22.605  26.646  1.00  0.00     0.107 C 
ATOM     15  N   UNL A   1      34.975  22.352  25.394  1.00  0.00    -0.339 N 
ATOM     16  C   UNL A   1      34.250  23.327  26.169  1.00  0.00     0.133 C 
ATOM     17  C   UNL A   1      34.299  21.152  25.261  1.00  0.00     0.223 C 
ATOM     18  C   UNL A   1      32.933  21.301  25.868  1.00  0.00     0.115 C 
ATOM     19  O   UNL A   1      34.699  20.138  24.718  1.00  0.00    -0.275 OA
BRANCH  15  20
ATOM     20  C   UNL A   1      36.311  22.636  24.865  1.00  0.00     0.078 C 
ATOM     21  C   UNL A   1      36.260  22.966  23.376  1.00  0.00     0.031 C 
ATOM     22  C   UNL A   1      37.015  23.737  25.657  1.00  0.00     0.031 C 
ENDBRANCH  15  20
ENDBRANCH  11  14
ENDBRANCH   8  10
ENDBRANCH   7   8
ENDBRANCH   4   7
ENDBRANCH   2   3
ENDBRANCH   1   2
BRANCH   1  23
ATOM     23  C   UNL A   1      32.317  29.944  27.042  1.00  0.00     0.002 C 
BRANCH  23  24
ATOM     24  C   UNL A   1      31.470  30.818  26.118  1.00  0.00     0.002 C 
BRANCH  24  25
ATOM     25  C   UNL A   1      31.356  32.286  26.539  1.00  0.00     0.021 C 
BRANCH  25  26
ATOM     26  C   UNL A   1      32.569  32.832  27.289  1.00  0.00     0.116 C 
BRANCH  26  27
ATOM     27  N   UNL A   1      32.409  34.238  27.622  1.00  0.00    -0.352 N 
ATOM     28  C   UNL A   1      32.992  34.972  28.623  1.00  0.00     0.251 C 
ATOM     29  H   UNL A   1      31.789  34.737  27.043  1.00  0.00     0.163 HD
ATOM     30  O   UNL A   1      32.547  36.077  28.917  1.00  0.00    -0.269 OA
BRANCH  28  31
ATOM     31  C   UNL A   1      34.152  34.427  29.357  1.00  0.00     0.039 A 
ATOM     32  C   UNL A   1      33.942  33.794  30.585  1.00  0.00     0.014 A 
ATOM     33  C   UNL A   1      35.447  34.559  28.848  1.00  0.00     0.014 A 
ATOM     34  C   UNL A   1      35.024  33.244  31.274  1.00  0.00     0.010 A 
ATOM     35  C   UNL A   1      36.513  33.941  29.495  1.00  0.00     0.010 A 
ATOM     36  C   UNL A   1      36.314  33.283  30.718  1.00  0.00    -0.014 A 
BRANCH  36  37
ATOM     37  C   UNL A   1      37.465  32.637  31.402  1.00  0.00     0.031 A 
ATOM     38  C   UNL A   1      38.173  31.476  30.761  1.00  0.00     0.074 A 
ATOM     39  C   UNL A   1      37.834  33.062  32.626  1.00  0.00     0.049 A 
ATOM     40  N   UNL A   1      39.159  30.749  31.224  1.00  0.00    -0.248 NA
ATOM     41  C   UNL A   1      37.693  31.057  29.434  1.00  0.00     0.031 C 
ATOM     42  C   UNL A   1      37.200  34.153  33.369  1.00  0.00     0.029 A 
ATOM     43  N   UNL A   1      38.827  32.624  33.465  1.00  0.00    -0.354 N 
ATOM     44  C   UNL A   1      39.406  29.784  30.256  1.00  0.00     0.074 A 
ATOM     45  C   UNL A   1      38.434  29.983  29.203  1.00  0.00     0.031 C 
ATOM     46  C   UNL A   1      37.838  34.317  34.538  1.00  0.00     0.029 A 
ATOM     47  C   UNL A   1      38.893  33.316  34.651  1.00  0.00     0.049 A 
ATOM     48  H   UNL A   1      39.435  31.883  33.240  1.00  0.00     0.167 HD
ATOM     49  C   UNL A   1      40.367  28.831  30.240  1.00  0.00     0.037 A 
ATOM     50  C   UNL A   1      39.708  33.154  35.711  1.00  0.00     0.037 A 
ATOM     51  C   UNL A   1      41.347  28.653  31.281  1.00  0.00     0.049 A 
ATOM     52  C   UNL A   1      40.752  32.070  35.674  1.00  0.00     0.074 A 
ATOM     53  C   UNL A   1      42.405  27.762  31.324  1.00  0.00     0.029 A 
ATOM     54  N   UNL A   1      41.381  29.373  32.465  1.00  0.00    -0.354 N 
ATOM     55  N   UNL A   1      41.027  31.216  34.718  1.00  0.00    -0.248 NA
ATOM     56  C   UNL A   1      41.602  31.930  36.864  1.00  0.00     0.031 C 
ATOM     57  C   UNL A   1      43.039  27.898  32.562  1.00  0.00     0.029 A 
ATOM     58  C   UNL A   1      42.422  28.921  33.262  1.00  0.00     0.049 A 
ATOM     59  H   UNL A   1      40.759  30.097  32.704  1.00  0.00     0.167 HD
ATOM     60  C   UNL A   1      42.104  30.467  35.174  1.00  0.00     0.074 A 
ATOM     61  C   UNL A   1      42.440  30.976  36.487  1.00  0.00     0.031 C 
ATOM     62  C   UNL A   1      42.756  29.448  34.561  1.00  0.00     0.037 A 
BRANCH  49  63
ATOM     63  C   UNL A   1      40.411  27.898  29.062  1.00  0.00     0.064 A 
ATOM     64  C   UNL A   1      39.685  26.698  29.039  1.00  0.00     0.173 A 
ATOM     65  C   UNL A   1      41.148  28.238  27.916  1.00  0.00     0.173 A 
ATOM     66  F   UNL A   1      38.971  26.320  30.111  1.00  0.00    -0.203 F 
ATOM     67  C   UNL A   1      39.715  25.862  27.926  1.00  0.00     0.198 A 
ATOM     68  C   UNL A   1      41.148  27.417  26.792  1.00  0.00     0.198 A 
ATOM     69  F   UNL A   1      41.855  29.378  27.880  1.00  0.00    -0.203 F 
ATOM     70  F   UNL A   1      39.049  24.698  27.946  1.00  0.00    -0.200 F 
ATOM     71  C   UNL A   1      40.437  26.226  26.800  1.00  0.00     0.200 A 
ATOM     72  F   UNL A   1      41.834  27.780  25.699  1.00  0.00    -0.200 F 
ATOM     73  F   UNL A   1      40.453  25.428  25.724  1.00  0.00    -0.200 F 
ENDBRANCH  49  63
BRANCH  50  74
ATOM     74  C   UNL A   1      39.587  34.048  36.895  1.00  0.00     0.064 A 
ATOM     75  C   UNL A   1      40.260  35.277  36.939  1.00  0.00     0.173 A 
ATOM     76  C   UNL A   1      38.823  33.684  38.014  1.00  0.00     0.173 A 
ATOM     77  F   UNL A   1      41.019  35.663  35.902  1.00  0.00    -0.203 F 
ATOM     78  C   UNL A   1      40.203  36.091  38.069  1.00  0.00     0.198 A 
ATOM     79  C   UNL A   1      38.739  34.515  39.130  1.00  0.00     0.198 A 
ATOM     80  F   UNL A   1      38.154  32.522  38.023  1.00  0.00    -0.203 F 
ATOM     81  F   UNL A   1      40.907  37.230  38.107  1.00  0.00    -0.200 F 
ATOM     82  C   UNL A   1      39.439  35.711  39.161  1.00  0.00     0.200 A 
ATOM     83  F   UNL A   1      37.985  34.152  40.176  1.00  0.00    -0.200 F 
ATOM     84  F   UNL A   1      39.385  36.492  40.248  1.00  0.00    -0.200 F 
ENDBRANCH  50  74
BRANCH  62  85
ATOM     85  C   UNL A   1      43.931  28.848  35.278  1.00  0.00     0.064 A 
ATOM     86  C   UNL A   1      43.785  27.786  36.183  1.00  0.00     0.173 A 
ATOM     87  C   UNL A   1      45.229  29.318  35.026  1.00  0.00     0.173 A 
ATOM     88  F   UNL A   1      42.565  27.307  36.473  1.00  0.00    -0.203 F 
ATOM     89  C   UNL A   1      44.890  27.240  36.831  1.00  0.00     0.198 A 
ATOM     90  C   UNL A   1      46.335  28.746  35.648  1.00  0.00     0.198 A 
ATOM     91  F   UNL A   1      45.427  30.327  34.163  1.00  0.00    -0.203 F 
ATOM     92  F   UNL A   1      44.719  26.265  37.736  1.00  0.00    -0.200 F 
ATOM     93  C   UNL A   1      46.164  27.714  36.557  1.00  0.00     0.200 A 
ATOM     94  F   UNL A   1      47.567  29.194  35.367  1.00  0.00    -0.200 F 
ATOM     95  F   UNL A   1      47.227  27.181  37.175  1.00  0.00    -0.200 F 
ENDBRANCH  62  85
ENDBRANCH  36  37
ENDBRANCH  28  31
ENDBRANCH  26  27
ENDBRANCH  25  26
ENDBRANCH  24  25
ENDBRANCH  23  24
ENDBRANCH   1  23
TORSDOF 17
ENDMDL
MODEL 3
REMARK VINA RESULT:     -11.5      1.475      2.674
REMARK SMILES CC(C)N1C[C@@H](C(=O)N[C@@H](C)CC(=O)NCCCCCCNC(=O)c2ccc(-c3c4nc(c(-c5c(F)c(F)c(F)c(F)c5F)c5ccc([nH]5)c(-c5c(F)c(F)c(F)c(F)c5F)c5nc(c(-c6c(F)c(F)c(F)c(F)c6F)c6ccc3[nH]6)C=C5)C=C4)cc2)CC1=O
REMARK SMILES IDX 17 1 16 2 15 3 13 4 14 5 12 7 10 8 11 9 9 10 7 11 8 12 6 14
REMARK SMILES IDX 4 15 5 16 89 17 88 18 90 19 2 20 1 21 3 22 18 23 19 24 20 25
REMARK SMILES IDX 21 26 22 27 23 28 24 30 25 31 26 32 87 33 27 34 86 35 28 36
REMARK SMILES IDX 29 37 30 38 80 39 31 40 85 41 79 42 81 43 32 44 84 45 78 46
REMARK SMILES IDX 77 47 33 49 65 50 45 51 64 52 46 53 49 54 63 55 82 56 47 57
REMARK SMILES IDX 48 58 62 60 83 61 50 62 34 63 35 64 43 65 36 66 37 67 41 68
REMARK SMILES IDX 44 69 38 70 39 71 42 72 40 73 66 74 67 75 75 76 68 77 69 78
REMARK SMILES IDX 73 79 76 80 70 81 71 82 74 83 72 84 51 85 52 86 60 87 53 88
REMARK SMILES IDX 54 89 58 90 61 91 55 92 56 93 59 94 57 95
REMARK H PARENT 15 6 9 13 22 29 81 48 49 59
REMARK Flexibility Score: inf
ROOT
ATOM      1  C   UNL A   1      31.800  28.638  27.423  1.00  0.00     0.021 C 
ENDROOT
BRANCH   1   2
ATOM      2  C   UNL A   1      32.147  27.490  26.477  1.00  0.00     0.116 C 
BRANCH   2   3
ATOM      3  N   UNL A   1      31.013  27.183  25.625  1.00  0.00    -0.356 N 
ATOM      4  C   UNL A   1      30.351  26.003  25.461  1.00  0.00     0.222 C 
ATOM      5  O   UNL A   1      29.542  25.908  24.536  1.00  0.00    -0.275 OA
ATOM      6  H   UNL A   1      30.673  27.936  25.090  1.00  0.00     0.163 HD
BRANCH   4   7
ATOM      7  C   UNL A   1      30.600  24.843  26.401  1.00  0.00     0.124 C 
BRANCH   7   8
ATOM      8  C   UNL A   1      31.426  23.694  25.799  1.00  0.00     0.088 C 
ATOM      9  C   UNL A   1      30.650  22.384  25.977  1.00  0.00     0.031 C 
BRANCH   8  10
ATOM     10  N   UNL A   1      32.718  23.533  26.469  1.00  0.00    -0.353 N 
ATOM     11  C   UNL A   1      34.002  23.628  26.045  1.00  0.00     0.225 C 
ATOM     12  O   UNL A   1      34.873  23.323  26.868  1.00  0.00    -0.275 OA
ATOM     13  H   UNL A   1      32.639  23.309  27.424  1.00  0.00     0.163 HD
BRANCH  11  14
ATOM     14  C   UNL A   1      34.419  24.060  24.654  1.00  0.00     0.107 C 
ATOM     15  N   UNL A   1      33.517  25.171  22.790  1.00  0.00    -0.339 N 
ATOM     16  C   UNL A   1      33.900  25.398  24.160  1.00  0.00     0.133 C 
ATOM     17  C   UNL A   1      33.654  23.850  22.400  1.00  0.00     0.223 C 
ATOM     18  C   UNL A   1      34.037  23.033  23.600  1.00  0.00     0.115 C 
ATOM     19  O   UNL A   1      33.468  23.387  21.289  1.00  0.00    -0.275 OA
BRANCH  15  20
ATOM     20  C   UNL A   1      33.083  26.270  21.925  1.00  0.00     0.078 C 
ATOM     21  C   UNL A   1      31.562  26.321  21.813  1.00  0.00     0.031 C 
ATOM     22  C   UNL A   1      33.656  27.613  22.378  1.00  0.00     0.031 C 
ENDBRANCH  15  20
ENDBRANCH  11  14
ENDBRANCH   8  10
ENDBRANCH   7   8
ENDBRANCH   4   7
ENDBRANCH   2   3
ENDBRANCH   1   2
BRANCH   1  23
ATOM     23  C   UNL A   1      32.365  29.999  27.025  1.00  0.00     0.002 C 
BRANCH  23  24
ATOM     24  C   UNL A   1      31.446  30.837  26.136  1.00  0.00     0.002 C 
BRANCH  24  25
ATOM     25  C   UNL A   1      31.367  32.322  26.502  1.00  0.00     0.021 C 
BRANCH  25  26
ATOM     26  C   UNL A   1      32.578  32.858  27.262  1.00  0.00     0.116 C 
BRANCH  26  27
ATOM     27  N   UNL A   1      32.410  34.255  27.627  1.00  0.00    -0.352 N 
ATOM     28  C   UNL A   1      32.984  34.967  28.650  1.00  0.00     0.251 C 
ATOM     29  H   UNL A   1      31.792  34.766  27.056  1.00  0.00     0.163 HD
ATOM     30  O   UNL A   1      32.533  36.064  28.966  1.00  0.00    -0.269 OA
BRANCH  28  31
ATOM     31  C   UNL A   1      34.141  34.410  29.378  1.00  0.00     0.039 A 
ATOM     32  C   UNL A   1      33.928  33.774  30.605  1.00  0.00     0.014 A 
ATOM     33  C   UNL A   1      35.436  34.531  28.867  1.00  0.00     0.014 A 
ATOM     34  C   UNL A   1      35.007  33.212  31.289  1.00  0.00     0.010 A 
ATOM     35  C   UNL A   1      36.498  33.902  29.509  1.00  0.00     0.010 A 
ATOM     36  C   UNL A   1      36.296  33.241  30.730  1.00  0.00    -0.014 A 
BRANCH  36  37
ATOM     37  C   UNL A   1      37.443  32.583  31.408  1.00  0.00     0.031 A 
ATOM     38  C   UNL A   1      38.154  31.433  30.750  1.00  0.00     0.074 A 
ATOM     39  C   UNL A   1      37.805  32.985  32.643  1.00  0.00     0.049 A 
ATOM     40  N   UNL A   1      39.138  30.698  31.206  1.00  0.00    -0.248 NA
ATOM     41  C   UNL A   1      37.682  31.039  29.413  1.00  0.00     0.031 C 
ATOM     42  C   UNL A   1      37.167  34.063  33.401  1.00  0.00     0.029 A 
ATOM     43  N   UNL A   1      38.793  32.532  33.479  1.00  0.00    -0.354 N 
ATOM     44  C   UNL A   1      39.390  29.750  30.222  1.00  0.00     0.074 A 
ATOM     45  C   UNL A   1      38.424  29.968  29.167  1.00  0.00     0.031 C 
ATOM     46  C   UNL A   1      37.798  34.206  34.577  1.00  0.00     0.029 A 
ATOM     47  C   UNL A   1      38.853  33.202  34.678  1.00  0.00     0.049 A 
ATOM     48  H   UNL A   1      39.402  31.795  33.244  1.00  0.00     0.167 HD
ATOM     49  C   UNL A   1      40.351  28.797  30.194  1.00  0.00     0.037 A 
ATOM     50  C   UNL A   1      39.661  33.021  35.740  1.00  0.00     0.037 A 
ATOM     51  C   UNL A   1      41.325  28.600  31.237  1.00  0.00     0.049 A 
ATOM     52  C   UNL A   1      40.705  31.937  35.688  1.00  0.00     0.074 A 
ATOM     53  C   UNL A   1      42.382  27.708  31.271  1.00  0.00     0.029 A 
ATOM     54  N   UNL A   1      41.352  29.299  32.435  1.00  0.00    -0.354 N 
ATOM     55  N   UNL A   1      40.986  31.101  34.719  1.00  0.00    -0.248 NA
ATOM     56  C   UNL A   1      41.548  31.775  36.881  1.00  0.00     0.031 C 
ATOM     57  C   UNL A   1      43.009  27.821  32.515  1.00  0.00     0.029 A 
ATOM     58  C   UNL A   1      42.388  28.832  33.229  1.00  0.00     0.049 A 
ATOM     59  H   UNL A   1      40.729  30.019  32.684  1.00  0.00     0.167 HD
ATOM     60  C   UNL A   1      42.060  30.342  35.168  1.00  0.00     0.074 A 
ATOM     61  C   UNL A   1      42.389  30.828  36.491  1.00  0.00     0.031 C 
ATOM     62  C   UNL A   1      42.715  29.335  34.540  1.00  0.00     0.037 A 
BRANCH  49  63
ATOM     63  C   UNL A   1      40.402  27.886  29.000  1.00  0.00     0.064 A 
ATOM     64  C   UNL A   1      39.651  26.702  28.938  1.00  0.00     0.173 A 
ATOM     65  C   UNL A   1      41.170  28.232  27.877  1.00  0.00     0.173 A 
ATOM     66  F   UNL A   1      38.906  26.319  29.987  1.00  0.00    -0.203 F 
ATOM     67  C   UNL A   1      39.688  25.887  27.810  1.00  0.00     0.198 A 
ATOM     68  C   UNL A   1      41.178  27.432  26.737  1.00  0.00     0.198 A 
ATOM     69  F   UNL A   1      41.901  29.357  27.878  1.00  0.00    -0.203 F 
ATOM     70  F   UNL A   1      38.999  24.737  27.794  1.00  0.00    -0.200 F 
ATOM     71  C   UNL A   1      40.443  26.257  26.707  1.00  0.00     0.200 A 
ATOM     72  F   UNL A   1      41.895  27.801  25.667  1.00  0.00    -0.200 F 
ATOM     73  F   UNL A   1      40.465  25.479  25.617  1.00  0.00    -0.200 F 
ENDBRANCH  49  63
BRANCH  50  74
ATOM     74  C   UNL A   1      39.533  33.893  36.939  1.00  0.00     0.064 A 
ATOM     75  C   UNL A   1      38.778  33.484  38.047  1.00  0.00     0.173 A 
ATOM     76  C   UNL A   1      40.136  35.158  36.993  1.00  0.00     0.173 A 
ATOM     77  F   UNL A   1      38.165  32.291  38.036  1.00  0.00    -0.203 F 
ATOM     78  C   UNL A   1      38.600  34.320  39.147  1.00  0.00     0.198 A 
ATOM     79  C   UNL A   1      39.986  35.980  38.110  1.00  0.00     0.198 A 
ATOM     80  F   UNL A   1      40.875  35.597  35.964  1.00  0.00    -0.203 F 
ATOM     81  F   UNL A   1      37.821  33.928  40.164  1.00  0.00    -0.200 F 
ATOM     82  C   UNL A   1      39.208  35.565  39.179  1.00  0.00     0.200 A 
ATOM     83  F   UNL A   1      40.590  37.175  38.144  1.00  0.00    -0.200 F 
ATOM     84  F   UNL A   1      39.037  36.370  40.237  1.00  0.00    -0.200 F 
ENDBRANCH  50  74
BRANCH  62  85
ATOM     85  C   UNL A   1      43.886  28.721  35.253  1.00  0.00     0.064 A 
ATOM     86  C   UNL A   1      43.740  27.615  36.103  1.00  0.00     0.173 A 
ATOM     87  C   UNL A   1      45.180  29.226  35.051  1.00  0.00     0.173 A 
ATOM     88  F   UNL A   1      42.523  27.103  36.344  1.00  0.00    -0.203 F 
ATOM     89  C   UNL A   1      44.841  27.058  36.748  1.00  0.00     0.198 A 
ATOM     90  C   UNL A   1      46.283  28.644  35.668  1.00  0.00     0.198 A 
ATOM     91  F   UNL A   1      45.377  30.278  34.241  1.00  0.00    -0.203 F 
ATOM     92  F   UNL A   1      44.670  26.038  37.602  1.00  0.00    -0.200 F 
ATOM     93  C   UNL A   1      46.112  27.566  36.523  1.00  0.00     0.200 A 
ATOM     94  F   UNL A   1      47.512  29.125  35.435  1.00  0.00    -0.200 F 
ATOM     95  F   UNL A   1      47.171  27.023  37.138  1.00  0.00    -0.200 F 
ENDBRANCH  62  85
ENDBRANCH  36  37
ENDBRANCH  28  31
ENDBRANCH  26  27
ENDBRANCH  25  26
ENDBRANCH  24  25
ENDBRANCH  23  24
ENDBRANCH   1  23
TORSDOF 17
ENDMDL
