MODEL 1
REMARK VINA RESULT:     -10.5      0.000      0.000
REMARK SMILES Cc1oc2c(C)c3oc(=O)c(CCC(=O)N[C@H](Cc4ccc(Cl)cc4)C(=O)NCCCCCCNC(=O)c4ccc(-c5c6nc(c(-c7c(F)c(F)c(F)c(F)c7F)c7ccc([nH]7)c(-c7c(F)c(F)c(F)c(F)c7F)c7nc(c(-c8c(F)c(F)c(F)c(F)c8F)c8ccc5[nH]8)C=C7)C=C6)cc4)c(C)c3cc2c1C
REMARK SMILES IDX 30 1 29 2 28 3 26 4 27 5 17 7 16 8 14 9 15 10 13 12 12 13
REMARK SMILES IDX 11 14 1 15 2 16 3 17 106 18 4 19 105 20 107 21 5 22 104 23
REMARK SMILES IDX 6 24 7 25 103 26 8 27 101 28 9 29 102 30 10 31 18 32 19 33
REMARK SMILES IDX 20 34 25 35 21 36 24 37 22 38 23 39 31 40 32 41 33 42 34 43
REMARK SMILES IDX 35 44 36 45 37 47 38 48 39 49 100 50 40 51 99 52 41 53 42 54
REMARK SMILES IDX 43 55 93 56 44 57 98 58 92 59 94 60 45 61 97 62 91 63 90 64
REMARK SMILES IDX 46 66 78 67 58 68 77 69 59 70 62 71 76 72 95 73 60 74 61 75
REMARK SMILES IDX 75 77 96 78 63 79 47 80 48 81 56 82 49 83 50 84 54 85 57 86
REMARK SMILES IDX 51 87 52 88 55 89 53 90 79 91 80 92 88 93 81 94 82 95 86 96
REMARK SMILES IDX 89 97 83 98 84 99 87 100 85 101 64 102 65 103 73 104 66 105
REMARK SMILES IDX 67 106 71 107 74 108 68 109 69 110 72 111 70 112
REMARK H PARENT 28 6 16 11 35 46 94 65 62 76
REMARK Flexibility Score: inf
ROOT
ATOM      1  C   UNL A   1      40.238  28.894  30.376  1.00  0.00     0.021 C 
ENDROOT
BRANCH   1   2
ATOM      2  C   UNL A   1      38.928  28.109  30.431  1.00  0.00     0.116 C 
BRANCH   2   3
ATOM      3  N   UNL A   1      37.755  28.946  30.841  1.00  0.00    -0.354 N 
ATOM      4  C   UNL A   1      37.197  30.265  30.965  1.00  0.00     0.242 C 
ATOM      5  O   UNL A   1      36.053  29.809  31.332  1.00  0.00    -0.273 OA
ATOM      6  H   UNL A   1      37.067  28.322  31.168  1.00  0.00     0.163 HD
BRANCH   4   7
ATOM      7  C   UNL A   1      37.802  32.344  30.715  1.00  0.00     0.175 C 
BRANCH   7   8
ATOM      8  N   UNL A   1      36.984  33.667  30.109  1.00  0.00    -0.344 N 
ATOM      9  C   UNL A   1      36.054  33.776  29.099  1.00  0.00     0.220 C 
ATOM     10  O   UNL A   1      35.555  34.878  28.869  1.00  0.00    -0.275 OA
ATOM     11  H   UNL A   1      37.205  34.519  30.552  1.00  0.00     0.164 HD
BRANCH   9  12
ATOM     12  C   UNL A   1      35.719  32.558  28.243  1.00  0.00     0.105 C 
BRANCH  12  13
ATOM     13  C   UNL A   1      34.369  31.926  28.596  1.00  0.00     0.053 C 
BRANCH  13  14
ATOM     14  C   UNL A   1      33.964  31.100  27.419  1.00  0.00     0.042 A 
ATOM     15  C   UNL A   1      33.111  23.443  21.780  1.00  0.00     0.088 C 
ATOM     16  C   UNL A   1      32.888  24.244  23.016  1.00  0.00     0.105 A 
ATOM     17  O   UNL A   1      31.708  24.952  23.049  1.00  0.00    -0.461 OA
ATOM     18  C   UNL A   1      33.789  24.487  24.061  1.00  0.00    -0.002 A 
ATOM     19  C   UNL A   1      31.799  25.892  24.039  1.00  0.00     0.141 A 
ATOM     20  C   UNL A   1      33.315  25.624  24.768  1.00  0.00     0.025 A 
ATOM     21  C   UNL A   1      35.139  23.895  24.255  1.00  0.00     0.049 C 
ATOM     22  C   UNL A   1      30.883  27.470  24.238  1.00  0.00     0.036 A 
ATOM     23  C   UNL A   1      34.140  26.817  25.786  1.00  0.00     0.024 A 
ATOM     24  C   UNL A   1      29.622  27.326  23.343  1.00  0.00     0.052 C 
ATOM     25  C   UNL A   1      31.885  28.868  25.319  1.00  0.00     0.145 A 
ATOM     26  C   UNL A   1      33.552  28.395  26.121  1.00  0.00     0.022 A 
ATOM     27  O   UNL A   1      31.383  30.532  25.902  1.00  0.00    -0.422 OA
ATOM     28  C   UNL A   1      34.530  29.668  27.145  1.00  0.00    -0.030 A 
ATOM     29  C   UNL A   1      32.280  31.791  26.799  1.00  0.00     0.339 A 
ATOM     30  C   UNL A   1      35.731  29.104  27.882  1.00  0.00     0.046 C 
ATOM     31  O   UNL A   1      31.738  32.816  27.181  1.00  0.00    -0.246 OA
ENDBRANCH  13  14
ENDBRANCH  12  13
ENDBRANCH   9  12
ENDBRANCH   7   8
BRANCH   7  32
ATOM     32  C   UNL A   1      39.386  33.092  30.386  1.00  0.00     0.070 C 
BRANCH  32  33
ATOM     33  C   UNL A   1      40.590  32.518  31.181  1.00  0.00    -0.045 A 
ATOM     34  C   UNL A   1      41.940  32.369  30.045  1.00  0.00     0.005 A 
ATOM     35  C   UNL A   1      40.710  33.731  32.496  1.00  0.00     0.005 A 
ATOM     36  C   UNL A   1      43.329  33.482  30.035  1.00  0.00     0.021 A 
ATOM     37  C   UNL A   1      42.275  34.996  32.455  1.00  0.00     0.021 A 
ATOM     38  C   UNL A   1      43.536  34.765  31.200  1.00  0.00     0.041 A 
ATOM     39  Cl  UNL A   1      44.965  35.713  31.182  1.00  0.00    -0.084 Cl
ENDBRANCH  32  33
ENDBRANCH   7  32
ENDBRANCH   4   7
ENDBRANCH   2   3
ENDBRANCH   1   2
BRANCH   1  40
ATOM     40  C   UNL A   1      40.956  29.018  29.051  1.00  0.00     0.002 C 
BRANCH  40  41
ATOM     41  C   UNL A   1      40.270  28.341  27.875  1.00  0.00     0.002 C 
BRANCH  41  42
ATOM     42  C   UNL A   1      40.672  28.833  26.471  1.00  0.00     0.021 C 
BRANCH  42  43
ATOM     43  C   UNL A   1      41.651  27.944  25.681  1.00  0.00     0.116 C 
BRANCH  43  44
ATOM     44  N   UNL A   1      41.689  26.595  26.210  1.00  0.00    -0.352 N 
ATOM     45  C   UNL A   1      42.790  26.008  26.775  1.00  0.00     0.251 C 
ATOM     46  H   UNL A   1      40.863  26.062  26.159  1.00  0.00     0.163 HD
ATOM     47  O   UNL A   1      43.225  24.963  26.300  1.00  0.00    -0.269 OA
BRANCH  45  48
ATOM     48  C   UNL A   1      43.367  26.547  28.032  1.00  0.00     0.039 A 
ATOM     49  C   UNL A   1      44.362  27.527  27.919  1.00  0.00     0.014 A 
ATOM     50  C   UNL A   1      43.093  25.981  29.281  1.00  0.00     0.014 A 
ATOM     51  C   UNL A   1      45.087  27.930  29.040  1.00  0.00     0.010 A 
ATOM     52  C   UNL A   1      43.825  26.385  30.405  1.00  0.00     0.010 A 
ATOM     53  C   UNL A   1      44.825  27.363  30.292  1.00  0.00    -0.014 A 
BRANCH  53  54
ATOM     54  C   UNL A   1      45.501  27.961  31.463  1.00  0.00     0.031 A 
ATOM     55  C   UNL A   1      44.591  28.776  32.332  1.00  0.00     0.074 A 
ATOM     56  C   UNL A   1      46.623  27.448  32.018  1.00  0.00     0.049 A 
ATOM     57  N   UNL A   1      43.816  28.246  33.233  1.00  0.00    -0.248 NA
ATOM     58  C   UNL A   1      44.277  30.174  32.039  1.00  0.00     0.031 C 
ATOM     59  C   UNL A   1      46.938  26.019  32.090  1.00  0.00     0.029 A 
ATOM     60  N   UNL A   1      47.604  28.047  32.782  1.00  0.00    -0.354 N 
ATOM     61  C   UNL A   1      42.898  29.209  33.613  1.00  0.00     0.074 A 
ATOM     62  C   UNL A   1      43.224  30.391  32.847  1.00  0.00     0.031 C 
ATOM     63  C   UNL A   1      47.933  25.837  32.983  1.00  0.00     0.029 A 
ATOM     64  C   UNL A   1      48.432  27.134  33.444  1.00  0.00     0.049 A 
ATOM     65  H   UNL A   1      47.711  29.023  32.855  1.00  0.00     0.167 HD
ATOM     66  C   UNL A   1      41.931  28.971  34.539  1.00  0.00     0.037 A 
ATOM     67  C   UNL A   1      48.950  27.343  34.691  1.00  0.00     0.037 A 
ATOM     68  C   UNL A   1      41.936  27.657  35.112  1.00  0.00     0.049 A 
ATOM     69  C   UNL A   1      47.699  27.280  35.539  1.00  0.00     0.074 A 
ATOM     70  C   UNL A   1      41.252  26.470  34.970  1.00  0.00     0.029 A 
ATOM     71  N   UNL A   1      42.875  27.397  36.082  1.00  0.00    -0.354 N 
ATOM     72  N   UNL A   1      47.059  26.196  35.893  1.00  0.00    -0.248 NA
ATOM     73  C   UNL A   1      46.932  28.520  35.670  1.00  0.00     0.031 C 
ATOM     74  C   UNL A   1      42.132  25.464  35.489  1.00  0.00     0.029 A 
ATOM     75  C   UNL A   1      43.300  26.109  35.892  1.00  0.00     0.049 A 
ATOM     76  H   UNL A   1      43.183  28.018  36.780  1.00  0.00     0.167 HD
ATOM     77  C   UNL A   1      45.726  26.589  36.031  1.00  0.00     0.074 A 
ATOM     78  C   UNL A   1      45.719  28.029  35.881  1.00  0.00     0.031 C 
ATOM     79  C   UNL A   1      44.678  25.717  36.079  1.00  0.00     0.037 A 
BRANCH  66  80
ATOM     80  C   UNL A   1      41.065  29.995  35.154  1.00  0.00     0.064 A 
ATOM     81  C   UNL A   1      39.857  30.286  34.500  1.00  0.00     0.173 A 
ATOM     82  C   UNL A   1      41.489  30.851  36.172  1.00  0.00     0.173 A 
ATOM     83  F   UNL A   1      39.427  29.490  33.506  1.00  0.00    -0.203 F 
ATOM     84  C   UNL A   1      39.126  31.425  34.809  1.00  0.00     0.198 A 
ATOM     85  C   UNL A   1      40.742  31.986  36.494  1.00  0.00     0.198 A 
ATOM     86  F   UNL A   1      42.644  30.624  36.814  1.00  0.00    -0.203 F 
ATOM     87  F   UNL A   1      38.016  31.710  34.115  1.00  0.00    -0.200 F 
ATOM     88  C   UNL A   1      39.575  32.282  35.799  1.00  0.00     0.200 A 
ATOM     89  F   UNL A   1      41.172  32.822  37.451  1.00  0.00    -0.200 F 
ATOM     90  F   UNL A   1      38.890  33.401  36.073  1.00  0.00    -0.200 F 
ENDBRANCH  66  80
BRANCH  67  91
ATOM     91  C   UNL A   1      49.966  28.442  34.822  1.00  0.00     0.064 A 
ATOM     92  C   UNL A   1      51.212  28.142  35.413  1.00  0.00     0.173 A 
ATOM     93  C   UNL A   1      49.796  29.772  34.403  1.00  0.00     0.173 A 
ATOM     94  F   UNL A   1      51.420  26.939  35.969  1.00  0.00    -0.203 F 
ATOM     95  C   UNL A   1      52.263  29.060  35.435  1.00  0.00     0.198 A 
ATOM     96  C   UNL A   1      50.859  30.682  34.394  1.00  0.00     0.198 A 
ATOM     97  F   UNL A   1      48.608  30.218  33.975  1.00  0.00    -0.203 F 
ATOM     98  F   UNL A   1      53.444  28.708  35.962  1.00  0.00    -0.200 F 
ATOM     99  C   UNL A   1      52.099  30.317  34.886  1.00  0.00     0.200 A 
ATOM    100  F   UNL A   1      50.682  31.906  33.876  1.00  0.00    -0.200 F 
ATOM    101  F   UNL A   1      53.128  31.174  34.834  1.00  0.00    -0.200 F 
ENDBRANCH  67  91
BRANCH  79 102
ATOM    102  C   UNL A   1      45.028  24.272  36.123  1.00  0.00     0.064 A 
ATOM    103  C   UNL A   1      45.175  23.547  34.935  1.00  0.00     0.173 A 
ATOM    104  C   UNL A   1      45.298  23.618  37.336  1.00  0.00     0.173 A 
ATOM    105  F   UNL A   1      44.938  24.132  33.750  1.00  0.00    -0.203 F 
ATOM    106  C   UNL A   1      45.611  22.227  34.957  1.00  0.00     0.198 A 
ATOM    107  C   UNL A   1      45.762  22.307  37.351  1.00  0.00     0.198 A 
ATOM    108  F   UNL A   1      45.154  24.258  38.509  1.00  0.00    -0.203 F 
ATOM    109  F   UNL A   1      45.765  21.556  33.807  1.00  0.00    -0.200 F 
ATOM    110  C   UNL A   1      45.923  21.614  36.162  1.00  0.00     0.200 A 
ATOM    111  F   UNL A   1      46.084  21.724  38.516  1.00  0.00    -0.200 F 
ATOM    112  F   UNL A   1      46.397  20.361  36.175  1.00  0.00    -0.200 F 
ENDBRANCH  79 102
ENDBRANCH  53  54
ENDBRANCH  45  48
ENDBRANCH  43  44
ENDBRANCH  42  43
ENDBRANCH  41  42
ENDBRANCH  40  41
ENDBRANCH   1  40
TORSDOF 19
ENDMDL
MODEL 2
REMARK VINA RESULT:     -10.4      4.964     11.120
REMARK SMILES Cc1oc2c(C)c3oc(=O)c(CCC(=O)N[C@H](Cc4ccc(Cl)cc4)C(=O)NCCCCCCNC(=O)c4ccc(-c5c6nc(c(-c7c(F)c(F)c(F)c(F)c7F)c7ccc([nH]7)c(-c7c(F)c(F)c(F)c(F)c7F)c7nc(c(-c8c(F)c(F)c(F)c(F)c8F)c8ccc5[nH]8)C=C7)C=C6)cc4)c(C)c3cc2c1C
REMARK SMILES IDX 30 1 29 2 28 3 26 4 27 5 17 7 16 8 14 9 15 10 13 12 12 13
REMARK SMILES IDX 11 14 1 15 2 16 3 17 106 18 4 19 105 20 107 21 5 22 104 23
REMARK SMILES IDX 6 24 7 25 103 26 8 27 101 28 9 29 102 30 10 31 18 32 19 33
REMARK SMILES IDX 20 34 25 35 21 36 24 37 22 38 23 39 31 40 32 41 33 42 34 43
REMARK SMILES IDX 35 44 36 45 37 47 38 48 39 49 100 50 40 51 99 52 41 53 42 54
REMARK SMILES IDX 43 55 93 56 44 57 98 58 92 59 94 60 45 61 97 62 91 63 90 64
REMARK SMILES IDX 46 66 78 67 58 68 77 69 59 70 62 71 76 72 95 73 60 74 61 75
REMARK SMILES IDX 75 77 96 78 63 79 47 80 48 81 56 82 49 83 50 84 54 85 57 86
REMARK SMILES IDX 51 87 52 88 55 89 53 90 79 91 80 92 88 93 81 94 82 95 86 96
REMARK SMILES IDX 89 97 83 98 84 99 87 100 85 101 64 102 65 103 73 104 66 105
REMARK SMILES IDX 67 106 71 107 74 108 68 109 69 110 72 111 70 112
REMARK H PARENT 28 6 16 11 35 46 94 65 62 76
REMARK Flexibility Score: inf
ROOT
ATOM      1  C   UNL A   1      44.952  31.869  27.286  1.00  0.00     0.021 C 
ENDROOT
BRANCH   1   2
ATOM      2  C   UNL A   1      46.297  31.711  27.997  1.00  0.00     0.116 C 
BRANCH   2   3
ATOM      3  N   UNL A   1      46.836  30.315  27.935  1.00  0.00    -0.354 N 
ATOM      4  C   UNL A   1      47.001  29.117  27.158  1.00  0.00     0.242 C 
ATOM      5  O   UNL A   1      47.736  28.566  28.057  1.00  0.00    -0.273 OA
ATOM      6  H   UNL A   1      47.266  30.143  28.805  1.00  0.00     0.163 HD
BRANCH   4   7
ATOM      7  C   UNL A   1      46.375  28.295  25.239  1.00  0.00     0.175 C 
BRANCH   7   8
ATOM      8  N   UNL A   1      45.271  27.103  24.855  1.00  0.00    -0.344 N 
ATOM      9  C   UNL A   1      44.483  26.303  25.652  1.00  0.00     0.220 C 
ATOM     10  O   UNL A   1      43.702  25.517  25.116  1.00  0.00    -0.275 OA
ATOM     11  H   UNL A   1      45.165  26.944  23.889  1.00  0.00     0.164 HD
BRANCH   9  12
ATOM     12  C   UNL A   1      44.644  26.352  27.169  1.00  0.00     0.105 C 
BRANCH  12  13
ATOM     13  C   UNL A   1      44.843  24.970  27.800  1.00  0.00     0.053 C 
BRANCH  13  14
ATOM     14  C   UNL A   1      46.276  24.893  28.214  1.00  0.00     0.042 A 
ATOM     15  C   UNL A   1      55.788  24.769  27.403  1.00  0.00     0.088 C 
ATOM     16  C   UNL A   1      54.431  25.379  27.321  1.00  0.00     0.105 A 
ATOM     17  O   UNL A   1      54.051  26.110  28.422  1.00  0.00    -0.461 OA
ATOM     18  C   UNL A   1      53.449  25.170  26.343  1.00  0.00    -0.002 A 
ATOM     19  C   UNL A   1      52.697  26.299  28.367  1.00  0.00     0.141 A 
ATOM     20  C   UNL A   1      52.210  25.588  26.897  1.00  0.00     0.025 A 
ATOM     21  C   UNL A   1      53.572  24.394  25.082  1.00  0.00     0.049 C 
ATOM     22  C   UNL A   1      51.511  26.655  29.722  1.00  0.00     0.036 A 
ATOM     23  C   UNL A   1      50.535  25.140  26.530  1.00  0.00     0.024 A 
ATOM     24  C   UNL A   1      52.377  27.199  30.890  1.00  0.00     0.052 C 
ATOM     25  C   UNL A   1      49.614  26.042  29.331  1.00  0.00     0.145 A 
ATOM     26  C   UNL A   1      49.214  25.314  27.612  1.00  0.00     0.022 A 
ATOM     27  O   UNL A   1      48.057  26.258  30.275  1.00  0.00    -0.422 OA
ATOM     28  C   UNL A   1      47.451  24.727  27.195  1.00  0.00    -0.030 A 
ATOM     29  C   UNL A   1      46.398  25.669  29.969  1.00  0.00     0.339 A 
ATOM     30  C   UNL A   1      47.231  24.354  25.741  1.00  0.00     0.046 C 
ATOM     31  O   UNL A   1      45.459  25.996  30.679  1.00  0.00    -0.246 OA
ENDBRANCH  13  14
ENDBRANCH  12  13
ENDBRANCH   9  12
ENDBRANCH   7   8
BRANCH   7  32
ATOM     32  C   UNL A   1      47.241  28.079  23.696  1.00  0.00     0.070 C 
BRANCH  32  33
ATOM     33  C   UNL A   1      48.332  26.975  23.674  1.00  0.00    -0.045 A 
ATOM     34  C   UNL A   1      48.818  26.757  21.985  1.00  0.00     0.005 A 
ATOM     35  C   UNL A   1      49.518  27.678  24.821  1.00  0.00     0.005 A 
ATOM     36  C   UNL A   1      50.358  27.362  21.332  1.00  0.00     0.021 A 
ATOM     37  C   UNL A   1      51.244  28.378  24.059  1.00  0.00     0.021 A 
ATOM     38  C   UNL A   1      51.572  28.145  22.311  1.00  0.00     0.041 A 
ATOM     39  Cl  UNL A   1      53.075  28.590  21.615  1.00  0.00    -0.084 Cl
ENDBRANCH  32  33
ENDBRANCH   7  32
ENDBRANCH   4   7
ENDBRANCH   2   3
ENDBRANCH   1   2
BRANCH   1  40
ATOM     40  C   UNL A   1      44.946  32.159  25.802  1.00  0.00     0.002 C 
BRANCH  40  41
ATOM     41  C   UNL A   1      43.890  33.149  25.338  1.00  0.00     0.002 C 
BRANCH  41  42
ATOM     42  C   UNL A   1      44.399  34.526  24.870  1.00  0.00     0.021 C 
BRANCH  42  43
ATOM     43  C   UNL A   1      45.690  35.046  25.528  1.00  0.00     0.116 C 
BRANCH  43  44
ATOM     44  N   UNL A   1      45.418  36.134  26.446  1.00  0.00    -0.352 N 
ATOM     45  C   UNL A   1      44.315  36.219  27.253  1.00  0.00     0.251 C 
ATOM     46  H   UNL A   1      46.074  36.867  26.491  1.00  0.00     0.163 HD
ATOM     47  O   UNL A   1      43.574  37.193  27.159  1.00  0.00    -0.269 OA
BRANCH  45  48
ATOM     48  C   UNL A   1      44.092  35.220  28.328  1.00  0.00     0.039 A 
ATOM     49  C   UNL A   1      42.795  34.713  28.482  1.00  0.00     0.014 A 
ATOM     50  C   UNL A   1      45.067  34.927  29.288  1.00  0.00     0.014 A 
ATOM     51  C   UNL A   1      42.469  33.931  29.590  1.00  0.00     0.010 A 
ATOM     52  C   UNL A   1      44.736  34.144  30.401  1.00  0.00     0.010 A 
ATOM     53  C   UNL A   1      43.435  33.640  30.558  1.00  0.00    -0.014 A 
BRANCH  53  54
ATOM     54  C   UNL A   1      43.074  32.662  31.607  1.00  0.00     0.031 A 
ATOM     55  C   UNL A   1      41.724  32.901  32.212  1.00  0.00     0.074 A 
ATOM     56  C   UNL A   1      43.592  31.414  31.671  1.00  0.00     0.049 A 
ATOM     57  N   UNL A   1      40.620  32.493  31.656  1.00  0.00    -0.248 NA
ATOM     58  C   UNL A   1      41.513  33.856  33.299  1.00  0.00     0.031 C 
ATOM     59  C   UNL A   1      43.955  30.602  30.506  1.00  0.00     0.029 A 
ATOM     60  N   UNL A   1      43.726  30.550  32.739  1.00  0.00    -0.354 N 
ATOM     61  C   UNL A   1      39.572  33.142  32.283  1.00  0.00     0.074 A 
ATOM     62  C   UNL A   1      40.174  33.978  33.298  1.00  0.00     0.031 C 
ATOM     63  C   UNL A   1      44.112  29.321  30.902  1.00  0.00     0.029 A 
ATOM     64  C   UNL A   1      44.007  29.233  32.360  1.00  0.00     0.049 A 
ATOM     65  H   UNL A   1      43.633  30.833  33.677  1.00  0.00     0.167 HD
ATOM     66  C   UNL A   1      38.274  32.945  31.928  1.00  0.00     0.037 A 
ATOM     67  C   UNL A   1      43.528  28.134  33.016  1.00  0.00     0.037 A 
ATOM     68  C   UNL A   1      38.060  32.003  30.870  1.00  0.00     0.049 A 
ATOM     69  C   UNL A   1      42.052  28.227  32.700  1.00  0.00     0.074 A 
ATOM     70  C   UNL A   1      37.803  32.016  29.516  1.00  0.00     0.029 A 
ATOM     71  N   UNL A   1      38.134  30.668  31.190  1.00  0.00    -0.354 N 
ATOM     72  N   UNL A   1      41.482  27.905  31.568  1.00  0.00    -0.248 NA
ATOM     73  C   UNL A   1      41.245  29.079  33.575  1.00  0.00     0.031 C 
ATOM     74  C   UNL A   1      38.228  30.733  29.040  1.00  0.00     0.029 A 
ATOM     75  C   UNL A   1      38.735  30.035  30.135  1.00  0.00     0.049 A 
ATOM     76  H   UNL A   1      37.817  30.247  32.021  1.00  0.00     0.167 HD
ATOM     77  C   UNL A   1      40.363  28.734  31.474  1.00  0.00     0.074 A 
ATOM     78  C   UNL A   1      40.277  29.429  32.742  1.00  0.00     0.031 C 
ATOM     79  C   UNL A   1      39.671  28.950  30.319  1.00  0.00     0.037 A 
BRANCH  66  80
ATOM     80  C   UNL A   1      37.100  33.423  32.682  1.00  0.00     0.064 A 
ATOM     81  C   UNL A   1      36.255  34.341  32.035  1.00  0.00     0.173 A 
ATOM     82  C   UNL A   1      36.931  33.223  34.053  1.00  0.00     0.173 A 
ATOM     83  F   UNL A   1      36.399  34.567  30.718  1.00  0.00    -0.203 F 
ATOM     84  C   UNL A   1      35.316  35.079  32.742  1.00  0.00     0.198 A 
ATOM     85  C   UNL A   1      35.972  33.953  34.759  1.00  0.00     0.198 A 
ATOM     86  F   UNL A   1      37.724  32.371  34.718  1.00  0.00    -0.203 F 
ATOM     87  F   UNL A   1      34.578  35.997  32.106  1.00  0.00    -0.200 F 
ATOM     88  C   UNL A   1      35.182  34.893  34.108  1.00  0.00     0.200 A 
ATOM     89  F   UNL A   1      35.838  33.780  36.082  1.00  0.00    -0.200 F 
ATOM     90  F   UNL A   1      34.301  35.631  34.797  1.00  0.00    -0.200 F 
ENDBRANCH  66  80
BRANCH  67  91
ATOM     91  C   UNL A   1      44.048  27.901  34.407  1.00  0.00     0.064 A 
ATOM     92  C   UNL A   1      44.700  26.683  34.688  1.00  0.00     0.173 A 
ATOM     93  C   UNL A   1      43.949  28.800  35.481  1.00  0.00     0.173 A 
ATOM     94  F   UNL A   1      44.725  25.705  33.769  1.00  0.00    -0.203 F 
ATOM     95  C   UNL A   1      45.345  26.449  35.903  1.00  0.00     0.198 A 
ATOM     96  C   UNL A   1      44.622  28.582  36.688  1.00  0.00     0.198 A 
ATOM     97  F   UNL A   1      43.216  29.918  35.386  1.00  0.00    -0.203 F 
ATOM     98  F   UNL A   1      45.995  25.294  36.102  1.00  0.00    -0.200 F 
ATOM     99  C   UNL A   1      45.342  27.417  36.889  1.00  0.00     0.200 A 
ATOM    100  F   UNL A   1      44.595  29.521  37.644  1.00  0.00    -0.200 F 
ATOM    101  F   UNL A   1      46.024  27.230  38.027  1.00  0.00    -0.200 F 
ENDBRANCH  67  91
BRANCH  79 102
ATOM    102  C   UNL A   1      40.080  28.131  29.147  1.00  0.00     0.064 A 
ATOM    103  C   UNL A   1      39.534  26.857  28.953  1.00  0.00     0.173 A 
ATOM    104  C   UNL A   1      40.951  28.635  28.166  1.00  0.00     0.173 A 
ATOM    105  F   UNL A   1      38.689  26.338  29.858  1.00  0.00    -0.203 F 
ATOM    106  C   UNL A   1      39.821  26.127  27.805  1.00  0.00     0.198 A 
ATOM    107  C   UNL A   1      41.211  27.914  27.006  1.00  0.00     0.198 A 
ATOM    108  F   UNL A   1      41.520  29.843  28.308  1.00  0.00    -0.203 F 
ATOM    109  F   UNL A   1      39.273  24.917  27.630  1.00  0.00    -0.200 F 
ATOM    110  C   UNL A   1      40.642  26.663  26.824  1.00  0.00     0.200 A 
ATOM    111  F   UNL A   1      41.988  28.442  26.049  1.00  0.00    -0.200 F 
ATOM    112  F   UNL A   1      40.871  25.981  25.693  1.00  0.00    -0.200 F 
ENDBRANCH  79 102
ENDBRANCH  53  54
ENDBRANCH  45  48
ENDBRANCH  43  44
ENDBRANCH  42  43
ENDBRANCH  41  42
ENDBRANCH  40  41
ENDBRANCH   1  40
TORSDOF 19
ENDMDL
MODEL 3
REMARK VINA RESULT:     -10.3      5.286     10.058
REMARK SMILES Cc1oc2c(C)c3oc(=O)c(CCC(=O)N[C@H](Cc4ccc(Cl)cc4)C(=O)NCCCCCCNC(=O)c4ccc(-c5c6nc(c(-c7c(F)c(F)c(F)c(F)c7F)c7ccc([nH]7)c(-c7c(F)c(F)c(F)c(F)c7F)c7nc(c(-c8c(F)c(F)c(F)c(F)c8F)c8ccc5[nH]8)C=C7)C=C6)cc4)c(C)c3cc2c1C
REMARK SMILES IDX 30 1 29 2 28 3 26 4 27 5 17 7 16 8 14 9 15 10 13 12 12 13
REMARK SMILES IDX 11 14 1 15 2 16 3 17 106 18 4 19 105 20 107 21 5 22 104 23
REMARK SMILES IDX 6 24 7 25 103 26 8 27 101 28 9 29 102 30 10 31 18 32 19 33
REMARK SMILES IDX 20 34 25 35 21 36 24 37 22 38 23 39 31 40 32 41 33 42 34 43
REMARK SMILES IDX 35 44 36 45 37 47 38 48 39 49 100 50 40 51 99 52 41 53 42 54
REMARK SMILES IDX 43 55 93 56 44 57 98 58 92 59 94 60 45 61 97 62 91 63 90 64
REMARK SMILES IDX 46 66 78 67 58 68 77 69 59 70 62 71 76 72 95 73 60 74 61 75
REMARK SMILES IDX 75 77 96 78 63 79 47 80 48 81 56 82 49 83 50 84 54 85 57 86
REMARK SMILES IDX 51 87 52 88 55 89 53 90 79 91 80 92 88 93 81 94 82 95 86 96
REMARK SMILES IDX 89 97 83 98 84 99 87 100 85 101 64 102 65 103 73 104 66 105
REMARK SMILES IDX 67 106 71 107 74 108 68 109 69 110 72 111 70 112
REMARK H PARENT 28 6 16 11 35 46 94 65 62 76
REMARK Flexibility Score: inf
ROOT
ATOM      1  C   UNL A   1      45.917  32.549  33.047  1.00  0.00     0.021 C 
ENDROOT
BRANCH   1   2
ATOM      2  C   UNL A   1      44.804  33.158  33.901  1.00  0.00     0.116 C 
BRANCH   2   3
ATOM      3  N   UNL A   1      43.548  33.428  33.130  1.00  0.00    -0.354 N 
ATOM      4  C   UNL A   1      42.262  32.943  32.709  1.00  0.00     0.242 C 
ATOM      5  O   UNL A   1      41.956  34.064  32.159  1.00  0.00    -0.273 OA
ATOM      6  H   UNL A   1      43.646  34.328  32.743  1.00  0.00     0.163 HD
BRANCH   4   7
ATOM      7  C   UNL A   1      41.070  31.121  32.810  1.00  0.00     0.175 C 
BRANCH   7   8
ATOM      8  N   UNL A   1      41.190  29.776  33.791  1.00  0.00    -0.344 N 
ATOM      9  C   UNL A   1      40.699  29.525  35.052  1.00  0.00     0.220 C 
ATOM     10  O   UNL A   1      40.887  28.415  35.552  1.00  0.00    -0.275 OA
ATOM     11  H   UNL A   1      41.700  29.030  33.398  1.00  0.00     0.164 HD
BRANCH   9  12
ATOM     12  C   UNL A   1      40.003  30.638  35.831  1.00  0.00     0.105 C 
BRANCH  12  13
ATOM     13  C   UNL A   1      38.477  30.513  35.829  1.00  0.00     0.053 C 
BRANCH  13  14
ATOM     14  C   UNL A   1      37.953  31.699  35.086  1.00  0.00     0.042 A 
ATOM     15  C   UNL A   1      33.225  36.678  28.452  1.00  0.00     0.088 C 
ATOM     16  C   UNL A   1      33.354  35.753  29.613  1.00  0.00     0.105 A 
ATOM     17  O   UNL A   1      33.213  36.342  30.849  1.00  0.00    -0.461 OA
ATOM     18  C   UNL A   1      33.752  34.409  29.606  1.00  0.00    -0.002 A 
ATOM     19  C   UNL A   1      33.699  35.480  31.794  1.00  0.00     0.141 A 
ATOM     20  C   UNL A   1      34.148  34.082  30.930  1.00  0.00     0.025 A 
ATOM     21  C   UNL A   1      34.013  33.545  28.426  1.00  0.00     0.049 C 
ATOM     22  C   UNL A   1      34.329  35.831  33.482  1.00  0.00     0.036 A 
ATOM     23  C   UNL A   1      35.240  32.841  31.568  1.00  0.00     0.024 A 
ATOM     24  C   UNL A   1      33.758  37.228  33.848  1.00  0.00     0.052 C 
ATOM     25  C   UNL A   1      35.661  34.456  34.161  1.00  0.00     0.145 A 
ATOM     26  C   UNL A   1      36.018  32.911  33.098  1.00  0.00     0.022 A 
ATOM     27  O   UNL A   1      36.482  34.273  35.790  1.00  0.00    -0.422 OA
ATOM     28  C   UNL A   1      37.257  31.592  33.690  1.00  0.00    -0.030 A 
ATOM     29  C   UNL A   1      37.701  33.104  36.375  1.00  0.00     0.339 A 
ATOM     30  C   UNL A   1      37.297  30.332  32.846  1.00  0.00     0.046 C 
ATOM     31  O   UNL A   1      38.067  33.087  37.540  1.00  0.00    -0.246 OA
ENDBRANCH  13  14
ENDBRANCH  12  13
ENDBRANCH   9  12
ENDBRANCH   7   8
BRANCH   7  32
ATOM     32  C   UNL A   1      40.176  30.213  31.564  1.00  0.00     0.070 C 
BRANCH  32  33
ATOM     33  C   UNL A   1      40.260  30.773  30.119  1.00  0.00    -0.045 A 
ATOM     34  C   UNL A   1      40.087  29.397  29.017  1.00  0.00     0.005 A 
ATOM     35  C   UNL A   1      38.948  31.994  30.175  1.00  0.00     0.005 A 
ATOM     36  C   UNL A   1      38.600  29.073  28.094  1.00  0.00     0.021 A 
ATOM     37  C   UNL A   1      37.265  31.598  29.145  1.00  0.00     0.021 A 
ATOM     38  C   UNL A   1      37.209  30.127  28.119  1.00  0.00     0.041 A 
ATOM     39  Cl  UNL A   1      35.866  29.792  27.107  1.00  0.00    -0.084 Cl
ENDBRANCH  32  33
ENDBRANCH   7  32
ENDBRANCH   4   7
ENDBRANCH   2   3
ENDBRANCH   1   2
BRANCH   1  40
ATOM     40  C   UNL A   1      47.308  33.134  33.143  1.00  0.00     0.002 C 
BRANCH  40  41
ATOM     41  C   UNL A   1      48.264  32.391  34.061  1.00  0.00     0.002 C 
BRANCH  41  42
ATOM     42  C   UNL A   1      48.140  32.688  35.567  1.00  0.00     0.021 C 
BRANCH  42  43
ATOM     43  C   UNL A   1      47.885  31.482  36.491  1.00  0.00     0.116 C 
BRANCH  43  44
ATOM     44  N   UNL A   1      48.772  30.378  36.181  1.00  0.00    -0.352 N 
ATOM     45  C   UNL A   1      48.360  29.127  35.805  1.00  0.00     0.251 C 
ATOM     46  H   UNL A   1      49.740  30.540  36.246  1.00  0.00     0.163 HD
ATOM     47  O   UNL A   1      48.708  28.155  36.469  1.00  0.00    -0.269 OA
BRANCH  45  48
ATOM     48  C   UNL A   1      47.624  28.929  34.532  1.00  0.00     0.039 A 
ATOM     49  C   UNL A   1      46.270  28.578  34.615  1.00  0.00     0.014 A 
ATOM     50  C   UNL A   1      48.272  28.893  33.293  1.00  0.00     0.014 A 
ATOM     51  C   UNL A   1      45.571  28.181  33.475  1.00  0.00     0.010 A 
ATOM     52  C   UNL A   1      47.569  28.492  32.149  1.00  0.00     0.010 A 
ATOM     53  C   UNL A   1      46.214  28.134  32.233  1.00  0.00    -0.014 A 
BRANCH  53  54
ATOM     54  C   UNL A   1      45.375  27.881  31.042  1.00  0.00     0.031 A 
ATOM     55  C   UNL A   1      44.909  29.131  30.358  1.00  0.00     0.074 A 
ATOM     56  C   UNL A   1      45.435  26.740  30.318  1.00  0.00     0.049 A 
ATOM     57  N   UNL A   1      45.650  29.790  29.515  1.00  0.00    -0.248 NA
ATOM     58  C   UNL A   1      43.727  29.869  30.799  1.00  0.00     0.031 C 
ATOM     59  C   UNL A   1      46.654  25.960  30.094  1.00  0.00     0.029 A 
ATOM     60  N   UNL A   1      44.500  26.148  29.494  1.00  0.00    -0.354 N 
ATOM     61  C   UNL A   1      45.066  31.029  29.327  1.00  0.00     0.074 A 
ATOM     62  C   UNL A   1      43.872  31.033  30.142  1.00  0.00     0.031 C 
ATOM     63  C   UNL A   1      46.438  25.099  29.077  1.00  0.00     0.029 A 
ATOM     64  C   UNL A   1      45.033  25.154  28.667  1.00  0.00     0.049 A 
ATOM     65  H   UNL A   1      43.548  26.399  29.490  1.00  0.00     0.167 HD
ATOM     66  C   UNL A   1      45.601  31.972  28.505  1.00  0.00     0.037 A 
ATOM     67  C   UNL A   1      44.611  24.922  27.388  1.00  0.00     0.037 A 
ATOM     68  C   UNL A   1      46.807  31.590  27.830  1.00  0.00     0.049 A 
ATOM     69  C   UNL A   1      45.087  26.177  26.692  1.00  0.00     0.074 A 
ATOM     70  C   UNL A   1      48.164  31.788  27.956  1.00  0.00     0.029 A 
ATOM     71  N   UNL A   1      46.681  30.765  26.738  1.00  0.00    -0.354 N 
ATOM     72  N   UNL A   1      46.315  26.442  26.330  1.00  0.00    -0.248 NA
ATOM     73  C   UNL A   1      44.199  27.340  26.755  1.00  0.00     0.031 C 
ATOM     74  C   UNL A   1      48.771  30.695  27.256  1.00  0.00     0.029 A 
ATOM     75  C   UNL A   1      47.738  29.894  26.770  1.00  0.00     0.049 A 
ATOM     76  H   UNL A   1      45.968  30.793  26.061  1.00  0.00     0.167 HD
ATOM     77  C   UNL A   1      46.420  27.833  26.384  1.00  0.00     0.074 A 
ATOM     78  C   UNL A   1      45.083  28.321  26.651  1.00  0.00     0.031 C 
ATOM     79  C   UNL A   1      47.606  28.507  26.390  1.00  0.00     0.037 A 
BRANCH  66  80
ATOM     80  C   UNL A   1      44.934  33.218  28.084  1.00  0.00     0.064 A 
ATOM     81  C   UNL A   1      44.173  33.168  26.903  1.00  0.00     0.173 A 
ATOM     82  C   UNL A   1      45.221  34.469  28.632  1.00  0.00     0.173 A 
ATOM     83  F   UNL A   1      43.890  31.980  26.341  1.00  0.00    -0.203 F 
ATOM     84  C   UNL A   1      43.766  34.328  26.259  1.00  0.00     0.198 A 
ATOM     85  C   UNL A   1      44.793  35.634  27.992  1.00  0.00     0.198 A 
ATOM     86  F   UNL A   1      45.957  34.569  29.748  1.00  0.00    -0.203 F 
ATOM     87  F   UNL A   1      43.105  34.244  25.097  1.00  0.00    -0.200 F 
ATOM     88  C   UNL A   1      44.085  35.563  26.797  1.00  0.00     0.200 A 
ATOM     89  F   UNL A   1      45.101  36.834  28.507  1.00  0.00    -0.200 F 
ATOM     90  F   UNL A   1      43.724  36.683  26.157  1.00  0.00    -0.200 F 
ENDBRANCH  66  80
BRANCH  67  91
ATOM     91  C   UNL A   1      43.218  24.382  27.227  1.00  0.00     0.064 A 
ATOM     92  C   UNL A   1      43.038  23.182  26.508  1.00  0.00     0.173 A 
ATOM     93  C   UNL A   1      42.047  24.967  27.736  1.00  0.00     0.173 A 
ATOM     94  F   UNL A   1      44.075  22.620  25.868  1.00  0.00    -0.203 F 
ATOM     95  C   UNL A   1      41.804  22.533  26.442  1.00  0.00     0.198 A 
ATOM     96  C   UNL A   1      40.816  24.303  27.699  1.00  0.00     0.198 A 
ATOM     97  F   UNL A   1      42.066  26.184  28.296  1.00  0.00    -0.203 F 
ATOM     98  F   UNL A   1      41.697  21.368  25.790  1.00  0.00    -0.200 F 
ATOM     99  C   UNL A   1      40.701  23.074  27.075  1.00  0.00     0.200 A 
ATOM    100  F   UNL A   1      39.749  24.847  28.300  1.00  0.00    -0.200 F 
ATOM    101  F   UNL A   1      39.533  22.417  27.081  1.00  0.00    -0.200 F 
ENDBRANCH  67  91
BRANCH  79 102
ATOM    102  C   UNL A   1      48.828  27.685  26.187  1.00  0.00     0.064 A 
ATOM    103  C   UNL A   1      49.465  27.089  27.281  1.00  0.00     0.173 A 
ATOM    104  C   UNL A   1      49.328  27.416  24.902  1.00  0.00     0.173 A 
ATOM    105  F   UNL A   1      49.018  27.307  28.527  1.00  0.00    -0.203 F 
ATOM    106  C   UNL A   1      50.541  26.227  27.095  1.00  0.00     0.198 A 
ATOM    107  C   UNL A   1      50.385  26.531  24.719  1.00  0.00     0.198 A 
ATOM    108  F   UNL A   1      48.770  27.977  23.816  1.00  0.00    -0.203 F 
ATOM    109  F   UNL A   1      51.125  25.651  28.155  1.00  0.00    -0.200 F 
ATOM    110  C   UNL A   1      50.987  25.933  25.815  1.00  0.00     0.200 A 
ATOM    111  F   UNL A   1      50.801  26.231  23.480  1.00  0.00    -0.200 F 
ATOM    112  F   UNL A   1      51.987  25.058  25.636  1.00  0.00    -0.200 F 
ENDBRANCH  79 102
ENDBRANCH  53  54
ENDBRANCH  45  48
ENDBRANCH  43  44
ENDBRANCH  42  43
ENDBRANCH  41  42
ENDBRANCH  40  41
ENDBRANCH   1  40
TORSDOF 19
ENDMDL
