MODEL 1
REMARK VINA RESULT:     -11.2      0.000      0.000
REMARK SMILES NC(=O)c1c(F)cccc1O[C@@H](F)C(=O)NCCCCCCNC(=O)c1ccc(-c2c3nc(c(-c4c(F)c(F)c(F)c(F)c4F)c4ccc([nH]4)c(-c4c(F)c(F)c(F)c(F)c4F)c4nc(c(-c5c(F)c(F)c(F)c(F)c5F)c5ccc2[nH]5)C=C4)C=C3)cc1
REMARK SMILES IDX 19 1 18 2 17 3 16 4 14 5 15 6 12 8 13 9 11 10 10 11 4 12
REMARK SMILES IDX 5 13 6 14 7 15 9 16 8 17 2 18 1 19 3 22 20 23 21 24 22 25
REMARK SMILES IDX 23 26 24 27 25 29 26 30 27 31 88 32 28 33 87 34 29 35 30 36
REMARK SMILES IDX 31 37 81 38 32 39 86 40 80 41 82 42 33 43 85 44 79 45 78 46
REMARK SMILES IDX 34 48 66 49 46 50 65 51 47 52 50 53 64 54 83 55 48 56 49 57
REMARK SMILES IDX 63 59 84 60 51 61 35 62 36 63 44 64 37 65 38 66 42 67 45 68
REMARK SMILES IDX 39 69 40 70 43 71 41 72 67 73 68 74 76 75 69 76 70 77 74 78
REMARK SMILES IDX 77 79 71 80 72 81 75 82 73 83 52 84 53 85 61 86 54 87 55 88
REMARK SMILES IDX 59 89 62 90 56 91 57 92 60 93 58 94
REMARK H PARENT 16 7 1 20 1 21 23 28 82 47 50 58
REMARK Flexibility Score: inf
ROOT
ATOM      1  C   UNL A   1      37.452  22.326  24.738  1.00  0.00     0.002 C 
ENDROOT
BRANCH   1   2
ATOM      2  C   UNL A   1      36.493  23.415  25.224  1.00  0.00     0.021 C 
BRANCH   2   3
ATOM      3  C   UNL A   1      35.344  23.795  24.303  1.00  0.00     0.116 C 
BRANCH   3   4
ATOM      4  N   UNL A   1      34.535  24.918  24.682  1.00  0.00    -0.350 N 
ATOM      5  C   UNL A   1      33.554  24.989  25.634  1.00  0.00     0.294 C 
ATOM      6  O   UNL A   1      33.076  26.119  25.813  1.00  0.00    -0.267 OA
ATOM      7  H   UNL A   1      34.710  25.753  24.189  1.00  0.00     0.163 HD
BRANCH   5   8
ATOM      8  C   UNL A   1      33.008  23.761  26.480  1.00  0.00     0.440 C 
ATOM      9  F   UNL A   1      34.014  23.190  27.205  1.00  0.00    -0.191 F 
BRANCH   8  10
ATOM     10  O   UNL A   1      32.110  22.736  26.114  1.00  0.00    -0.451 OA
BRANCH  10  11
ATOM     11  C   UNL A   1      32.328  21.892  25.069  1.00  0.00     0.139 A 
ATOM     12  C   UNL A   1      32.066  22.058  23.706  1.00  0.00     0.117 A 
ATOM     13  C   UNL A   1      32.152  20.952  22.850  1.00  0.00     0.139 A 
ATOM     14  F   UNL A   1      31.802  21.059  21.560  1.00  0.00    -0.206 F 
ATOM     15  C   UNL A   1      32.519  19.694  23.324  1.00  0.00     0.040 A 
ATOM     16  C   UNL A   1      32.798  20.639  25.515  1.00  0.00     0.047 A 
ATOM     17  C   UNL A   1      32.868  19.540  24.659  1.00  0.00     0.007 A 
BRANCH  12  18
ATOM     18  C   UNL A   1      31.699  23.334  23.084  1.00  0.00     0.255 C 
ATOM     19  N   UNL A   1      30.425  23.778  23.312  1.00  0.00    -0.365 N 
ATOM     20  H   UNL A   1      30.122  24.628  22.920  1.00  0.00     0.159 HD
ATOM     21  H   UNL A   1      29.811  23.246  23.869  1.00  0.00     0.159 HD
ATOM     22  O   UNL A   1      32.495  23.938  22.387  1.00  0.00    -0.269 OA
ENDBRANCH  12  18
ENDBRANCH  10  11
ENDBRANCH   8  10
ENDBRANCH   5   8
ENDBRANCH   3   4
ENDBRANCH   2   3
ENDBRANCH   1   2
BRANCH   1  23
ATOM     23  C   UNL A   1      37.039  20.860  24.901  1.00  0.00     0.002 C 
BRANCH  23  24
ATOM     24  C   UNL A   1      38.139  19.803  25.017  1.00  0.00     0.021 C 
BRANCH  24  25
ATOM     25  C   UNL A   1      39.181  19.985  26.113  1.00  0.00     0.116 C 
BRANCH  25  26
ATOM     26  N   UNL A   1      40.292  19.056  26.021  1.00  0.00    -0.352 N 
ATOM     27  C   UNL A   1      41.646  19.270  26.109  1.00  0.00     0.251 C 
ATOM     28  H   UNL A   1      40.032  18.118  25.872  1.00  0.00     0.163 HD
ATOM     29  O   UNL A   1      42.418  18.337  25.903  1.00  0.00    -0.269 OA
BRANCH  27  30
ATOM     30  C   UNL A   1      42.197  20.612  26.415  1.00  0.00     0.039 A 
ATOM     31  C   UNL A   1      42.613  21.418  25.350  1.00  0.00     0.014 A 
ATOM     32  C   UNL A   1      42.348  21.072  27.727  1.00  0.00     0.014 A 
ATOM     33  C   UNL A   1      43.112  22.702  25.594  1.00  0.00     0.010 A 
ATOM     34  C   UNL A   1      42.775  22.379  27.964  1.00  0.00     0.010 A 
ATOM     35  C   UNL A   1      43.160  23.210  26.902  1.00  0.00    -0.014 A 
BRANCH  35  36
ATOM     36  C   UNL A   1      43.596  24.608  27.169  1.00  0.00     0.031 A 
ATOM     37  C   UNL A   1      42.622  25.624  27.700  1.00  0.00     0.074 A 
ATOM     38  C   UNL A   1      44.861  24.977  26.883  1.00  0.00     0.049 A 
ATOM     39  N   UNL A   1      42.801  26.902  27.925  1.00  0.00    -0.248 NA
ATOM     40  C   UNL A   1      41.262  25.150  27.998  1.00  0.00     0.031 C 
ATOM     41  C   UNL A   1      45.892  24.094  26.337  1.00  0.00     0.029 A 
ATOM     42  N   UNL A   1      45.494  26.190  27.006  1.00  0.00    -0.354 N 
ATOM     43  C   UNL A   1      41.580  27.382  28.381  1.00  0.00     0.074 A 
ATOM     44  C   UNL A   1      40.652  26.272  28.350  1.00  0.00     0.031 C 
ATOM     45  C   UNL A   1      47.035  24.785  26.198  1.00  0.00     0.029 A 
ATOM     46  C   UNL A   1      46.807  26.171  26.599  1.00  0.00     0.049 A 
ATOM     47  H   UNL A   1      45.049  26.997  27.353  1.00  0.00     0.167 HD
ATOM     48  C   UNL A   1      41.270  28.629  28.809  1.00  0.00     0.037 A 
ATOM     49  C   UNL A   1      47.723  27.158  26.543  1.00  0.00     0.037 A 
ATOM     50  C   UNL A   1      42.204  29.723  28.862  1.00  0.00     0.049 A 
ATOM     51  C   UNL A   1      47.343  28.542  26.994  1.00  0.00     0.074 A 
ATOM     52  C   UNL A   1      41.994  31.008  29.331  1.00  0.00     0.029 A 
ATOM     53  N   UNL A   1      43.521  29.664  28.433  1.00  0.00    -0.354 N 
ATOM     54  N   UNL A   1      46.199  28.970  27.470  1.00  0.00    -0.248 NA
ATOM     55  C   UNL A   1      48.379  29.581  26.900  1.00  0.00     0.031 C 
ATOM     56  C   UNL A   1      43.165  31.744  29.130  1.00  0.00     0.029 A 
ATOM     57  C   UNL A   1      44.126  30.900  28.597  1.00  0.00     0.049 A 
ATOM     58  H   UNL A   1      43.961  28.863  28.065  1.00  0.00     0.167 HD
ATOM     59  C   UNL A   1      46.384  30.315  27.757  1.00  0.00     0.074 A 
ATOM     60  C   UNL A   1      47.754  30.633  27.412  1.00  0.00     0.031 C 
ATOM     61  C   UNL A   1      45.494  31.204  28.261  1.00  0.00     0.037 A 
BRANCH  48  62
ATOM     62  C   UNL A   1      39.865  28.888  29.272  1.00  0.00     0.064 A 
ATOM     63  C   UNL A   1      39.492  28.626  30.600  1.00  0.00     0.173 A 
ATOM     64  C   UNL A   1      38.865  29.310  28.383  1.00  0.00     0.173 A 
ATOM     65  F   UNL A   1      40.407  28.214  31.491  1.00  0.00    -0.203 F 
ATOM     66  C   UNL A   1      38.169  28.758  31.014  1.00  0.00     0.198 A 
ATOM     67  C   UNL A   1      37.549  29.472  28.809  1.00  0.00     0.198 A 
ATOM     68  F   UNL A   1      39.169  29.584  27.105  1.00  0.00    -0.203 F 
ATOM     69  F   UNL A   1      37.831  28.462  32.277  1.00  0.00    -0.200 F 
ATOM     70  C   UNL A   1      37.200  29.184  30.119  1.00  0.00     0.200 A 
ATOM     71  F   UNL A   1      36.618  29.908  27.949  1.00  0.00    -0.200 F 
ATOM     72  F   UNL A   1      35.928  29.319  30.521  1.00  0.00    -0.200 F 
ENDBRANCH  48  62
BRANCH  49  73
ATOM     73  C   UNL A   1      49.098  26.856  26.061  1.00  0.00     0.064 A 
ATOM     74  C   UNL A   1      49.458  27.032  24.716  1.00  0.00     0.173 A 
ATOM     75  C   UNL A   1      50.071  26.351  26.935  1.00  0.00     0.173 A 
ATOM     76  F   UNL A   1      48.563  27.510  23.839  1.00  0.00    -0.203 F 
ATOM     77  C   UNL A   1      50.729  26.691  24.260  1.00  0.00     0.198 A 
ATOM     78  C   UNL A   1      51.352  26.038  26.483  1.00  0.00     0.198 A 
ATOM     79  F   UNL A   1      49.782  26.185  28.234  1.00  0.00    -0.203 F 
ATOM     80  F   UNL A   1      51.033  26.830  22.963  1.00  0.00    -0.200 F 
ATOM     81  C   UNL A   1      51.677  26.199  25.145  1.00  0.00     0.200 A 
ATOM     82  F   UNL A   1      52.272  25.588  27.347  1.00  0.00    -0.200 F 
ATOM     83  F   UNL A   1      52.903  25.881  24.708  1.00  0.00    -0.200 F 
ENDBRANCH  49  73
BRANCH  61  84
ATOM     84  C   UNL A   1      45.963  32.611  28.500  1.00  0.00     0.064 A 
ATOM     85  C   UNL A   1      45.888  33.567  27.474  1.00  0.00     0.173 A 
ATOM     86  C   UNL A   1      46.580  32.985  29.702  1.00  0.00     0.173 A 
ATOM     87  F   UNL A   1      45.316  33.257  26.301  1.00  0.00    -0.203 F 
ATOM     88  C   UNL A   1      46.435  34.836  27.636  1.00  0.00     0.198 A 
ATOM     89  C   UNL A   1      47.099  34.266  29.872  1.00  0.00     0.198 A 
ATOM     90  F   UNL A   1      46.667  32.111  30.717  1.00  0.00    -0.203 F 
ATOM     91  F   UNL A   1      46.394  35.716  26.626  1.00  0.00    -0.200 F 
ATOM     92  C   UNL A   1      47.038  35.186  28.835  1.00  0.00     0.200 A 
ATOM     93  F   UNL A   1      47.661  34.610  31.038  1.00  0.00    -0.200 F 
ATOM     94  F   UNL A   1      47.563  36.408  28.990  1.00  0.00    -0.200 F 
ENDBRANCH  61  84
ENDBRANCH  35  36
ENDBRANCH  27  30
ENDBRANCH  25  26
ENDBRANCH  24  25
ENDBRANCH  23  24
ENDBRANCH   1  23
TORSDOF 16
ENDMDL
MODEL 2
REMARK VINA RESULT:     -11.0      4.638      9.931
REMARK SMILES NC(=O)c1c(F)cccc1O[C@@H](F)C(=O)NCCCCCCNC(=O)c1ccc(-c2c3nc(c(-c4c(F)c(F)c(F)c(F)c4F)c4ccc([nH]4)c(-c4c(F)c(F)c(F)c(F)c4F)c4nc(c(-c5c(F)c(F)c(F)c(F)c5F)c5ccc2[nH]5)C=C4)C=C3)cc1
REMARK SMILES IDX 19 1 18 2 17 3 16 4 14 5 15 6 12 8 13 9 11 10 10 11 4 12
REMARK SMILES IDX 5 13 6 14 7 15 9 16 8 17 2 18 1 19 3 22 20 23 21 24 22 25
REMARK SMILES IDX 23 26 24 27 25 29 26 30 27 31 88 32 28 33 87 34 29 35 30 36
REMARK SMILES IDX 31 37 81 38 32 39 86 40 80 41 82 42 33 43 85 44 79 45 78 46
REMARK SMILES IDX 34 48 66 49 46 50 65 51 47 52 50 53 64 54 83 55 48 56 49 57
REMARK SMILES IDX 63 59 84 60 51 61 35 62 36 63 44 64 37 65 38 66 42 67 45 68
REMARK SMILES IDX 39 69 40 70 43 71 41 72 67 73 68 74 76 75 69 76 70 77 74 78
REMARK SMILES IDX 77 79 71 80 72 81 75 82 73 83 52 84 53 85 61 86 54 87 55 88
REMARK SMILES IDX 59 89 62 90 56 91 57 92 60 93 58 94
REMARK H PARENT 16 7 1 20 1 21 23 28 82 47 50 58
REMARK Flexibility Score: inf
ROOT
ATOM      1  C   UNL A   1      31.185  27.701  25.969  1.00  0.00     0.002 C 
ENDROOT
BRANCH   1   2
ATOM      2  C   UNL A   1      31.450  26.200  26.091  1.00  0.00     0.021 C 
BRANCH   2   3
ATOM      3  C   UNL A   1      30.380  25.256  25.563  1.00  0.00     0.116 C 
BRANCH   3   4
ATOM      4  N   UNL A   1      29.660  24.468  26.522  1.00  0.00    -0.350 N 
ATOM      5  C   UNL A   1      29.948  23.216  26.996  1.00  0.00     0.294 C 
ATOM      6  O   UNL A   1      29.196  22.808  27.893  1.00  0.00    -0.267 OA
ATOM      7  H   UNL A   1      28.846  24.884  26.889  1.00  0.00     0.163 HD
BRANCH   5   8
ATOM      8  C   UNL A   1      31.132  22.292  26.481  1.00  0.00     0.440 C 
ATOM      9  F   UNL A   1      32.255  22.484  27.233  1.00  0.00    -0.191 F 
BRANCH   8  10
ATOM     10  O   UNL A   1      31.544  21.996  25.164  1.00  0.00    -0.451 OA
BRANCH  10  11
ATOM     11  C   UNL A   1      32.820  21.650  24.843  1.00  0.00     0.139 A 
ATOM     12  C   UNL A   1      33.481  20.425  24.966  1.00  0.00     0.117 A 
ATOM     13  C   UNL A   1      34.871  20.374  24.795  1.00  0.00     0.139 A 
ATOM     14  F   UNL A   1      35.544  19.234  25.014  1.00  0.00    -0.206 F 
ATOM     15  C   UNL A   1      35.607  21.515  24.480  1.00  0.00     0.040 A 
ATOM     16  C   UNL A   1      33.562  22.775  24.422  1.00  0.00     0.047 A 
ATOM     17  C   UNL A   1      34.947  22.717  24.267  1.00  0.00     0.007 A 
BRANCH  12  18
ATOM     18  C   UNL A   1      32.816  19.154  25.267  1.00  0.00     0.255 C 
ATOM     19  N   UNL A   1      32.951  18.685  26.545  1.00  0.00    -0.365 N 
ATOM     20  H   UNL A   1      32.526  17.835  26.805  1.00  0.00     0.159 HD
ATOM     21  H   UNL A   1      33.472  19.196  27.205  1.00  0.00     0.159 HD
ATOM     22  O   UNL A   1      32.201  18.554  24.404  1.00  0.00    -0.269 OA
ENDBRANCH  12  18
ENDBRANCH  10  11
ENDBRANCH   8  10
ENDBRANCH   5   8
ENDBRANCH   3   4
ENDBRANCH   2   3
ENDBRANCH   1   2
BRANCH   1  23
ATOM     23  C   UNL A   1      31.276  28.351  24.584  1.00  0.00     0.002 C 
BRANCH  23  24
ATOM     24  C   UNL A   1      32.663  28.652  24.013  1.00  0.00     0.021 C 
BRANCH  24  25
ATOM     25  C   UNL A   1      33.615  29.480  24.867  1.00  0.00     0.116 C 
BRANCH  25  26
ATOM     26  N   UNL A   1      32.955  30.515  25.640  1.00  0.00    -0.352 N 
ATOM     27  C   UNL A   1      33.303  31.100  26.833  1.00  0.00     0.251 C 
ATOM     28  H   UNL A   1      32.120  30.855  25.243  1.00  0.00     0.163 HD
ATOM     29  O   UNL A   1      32.534  31.901  27.359  1.00  0.00    -0.269 OA
BRANCH  27  30
ATOM     30  C   UNL A   1      34.574  30.760  27.518  1.00  0.00     0.039 A 
ATOM     31  C   UNL A   1      35.511  31.778  27.722  1.00  0.00     0.014 A 
ATOM     32  C   UNL A   1      34.873  29.456  27.924  1.00  0.00     0.014 A 
ATOM     33  C   UNL A   1      36.710  31.506  28.388  1.00  0.00     0.010 A 
ATOM     34  C   UNL A   1      36.034  29.202  28.655  1.00  0.00     0.010 A 
ATOM     35  C   UNL A   1      36.966  30.223  28.898  1.00  0.00    -0.014 A 
BRANCH  35  36
ATOM     36  C   UNL A   1      38.191  29.940  29.694  1.00  0.00     0.031 A 
ATOM     37  C   UNL A   1      39.256  29.024  29.158  1.00  0.00     0.074 A 
ATOM     38  C   UNL A   1      38.321  30.470  30.927  1.00  0.00     0.049 A 
ATOM     39  N   UNL A   1      40.354  28.605  29.736  1.00  0.00    -0.248 NA
ATOM     40  C   UNL A   1      39.054  28.490  27.803  1.00  0.00     0.031 C 
ATOM     41  C   UNL A   1      37.345  31.349  31.572  1.00  0.00     0.029 A 
ATOM     42  N   UNL A   1      39.321  30.343  31.861  1.00  0.00    -0.354 N 
ATOM     43  C   UNL A   1      40.965  27.756  28.822  1.00  0.00     0.074 A 
ATOM     44  C   UNL A   1      40.092  27.675  27.672  1.00  0.00     0.031 C 
ATOM     45  C   UNL A   1      37.806  31.705  32.782  1.00  0.00     0.029 A 
ATOM     46  C   UNL A   1      39.085  31.043  33.021  1.00  0.00     0.049 A 
ATOM     47  H   UNL A   1      40.129  29.801  31.713  1.00  0.00     0.167 HD
ATOM     48  C   UNL A   1      42.158  27.123  28.924  1.00  0.00     0.037 A 
ATOM     49  C   UNL A   1      39.810  31.134  34.153  1.00  0.00     0.037 A 
ATOM     50  C   UNL A   1      43.036  27.227  30.061  1.00  0.00     0.049 A 
ATOM     51  C   UNL A   1      41.115  30.393  34.254  1.00  0.00     0.074 A 
ATOM     52  C   UNL A   1      44.288  26.663  30.232  1.00  0.00     0.029 A 
ATOM     53  N   UNL A   1      42.756  27.938  31.218  1.00  0.00    -0.354 N 
ATOM     54  N   UNL A   1      41.705  29.635  33.362  1.00  0.00    -0.248 NA
ATOM     55  C   UNL A   1      41.858  30.519  35.517  1.00  0.00     0.031 C 
ATOM     56  C   UNL A   1      44.740  26.983  31.514  1.00  0.00     0.029 A 
ATOM     57  C   UNL A   1      43.800  27.801  32.119  1.00  0.00     0.049 A 
ATOM     58  H   UNL A   1      41.937  28.462  31.375  1.00  0.00     0.167 HD
ATOM     59  C   UNL A   1      42.894  29.216  33.942  1.00  0.00     0.074 A 
ATOM     60  C   UNL A   1      42.951  29.814  35.260  1.00  0.00     0.031 C 
ATOM     61  C   UNL A   1      43.851  28.409  33.425  1.00  0.00     0.037 A 
BRANCH  48  62
ATOM     62  C   UNL A   1      42.604  26.265  27.775  1.00  0.00     0.064 A 
ATOM     63  C   UNL A   1      42.199  24.924  27.687  1.00  0.00     0.173 A 
ATOM     64  C   UNL A   1      43.506  26.741  26.811  1.00  0.00     0.173 A 
ATOM     65  F   UNL A   1      41.344  24.415  28.587  1.00  0.00    -0.203 F 
ATOM     66  C   UNL A   1      42.693  24.089  26.689  1.00  0.00     0.198 A 
ATOM     67  C   UNL A   1      43.972  25.911  25.794  1.00  0.00     0.198 A 
ATOM     68  F   UNL A   1      43.918  28.018  26.842  1.00  0.00    -0.203 F 
ATOM     69  F   UNL A   1      42.322  22.801  26.650  1.00  0.00    -0.200 F 
ATOM     70  C   UNL A   1      43.576  24.584  25.741  1.00  0.00     0.200 A 
ATOM     71  F   UNL A   1      44.806  26.398  24.865  1.00  0.00    -0.200 F 
ATOM     72  F   UNL A   1      44.045  23.781  24.776  1.00  0.00    -0.200 F 
ENDBRANCH  48  62
BRANCH  49  73
ATOM     73  C   UNL A   1      39.318  31.982  35.272  1.00  0.00     0.064 A 
ATOM     74  C   UNL A   1      38.542  31.447  36.311  1.00  0.00     0.173 A 
ATOM     75  C   UNL A   1      39.590  33.358  35.303  1.00  0.00     0.173 A 
ATOM     76  F   UNL A   1      38.251  30.138  36.327  1.00  0.00    -0.203 F 
ATOM     77  C   UNL A   1      38.035  32.260  37.323  1.00  0.00     0.198 A 
ATOM     78  C   UNL A   1      39.107  34.163  36.333  1.00  0.00     0.198 A 
ATOM     79  F   UNL A   1      40.346  33.912  34.345  1.00  0.00    -0.203 F 
ATOM     80  F   UNL A   1      37.262  31.730  38.281  1.00  0.00    -0.200 F 
ATOM     81  C   UNL A   1      38.322  33.616  37.336  1.00  0.00     0.200 A 
ATOM     82  F   UNL A   1      39.409  35.469  36.356  1.00  0.00    -0.200 F 
ATOM     83  F   UNL A   1      37.844  34.395  38.316  1.00  0.00    -0.200 F 
ENDBRANCH  49  73
BRANCH  61  84
ATOM     84  C   UNL A   1      45.066  28.130  34.264  1.00  0.00     0.064 A 
ATOM     85  C   UNL A   1      46.206  28.942  34.151  1.00  0.00     0.173 A 
ATOM     86  C   UNL A   1      45.142  27.005  35.096  1.00  0.00     0.173 A 
ATOM     87  F   UNL A   1      46.189  30.025  33.360  1.00  0.00    -0.203 F 
ATOM     88  C   UNL A   1      47.382  28.623  34.822  1.00  0.00     0.198 A 
ATOM     89  C   UNL A   1      46.310  26.706  35.791  1.00  0.00     0.198 A 
ATOM     90  F   UNL A   1      44.076  26.203  35.247  1.00  0.00    -0.203 F 
ATOM     91  F   UNL A   1      48.472  29.386  34.661  1.00  0.00    -0.200 F 
ATOM     92  C   UNL A   1      47.434  27.506  35.643  1.00  0.00     0.200 A 
ATOM     93  F   UNL A   1      46.352  25.640  36.601  1.00  0.00    -0.200 F 
ATOM     94  F   UNL A   1      48.566  27.201  36.290  1.00  0.00    -0.200 F 
ENDBRANCH  61  84
ENDBRANCH  35  36
ENDBRANCH  27  30
ENDBRANCH  25  26
ENDBRANCH  24  25
ENDBRANCH  23  24
ENDBRANCH   1  23
TORSDOF 16
ENDMDL
MODEL 3
REMARK VINA RESULT:     -11.0      5.774     11.153
REMARK SMILES NC(=O)c1c(F)cccc1O[C@@H](F)C(=O)NCCCCCCNC(=O)c1ccc(-c2c3nc(c(-c4c(F)c(F)c(F)c(F)c4F)c4ccc([nH]4)c(-c4c(F)c(F)c(F)c(F)c4F)c4nc(c(-c5c(F)c(F)c(F)c(F)c5F)c5ccc2[nH]5)C=C4)C=C3)cc1
REMARK SMILES IDX 19 1 18 2 17 3 16 4 14 5 15 6 12 8 13 9 11 10 10 11 4 12
REMARK SMILES IDX 5 13 6 14 7 15 9 16 8 17 2 18 1 19 3 22 20 23 21 24 22 25
REMARK SMILES IDX 23 26 24 27 25 29 26 30 27 31 88 32 28 33 87 34 29 35 30 36
REMARK SMILES IDX 31 37 81 38 32 39 86 40 80 41 82 42 33 43 85 44 79 45 78 46
REMARK SMILES IDX 34 48 66 49 46 50 65 51 47 52 50 53 64 54 83 55 48 56 49 57
REMARK SMILES IDX 63 59 84 60 51 61 35 62 36 63 44 64 37 65 38 66 42 67 45 68
REMARK SMILES IDX 39 69 40 70 43 71 41 72 67 73 68 74 76 75 69 76 70 77 74 78
REMARK SMILES IDX 77 79 71 80 72 81 75 82 73 83 52 84 53 85 61 86 54 87 55 88
REMARK SMILES IDX 59 89 62 90 56 91 57 92 60 93 58 94
REMARK H PARENT 16 7 1 20 1 21 23 28 82 47 50 58
REMARK Flexibility Score: inf
ROOT
ATOM      1  C   UNL A   1      31.368  29.897  25.226  1.00  0.00     0.002 C 
ENDROOT
BRANCH   1   2
ATOM      2  C   UNL A   1      32.471  29.176  24.450  1.00  0.00     0.021 C 
BRANCH   2   3
ATOM      3  C   UNL A   1      32.183  27.757  23.983  1.00  0.00     0.116 C 
BRANCH   3   4
ATOM      4  N   UNL A   1      32.567  27.409  22.644  1.00  0.00    -0.350 N 
ATOM      5  C   UNL A   1      33.251  26.307  22.205  1.00  0.00     0.294 C 
ATOM      6  O   UNL A   1      33.369  26.219  20.974  1.00  0.00    -0.267 OA
ATOM      7  H   UNL A   1      32.302  28.051  21.946  1.00  0.00     0.163 HD
BRANCH   5   8
ATOM      8  C   UNL A   1      33.884  25.190  23.139  1.00  0.00     0.440 C 
ATOM      9  F   UNL A   1      33.190  24.020  23.027  1.00  0.00    -0.191 F 
BRANCH   8  10
ATOM     10  O   UNL A   1      34.362  25.279  24.463  1.00  0.00    -0.451 OA
BRANCH  10  11
ATOM     11  C   UNL A   1      34.565  24.193  25.257  1.00  0.00     0.139 A 
ATOM     12  C   UNL A   1      35.541  23.195  25.189  1.00  0.00     0.117 A 
ATOM     13  C   UNL A   1      35.400  22.042  25.972  1.00  0.00     0.139 A 
ATOM     14  F   UNL A   1      36.263  21.023  25.847  1.00  0.00    -0.206 F 
ATOM     15  C   UNL A   1      34.320  21.879  26.837  1.00  0.00     0.040 A 
ATOM     16  C   UNL A   1      33.534  24.061  26.212  1.00  0.00     0.047 A 
ATOM     17  C   UNL A   1      33.395  22.904  26.977  1.00  0.00     0.007 A 
BRANCH  12  18
ATOM     18  C   UNL A   1      36.734  23.263  24.340  1.00  0.00     0.255 C 
ATOM     19  N   UNL A   1      37.913  23.558  24.970  1.00  0.00    -0.365 N 
ATOM     20  H   UNL A   1      38.747  23.617  24.451  1.00  0.00     0.159 HD
ATOM     21  H   UNL A   1      37.926  23.712  25.942  1.00  0.00     0.159 HD
ATOM     22  O   UNL A   1      36.654  23.084  23.138  1.00  0.00    -0.269 OA
ENDBRANCH  12  18
ENDBRANCH  10  11
ENDBRANCH   8  10
ENDBRANCH   5   8
ENDBRANCH   3   4
ENDBRANCH   2   3
ENDBRANCH   1   2
BRANCH   1  23
ATOM     23  C   UNL A   1      31.716  30.531  26.576  1.00  0.00     0.002 C 
BRANCH  23  24
ATOM     24  C   UNL A   1      31.499  32.035  26.751  1.00  0.00     0.021 C 
BRANCH  24  25
ATOM     25  C   UNL A   1      32.726  32.901  27.012  1.00  0.00     0.116 C 
BRANCH  25  26
ATOM     26  N   UNL A   1      32.413  34.205  27.565  1.00  0.00    -0.352 N 
ATOM     27  C   UNL A   1      32.984  34.895  28.606  1.00  0.00     0.251 C 
ATOM     28  H   UNL A   1      31.669  34.672  27.119  1.00  0.00     0.163 HD
ATOM     29  O   UNL A   1      32.488  35.959  28.968  1.00  0.00    -0.269 OA
BRANCH  27  30
ATOM     30  C   UNL A   1      34.168  34.367  29.326  1.00  0.00     0.039 A 
ATOM     31  C   UNL A   1      33.968  33.729  30.555  1.00  0.00     0.014 A 
ATOM     32  C   UNL A   1      35.467  34.522  28.834  1.00  0.00     0.014 A 
ATOM     33  C   UNL A   1      35.055  33.191  31.252  1.00  0.00     0.010 A 
ATOM     34  C   UNL A   1      36.540  33.920  29.492  1.00  0.00     0.010 A 
ATOM     35  C   UNL A   1      36.347  33.246  30.707  1.00  0.00    -0.014 A 
BRANCH  35  36
ATOM     36  C   UNL A   1      37.498  32.594  31.389  1.00  0.00     0.031 A 
ATOM     37  C   UNL A   1      38.202  31.427  30.751  1.00  0.00     0.074 A 
ATOM     38  C   UNL A   1      37.879  33.020  32.610  1.00  0.00     0.049 A 
ATOM     39  N   UNL A   1      39.174  30.688  31.226  1.00  0.00    -0.248 NA
ATOM     40  C   UNL A   1      37.741  31.020  29.416  1.00  0.00     0.031 C 
ATOM     41  C   UNL A   1      37.259  34.122  33.346  1.00  0.00     0.029 A 
ATOM     42  N   UNL A   1      38.872  32.577  33.449  1.00  0.00    -0.354 N 
ATOM     43  C   UNL A   1      39.433  29.731  30.254  1.00  0.00     0.074 A 
ATOM     44  C   UNL A   1      38.482  29.945  29.186  1.00  0.00     0.031 C 
ATOM     45  C   UNL A   1      37.902  34.288  34.513  1.00  0.00     0.029 A 
ATOM     46  C   UNL A   1      38.948  33.276  34.631  1.00  0.00     0.049 A 
ATOM     47  H   UNL A   1      39.473  31.830  33.225  1.00  0.00     0.167 HD
ATOM     48  C   UNL A   1      40.394  28.776  30.244  1.00  0.00     0.037 A 
ATOM     49  C   UNL A   1      39.759  33.114  35.695  1.00  0.00     0.037 A 
ATOM     50  C   UNL A   1      41.355  28.582  31.298  1.00  0.00     0.049 A 
ATOM     51  C   UNL A   1      40.795  32.025  35.673  1.00  0.00     0.074 A 
ATOM     52  C   UNL A   1      42.398  27.675  31.352  1.00  0.00     0.029 A 
ATOM     53  N   UNL A   1      41.392  29.305  32.482  1.00  0.00    -0.354 N 
ATOM     54  N   UNL A   1      41.062  31.159  34.726  1.00  0.00    -0.248 NA
ATOM     55  C   UNL A   1      41.644  31.887  36.865  1.00  0.00     0.031 C 
ATOM     56  C   UNL A   1      43.029  27.806  32.592  1.00  0.00     0.029 A 
ATOM     57  C   UNL A   1      42.421  28.841  33.285  1.00  0.00     0.049 A 
ATOM     58  H   UNL A   1      40.777  30.038  32.716  1.00  0.00     0.167 HD
ATOM     59  C   UNL A   1      42.122  30.394  35.193  1.00  0.00     0.074 A 
ATOM     60  C   UNL A   1      42.460  30.905  36.506  1.00  0.00     0.031 C 
ATOM     61  C   UNL A   1      42.756  29.362  34.586  1.00  0.00     0.037 A 
BRANCH  48  62
ATOM     62  C   UNL A   1      40.474  27.865  29.053  1.00  0.00     0.064 A 
ATOM     63  C   UNL A   1      41.271  28.205  27.948  1.00  0.00     0.173 A 
ATOM     64  C   UNL A   1      39.693  26.703  28.963  1.00  0.00     0.173 A 
ATOM     65  F   UNL A   1      42.032  29.310  27.978  1.00  0.00    -0.203 F 
ATOM     66  C   UNL A   1      41.269  27.426  26.794  1.00  0.00     0.198 A 
ATOM     67  C   UNL A   1      39.718  25.908  27.819  1.00  0.00     0.198 A 
ATOM     68  F   UNL A   1      38.920  26.326  29.993  1.00  0.00    -0.203 F 
ATOM     69  F   UNL A   1      42.008  27.794  25.738  1.00  0.00    -0.200 F 
ATOM     70  C   UNL A   1      40.496  26.277  26.732  1.00  0.00     0.200 A 
ATOM     71  F   UNL A   1      38.990  24.785  27.770  1.00  0.00    -0.200 F 
ATOM     72  F   UNL A   1      40.501  25.524  25.623  1.00  0.00    -0.200 F 
ENDBRANCH  48  62
BRANCH  49  73
ATOM     73  C   UNL A   1      39.630  34.031  36.860  1.00  0.00     0.064 A 
ATOM     74  C   UNL A   1      40.315  35.255  36.909  1.00  0.00     0.173 A 
ATOM     75  C   UNL A   1      38.843  33.680  37.966  1.00  0.00     0.173 A 
ATOM     76  F   UNL A   1      41.083  35.636  35.878  1.00  0.00    -0.203 F 
ATOM     77  C   UNL A   1      40.237  36.079  38.029  1.00  0.00     0.198 A 
ATOM     78  C   UNL A   1      38.743  34.520  39.074  1.00  0.00     0.198 A 
ATOM     79  F   UNL A   1      38.153  32.531  37.958  1.00  0.00    -0.203 F 
ATOM     80  F   UNL A   1      40.934  37.223  38.066  1.00  0.00    -0.200 F 
ATOM     81  C   UNL A   1      39.447  35.714  39.109  1.00  0.00     0.200 A 
ATOM     82  F   UNL A   1      37.957  34.175  40.104  1.00  0.00    -0.200 F 
ATOM     83  F   UNL A   1      39.364  36.513  40.181  1.00  0.00    -0.200 F 
ENDBRANCH  49  73
BRANCH  61  84
ATOM     84  C   UNL A   1      43.902  28.715  35.311  1.00  0.00     0.064 A 
ATOM     85  C   UNL A   1      43.660  27.719  36.271  1.00  0.00     0.173 A 
ATOM     86  C   UNL A   1      45.222  29.150  35.134  1.00  0.00     0.173 A 
ATOM     87  F   UNL A   1      42.412  27.275  36.486  1.00  0.00    -0.203 F 
ATOM     88  C   UNL A   1      44.696  27.202  37.042  1.00  0.00     0.198 A 
ATOM     89  C   UNL A   1      46.261  28.607  35.886  1.00  0.00     0.198 A 
ATOM     90  F   UNL A   1      45.507  30.091  34.221  1.00  0.00    -0.203 F 
ATOM     91  F   UNL A   1      44.434  26.287  37.986  1.00  0.00    -0.200 F 
ATOM     92  C   UNL A   1      45.996  27.645  36.849  1.00  0.00     0.200 A 
ATOM     93  F   UNL A   1      47.519  29.019  35.682  1.00  0.00    -0.200 F 
ATOM     94  F   UNL A   1      46.992  27.144  37.591  1.00  0.00    -0.200 F 
ENDBRANCH  61  84
ENDBRANCH  35  36
ENDBRANCH  27  30
ENDBRANCH  25  26
ENDBRANCH  24  25
ENDBRANCH  23  24
ENDBRANCH   1  23
TORSDOF 16
ENDMDL
