MODEL 1
REMARK VINA RESULT:     -12.4      0.000      0.000
REMARK SMILES O=C(NCCCCCCNC(=O)c1ccc(-c2c3nc(c(-c4c(F)c(F)c(F)c(F)c4F)c4ccc([nH]4)c(-c4c(F)c(F)c(F)c(F)c4F)c4nc(c(-c5c(F)c(F)c(F)c(F)c5F)c5ccc2[nH]5)C=C4)C=C3)cc1)C1=Cc2c(ccc(Cl)c2-c2ccccc2)O[C@H]1C(F)(F)F
REMARK SMILES IDX 7 1 6 2 5 3 4 4 3 5 1 6 2 7 76 9 77 10 92 11 78 12 91 13
REMARK SMILES IDX 79 14 84 15 80 16 82 17 81 18 83 19 93 20 94 21 95 22 96 23
REMARK SMILES IDX 85 24 86 25 90 26 87 27 89 28 88 29 8 30 9 31 10 32 11 33
REMARK SMILES IDX 12 35 13 36 14 37 75 38 15 39 74 40 16 41 17 42 18 43 68 44
REMARK SMILES IDX 19 45 73 46 67 47 69 48 20 49 72 50 66 51 65 52 21 54 53 55
REMARK SMILES IDX 33 56 52 57 34 58 37 59 51 60 70 61 35 62 36 63 50 65 71 66
REMARK SMILES IDX 38 67 22 68 23 69 31 70 24 71 25 72 29 73 32 74 26 75 27 76
REMARK SMILES IDX 30 77 28 78 54 79 55 80 63 81 56 82 57 83 61 84 64 85 58 86
REMARK SMILES IDX 59 87 62 88 60 89 39 90 40 91 48 92 41 93 42 94 46 95 49 96
REMARK SMILES IDX 43 97 44 98 47 99 45 100
REMARK H PARENT 3 8 10 34 69 53 37 64
REMARK Flexibility Score: inf
ROOT
ATOM      1  C   UNL A   1      36.270  20.552  25.014  1.00  0.00     0.002 C 
ENDROOT
BRANCH   1   2
ATOM      2  C   UNL A   1      36.351  21.929  25.686  1.00  0.00     0.002 C 
BRANCH   2   3
ATOM      3  C   UNL A   1      35.201  22.327  26.617  1.00  0.00     0.021 C 
BRANCH   3   4
ATOM      4  C   UNL A   1      33.991  21.394  26.637  1.00  0.00     0.116 C 
BRANCH   4   5
ATOM      5  N   UNL A   1      32.806  21.929  27.305  1.00  0.00    -0.352 N 
ATOM      6  O   UNL A   1      30.971  23.270  27.478  1.00  0.00    -0.270 OA
ATOM      7  C   UNL A   1      31.910  22.869  26.822  1.00  0.00     0.251 C 
ATOM      8  H   UNL A   1      32.623  21.579  28.206  1.00  0.00     0.163 HD
BRANCH   7   9
ATOM      9  C   UNL A   1      32.155  23.344  25.442  1.00  0.00     0.067 C 
ATOM     10  C   UNL A   1      32.583  24.606  25.351  1.00  0.00     0.026 C 
ATOM     11  C   UNL A   1      31.542  22.608  24.298  1.00  0.00     0.314 C 
ATOM     12  C   UNL A   1      31.776  25.446  24.448  1.00  0.00     0.027 A 
ATOM     13  O   UNL A   1      30.794  23.462  23.393  1.00  0.00    -0.475 OA
ATOM     14  C   UNL A   1      30.876  24.817  23.570  1.00  0.00     0.128 A 
ATOM     15  C   UNL A   1      31.686  26.848  24.676  1.00  0.00     0.011 A 
ATOM     16  C   UNL A   1      29.903  25.557  22.903  1.00  0.00     0.049 A 
ATOM     17  C   UNL A   1      30.672  27.566  24.013  1.00  0.00     0.049 A 
ATOM     18  C   UNL A   1      29.791  26.925  23.135  1.00  0.00     0.025 A 
ATOM     19  Cl  UNL A   1      30.413  29.253  24.300  1.00  0.00    -0.084 Cl
BRANCH  11  20
ATOM     20  C   UNL A   1      32.614  21.810  23.527  1.00  0.00     0.429 C 
ATOM     21  F   UNL A   1      33.839  22.383  23.566  1.00  0.00    -0.167 F 
ATOM     22  F   UNL A   1      32.738  20.558  24.031  1.00  0.00    -0.167 F 
ATOM     23  F   UNL A   1      32.291  21.672  22.217  1.00  0.00    -0.167 F 
ENDBRANCH  11  20
BRANCH  15  24
ATOM     24  C   UNL A   1      32.601  27.490  25.640  1.00  0.00    -0.016 A 
ATOM     25  C   UNL A   1      33.847  28.001  25.234  1.00  0.00     0.009 A 
ATOM     26  C   UNL A   1      32.163  27.751  26.945  1.00  0.00     0.009 A 
ATOM     27  C   UNL A   1      34.607  28.797  26.095  1.00  0.00     0.001 A 
ATOM     28  C   UNL A   1      32.925  28.541  27.808  1.00  0.00     0.001 A 
ATOM     29  C   UNL A   1      34.139  29.073  27.377  1.00  0.00     0.000 A 
ENDBRANCH  15  24
ENDBRANCH   7   9
ENDBRANCH   4   5
ENDBRANCH   3   4
ENDBRANCH   2   3
ENDBRANCH   1   2
BRANCH   1  30
ATOM     30  C   UNL A   1      37.549  19.710  24.952  1.00  0.00     0.021 C 
BRANCH  30  31
ATOM     31  C   UNL A   1      38.759  20.228  25.731  1.00  0.00     0.116 C 
BRANCH  31  32
ATOM     32  N   UNL A   1      39.853  19.279  25.803  1.00  0.00    -0.352 N 
ATOM     33  C   UNL A   1      41.183  19.459  26.105  1.00  0.00     0.251 C 
ATOM     34  H   UNL A   1      39.603  18.348  25.604  1.00  0.00     0.163 HD
ATOM     35  O   UNL A   1      41.943  18.495  26.033  1.00  0.00    -0.269 OA
BRANCH  33  36
ATOM     36  C   UNL A   1      41.738  20.784  26.486  1.00  0.00     0.039 A 
ATOM     37  C   UNL A   1      41.843  21.763  25.489  1.00  0.00     0.014 A 
ATOM     38  C   UNL A   1      42.217  21.065  27.769  1.00  0.00     0.014 A 
ATOM     39  C   UNL A   1      42.370  23.025  25.783  1.00  0.00     0.010 A 
ATOM     40  C   UNL A   1      42.697  22.343  28.077  1.00  0.00     0.010 A 
ATOM     41  C   UNL A   1      42.779  23.336  27.088  1.00  0.00    -0.014 A 
BRANCH  41  42
ATOM     42  C   UNL A   1      43.297  24.687  27.428  1.00  0.00     0.031 A 
ATOM     43  C   UNL A   1      42.394  25.718  28.045  1.00  0.00     0.074 A 
ATOM     44  C   UNL A   1      44.573  25.009  27.140  1.00  0.00     0.049 A 
ATOM     45  N   UNL A   1      42.640  26.973  28.326  1.00  0.00    -0.248 NA
ATOM     46  C   UNL A   1      41.028  25.285  28.374  1.00  0.00     0.031 C 
ATOM     47  C   UNL A   1      45.551  24.116  26.519  1.00  0.00     0.029 A 
ATOM     48  N   UNL A   1      45.262  26.183  27.324  1.00  0.00    -0.354 N 
ATOM     49  C   UNL A   1      41.456  27.486  28.839  1.00  0.00     0.074 A 
ATOM     50  C   UNL A   1      40.485  26.412  28.813  1.00  0.00     0.031 C 
ATOM     51  C   UNL A   1      46.716  24.770  26.381  1.00  0.00     0.029 A 
ATOM     52  C   UNL A   1      46.560  26.135  26.879  1.00  0.00     0.049 A 
ATOM     53  H   UNL A   1      44.863  26.983  27.735  1.00  0.00     0.167 HD
ATOM     54  C   UNL A   1      41.202  28.736  29.296  1.00  0.00     0.037 A 
ATOM     55  C   UNL A   1      47.516  27.083  26.866  1.00  0.00     0.037 A 
ATOM     56  C   UNL A   1      42.168  29.800  29.363  1.00  0.00     0.049 A 
ATOM     57  C   UNL A   1      47.220  28.450  27.415  1.00  0.00     0.074 A 
ATOM     58  C   UNL A   1      42.007  31.087  29.848  1.00  0.00     0.029 A 
ATOM     59  N   UNL A   1      43.484  29.696  28.939  1.00  0.00    -0.354 N 
ATOM     60  N   UNL A   1      46.101  28.915  27.912  1.00  0.00    -0.248 NA
ATOM     61  C   UNL A   1      48.322  29.424  27.401  1.00  0.00     0.031 C 
ATOM     62  C   UNL A   1      43.222  31.767  29.705  1.00  0.00     0.029 A 
ATOM     63  C   UNL A   1      44.145  30.896  29.150  1.00  0.00     0.049 A 
ATOM     64  H   UNL A   1      43.891  28.889  28.548  1.00  0.00     0.167 HD
ATOM     65  C   UNL A   1      46.365  30.226  28.283  1.00  0.00     0.074 A 
ATOM     66  C   UNL A   1      47.754  30.482  27.964  1.00  0.00     0.031 C 
ATOM     67  C   UNL A   1      45.528  31.135  28.835  1.00  0.00     0.037 A 
BRANCH  54  68
ATOM     68  C   UNL A   1      39.809  29.026  29.765  1.00  0.00     0.064 A 
ATOM     69  C   UNL A   1      39.409  28.751  31.079  1.00  0.00     0.173 A 
ATOM     70  C   UNL A   1      38.878  29.620  28.900  1.00  0.00     0.173 A 
ATOM     71  F   UNL A   1      40.264  28.171  31.937  1.00  0.00    -0.203 F 
ATOM     72  C   UNL A   1      38.118  29.043  31.509  1.00  0.00     0.198 A 
ATOM     73  C   UNL A   1      37.593  29.929  29.338  1.00  0.00     0.198 A 
ATOM     74  F   UNL A   1      39.217  29.904  27.633  1.00  0.00    -0.203 F 
ATOM     75  F   UNL A   1      37.744  28.743  32.760  1.00  0.00    -0.200 F 
ATOM     76  C   UNL A   1      37.213  29.636  30.639  1.00  0.00     0.200 A 
ATOM     77  F   UNL A   1      36.721  30.506  28.500  1.00  0.00    -0.200 F 
ATOM     78  F   UNL A   1      35.970  29.919  31.055  1.00  0.00    -0.200 F 
ENDBRANCH  54  68
BRANCH  55  79
ATOM     79  C   UNL A   1      48.858  26.764  26.325  1.00  0.00     0.064 A 
ATOM     80  C   UNL A   1      49.835  26.171  27.136  1.00  0.00     0.173 A 
ATOM     81  C   UNL A   1      49.188  27.039  24.991  1.00  0.00     0.173 A 
ATOM     82  F   UNL A   1      49.568  25.914  28.424  1.00  0.00    -0.203 F 
ATOM     83  C   UNL A   1      51.099  25.873  26.634  1.00  0.00     0.198 A 
ATOM     84  C   UNL A   1      50.447  26.725  24.486  1.00  0.00     0.198 A 
ATOM     85  F   UNL A   1      48.284  27.605  24.179  1.00  0.00    -0.203 F 
ATOM     86  F   UNL A   1      52.027  25.334  27.437  1.00  0.00    -0.200 F 
ATOM     87  C   UNL A   1      51.403  26.146  25.308  1.00  0.00     0.200 A 
ATOM     88  F   UNL A   1      50.735  26.984  23.203  1.00  0.00    -0.200 F 
ATOM     89  F   UNL A   1      52.619  25.858  24.825  1.00  0.00    -0.200 F 
ENDBRANCH  55  79
BRANCH  67  90
ATOM     90  C   UNL A   1      46.094  32.485  29.150  1.00  0.00     0.064 A 
ATOM     91  C   UNL A   1      46.026  33.536  28.226  1.00  0.00     0.173 A 
ATOM     92  C   UNL A   1      46.678  32.738  30.399  1.00  0.00     0.173 A 
ATOM     93  F   UNL A   1      45.489  33.334  27.013  1.00  0.00    -0.203 F 
ATOM     94  C   UNL A   1      46.533  34.794  28.538  1.00  0.00     0.198 A 
ATOM     95  C   UNL A   1      47.172  34.001  30.714  1.00  0.00     0.198 A 
ATOM     96  F   UNL A   1      46.766  31.761  31.315  1.00  0.00    -0.203 F 
ATOM     97  F   UNL A   1      46.483  35.780  27.631  1.00  0.00    -0.200 F 
ATOM     98  C   UNL A   1      47.101  35.027  29.782  1.00  0.00     0.200 A 
ATOM     99  F   UNL A   1      47.719  34.226  31.917  1.00  0.00    -0.200 F 
ATOM    100  F   UNL A   1      47.589  36.239  30.081  1.00  0.00    -0.200 F 
ENDBRANCH  67  90
ENDBRANCH  41  42
ENDBRANCH  33  36
ENDBRANCH  31  32
ENDBRANCH  30  31
ENDBRANCH   1  30
TORSDOF 15
ENDMDL
MODEL 2
REMARK VINA RESULT:     -12.2      5.767     10.074
REMARK SMILES O=C(NCCCCCCNC(=O)c1ccc(-c2c3nc(c(-c4c(F)c(F)c(F)c(F)c4F)c4ccc([nH]4)c(-c4c(F)c(F)c(F)c(F)c4F)c4nc(c(-c5c(F)c(F)c(F)c(F)c5F)c5ccc2[nH]5)C=C4)C=C3)cc1)C1=Cc2c(ccc(Cl)c2-c2ccccc2)O[C@H]1C(F)(F)F
REMARK SMILES IDX 7 1 6 2 5 3 4 4 3 5 1 6 2 7 76 9 77 10 92 11 78 12 91 13
REMARK SMILES IDX 79 14 84 15 80 16 82 17 81 18 83 19 93 20 94 21 95 22 96 23
REMARK SMILES IDX 85 24 86 25 90 26 87 27 89 28 88 29 8 30 9 31 10 32 11 33
REMARK SMILES IDX 12 35 13 36 14 37 75 38 15 39 74 40 16 41 17 42 18 43 68 44
REMARK SMILES IDX 19 45 73 46 67 47 69 48 20 49 72 50 66 51 65 52 21 54 53 55
REMARK SMILES IDX 33 56 52 57 34 58 37 59 51 60 70 61 35 62 36 63 50 65 71 66
REMARK SMILES IDX 38 67 22 68 23 69 31 70 24 71 25 72 29 73 32 74 26 75 27 76
REMARK SMILES IDX 30 77 28 78 54 79 55 80 63 81 56 82 57 83 61 84 64 85 58 86
REMARK SMILES IDX 59 87 62 88 60 89 39 90 40 91 48 92 41 93 42 94 46 95 49 96
REMARK SMILES IDX 43 97 44 98 47 99 45 100
REMARK H PARENT 3 8 10 34 69 53 37 64
REMARK Flexibility Score: inf
ROOT
ATOM      1  C   UNL A   1      34.289  33.122  28.311  1.00  0.00     0.002 C 
ENDROOT
BRANCH   1   2
ATOM      2  C   UNL A   1      33.988  31.650  28.003  1.00  0.00     0.002 C 
BRANCH   2   3
ATOM      3  C   UNL A   1      35.183  30.706  27.835  1.00  0.00     0.021 C 
BRANCH   3   4
ATOM      4  C   UNL A   1      34.888  29.343  27.210  1.00  0.00     0.116 C 
BRANCH   4   5
ATOM      5  N   UNL A   1      34.804  29.334  25.751  1.00  0.00    -0.352 N 
ATOM      6  O   UNL A   1      34.060  28.568  23.738  1.00  0.00    -0.270 OA
ATOM      7  C   UNL A   1      34.028  28.513  24.949  1.00  0.00     0.251 C 
ATOM      8  H   UNL A   1      35.366  29.992  25.282  1.00  0.00     0.163 HD
BRANCH   7   9
ATOM      9  C   UNL A   1      33.138  27.570  25.663  1.00  0.00     0.067 C 
ATOM     10  C   UNL A   1      33.559  26.303  25.676  1.00  0.00     0.026 C 
ATOM     11  C   UNL A   1      31.721  27.960  25.923  1.00  0.00     0.314 C 
ATOM     12  C   UNL A   1      32.560  25.337  25.182  1.00  0.00     0.027 A 
ATOM     13  O   UNL A   1      30.756  26.973  25.476  1.00  0.00    -0.475 OA
ATOM     14  C   UNL A   1      31.226  25.760  25.047  1.00  0.00     0.128 A 
ATOM     15  C   UNL A   1      32.987  24.124  24.574  1.00  0.00     0.011 A 
ATOM     16  C   UNL A   1      30.307  24.992  24.336  1.00  0.00     0.049 A 
ATOM     17  C   UNL A   1      32.046  23.384  23.833  1.00  0.00     0.049 A 
ATOM     18  C   UNL A   1      30.719  23.814  23.717  1.00  0.00     0.025 A 
ATOM     19  Cl  UNL A   1      32.489  21.951  22.970  1.00  0.00    -0.084 Cl
BRANCH  11  20
ATOM     20  C   UNL A   1      31.512  28.283  27.418  1.00  0.00     0.429 C 
ATOM     21  F   UNL A   1      32.517  27.837  28.208  1.00  0.00    -0.167 F 
ATOM     22  F   UNL A   1      31.410  29.621  27.612  1.00  0.00    -0.167 F 
ATOM     23  F   UNL A   1      30.369  27.732  27.894  1.00  0.00    -0.167 F 
ENDBRANCH  11  20
BRANCH  15  24
ATOM     24  C   UNL A   1      34.402  23.715  24.677  1.00  0.00    -0.016 A 
ATOM     25  C   UNL A   1      34.919  23.170  25.866  1.00  0.00     0.009 A 
ATOM     26  C   UNL A   1      35.208  23.708  23.530  1.00  0.00     0.009 A 
ATOM     27  C   UNL A   1      36.188  22.586  25.890  1.00  0.00     0.001 A 
ATOM     28  C   UNL A   1      36.478  23.130  23.556  1.00  0.00     0.001 A 
ATOM     29  C   UNL A   1      36.961  22.558  24.732  1.00  0.00     0.000 A 
ENDBRANCH  15  24
ENDBRANCH   7   9
ENDBRANCH   4   5
ENDBRANCH   3   4
ENDBRANCH   2   3
ENDBRANCH   1   2
BRANCH   1  30
ATOM     30  C   UNL A   1      33.140  34.129  28.186  1.00  0.00     0.021 C 
BRANCH  30  31
ATOM     31  C   UNL A   1      33.383  35.532  28.743  1.00  0.00     0.116 C 
BRANCH  31  32
ATOM     32  N   UNL A   1      32.625  35.819  29.946  1.00  0.00    -0.352 N 
ATOM     33  C   UNL A   1      32.865  35.494  31.260  1.00  0.00     0.251 C 
ATOM     34  H   UNL A   1      31.800  36.334  29.797  1.00  0.00     0.163 HD
ATOM     35  O   UNL A   1      32.026  35.796  32.108  1.00  0.00    -0.269 OA
BRANCH  33  36
ATOM     36  C   UNL A   1      34.088  34.768  31.688  1.00  0.00     0.039 A 
ATOM     37  C   UNL A   1      33.935  33.475  32.209  1.00  0.00     0.014 A 
ATOM     38  C   UNL A   1      35.363  35.341  31.655  1.00  0.00     0.014 A 
ATOM     39  C   UNL A   1      35.048  32.746  32.641  1.00  0.00     0.010 A 
ATOM     40  C   UNL A   1      36.482  34.594  32.039  1.00  0.00     0.010 A 
ATOM     41  C   UNL A   1      36.336  33.289  32.537  1.00  0.00    -0.014 A 
BRANCH  41  42
ATOM     42  C   UNL A   1      37.533  32.509  32.948  1.00  0.00     0.031 A 
ATOM     43  C   UNL A   1      38.207  32.783  34.264  1.00  0.00     0.074 A 
ATOM     44  C   UNL A   1      38.048  31.583  32.118  1.00  0.00     0.049 A 
ATOM     45  N   UNL A   1      39.310  32.271  34.752  1.00  0.00    -0.248 NA
ATOM     46  C   UNL A   1      37.566  33.774  35.139  1.00  0.00     0.031 C 
ATOM     47  C   UNL A   1      37.511  31.234  30.802  1.00  0.00     0.029 A 
ATOM     48  N   UNL A   1      39.147  30.771  32.256  1.00  0.00    -0.354 N 
ATOM     49  C   UNL A   1      39.509  32.896  35.975  1.00  0.00     0.074 A 
ATOM     50  C   UNL A   1      38.423  33.838  36.149  1.00  0.00     0.031 C 
ATOM     51  C   UNL A   1      38.276  30.273  30.257  1.00  0.00     0.029 A 
ATOM     52  C   UNL A   1      39.371  29.958  31.172  1.00  0.00     0.049 A 
ATOM     53  H   UNL A   1      39.721  30.772  33.056  1.00  0.00     0.167 HD
ATOM     54  C   UNL A   1      40.501  32.697  36.876  1.00  0.00     0.037 A 
ATOM     55  C   UNL A   1      40.350  29.064  30.936  1.00  0.00     0.037 A 
ATOM     56  C   UNL A   1      41.562  31.736  36.733  1.00  0.00     0.049 A 
ATOM     57  C   UNL A   1      41.417  28.836  31.969  1.00  0.00     0.074 A 
ATOM     58  C   UNL A   1      42.588  31.441  37.616  1.00  0.00     0.029 A 
ATOM     59  N   UNL A   1      41.728  30.904  35.637  1.00  0.00    -0.354 N 
ATOM     60  N   UNL A   1      41.583  29.421  33.129  1.00  0.00    -0.248 NA
ATOM     61  C   UNL A   1      42.434  27.819  31.659  1.00  0.00     0.031 C 
ATOM     62  C   UNL A   1      43.384  30.441  37.047  1.00  0.00     0.029 A 
ATOM     63  C   UNL A   1      42.840  30.098  35.820  1.00  0.00     0.049 A 
ATOM     64  H   UNL A   1      41.143  30.886  34.846  1.00  0.00     0.167 HD
ATOM     65  C   UNL A   1      42.708  28.838  33.692  1.00  0.00     0.074 A 
ATOM     66  C   UNL A   1      43.182  27.843  32.753  1.00  0.00     0.031 C 
ATOM     67  C   UNL A   1      43.296  29.107  34.882  1.00  0.00     0.037 A 
BRANCH  54  68
ATOM     68  C   UNL A   1      40.487  33.545  38.111  1.00  0.00     0.064 A 
ATOM     69  C   UNL A   1      39.638  33.254  39.187  1.00  0.00     0.173 A 
ATOM     70  C   UNL A   1      41.359  34.637  38.233  1.00  0.00     0.173 A 
ATOM     71  F   UNL A   1      38.778  32.226  39.109  1.00  0.00    -0.203 F 
ATOM     72  C   UNL A   1      39.649  34.038  40.337  1.00  0.00     0.198 A 
ATOM     73  C   UNL A   1      41.381  35.408  39.392  1.00  0.00     0.198 A 
ATOM     74  F   UNL A   1      42.192  34.952  37.229  1.00  0.00    -0.203 F 
ATOM     75  F   UNL A   1      38.806  33.763  41.342  1.00  0.00    -0.200 F 
ATOM     76  C   UNL A   1      40.523  35.111  40.440  1.00  0.00     0.200 A 
ATOM     77  F   UNL A   1      42.229  36.440  39.493  1.00  0.00    -0.200 F 
ATOM     78  F   UNL A   1      40.533  35.863  41.550  1.00  0.00    -0.200 F 
ENDBRANCH  54  68
BRANCH  55  79
ATOM     79  C   UNL A   1      40.357  28.302  29.666  1.00  0.00     0.064 A 
ATOM     80  C   UNL A   1      41.097  28.751  28.564  1.00  0.00     0.173 A 
ATOM     81  C   UNL A   1      39.630  27.112  29.529  1.00  0.00     0.173 A 
ATOM     82  F   UNL A   1      41.786  29.898  28.646  1.00  0.00    -0.203 F 
ATOM     83  C   UNL A   1      41.102  28.042  27.366  1.00  0.00     0.198 A 
ATOM     84  C   UNL A   1      39.649  26.394  28.336  1.00  0.00     0.198 A 
ATOM     85  F   UNL A   1      38.908  26.644  30.557  1.00  0.00    -0.203 F 
ATOM     86  F   UNL A   1      41.793  28.507  26.317  1.00  0.00    -0.200 F 
ATOM     87  C   UNL A   1      40.382  26.861  27.254  1.00  0.00     0.200 A 
ATOM     88  F   UNL A   1      38.958  25.251  28.233  1.00  0.00    -0.200 F 
ATOM     89  F   UNL A   1      40.389  26.178  26.102  1.00  0.00    -0.200 F 
ENDBRANCH  55  79
BRANCH  67  90
ATOM     90  C   UNL A   1      44.505  28.302  35.246  1.00  0.00     0.064 A 
ATOM     91  C   UNL A   1      45.796  28.738  34.918  1.00  0.00     0.173 A 
ATOM     92  C   UNL A   1      44.373  27.103  35.961  1.00  0.00     0.173 A 
ATOM     93  F   UNL A   1      45.967  29.872  34.221  1.00  0.00    -0.203 F 
ATOM     94  C   UNL A   1      46.914  27.994  35.283  1.00  0.00     0.198 A 
ATOM     95  C   UNL A   1      45.494  26.368  36.336  1.00  0.00     0.198 A 
ATOM     96  F   UNL A   1      43.156  26.647  36.296  1.00  0.00    -0.203 F 
ATOM     97  F   UNL A   1      48.139  28.414  34.936  1.00  0.00    -0.200 F 
ATOM     98  C   UNL A   1      46.763  26.813  35.995  1.00  0.00     0.200 A 
ATOM     99  F   UNL A   1      45.347  25.229  37.027  1.00  0.00    -0.200 F 
ATOM    100  F   UNL A   1      47.841  26.099  36.346  1.00  0.00    -0.200 F 
ENDBRANCH  67  90
ENDBRANCH  41  42
ENDBRANCH  33  36
ENDBRANCH  31  32
ENDBRANCH  30  31
ENDBRANCH   1  30
TORSDOF 15
ENDMDL
MODEL 3
REMARK VINA RESULT:     -12.1      0.681      7.135
REMARK SMILES O=C(NCCCCCCNC(=O)c1ccc(-c2c3nc(c(-c4c(F)c(F)c(F)c(F)c4F)c4ccc([nH]4)c(-c4c(F)c(F)c(F)c(F)c4F)c4nc(c(-c5c(F)c(F)c(F)c(F)c5F)c5ccc2[nH]5)C=C4)C=C3)cc1)C1=Cc2c(ccc(Cl)c2-c2ccccc2)O[C@H]1C(F)(F)F
REMARK SMILES IDX 7 1 6 2 5 3 4 4 3 5 1 6 2 7 76 9 77 10 92 11 78 12 91 13
REMARK SMILES IDX 79 14 84 15 80 16 82 17 81 18 83 19 93 20 94 21 95 22 96 23
REMARK SMILES IDX 85 24 86 25 90 26 87 27 89 28 88 29 8 30 9 31 10 32 11 33
REMARK SMILES IDX 12 35 13 36 14 37 75 38 15 39 74 40 16 41 17 42 18 43 68 44
REMARK SMILES IDX 19 45 73 46 67 47 69 48 20 49 72 50 66 51 65 52 21 54 53 55
REMARK SMILES IDX 33 56 52 57 34 58 37 59 51 60 70 61 35 62 36 63 50 65 71 66
REMARK SMILES IDX 38 67 22 68 23 69 31 70 24 71 25 72 29 73 32 74 26 75 27 76
REMARK SMILES IDX 30 77 28 78 54 79 55 80 63 81 56 82 57 83 61 84 64 85 58 86
REMARK SMILES IDX 59 87 62 88 60 89 39 90 40 91 48 92 41 93 42 94 46 95 49 96
REMARK SMILES IDX 43 97 44 98 47 99 45 100
REMARK H PARENT 3 8 10 34 69 53 37 64
REMARK Flexibility Score: inf
ROOT
ATOM      1  C   UNL A   1      36.349  20.297  24.967  1.00  0.00     0.002 C 
ENDROOT
BRANCH   1   2
ATOM      2  C   UNL A   1      36.285  21.753  25.448  1.00  0.00     0.002 C 
BRANCH   2   3
ATOM      3  C   UNL A   1      35.254  22.093  26.528  1.00  0.00     0.021 C 
BRANCH   3   4
ATOM      4  C   UNL A   1      33.951  21.294  26.498  1.00  0.00     0.116 C 
BRANCH   4   5
ATOM      5  N   UNL A   1      32.842  21.886  27.243  1.00  0.00    -0.352 N 
ATOM      6  O   UNL A   1      31.095  23.320  27.537  1.00  0.00    -0.270 OA
ATOM      7  C   UNL A   1      31.967  22.874  26.821  1.00  0.00     0.251 C 
ATOM      8  H   UNL A   1      32.700  21.541  28.153  1.00  0.00     0.163 HD
BRANCH   7   9
ATOM      9  C   UNL A   1      32.147  23.343  25.428  1.00  0.00     0.067 C 
ATOM     10  C   UNL A   1      32.577  24.602  25.312  1.00  0.00     0.026 C 
ATOM     11  C   UNL A   1      31.475  22.607  24.318  1.00  0.00     0.314 C 
ATOM     12  C   UNL A   1      31.731  25.443  24.446  1.00  0.00     0.027 A 
ATOM     13  O   UNL A   1      30.689  23.461  23.448  1.00  0.00    -0.475 OA
ATOM     14  C   UNL A   1      30.786  24.817  23.616  1.00  0.00     0.128 A 
ATOM     15  C   UNL A   1      31.660  26.846  24.673  1.00  0.00     0.011 A 
ATOM     16  C   UNL A   1      29.786  25.559  22.993  1.00  0.00     0.049 A 
ATOM     17  C   UNL A   1      30.619  27.568  24.058  1.00  0.00     0.049 A 
ATOM     18  C   UNL A   1      29.692  26.929  23.226  1.00  0.00     0.025 A 
ATOM     19  Cl  UNL A   1      30.383  29.257  24.351  1.00  0.00    -0.084 Cl
BRANCH  11  20
ATOM     20  C   UNL A   1      32.504  21.799  23.499  1.00  0.00     0.429 C 
ATOM     21  F   UNL A   1      32.673  20.535  23.950  1.00  0.00    -0.167 F 
ATOM     22  F   UNL A   1      32.130  21.718  22.199  1.00  0.00    -0.167 F 
ATOM     23  F   UNL A   1      33.727  22.385  23.516  1.00  0.00    -0.167 F 
ENDBRANCH  11  20
BRANCH  15  24
ATOM     24  C   UNL A   1      32.625  27.487  25.588  1.00  0.00    -0.016 A 
ATOM     25  C   UNL A   1      33.822  28.049  25.110  1.00  0.00     0.009 A 
ATOM     26  C   UNL A   1      32.277  27.693  26.931  1.00  0.00     0.009 A 
ATOM     27  C   UNL A   1      34.620  28.842  25.940  1.00  0.00     0.001 A 
ATOM     28  C   UNL A   1      33.077  28.479  27.761  1.00  0.00     0.001 A 
ATOM     29  C   UNL A   1      34.240  29.063  27.262  1.00  0.00     0.000 A 
ENDBRANCH  15  24
ENDBRANCH   7   9
ENDBRANCH   4   5
ENDBRANCH   3   4
ENDBRANCH   2   3
ENDBRANCH   1   2
BRANCH   1  30
ATOM     30  C   UNL A   1      37.723  19.619  24.918  1.00  0.00     0.021 C 
BRANCH  30  31
ATOM     31  C   UNL A   1      38.884  20.357  25.585  1.00  0.00     0.116 C 
BRANCH  31  32
ATOM     32  N   UNL A   1      39.997  19.494  25.934  1.00  0.00    -0.352 N 
ATOM     33  C   UNL A   1      41.250  19.792  26.415  1.00  0.00     0.251 C 
ATOM     34  H   UNL A   1      39.826  18.534  25.807  1.00  0.00     0.163 HD
ATOM     35  O   UNL A   1      42.057  18.877  26.572  1.00  0.00    -0.269 OA
BRANCH  33  36
ATOM     36  C   UNL A   1      41.673  21.183  26.724  1.00  0.00     0.039 A 
ATOM     37  C   UNL A   1      42.039  22.011  25.653  1.00  0.00     0.014 A 
ATOM     38  C   UNL A   1      41.784  21.671  28.029  1.00  0.00     0.014 A 
ATOM     39  C   UNL A   1      42.458  23.326  25.881  1.00  0.00     0.010 A 
ATOM     40  C   UNL A   1      42.155  23.001  28.255  1.00  0.00     0.010 A 
ATOM     41  C   UNL A   1      42.496  23.842  27.184  1.00  0.00    -0.014 A 
BRANCH  41  42
ATOM     42  C   UNL A   1      42.894  25.251  27.439  1.00  0.00     0.031 A 
ATOM     43  C   UNL A   1      44.277  25.728  27.093  1.00  0.00     0.074 A 
ATOM     44  C   UNL A   1      42.027  26.098  28.026  1.00  0.00     0.049 A 
ATOM     45  N   UNL A   1      44.834  26.891  27.324  1.00  0.00    -0.248 NA
ATOM     46  C   UNL A   1      45.156  24.765  26.413  1.00  0.00     0.031 C 
ATOM     47  C   UNL A   1      40.664  25.763  28.437  1.00  0.00     0.029 A 
ATOM     48  N   UNL A   1      42.171  27.415  28.389  1.00  0.00    -0.354 N 
ATOM     49  C   UNL A   1      46.133  26.791  26.844  1.00  0.00     0.074 A 
ATOM     50  C   UNL A   1      46.289  25.448  26.325  1.00  0.00     0.031 C 
ATOM     51  C   UNL A   1      40.092  26.847  28.987  1.00  0.00     0.029 A 
ATOM     52  C   UNL A   1      41.056  27.944  28.992  1.00  0.00     0.049 A 
ATOM     53  H   UNL A   1      42.994  27.931  28.232  1.00  0.00     0.167 HD
ATOM     54  C   UNL A   1      47.106  27.734  26.829  1.00  0.00     0.037 A 
ATOM     55  C   UNL A   1      40.836  29.172  29.499  1.00  0.00     0.037 A 
ATOM     56  C   UNL A   1      46.951  29.083  27.306  1.00  0.00     0.049 A 
ATOM     57  C   UNL A   1      41.919  30.211  29.435  1.00  0.00     0.074 A 
ATOM     58  C   UNL A   1      47.873  30.116  27.293  1.00  0.00     0.029 A 
ATOM     59  N   UNL A   1      45.792  29.589  27.872  1.00  0.00    -0.354 N 
ATOM     60  N   UNL A   1      43.136  30.108  28.963  1.00  0.00    -0.248 NA
ATOM     61  C   UNL A   1      41.596  31.541  29.976  1.00  0.00     0.031 C 
ATOM     62  C   UNL A   1      47.277  31.245  27.866  1.00  0.00     0.029 A 
ATOM     63  C   UNL A   1      45.977  30.920  28.215  1.00  0.00     0.049 A 
ATOM     64  H   UNL A   1      44.960  29.081  28.009  1.00  0.00     0.167 HD
ATOM     65  C   UNL A   1      43.718  31.356  29.134  1.00  0.00     0.074 A 
ATOM     66  C   UNL A   1      42.719  32.206  29.744  1.00  0.00     0.031 C 
ATOM     67  C   UNL A   1      44.972  31.756  28.815  1.00  0.00     0.037 A 
BRANCH  54  68
ATOM     68  C   UNL A   1      48.439  27.336  26.275  1.00  0.00     0.064 A 
ATOM     69  C   UNL A   1      49.476  26.899  27.110  1.00  0.00     0.173 A 
ATOM     70  C   UNL A   1      48.669  27.357  24.892  1.00  0.00     0.173 A 
ATOM     71  F   UNL A   1      49.305  26.875  28.442  1.00  0.00    -0.203 F 
ATOM     72  C   UNL A   1      50.705  26.513  26.582  1.00  0.00     0.198 A 
ATOM     73  C   UNL A   1      49.892  26.953  24.364  1.00  0.00     0.198 A 
ATOM     74  F   UNL A   1      47.704  27.765  24.053  1.00  0.00    -0.203 F 
ATOM     75  F   UNL A   1      51.694  26.130  27.399  1.00  0.00    -0.200 F 
ATOM     76  C   UNL A   1      50.910  26.536  25.209  1.00  0.00     0.200 A 
ATOM     77  F   UNL A   1      50.088  26.970  23.039  1.00  0.00    -0.200 F 
ATOM     78  F   UNL A   1      52.093  26.162  24.702  1.00  0.00    -0.200 F 
ENDBRANCH  54  68
BRANCH  55  79
ATOM     79  C   UNL A   1      39.520  29.492  30.100  1.00  0.00     0.064 A 
ATOM     80  C   UNL A   1      38.470  29.976  29.309  1.00  0.00     0.173 A 
ATOM     81  C   UNL A   1      39.286  29.315  31.471  1.00  0.00     0.173 A 
ATOM     82  F   UNL A   1      38.661  30.183  27.999  1.00  0.00    -0.203 F 
ATOM     83  C   UNL A   1      37.233  30.283  29.871  1.00  0.00     0.198 A 
ATOM     84  C   UNL A   1      38.043  29.606  32.027  1.00  0.00     0.198 A 
ATOM     85  F   UNL A   1      40.262  28.854  32.265  1.00  0.00    -0.203 F 
ATOM     86  F   UNL A   1      36.253  30.774  29.100  1.00  0.00    -0.200 F 
ATOM     87  C   UNL A   1      37.019  30.093  31.228  1.00  0.00     0.200 A 
ATOM     88  F   UNL A   1      37.838  29.416  33.337  1.00  0.00    -0.200 F 
ATOM     89  F   UNL A   1      35.828  30.386  31.767  1.00  0.00    -0.200 F 
ENDBRANCH  55  79
BRANCH  67  90
ATOM     90  C   UNL A   1      45.328  33.182  29.101  1.00  0.00     0.064 A 
ATOM     91  C   UNL A   1      45.932  33.554  30.310  1.00  0.00     0.173 A 
ATOM     92  C   UNL A   1      45.097  34.179  28.142  1.00  0.00     0.173 A 
ATOM     93  F   UNL A   1      46.157  32.634  31.260  1.00  0.00    -0.203 F 
ATOM     94  C   UNL A   1      46.282  34.878  30.555  1.00  0.00     0.198 A 
ATOM     95  C   UNL A   1      45.461  35.501  28.386  1.00  0.00     0.198 A 
ATOM     96  F   UNL A   1      44.521  33.870  26.971  1.00  0.00    -0.203 F 
ATOM     97  F   UNL A   1      46.833  35.218  31.729  1.00  0.00    -0.200 F 
ATOM     98  C   UNL A   1      46.050  35.849  29.592  1.00  0.00     0.200 A 
ATOM     99  F   UNL A   1      45.240  36.438  27.453  1.00  0.00    -0.200 F 
ATOM    100  F   UNL A   1      46.388  37.124  29.831  1.00  0.00    -0.200 F 
ENDBRANCH  67  90
ENDBRANCH  41  42
ENDBRANCH  33  36
ENDBRANCH  31  32
ENDBRANCH  30  31
ENDBRANCH   1  30
TORSDOF 15
ENDMDL
