MODEL 1
REMARK VINA RESULT:     -11.7      0.000      0.000
REMARK SMILES Cc1ccc([C@@H](C)[NH2+][C@@H](C)CCC(=O)NCCCCCCNC(=O)c2ccc(-c3c4nc(c(-c5c(F)c(F)c(F)c(F)c5F)c5ccc([nH]5)c(-c5c(F)c(F)c(F)c(F)c5F)c5nc(c(-c6c(F)c(F)c(F)c(F)c6F)c6ccc3[nH]6)C=C5)C=C4)cc2)cc1F
REMARK SMILES IDX 17 1 16 2 15 3 13 4 14 5 12 7 11 8 9 9 10 10 8 11 6 14 7 15
REMARK SMILES IDX 5 16 1 17 2 18 3 19 89 20 4 21 88 22 90 23 18 24 19 25 20 26
REMARK SMILES IDX 21 27 22 28 23 29 24 31 25 32 26 33 87 34 27 35 86 36 28 37
REMARK SMILES IDX 29 38 30 39 80 40 31 41 85 42 79 43 81 44 32 45 84 46 78 47
REMARK SMILES IDX 77 48 33 50 65 51 45 52 64 53 46 54 49 55 63 56 82 57 47 58
REMARK SMILES IDX 48 59 62 61 83 62 50 63 34 64 35 65 43 66 36 67 37 68 41 69
REMARK SMILES IDX 44 70 38 71 39 72 42 73 40 74 66 75 67 76 75 77 68 78 69 79
REMARK SMILES IDX 73 80 76 81 70 82 71 83 74 84 72 85 51 86 52 87 60 88 53 89
REMARK SMILES IDX 54 90 58 91 61 92 55 93 56 94 59 95 57 96
REMARK H PARENT 15 6 8 12 8 13 22 30 81 49 49 60
REMARK Flexibility Score: inf
ROOT
ATOM      1  C   UNL A   1      31.557  28.949  23.251  1.00  0.00     0.021 C 
ENDROOT
BRANCH   1   2
ATOM      2  C   UNL A   1      30.886  27.839  22.436  1.00  0.00     0.116 C 
BRANCH   2   3
ATOM      3  N   UNL A   1      31.870  27.131  21.659  1.00  0.00    -0.356 N 
ATOM      4  C   UNL A   1      32.268  25.838  21.782  1.00  0.00     0.220 C 
ATOM      5  O   UNL A   1      33.225  25.459  21.104  1.00  0.00    -0.275 OA
ATOM      6  H   UNL A   1      32.310  27.651  20.949  1.00  0.00     0.163 HD
BRANCH   4   7
ATOM      7  C   UNL A   1      31.537  24.892  22.719  1.00  0.00     0.106 C 
BRANCH   7   8
ATOM      8  C   UNL A   1      31.682  25.244  24.204  1.00  0.00     0.074 C 
BRANCH   8   9
ATOM      9  C   UNL A   1      32.975  24.765  24.913  1.00  0.00     0.180 C 
ATOM     10  C   UNL A   1      34.025  25.880  24.830  1.00  0.00     0.075 C 
BRANCH   9  11
ATOM     11  N   UNL A   1      33.445  23.499  24.323  1.00  0.00    -0.338 N 
ATOM     12  H   UNL A   1      32.744  23.194  23.648  1.00  0.00     0.347 HD
ATOM     13  H   UNL A   1      34.359  23.713  23.926  1.00  0.00     0.347 HD
BRANCH  11  14
ATOM     14  C   UNL A   1      33.681  22.381  25.251  1.00  0.00     0.210 C 
ATOM     15  C   UNL A   1      32.991  22.511  26.612  1.00  0.00     0.081 C 
BRANCH  14  16
ATOM     16  C   UNL A   1      35.171  22.126  25.469  1.00  0.00     0.012 A 
ATOM     17  C   UNL A   1      39.477  21.692  25.751  1.00  0.00     0.047 C 
ATOM     18  C   UNL A   1      37.989  21.841  25.679  1.00  0.00    -0.015 A 
ATOM     19  C   UNL A   1      37.361  22.987  26.162  1.00  0.00     0.007 A 
ATOM     20  C   UNL A   1      37.195  20.833  25.127  1.00  0.00     0.126 A 
ATOM     21  C   UNL A   1      35.973  23.121  26.061  1.00  0.00     0.010 A 
ATOM     22  C   UNL A   1      35.808  20.965  25.016  1.00  0.00     0.049 A 
ATOM     23  F   UNL A   1      37.774  19.715  24.665  1.00  0.00    -0.207 F 
ENDBRANCH  14  16
ENDBRANCH  11  14
ENDBRANCH   9  11
ENDBRANCH   8   9
ENDBRANCH   7   8
ENDBRANCH   4   7
ENDBRANCH   2   3
ENDBRANCH   1   2
BRANCH   1  24
ATOM     24  C   UNL A   1      30.904  29.185  24.611  1.00  0.00     0.002 C 
BRANCH  24  25
ATOM     25  C   UNL A   1      31.777  28.797  25.814  1.00  0.00     0.002 C 
BRANCH  25  26
ATOM     26  C   UNL A   1      33.237  29.251  25.719  1.00  0.00     0.021 C 
BRANCH  26  27
ATOM     27  C   UNL A   1      33.873  29.381  27.077  1.00  0.00     0.116 C 
BRANCH  27  28
ATOM     28  N   UNL A   1      34.409  30.724  27.247  1.00  0.00    -0.352 N 
ATOM     29  C   UNL A   1      35.453  31.123  28.043  1.00  0.00     0.251 C 
ATOM     30  H   UNL A   1      33.967  31.433  26.727  1.00  0.00     0.163 HD
ATOM     31  O   UNL A   1      35.502  32.259  28.484  1.00  0.00    -0.269 OA
BRANCH  29  32
ATOM     32  C   UNL A   1      36.549  30.171  28.278  1.00  0.00     0.039 A 
ATOM     33  C   UNL A   1      36.592  29.398  29.445  1.00  0.00     0.014 A 
ATOM     34  C   UNL A   1      37.616  30.170  27.384  1.00  0.00     0.014 A 
ATOM     35  C   UNL A   1      37.750  28.688  29.737  1.00  0.00     0.010 A 
ATOM     36  C   UNL A   1      38.645  29.313  27.549  1.00  0.00     0.010 A 
ATOM     37  C   UNL A   1      38.770  28.704  28.790  1.00  0.00    -0.014 A 
BRANCH  37  38
ATOM     38  C   UNL A   1      40.111  28.220  28.979  1.00  0.00     0.031 A 
ATOM     39  C   UNL A   1      40.399  26.847  28.598  1.00  0.00     0.074 A 
ATOM     40  C   UNL A   1      41.022  29.203  29.165  1.00  0.00     0.049 A 
ATOM     41  N   UNL A   1      41.398  26.186  29.050  1.00  0.00    -0.248 NA
ATOM     42  C   UNL A   1      39.560  26.089  27.672  1.00  0.00     0.031 C 
ATOM     43  C   UNL A   1      42.457  29.227  28.946  1.00  0.00     0.029 A 
ATOM     44  N   UNL A   1      40.745  30.487  29.671  1.00  0.00    -0.354 N 
ATOM     45  C   UNL A   1      41.553  25.114  28.202  1.00  0.00     0.074 A 
ATOM     46  C   UNL A   1      40.303  24.992  27.490  1.00  0.00     0.031 C 
ATOM     47  C   UNL A   1      42.969  30.283  29.612  1.00  0.00     0.029 A 
ATOM     48  C   UNL A   1      41.891  30.880  30.387  1.00  0.00     0.049 A 
ATOM     49  H   UNL A   1      39.918  31.006  29.548  1.00  0.00     0.167 HD
ATOM     50  C   UNL A   1      42.804  24.602  28.042  1.00  0.00     0.037 A 
ATOM     51  C   UNL A   1      41.781  30.894  31.753  1.00  0.00     0.037 A 
ATOM     52  C   UNL A   1      43.775  25.402  28.796  1.00  0.00     0.049 A 
ATOM     53  C   UNL A   1      42.508  29.731  32.399  1.00  0.00     0.074 A 
ATOM     54  C   UNL A   1      44.644  26.429  28.462  1.00  0.00     0.029 A 
ATOM     55  N   UNL A   1      43.633  25.475  30.166  1.00  0.00    -0.354 N 
ATOM     56  N   UNL A   1      43.087  28.768  31.732  1.00  0.00    -0.248 NA
ATOM     57  C   UNL A   1      42.598  29.531  33.842  1.00  0.00     0.031 C 
ATOM     58  C   UNL A   1      45.009  27.113  29.665  1.00  0.00     0.029 A 
ATOM     59  C   UNL A   1      44.361  26.503  30.724  1.00  0.00     0.049 A 
ATOM     60  H   UNL A   1      43.071  24.858  30.690  1.00  0.00     0.167 HD
ATOM     61  C   UNL A   1      43.595  27.839  32.591  1.00  0.00     0.074 A 
ATOM     62  C   UNL A   1      43.242  28.352  33.906  1.00  0.00     0.031 C 
ATOM     63  C   UNL A   1      44.247  26.715  32.160  1.00  0.00     0.037 A 
BRANCH  50  64
ATOM     64  C   UNL A   1      43.182  23.567  27.020  1.00  0.00     0.064 A 
ATOM     65  C   UNL A   1      42.819  22.218  27.205  1.00  0.00     0.173 A 
ATOM     66  C   UNL A   1      43.860  23.845  25.817  1.00  0.00     0.173 A 
ATOM     67  F   UNL A   1      42.124  21.820  28.278  1.00  0.00    -0.203 F 
ATOM     68  C   UNL A   1      43.154  21.219  26.291  1.00  0.00     0.198 A 
ATOM     69  C   UNL A   1      44.236  22.836  24.922  1.00  0.00     0.198 A 
ATOM     70  F   UNL A   1      44.136  25.102  25.444  1.00  0.00    -0.203 F 
ATOM     71  F   UNL A   1      42.766  19.957  26.520  1.00  0.00    -0.200 F 
ATOM     72  C   UNL A   1      43.880  21.523  25.158  1.00  0.00     0.200 A 
ATOM     73  F   UNL A   1      44.933  23.148  23.820  1.00  0.00    -0.200 F 
ATOM     74  F   UNL A   1      44.212  20.561  24.289  1.00  0.00    -0.200 F 
ENDBRANCH  50  64
BRANCH  51  75
ATOM     75  C   UNL A   1      40.443  31.448  32.164  1.00  0.00     0.064 A 
ATOM     76  C   UNL A   1      39.502  30.524  32.676  1.00  0.00     0.173 A 
ATOM     77  C   UNL A   1      40.288  32.791  32.541  1.00  0.00     0.173 A 
ATOM     78  F   UNL A   1      39.586  29.228  32.337  1.00  0.00    -0.203 F 
ATOM     79  C   UNL A   1      38.593  30.888  33.669  1.00  0.00     0.198 A 
ATOM     80  C   UNL A   1      39.345  33.157  33.508  1.00  0.00     0.198 A 
ATOM     81  F   UNL A   1      41.130  33.726  32.081  1.00  0.00    -0.203 F 
ATOM     82  F   UNL A   1      37.845  29.949  34.267  1.00  0.00    -0.200 F 
ATOM     83  C   UNL A   1      38.542  32.198  34.110  1.00  0.00     0.200 A 
ATOM     84  F   UNL A   1      39.279  34.431  33.924  1.00  0.00    -0.200 F 
ATOM     85  F   UNL A   1      37.746  32.524  35.137  1.00  0.00    -0.200 F 
ENDBRANCH  51  75
BRANCH  63  86
ATOM     86  C   UNL A   1      44.811  25.682  33.099  1.00  0.00     0.064 A 
ATOM     87  C   UNL A   1      46.170  25.345  33.098  1.00  0.00     0.173 A 
ATOM     88  C   UNL A   1      43.993  24.927  33.971  1.00  0.00     0.173 A 
ATOM     89  F   UNL A   1      47.017  25.899  32.217  1.00  0.00    -0.203 F 
ATOM     90  C   UNL A   1      46.692  24.411  33.994  1.00  0.00     0.198 A 
ATOM     91  C   UNL A   1      44.504  23.946  34.811  1.00  0.00     0.198 A 
ATOM     92  F   UNL A   1      42.673  25.127  34.075  1.00  0.00    -0.203 F 
ATOM     93  F   UNL A   1      48.013  24.193  34.025  1.00  0.00    -0.200 F 
ATOM     94  C   UNL A   1      45.859  23.712  34.849  1.00  0.00     0.200 A 
ATOM     95  F   UNL A   1      43.671  23.245  35.594  1.00  0.00    -0.200 F 
ATOM     96  F   UNL A   1      46.362  22.815  35.707  1.00  0.00    -0.200 F 
ENDBRANCH  63  86
ENDBRANCH  37  38
ENDBRANCH  29  32
ENDBRANCH  27  28
ENDBRANCH  26  27
ENDBRANCH  25  26
ENDBRANCH  24  25
ENDBRANCH   1  24
TORSDOF 18
ENDMDL
MODEL 2
REMARK VINA RESULT:     -11.6      3.340      9.558
REMARK SMILES Cc1ccc([C@@H](C)[NH2+][C@@H](C)CCC(=O)NCCCCCCNC(=O)c2ccc(-c3c4nc(c(-c5c(F)c(F)c(F)c(F)c5F)c5ccc([nH]5)c(-c5c(F)c(F)c(F)c(F)c5F)c5nc(c(-c6c(F)c(F)c(F)c(F)c6F)c6ccc3[nH]6)C=C5)C=C4)cc2)cc1F
REMARK SMILES IDX 17 1 16 2 15 3 13 4 14 5 12 7 11 8 9 9 10 10 8 11 6 14 7 15
REMARK SMILES IDX 5 16 1 17 2 18 3 19 89 20 4 21 88 22 90 23 18 24 19 25 20 26
REMARK SMILES IDX 21 27 22 28 23 29 24 31 25 32 26 33 87 34 27 35 86 36 28 37
REMARK SMILES IDX 29 38 30 39 80 40 31 41 85 42 79 43 81 44 32 45 84 46 78 47
REMARK SMILES IDX 77 48 33 50 65 51 45 52 64 53 46 54 49 55 63 56 82 57 47 58
REMARK SMILES IDX 48 59 62 61 83 62 50 63 34 64 35 65 43 66 36 67 37 68 41 69
REMARK SMILES IDX 44 70 38 71 39 72 42 73 40 74 66 75 67 76 75 77 68 78 69 79
REMARK SMILES IDX 73 80 76 81 70 82 71 83 74 84 72 85 51 86 52 87 60 88 53 89
REMARK SMILES IDX 54 90 58 91 61 92 55 93 56 94 59 95 57 96
REMARK H PARENT 15 6 8 12 8 13 22 30 81 49 49 60
REMARK Flexibility Score: inf
ROOT
ATOM      1  C   UNL A   1      34.161  19.658  24.643  1.00  0.00     0.021 C 
ENDROOT
BRANCH   1   2
ATOM      2  C   UNL A   1      32.644  19.846  24.736  1.00  0.00     0.116 C 
BRANCH   2   3
ATOM      3  N   UNL A   1      32.333  20.967  25.582  1.00  0.00    -0.356 N 
ATOM      4  C   UNL A   1      32.072  22.251  25.218  1.00  0.00     0.220 C 
ATOM      5  O   UNL A   1      31.961  23.095  26.109  1.00  0.00    -0.275 OA
ATOM      6  H   UNL A   1      32.308  20.780  26.548  1.00  0.00     0.163 HD
BRANCH   4   7
ATOM      7  C   UNL A   1      31.909  22.618  23.754  1.00  0.00     0.106 C 
BRANCH   7   8
ATOM      8  C   UNL A   1      30.949  23.788  23.505  1.00  0.00     0.074 C 
BRANCH   8   9
ATOM      9  C   UNL A   1      31.591  25.180  23.269  1.00  0.00     0.180 C 
ATOM     10  C   UNL A   1      32.851  25.002  22.412  1.00  0.00     0.075 C 
BRANCH   9  11
ATOM     11  N   UNL A   1      31.869  25.843  24.555  1.00  0.00    -0.338 N 
ATOM     12  H   UNL A   1      31.732  25.152  25.293  1.00  0.00     0.347 HD
ATOM     13  H   UNL A   1      32.821  26.198  24.471  1.00  0.00     0.347 HD
BRANCH  11  14
ATOM     14  C   UNL A   1      31.048  27.017  24.888  1.00  0.00     0.210 C 
ATOM     15  C   UNL A   1      30.218  27.578  23.730  1.00  0.00     0.081 C 
BRANCH  14  16
ATOM     16  C   UNL A   1      31.882  28.143  25.497  1.00  0.00     0.012 A 
ATOM     17  C   UNL A   1      34.152  31.162  27.628  1.00  0.00     0.047 C 
ATOM     18  C   UNL A   1      33.386  30.119  26.874  1.00  0.00    -0.015 A 
ATOM     19  C   UNL A   1      33.887  28.826  26.734  1.00  0.00     0.007 A 
ATOM     20  C   UNL A   1      32.152  30.419  26.292  1.00  0.00     0.126 A 
ATOM     21  C   UNL A   1      33.145  27.858  26.050  1.00  0.00     0.010 A 
ATOM     22  C   UNL A   1      31.403  29.453  25.615  1.00  0.00     0.049 A 
ATOM     23  F   UNL A   1      31.654  31.659  26.403  1.00  0.00    -0.207 F 
ENDBRANCH  14  16
ENDBRANCH  11  14
ENDBRANCH   9  11
ENDBRANCH   8   9
ENDBRANCH   7   8
ENDBRANCH   4   7
ENDBRANCH   2   3
ENDBRANCH   1   2
BRANCH   1  24
ATOM     24  C   UNL A   1      34.955  20.752  25.353  1.00  0.00     0.002 C 
BRANCH  24  25
ATOM     25  C   UNL A   1      36.450  20.787  25.001  1.00  0.00     0.002 C 
BRANCH  25  26
ATOM     26  C   UNL A   1      36.954  22.137  24.483  1.00  0.00     0.021 C 
BRANCH  26  27
ATOM     27  C   UNL A   1      37.473  23.007  25.598  1.00  0.00     0.116 C 
BRANCH  27  28
ATOM     28  N   UNL A   1      38.651  22.395  26.197  1.00  0.00    -0.352 N 
ATOM     29  C   UNL A   1      39.840  22.994  26.525  1.00  0.00     0.251 C 
ATOM     30  H   UNL A   1      38.585  21.432  26.389  1.00  0.00     0.163 HD
ATOM     31  O   UNL A   1      40.877  22.352  26.547  1.00  0.00    -0.269 OA
BRANCH  29  32
ATOM     32  C   UNL A   1      39.816  24.408  26.929  1.00  0.00     0.039 A 
ATOM     33  C   UNL A   1      40.401  25.396  26.127  1.00  0.00     0.014 A 
ATOM     34  C   UNL A   1      39.332  24.716  28.197  1.00  0.00     0.014 A 
ATOM     35  C   UNL A   1      40.562  26.674  26.646  1.00  0.00     0.010 A 
ATOM     36  C   UNL A   1      39.282  25.998  28.616  1.00  0.00     0.010 A 
ATOM     37  C   UNL A   1      40.031  26.927  27.907  1.00  0.00    -0.014 A 
BRANCH  37  38
ATOM     38  C   UNL A   1      40.264  28.099  28.708  1.00  0.00     0.031 A 
ATOM     39  C   UNL A   1      39.279  29.166  28.656  1.00  0.00     0.074 A 
ATOM     40  C   UNL A   1      41.196  27.921  29.673  1.00  0.00     0.049 A 
ATOM     41  N   UNL A   1      39.531  30.375  28.991  1.00  0.00    -0.248 NA
ATOM     42  C   UNL A   1      37.906  28.955  28.198  1.00  0.00     0.031 C 
ATOM     43  C   UNL A   1      41.414  28.618  30.927  1.00  0.00     0.029 A 
ATOM     44  N   UNL A   1      42.235  26.972  29.639  1.00  0.00    -0.354 N 
ATOM     45  C   UNL A   1      38.309  30.977  29.173  1.00  0.00     0.074 A 
ATOM     46  C   UNL A   1      37.350  30.133  28.501  1.00  0.00     0.031 C 
ATOM     47  C   UNL A   1      42.660  28.333  31.359  1.00  0.00     0.029 A 
ATOM     48  C   UNL A   1      43.320  27.555  30.319  1.00  0.00     0.049 A 
ATOM     49  H   UNL A   1      42.208  26.079  29.225  1.00  0.00     0.167 HD
ATOM     50  C   UNL A   1      38.227  32.000  30.069  1.00  0.00     0.037 A 
ATOM     51  C   UNL A   1      44.376  27.960  29.548  1.00  0.00     0.037 A 
ATOM     52  C   UNL A   1      39.522  32.192  30.732  1.00  0.00     0.049 A 
ATOM     53  C   UNL A   1      44.433  29.468  29.397  1.00  0.00     0.074 A 
ATOM     54  C   UNL A   1      40.056  31.777  31.941  1.00  0.00     0.029 A 
ATOM     55  N   UNL A   1      40.606  32.536  29.952  1.00  0.00    -0.354 N 
ATOM     56  N   UNL A   1      43.525  30.284  29.861  1.00  0.00    -0.248 NA
ATOM     57  C   UNL A   1      45.485  30.172  28.671  1.00  0.00     0.031 C 
ATOM     58  C   UNL A   1      41.481  31.878  31.857  1.00  0.00     0.029 A 
ATOM     59  C   UNL A   1      41.809  32.353  30.600  1.00  0.00     0.049 A 
ATOM     60  H   UNL A   1      40.530  32.875  29.030  1.00  0.00     0.167 HD
ATOM     61  C   UNL A   1      43.821  31.568  29.510  1.00  0.00     0.074 A 
ATOM     62  C   UNL A   1      45.052  31.443  28.743  1.00  0.00     0.031 C 
ATOM     63  C   UNL A   1      43.030  32.629  29.858  1.00  0.00     0.037 A 
BRANCH  50  64
ATOM     64  C   UNL A   1      36.946  32.636  30.528  1.00  0.00     0.064 A 
ATOM     65  C   UNL A   1      36.237  33.506  29.675  1.00  0.00     0.173 A 
ATOM     66  C   UNL A   1      36.339  32.397  31.777  1.00  0.00     0.173 A 
ATOM     67  F   UNL A   1      36.669  33.780  28.438  1.00  0.00    -0.203 F 
ATOM     68  C   UNL A   1      35.049  34.128  30.057  1.00  0.00     0.198 A 
ATOM     69  C   UNL A   1      35.172  33.057  32.178  1.00  0.00     0.198 A 
ATOM     70  F   UNL A   1      36.827  31.484  32.627  1.00  0.00    -0.203 F 
ATOM     71  F   UNL A   1      34.416  34.933  29.193  1.00  0.00    -0.200 F 
ATOM     72  C   UNL A   1      34.525  33.920  31.316  1.00  0.00     0.200 A 
ATOM     73  F   UNL A   1      34.669  32.838  33.402  1.00  0.00    -0.200 F 
ATOM     74  F   UNL A   1      33.392  34.529  31.687  1.00  0.00    -0.200 F 
ENDBRANCH  50  64
BRANCH  51  75
ATOM     75  C   UNL A   1      44.657  26.945  28.472  1.00  0.00     0.064 A 
ATOM     76  C   UNL A   1      44.340  27.321  27.145  1.00  0.00     0.173 A 
ATOM     77  C   UNL A   1      45.631  25.950  28.636  1.00  0.00     0.173 A 
ATOM     78  F   UNL A   1      43.402  28.256  26.921  1.00  0.00    -0.203 F 
ATOM     79  C   UNL A   1      45.100  26.879  26.064  1.00  0.00     0.198 A 
ATOM     80  C   UNL A   1      46.364  25.478  27.540  1.00  0.00     0.198 A 
ATOM     81  F   UNL A   1      45.970  25.528  29.863  1.00  0.00    -0.203 F 
ATOM     82  F   UNL A   1      44.895  27.399  24.844  1.00  0.00    -0.200 F 
ATOM     83  C   UNL A   1      46.136  25.985  26.269  1.00  0.00     0.200 A 
ATOM     84  F   UNL A   1      47.356  24.596  27.733  1.00  0.00    -0.200 F 
ATOM     85  F   UNL A   1      46.934  25.645  25.247  1.00  0.00    -0.200 F 
ENDBRANCH  51  75
BRANCH  63  86
ATOM     86  C   UNL A   1      43.347  34.050  29.475  1.00  0.00     0.064 A 
ATOM     87  C   UNL A   1      43.398  34.462  28.137  1.00  0.00     0.173 A 
ATOM     88  C   UNL A   1      43.700  35.031  30.431  1.00  0.00     0.173 A 
ATOM     89  F   UNL A   1      43.215  33.584  27.139  1.00  0.00    -0.203 F 
ATOM     90  C   UNL A   1      43.658  35.788  27.790  1.00  0.00     0.198 A 
ATOM     91  C   UNL A   1      44.030  36.333  30.078  1.00  0.00     0.198 A 
ATOM     92  F   UNL A   1      43.708  34.783  31.747  1.00  0.00    -0.203 F 
ATOM     93  F   UNL A   1      43.599  36.158  26.504  1.00  0.00    -0.200 F 
ATOM     94  C   UNL A   1      43.976  36.722  28.760  1.00  0.00     0.200 A 
ATOM     95  F   UNL A   1      44.385  37.207  31.031  1.00  0.00    -0.200 F 
ATOM     96  F   UNL A   1      44.227  37.993  28.424  1.00  0.00    -0.200 F 
ENDBRANCH  63  86
ENDBRANCH  37  38
ENDBRANCH  29  32
ENDBRANCH  27  28
ENDBRANCH  26  27
ENDBRANCH  25  26
ENDBRANCH  24  25
ENDBRANCH   1  24
TORSDOF 18
ENDMDL
MODEL 3
REMARK VINA RESULT:     -11.3      1.552      2.469
REMARK SMILES Cc1ccc([C@@H](C)[NH2+][C@@H](C)CCC(=O)NCCCCCCNC(=O)c2ccc(-c3c4nc(c(-c5c(F)c(F)c(F)c(F)c5F)c5ccc([nH]5)c(-c5c(F)c(F)c(F)c(F)c5F)c5nc(c(-c6c(F)c(F)c(F)c(F)c6F)c6ccc3[nH]6)C=C5)C=C4)cc2)cc1F
REMARK SMILES IDX 17 1 16 2 15 3 13 4 14 5 12 7 11 8 9 9 10 10 8 11 6 14 7 15
REMARK SMILES IDX 5 16 1 17 2 18 3 19 89 20 4 21 88 22 90 23 18 24 19 25 20 26
REMARK SMILES IDX 21 27 22 28 23 29 24 31 25 32 26 33 87 34 27 35 86 36 28 37
REMARK SMILES IDX 29 38 30 39 80 40 31 41 85 42 79 43 81 44 32 45 84 46 78 47
REMARK SMILES IDX 77 48 33 50 65 51 45 52 64 53 46 54 49 55 63 56 82 57 47 58
REMARK SMILES IDX 48 59 62 61 83 62 50 63 34 64 35 65 43 66 36 67 37 68 41 69
REMARK SMILES IDX 44 70 38 71 39 72 42 73 40 74 66 75 67 76 75 77 68 78 69 79
REMARK SMILES IDX 73 80 76 81 70 82 71 83 74 84 72 85 51 86 52 87 60 88 53 89
REMARK SMILES IDX 54 90 58 91 61 92 55 93 56 94 59 95 57 96
REMARK H PARENT 15 6 8 12 8 13 22 30 81 49 49 60
REMARK Flexibility Score: inf
ROOT
ATOM      1  C   UNL A   1      32.586  28.491  23.648  1.00  0.00     0.021 C 
ENDROOT
BRANCH   1   2
ATOM      2  C   UNL A   1      31.500  27.859  22.772  1.00  0.00     0.116 C 
BRANCH   2   3
ATOM      3  N   UNL A   1      32.095  27.223  21.627  1.00  0.00    -0.356 N 
ATOM      4  C   UNL A   1      32.454  25.920  21.478  1.00  0.00     0.220 C 
ATOM      5  O   UNL A   1      33.074  25.602  20.463  1.00  0.00    -0.275 OA
ATOM      6  H   UNL A   1      32.263  27.806  20.852  1.00  0.00     0.163 HD
BRANCH   4   7
ATOM      7  C   UNL A   1      32.081  24.893  22.533  1.00  0.00     0.106 C 
BRANCH   7   8
ATOM      8  C   UNL A   1      33.243  24.479  23.443  1.00  0.00     0.074 C 
BRANCH   8   9
ATOM      9  C   UNL A   1      33.141  24.886  24.936  1.00  0.00     0.180 C 
ATOM     10  C   UNL A   1      34.433  25.608  25.340  1.00  0.00     0.075 C 
BRANCH   9  11
ATOM     11  N   UNL A   1      32.866  23.705  25.773  1.00  0.00    -0.338 N 
ATOM     12  H   UNL A   1      33.763  23.284  26.016  1.00  0.00     0.347 HD
ATOM     13  H   UNL A   1      32.329  24.058  26.564  1.00  0.00     0.347 HD
BRANCH  11  14
ATOM     14  C   UNL A   1      32.028  22.651  25.180  1.00  0.00     0.210 C 
ATOM     15  C   UNL A   1      30.791  22.269  25.997  1.00  0.00     0.081 C 
BRANCH  14  16
ATOM     16  C   UNL A   1      32.832  21.389  24.872  1.00  0.00     0.012 A 
ATOM     17  C   UNL A   1      34.948  17.634  24.382  1.00  0.00     0.047 C 
ATOM     18  C   UNL A   1      34.213  18.932  24.526  1.00  0.00    -0.015 A 
ATOM     19  C   UNL A   1      32.843  19.008  24.284  1.00  0.00     0.007 A 
ATOM     20  C   UNL A   1      34.885  20.096  24.906  1.00  0.00     0.126 A 
ATOM     21  C   UNL A   1      32.169  20.221  24.451  1.00  0.00     0.010 A 
ATOM     22  C   UNL A   1      34.214  21.309  25.082  1.00  0.00     0.049 A 
ATOM     23  F   UNL A   1      36.206  20.051  25.135  1.00  0.00    -0.207 F 
ENDBRANCH  14  16
ENDBRANCH  11  14
ENDBRANCH   9  11
ENDBRANCH   8   9
ENDBRANCH   7   8
ENDBRANCH   4   7
ENDBRANCH   2   3
ENDBRANCH   1   2
BRANCH   1  24
ATOM     24  C   UNL A   1      32.037  29.194  24.887  1.00  0.00     0.002 C 
BRANCH  24  25
ATOM     25  C   UNL A   1      32.470  28.566  26.221  1.00  0.00     0.002 C 
BRANCH  25  26
ATOM     26  C   UNL A   1      33.142  29.535  27.197  1.00  0.00     0.021 C 
BRANCH  26  27
ATOM     27  C   UNL A   1      34.620  29.276  27.316  1.00  0.00     0.116 C 
BRANCH  27  28
ATOM     28  N   UNL A   1      35.345  30.540  27.329  1.00  0.00    -0.352 N 
ATOM     29  C   UNL A   1      36.507  30.841  27.994  1.00  0.00     0.251 C 
ATOM     30  H   UNL A   1      34.953  31.266  26.794  1.00  0.00     0.163 HD
ATOM     31  O   UNL A   1      36.751  31.986  28.335  1.00  0.00    -0.269 OA
BRANCH  29  32
ATOM     32  C   UNL A   1      37.484  29.762  28.207  1.00  0.00     0.039 A 
ATOM     33  C   UNL A   1      37.442  28.973  29.364  1.00  0.00     0.014 A 
ATOM     34  C   UNL A   1      38.537  29.648  27.305  1.00  0.00     0.014 A 
ATOM     35  C   UNL A   1      38.510  28.127  29.637  1.00  0.00     0.010 A 
ATOM     36  C   UNL A   1      39.458  28.672  27.450  1.00  0.00     0.010 A 
ATOM     37  C   UNL A   1      39.517  28.035  28.682  1.00  0.00    -0.014 A 
BRANCH  37  38
ATOM     38  C   UNL A   1      40.793  27.393  28.853  1.00  0.00     0.031 A 
ATOM     39  C   UNL A   1      40.881  25.969  28.577  1.00  0.00     0.074 A 
ATOM     40  C   UNL A   1      41.833  28.257  28.918  1.00  0.00     0.049 A 
ATOM     41  N   UNL A   1      41.808  25.217  29.039  1.00  0.00    -0.248 NA
ATOM     42  C   UNL A   1      39.903  25.259  27.754  1.00  0.00     0.031 C 
ATOM     43  C   UNL A   1      43.244  28.073  28.637  1.00  0.00     0.029 A 
ATOM     44  N   UNL A   1      41.751  29.602  29.327  1.00  0.00    -0.354 N 
ATOM     45  C   UNL A   1      41.779  24.072  28.278  1.00  0.00     0.074 A 
ATOM     46  C   UNL A   1      40.487  24.063  27.632  1.00  0.00     0.031 C 
ATOM     47  C   UNL A   1      43.924  29.100  29.191  1.00  0.00     0.029 A 
ATOM     48  C   UNL A   1      42.974  29.893  29.958  1.00  0.00     0.049 A 
ATOM     49  H   UNL A   1      40.992  30.215  29.196  1.00  0.00     0.167 HD
ATOM     50  C   UNL A   1      42.943  23.387  28.108  1.00  0.00     0.037 A 
ATOM     51  C   UNL A   1      42.939  30.027  31.321  1.00  0.00     0.037 A 
ATOM     52  C   UNL A   1      44.048  24.107  28.751  1.00  0.00     0.049 A 
ATOM     53  C   UNL A   1      43.544  28.830  32.031  1.00  0.00     0.074 A 
ATOM     54  C   UNL A   1      45.023  24.980  28.296  1.00  0.00     0.029 A 
ATOM     55  N   UNL A   1      43.988  24.303  30.115  1.00  0.00    -0.354 N 
ATOM     56  N   UNL A   1      43.957  27.751  31.422  1.00  0.00    -0.248 NA
ATOM     57  C   UNL A   1      43.683  28.732  33.480  1.00  0.00     0.031 C 
ATOM     58  C   UNL A   1      45.536  25.700  29.421  1.00  0.00     0.029 A 
ATOM     59  C   UNL A   1      44.873  25.265  30.554  1.00  0.00     0.049 A 
ATOM     60  H   UNL A   1      43.380  23.809  30.711  1.00  0.00     0.167 HD
ATOM     61  C   UNL A   1      44.385  26.831  32.333  1.00  0.00     0.074 A 
ATOM     62  C   UNL A   1      44.172  27.486  33.615  1.00  0.00     0.031 C 
ATOM     63  C   UNL A   1      44.863  25.600  31.970  1.00  0.00     0.037 A 
BRANCH  50  64
ATOM     64  C   UNL A   1      43.129  22.235  27.161  1.00  0.00     0.064 A 
ATOM     65  C   UNL A   1      44.149  22.270  26.189  1.00  0.00     0.173 A 
ATOM     66  C   UNL A   1      42.366  21.051  27.185  1.00  0.00     0.173 A 
ATOM     67  F   UNL A   1      44.985  23.311  26.087  1.00  0.00    -0.203 F 
ATOM     68  C   UNL A   1      44.356  21.231  25.282  1.00  0.00     0.198 A 
ATOM     69  C   UNL A   1      42.543  20.029  26.246  1.00  0.00     0.198 A 
ATOM     70  F   UNL A   1      41.460  20.823  28.147  1.00  0.00    -0.203 F 
ATOM     71  F   UNL A   1      45.354  21.321  24.391  1.00  0.00    -0.200 F 
ATOM     72  C   UNL A   1      43.541  20.119  25.296  1.00  0.00     0.200 A 
ATOM     73  F   UNL A   1      41.749  18.949  26.278  1.00  0.00    -0.200 F 
ATOM     74  F   UNL A   1      43.732  19.129  24.415  1.00  0.00    -0.200 F 
ENDBRANCH  50  64
BRANCH  51  75
ATOM     75  C   UNL A   1      41.708  30.784  31.741  1.00  0.00     0.064 A 
ATOM     76  C   UNL A   1      41.544  32.081  31.200  1.00  0.00     0.173 A 
ATOM     77  C   UNL A   1      40.549  30.121  32.171  1.00  0.00     0.173 A 
ATOM     78  F   UNL A   1      42.618  32.774  30.787  1.00  0.00    -0.203 F 
ATOM     79  C   UNL A   1      40.279  32.594  30.914  1.00  0.00     0.198 A 
ATOM     80  C   UNL A   1      39.282  30.661  31.919  1.00  0.00     0.198 A 
ATOM     81  F   UNL A   1      40.628  28.898  32.712  1.00  0.00    -0.203 F 
ATOM     82  F   UNL A   1      40.162  33.741  30.230  1.00  0.00    -0.200 F 
ATOM     83  C   UNL A   1      39.150  31.865  31.242  1.00  0.00     0.200 A 
ATOM     84  F   UNL A   1      38.184  29.966  32.254  1.00  0.00    -0.200 F 
ATOM     85  F   UNL A   1      37.941  32.308  30.870  1.00  0.00    -0.200 F 
ENDBRANCH  51  75
BRANCH  63  86
ATOM     86  C   UNL A   1      45.338  24.577  32.967  1.00  0.00     0.064 A 
ATOM     87  C   UNL A   1      46.633  24.607  33.499  1.00  0.00     0.173 A 
ATOM     88  C   UNL A   1      44.540  23.476  33.358  1.00  0.00     0.173 A 
ATOM     89  F   UNL A   1      47.521  25.527  33.095  1.00  0.00    -0.203 F 
ATOM     90  C   UNL A   1      47.055  23.675  34.448  1.00  0.00     0.198 A 
ATOM     91  C   UNL A   1      44.989  22.508  34.248  1.00  0.00     0.198 A 
ATOM     92  F   UNL A   1      43.285  23.305  32.924  1.00  0.00    -0.203 F 
ATOM     93  F   UNL A   1      48.268  23.802  35.003  1.00  0.00    -0.200 F 
ATOM     94  C   UNL A   1      46.234  22.627  34.821  1.00  0.00     0.200 A 
ATOM     95  F   UNL A   1      44.195  21.473  34.555  1.00  0.00    -0.200 F 
ATOM     96  F   UNL A   1      46.642  21.733  35.731  1.00  0.00    -0.200 F 
ENDBRANCH  63  86
ENDBRANCH  37  38
ENDBRANCH  29  32
ENDBRANCH  27  28
ENDBRANCH  26  27
ENDBRANCH  25  26
ENDBRANCH  24  25
ENDBRANCH   1  24
TORSDOF 18
ENDMDL
